data_PCOD9092183
_publ_section_title
;
Structure prediction by ZEFSAII (Michael W. Deem and Ramdas Pophale) SiO2 
 PCOD9092183
Probable space group: P -1
;
_chemical_formula_sum "Si O2"
_cell_formula_units_Z 12
_cell_length_a 8.987574
_cell_length_b 12.585264
_cell_length_c 10.996514
_cell_angle_alpha 49.786734
_cell_angle_beta 42.633052
_cell_angle_gamma 79.403507
_cell_volume 531.758439
_symmetry_space_group_name_H-M "P -1"
_symmetry_group_IT_number 2
_symmetry_cell_setting 'triclinic'
loop_
_space_group_symop_operation_xyz
x,y,z
-x,-y,-z
loop_
_atom_site_type_symbol
_atom_site_label
_atom_site_fract_x
_atom_site_fract_y
_atom_site_fract_z
Si Si1 0.064480 0.359677 0.451967
Si Si2 0.180065 0.475832 0.650495
Si Si3 0.898288 0.292842 0.341245
Si Si4 0.917862 0.903727 0.245816
Si Si5 0.204963 0.877024 0.715920
Si Si6 0.484778 0.554327 0.725241
O O1 0.960825 0.478089 0.403049
O O2 0.995359 0.265957 0.431860
O O3 0.951821 0.201383 0.729055
O O4 0.368030 0.475540 0.230060
O O5 0.407179 0.475662 0.441448
O O6 0.268869 0.630885 0.574484
O O7 0.970580 0.299467 0.972923
O O8 0.779086 0.154041 0.412888
O O9 0.174662 0.443814 0.006782
O O10 0.610117 0.749690 0.527873
O O11 0.942137 0.027841 0.242575
O O12 0.000000 0.000000 0.000000
O O13 0.500000 0.000000 0.500000
#
# Coordination Sequence:
#
# PCOD9092183 Si02
#       6
#     2   2   2   2   2   2
#     4   8  21  38  63  94 128 164 210 250 311 384
#     4  10  21  40  65  94 124 169 216 251 307 383
#     4  10  23  39  63  98 124 165 217 255 309 378
#     4  10  21  40  62  94 128 165 204 257 321 368
#     4  12  24  41  62  91 131 166 211 270 314 364
#     4  10  19  40  67  92 126 167 206 256 310 382
#
# _framework density 22.566638000000001
#
# number of rings (size 3 to 8) (size 9 to 14) (size 15 to 20)
#    2.000    0.000    1.667    2.500    0.000    1.333 
#    3.000    0.000    0.000    5.000    0.000    0.000 
#    0.000    0.000    0.000    0.000    0.000    0.000 
#
# Total GULP energy -66822.343207 kJ/mol
# GULP energy per Si atom -5568.528601 kJ/mol
# Density = 2.251527 g / cm^3
# Si number density = 22.566638 Si / 1000 Ang^3
#
#
#
# Elastic Constant Matrix: (Units=GPa)
#
#
# Indices 1 2 3 4 5 6 
#
# 1 95.0211 33.1548 14.5404 5.4966 10.2615 -0.6479
# 2 33.1548 160.0465 10.1130 4.3525 -0.2207 9.9220
# 3 14.5404 10.1130 46.7519 1.3255 15.4785 -2.8547
# 4 5.4966 4.3525 1.3255 31.3106 -0.6816 4.0915
# 5 10.2615 -0.2207 15.4785 -0.6816 32.6098 -6.9404
# 6 -0.6479 9.9220 -2.8547 4.0915 -6.9404 49.3963
#
#
#
# Elastic Compliance Matrix: (Units=1/GPa)
#
#
# Indices 1 2 3 4 5 6 
#
# 1 0.012086 -0.002330 -0.002289 -0.001794 -0.002714 0.000262
# 2 -0.002330 0.006897 -0.001189 -0.000305 0.001059 -0.001311
# 3 -0.002289 -0.001189 0.026280 -0.000820 -0.011748 0.000145
# 4 -0.001794 -0.000305 -0.000820 0.032689 0.001089 -0.002564
# 5 -0.002714 0.001059 -0.011748 0.001089 0.038047 0.004328
# 6 0.000262 -0.001311 0.000145 -0.002564 0.004328 0.021340
#
#
# Mechanical properties :
#
#
# Convention : Reuss Voigt Hill
#
# Bulk Modulus (GPa) = 29.72141 46.38176 38.05158
# Shear Modulus (GPa) = 31.21633 38.93076 35.07355
#
# Velocity S-wave (km/s) = 3.72330 4.15799 3.94664
# Velocity P-wave (km/s) = 5.62877 6.60680 6.13730
#
# Compressibility (1/GPa) = 0.03364578
#
# Stress axis : x y z
#
# Youngs Moduli (GPa) = 82.74004 144.98943 38.05112
#
# Poissons Ratio (x) = 0.33786 0.08712
# Poissons Ratio (y) = 0.19280 0.04525
# Poissons Ratio (z) = 0.18943 0.17242
#
# Static dielectric constant tensor:
#      x y z
#    x 1.950300 0.032350 0.001750 
#    y 0.032350 1.947680 -0.006430 
#    z 0.001750 -0.006430 1.823160 
# 
# From -- ./inp_files/390295.got.cif
#   From: 2010.05.17/outbox.cif.g08.bks.cpg/sg2_196_cif.got.tgz:390295.got - 2010.06.03 11:33:40.
