data_PCOD9092784
_publ_section_title
;
Structure prediction by ZEFSAII (Michael W. Deem and Ramdas Pophale) SiO2 
 PCOD9092784
Probable space group: P -1
;
_chemical_formula_sum "Si O2"
_cell_formula_units_Z 16
_cell_length_a 9.863582
_cell_length_b 23.725026
_cell_length_c 6.482130
_cell_angle_alpha 50.873397
_cell_angle_beta 47.214468
_cell_angle_gamma 44.095810
_cell_volume 743.591236
_symmetry_space_group_name_H-M "P -1"
_symmetry_group_IT_number 2
_symmetry_cell_setting 'triclinic'
loop_
_space_group_symop_operation_xyz
x,y,z
-x,-y,-z
loop_
_atom_site_type_symbol
_atom_site_label
_atom_site_fract_x
_atom_site_fract_y
_atom_site_fract_z
Si Si1 0.157148 0.746319 0.821349
Si Si2 0.562345 0.855111 0.116910
Si Si3 0.255376 0.060838 0.549386
Si Si4 0.216283 0.180401 0.640702
Si Si5 0.430469 0.564273 0.117224
Si Si6 0.115968 0.288854 0.109332
Si Si7 0.907149 0.070360 0.611451
Si Si8 0.845827 0.464129 0.192275
O O1 0.159002 0.833265 0.606439
O O2 0.070161 0.728621 0.739258
O O3 0.356785 0.657647 0.892190
O O4 0.976712 0.764633 0.135101
O O5 0.573272 0.864105 0.330420
O O6 0.328820 0.911523 0.132247
O O7 0.710546 0.887917 0.789916
O O8 0.687180 0.756198 0.152350
O O9 0.164850 0.117035 0.717965
O O10 0.086769 0.039862 0.673173
O O11 0.500000 0.000000 0.500000
O O12 0.226226 0.238118 0.320914
O O13 0.632795 0.530996 0.136696
O O14 0.242213 0.563064 0.452836
O O15 0.500000 0.500000 0.000000
O O16 0.988668 0.385906 0.072762
O O17 0.000000 0.000000 0.500000
O O18 0.000000 0.500000 0.000000
#
# Coordination Sequence:
#
# PCOD9092784 Si02
#       8
#     2   2   2   2   2   2   2   2
#     4  11  22  44  69  95 137 183 222 279 344 407
#     4  10  24  43  65  97 129 176 230 279 338 410
#     4  11  24  43  66  93 130 177 218 287 349 398
#     4  10  19  42  69  86 129 182 216 269 340 400
#     4  11  24  44  72 101 144 189 226 282 356 416
#     4  10  20  44  68  95 137 181 221 273 345 407
#     4  12  26  44  67 104 136 175 234 285 337 407
#     4  11  25  43  68 111 139 177 236 290 340 419
#
# _framework density 21.517199000000002
#
# number of rings (size 3 to 8) (size 9 to 14) (size 15 to 20)
#    0.000    1.250    6.250    0.750    1.750    4.000 
#    6.750    0.000    0.000    0.000    0.000    0.000 
#    0.000    0.000    0.000    0.000    0.000    0.000 
#
# Total GULP energy -89184.137480 kJ/mol
# GULP energy per Si atom -5574.008592 kJ/mol
# Density = 2.146822 g / cm^3
# Si number density = 21.517199 Si / 1000 Ang^3
#
#
#
# Elastic Constant Matrix: (Units=GPa)
#
#
# Indices 1 2 3 4 5 6 
#
# 1 150.5446 56.2345 43.3428 -0.1611 4.6667 -2.8569
# 2 56.2345 123.5870 23.0170 -3.9166 -0.7692 8.2831
# 3 43.3428 23.0170 63.4023 -6.0841 0.7923 0.5824
# 4 -0.1611 -3.9166 -6.0841 33.9348 -5.1052 1.7947
# 5 4.6667 -0.7692 0.7923 -5.1052 38.4381 -2.8969
# 6 -2.8569 8.2831 0.5824 1.7947 -2.8969 34.4536
#
#
#
# Elastic Compliance Matrix: (Units=1/GPa)
#
#
# Indices 1 2 3 4 5 6 
#
# 1 0.009592 -0.003526 -0.005432 -0.001608 -0.001207 0.001717
# 2 -0.003526 0.010131 -0.001136 0.001184 0.000607 -0.002720
# 3 -0.005432 -0.001136 0.020242 0.003604 0.000649 -0.000653
# 4 -0.001608 0.001184 0.003604 0.030956 0.004125 -0.001745
# 5 -0.001207 0.000607 0.000649 0.004125 0.026844 0.001785
# 6 0.001717 -0.002720 -0.000653 -0.001745 0.001785 0.030073
#
#
# Mechanical properties :
#
#
# Convention : Reuss Voigt Hill
#
# Bulk Modulus (GPa) = 50.56671 64.74698 57.65684
# Shear Modulus (GPa) = 32.33753 35.69461 34.01607
#
# Velocity S-wave (km/s) = 3.88089 4.07736 3.98034
# Velocity P-wave (km/s) = 6.60556 7.23344 6.92662
#
# Compressibility (1/GPa) = 0.01977586
#
# Stress axis : x y z
#
# Youngs Moduli (GPa) = 104.25321 98.70453 49.40236
#
# Poissons Ratio (x) = 0.34808 0.26835
# Poissons Ratio (y) = 0.36764 0.05613
# Poissons Ratio (z) = 0.56631 0.11215
#
# Static dielectric constant tensor:
#      x y z
#    x 1.807870 0.011070 0.012430 
#    y 0.011070 1.871860 -0.040640 
#    z 0.012430 -0.040640 1.807590 
# 
# From -- ./inp_files/52381.got.cif
#   From: 2010.05.17/outbox.cif.g08.bks.cpg/sg2_27_cif.got.tgz:52381.got - 2010.06.03 11:33:40.
