data_PCOD9092706
_publ_section_title
;
Structure prediction by ZEFSAII (Michael W. Deem and Ramdas Pophale) SiO2 
 PCOD9092706
Probable space group: P -1
;
_chemical_formula_sum "Si O2"
_cell_formula_units_Z 16
_cell_length_a 11.360637
_cell_length_b 17.504751
_cell_length_c 8.840079
_cell_angle_alpha 72.219779
_cell_angle_beta 67.613955
_cell_angle_gamma 130.935969
_cell_volume 745.852480
_symmetry_space_group_name_H-M "P -1"
_symmetry_group_IT_number 2
_symmetry_cell_setting 'triclinic'
loop_
_space_group_symop_operation_xyz
x,y,z
-x,-y,-z
loop_
_atom_site_type_symbol
_atom_site_label
_atom_site_fract_x
_atom_site_fract_y
_atom_site_fract_z
Si Si1 0.719389 0.695388 0.247714
Si Si2 0.222999 0.336857 0.318550
Si Si3 0.247626 0.899734 0.823324
Si Si4 0.931083 0.560572 0.176616
Si Si5 0.650419 0.440981 0.704141
Si Si6 0.583251 0.271207 0.097881
Si Si7 0.677886 0.034051 0.600266
Si Si8 0.401693 0.276387 0.434329
O O1 0.500000 0.500000 0.500000
O O2 0.633692 0.680541 0.135153
O O3 0.705415 0.765836 0.319811
O O4 0.011654 0.823453 0.045362
O O5 0.192927 0.395143 0.411218
O O6 0.269586 0.279022 0.414854
O O7 0.972839 0.200481 0.414956
O O8 0.500000 0.500000 0.000000
O O9 0.325388 0.974550 0.575276
O O10 0.504732 0.018950 0.723579
O O11 0.109167 0.737443 0.967190
O O12 0.790138 0.485909 0.456036
O O13 0.714163 0.449916 0.218416
O O14 0.130920 0.596636 0.056244
O O15 0.620670 0.359987 0.899617
O O16 0.392032 0.198005 0.369393
O O17 0.460926 0.122940 0.176161
#
# Coordination Sequence:
#
# PCOD9092706 Si02
#       8
#     2   2   2   2   2   2   2   2
#     4  11  19  38  69  93 124 164 215 270 296 369
#     4  12  21  38  65  96 116 163 221 268 295 376
#     4  10  19  42  65  89 124 174 216 251 319 373
#     4  10  20  40  66  90 129 169 213 265 303 378
#     4  11  21  37  68  98 121 166 221 259 314 368
#     4  11  24  40  59  97 135 167 200 264 329 380
#     4  10  25  40  65  92 135 167 203 268 328 367
#     4  11  21  36  63  94 119 164 220 253 307 370
#
# _framework density 21.451962000000002
#
# number of rings (size 3 to 8) (size 9 to 14) (size 15 to 20)
#    0.000    1.250    5.000    2.250    0.000    0.500 
#    2.250    6.250    8.250    0.000    0.000    0.000 
#    0.000    0.000    0.000    0.000    0.000    0.000 
#
# Total GULP energy -89169.078148 kJ/mol
# GULP energy per Si atom -5573.067384 kJ/mol
# Density = 2.140314 g / cm^3
# Si number density = 21.451962 Si / 1000 Ang^3
#
#
#
# Elastic Constant Matrix: (Units=GPa)
#
#
# Indices 1 2 3 4 5 6 
#
# 1 172.6619 41.6826 36.4939 -9.7601 -17.0260 12.3778
# 2 41.6826 49.1702 9.9467 4.3757 -15.4665 3.9895
# 3 36.4939 9.9467 47.0482 -0.8491 -22.0784 -1.8769
# 4 -9.7601 4.3757 -0.8491 19.7411 1.6489 -17.0372
# 5 -17.0260 -15.4665 -22.0784 1.6489 39.4226 -1.1524
# 6 12.3778 3.9895 -1.8769 -17.0372 -1.1524 36.1682
#
#
#
# Elastic Compliance Matrix: (Units=1/GPa)
#
#
# Indices 1 2 3 4 5 6 
#
# 1 0.009216 -0.008099 -0.006846 0.006714 -0.003299 0.000442
# 2 -0.008099 0.032895 0.004392 -0.020804 0.012444 -0.010032
# 3 -0.006846 0.004392 0.034256 -0.001283 0.018110 0.003609
# 4 0.006714 -0.020804 -0.001283 0.099354 -0.008779 0.046452
# 5 -0.003299 0.012444 0.018110 -0.008779 0.039269 -0.002188
# 6 0.000442 -0.010032 0.003609 0.046452 -0.002188 0.050603
#
#
# Mechanical properties :
#
#
# Convention : Reuss Voigt Hill
#
# Bulk Modulus (GPa) = 18.09615 49.45850 33.77732
# Shear Modulus (GPa) = 16.38698 31.11685 23.75191
#
# Velocity S-wave (km/s) = 2.76686 3.81272 3.33109
# Velocity P-wave (km/s) = 4.31987 6.51828 5.52943
#
# Compressibility (1/GPa) = 0.05526038
#
# Stress axis : x y z
#
# Youngs Moduli (GPa) = 108.50215 30.40021 29.19195
#
# Poissons Ratio (x) = 0.24621 0.19985
# Poissons Ratio (y) = 0.87877 -0.12821
# Poissons Ratio (z) = 0.74280 -0.13351
#
# Static dielectric constant tensor:
#      x y z
#    x 1.817080 0.028340 -0.017090 
#    y 0.028340 2.306880 0.308620 
#    z -0.017090 0.308620 1.988960 
# 
# From -- ./inp_files/279282.got.cif
#   From: 2010.05.17/outbox.cif.g08.bks.cpg/sg2_140_cif.got.tgz:279282.got - 2010.06.03 11:33:40.
