data_PCOD9092625
_publ_section_title
;
Structure prediction by ZEFSAII (Michael W. Deem and Ramdas Pophale) SiO2 
 PCOD9092625
Probable space group: P -1
;
_chemical_formula_sum "Si O2"
_cell_formula_units_Z 14
_cell_length_a 7.698725
_cell_length_b 8.395100
_cell_length_c 9.865773
_cell_angle_alpha 69.959426
_cell_angle_beta 63.948328
_cell_angle_gamma 84.687476
_cell_volume 536.900344
_symmetry_space_group_name_H-M "P -1"
_symmetry_group_IT_number 2
_symmetry_cell_setting 'triclinic'
loop_
_space_group_symop_operation_xyz
x,y,z
-x,-y,-z
loop_
_atom_site_type_symbol
_atom_site_label
_atom_site_fract_x
_atom_site_fract_y
_atom_site_fract_z
Si Si1 0.328610 0.852976 0.577238
Si Si2 0.510285 0.113103 0.100167
Si Si3 0.539623 0.495522 0.323074
Si Si4 0.250252 0.576406 0.169338
Si Si5 0.093232 0.210670 0.294873
Si Si6 0.368920 0.180716 0.708108
Si Si7 0.953044 0.695395 0.415563
O O1 0.362626 0.675994 0.690322
O O2 0.399221 0.808950 0.412274
O O3 0.500000 0.000000 0.500000
O O4 0.105011 0.875457 0.672567
O O5 0.290675 0.124412 0.224313
O O6 0.653961 0.010463 0.175826
O O7 0.593591 0.307395 0.000590
O O8 0.500000 0.000000 0.000000
O O9 0.500000 0.500000 0.500000
O O10 0.361450 0.499497 0.281767
O O11 0.657986 0.676779 0.210406
O O12 0.134586 0.413547 0.188358
O O13 0.111766 0.714527 0.237348
O O14 0.042940 0.209886 0.471844
O O15 0.238584 0.242901 0.611593
O O16 0.000000 0.500000 0.500000
#
# Coordination Sequence:
#
# PCOD9092625 Si02
#       7
#     2   2   2   2   2   2   2
#     4  11  25  44  74 114 141 180 257 338 375 434
#     4  12  28  48  70 108 166 211 245 306 376 465
#     4  10  19  41  71 104 144 190 244 309 374 440
#     4  11  23  47  76 109 153 205 248 305 385 454
#     4  11  25  47  77 109 150 201 260 316 381 449
#     4  11  24  44  74 110 155 196 251 310 380 451
#     4  10  21  43  81 115 140 192 258 319 375 440
#
# _framework density 26.075600000000001
#
# number of rings (size 3 to 8) (size 9 to 14) (size 15 to 20)
#    0.000    1.143    1.429    7.286    4.000    2.286 
#    0.000    0.714    0.000    0.000    0.000    0.000 
#    0.000    0.000    0.000    0.000    0.000    0.000 
#
# Total GULP energy -78075.063597 kJ/mol
# GULP energy per Si atom -5576.790257 kJ/mol
# Density = 2.601625 g / cm^3
# Si number density = 26.075600 Si / 1000 Ang^3
#
#
#
# Elastic Constant Matrix: (Units=GPa)
#
#
# Indices 1 2 3 4 5 6 
#
# 1 151.2485 69.8260 55.8932 -17.9195 -15.1122 -13.2302
# 2 69.8260 172.8875 52.6624 -22.9766 -16.4045 -10.5504
# 3 55.8932 52.6624 71.0977 -15.8640 -4.9648 -17.6623
# 4 -17.9195 -22.9766 -15.8640 60.9865 -2.7998 -1.4489
# 5 -15.1122 -16.4045 -4.9648 -2.7998 36.2014 0.0018
# 6 -13.2302 -10.5504 -17.6623 -1.4489 0.0018 53.7052
#
#
#
# Elastic Compliance Matrix: (Units=1/GPa)
#
#
# Indices 1 2 3 4 5 6 
#
# 1 0.010116 -0.001837 -0.006208 0.000788 0.002600 0.000111
# 2 -0.001837 0.008235 -0.004165 0.001591 0.002517 -0.000162
# 3 -0.006208 -0.004165 0.024020 0.002945 -0.000957 0.005631
# 4 0.000788 0.001591 0.002945 0.018172 0.002859 0.001965
# 5 0.002600 0.002517 -0.000957 0.002859 0.029939 0.000896
# 6 0.000111 -0.000162 0.005631 0.001965 0.000896 0.020521
#
#
# Mechanical properties :
#
#
# Convention : Reuss Voigt Hill
#
# Bulk Modulus (GPa) = 55.70396 83.55522 69.62959
# Shear Modulus (GPa) = 35.35924 44.63545 39.99734
#
# Velocity S-wave (km/s) = 3.68642 4.14184 3.92075
# Velocity P-wave (km/s) = 6.28717 7.41527 6.87440
#
# Compressibility (1/GPa) = 0.01795204
#
# Stress axis : x y z
#
# Youngs Moduli (GPa) = 98.84902 121.43176 41.63278
#
# Poissons Ratio (x) = 0.22304 0.25844
# Poissons Ratio (y) = 0.18156 0.17341
# Poissons Ratio (z) = 0.61361 0.50578
#
# Static dielectric constant tensor:
#      x y z
#    x 2.169200 0.094260 -0.020350 
#    y 0.094260 2.206720 0.032700 
#    z -0.020350 0.032700 2.250570 
# 
# From -- ./inp_files/381236.got.cif
#   From: 2010.05.17/outbox.cif.g08.bks.cpg/sg2_191_cif.got.tgz:381236.got - 2010.06.03 11:33:40.
