data_PCOD9092222
_publ_section_title
;
Structure prediction by ZEFSAII (Michael W. Deem and Ramdas Pophale) SiO2 
 PCOD9092222
Probable space group: P -1
;
_chemical_formula_sum "Si O2"
_cell_formula_units_Z 14
_cell_length_a 11.454285
_cell_length_b 11.109940
_cell_length_c 13.927213
_cell_angle_alpha 140.761395
_cell_angle_beta 145.532630
_cell_angle_gamma 50.819414
_cell_volume 634.350977
_symmetry_space_group_name_H-M "P -1"
_symmetry_group_IT_number 2
_symmetry_cell_setting 'triclinic'
loop_
_space_group_symop_operation_xyz
x,y,z
-x,-y,-z
loop_
_atom_site_type_symbol
_atom_site_label
_atom_site_fract_x
_atom_site_fract_y
_atom_site_fract_z
Si Si1 0.058037 0.717473 0.652959
Si Si2 0.244147 0.319835 0.076071
Si Si3 0.716976 0.318143 0.410180
Si Si4 0.838396 0.245599 0.661864
Si Si5 0.350788 0.075449 0.527812
Si Si6 0.148487 0.253790 0.188811
Si Si7 0.278679 0.838021 0.061631
O O1 0.135916 0.743960 0.614004
O O2 0.000000 0.500000 0.500000
O O3 0.848988 0.831423 0.595829
O O4 0.232113 0.777913 0.884332
O O5 0.481211 0.270871 0.194943
O O6 0.228368 0.548458 0.215859
O O7 0.165296 0.244666 0.079610
O O8 0.085517 0.245327 0.842692
O O9 0.772283 0.233494 0.499023
O O10 0.746717 0.547661 0.584701
O O11 0.733333 0.086796 0.558197
O O12 0.500377 0.212421 0.777300
O O13 0.500000 0.000000 0.500000
O O14 0.254657 0.067417 0.187914
O O15 0.910972 0.247395 0.057370
#
# Coordination Sequence:
#
# PCOD9092222 Si02
#       7
#     2   2   2   2   2   2   2
#     4  12  28  46  63 101 142 174 222 278 337 403
#     4  10  20  37  67  97 133 172 221 271 336 386
#     4  11  23  42  66  94 140 176 214 277 338 388
#     4  10  22  40  65 103 129 171 230 273 316 407
#     4  12  26  44  73 101 132 177 229 277 331 400
#     4  10  19  40  68 101 130 174 226 274 322 406
#     4  11  22  41  70  95 137 178 223 273 335 388
#
# _framework density 22.069800999999998
#
# number of rings (size 3 to 8) (size 9 to 14) (size 15 to 20)
#    0.000    1.143    1.429    6.857    2.000    2.286 
#    0.000    5.000    0.000    0.000    0.000    0.000 
#    0.000    0.000    0.000    0.000    0.000    0.000 
#
# Total GULP energy -78388.410898 kJ/mol
# GULP energy per Si atom -5599.172207 kJ/mol
# Density = 2.201957 g / cm^3
# Si number density = 22.069801 Si / 1000 Ang^3
#
#
#
# Elastic Constant Matrix: (Units=GPa)
#
#
# Indices 1 2 3 4 5 6 
#
# 1 94.2317 40.2289 25.7356 0.2092 0.3903 4.4388
# 2 40.2289 44.2035 28.3998 -5.2736 4.4587 14.3372
# 3 25.7356 28.3998 116.5890 -30.8276 -0.7836 -0.9463
# 4 0.2092 -5.2736 -30.8276 33.3784 2.3191 9.2772
# 5 0.3903 4.4587 -0.7836 2.3191 30.2314 5.2451
# 6 4.4388 14.3372 -0.9463 9.2772 5.2451 24.5002
#
#
#
# Elastic Compliance Matrix: (Units=1/GPa)
#
#
# Indices 1 2 3 4 5 6 
#
# 1 0.020012 -0.022784 -0.000903 -0.008117 0.001547 0.012415
# 2 -0.022784 0.061541 -0.006490 0.014351 -0.003670 -0.036784
# 3 -0.000903 -0.006490 0.013329 0.011223 0.000430 0.000134
# 4 -0.008117 0.014351 0.011223 0.049690 -0.001186 -0.025055
# 5 0.001547 -0.003670 0.000430 -0.001186 0.034581 -0.005071
# 6 0.012415 -0.036784 0.000134 -0.025055 -0.005071 0.070671
#
#
# Mechanical properties :
#
#
# Convention : Reuss Voigt Hill
#
# Bulk Modulus (GPa) = 28.96160 49.30586 39.13373
# Shear Modulus (GPa) = 15.54308 28.33266 21.93787
#
# Velocity S-wave (km/s) = 2.65669 3.58687 3.15623
# Velocity P-wave (km/s) = 4.74993 6.28837 5.57249
#
# Compressibility (1/GPa) = 0.03452848
#
# Stress axis : x y z
#
# Youngs Moduli (GPa) = 49.96919 16.24935 75.02529
#
# Poissons Ratio (x) = 0.37023 0.06771
# Poissons Ratio (y) = 1.13851 0.48692
# Poissons Ratio (z) = 0.04510 0.10546
#
# Static dielectric constant tensor:
#      x y z
#    x 1.770720 -0.007030 -0.010640 
#    y -0.007030 1.818580 0.003340 
#    z -0.010640 0.003340 1.830180 
# 
# From -- ./inp_files/519277.got.cif
#   From: 2010.05.17/outbox.cif.g08.bks.cpg/sg2_260_cif.got.tgz:519277.got - 2010.06.03 11:33:40.
