data_PCOD9092865
_publ_section_title
;
Structure prediction by ZEFSAII (Michael W. Deem and Ramdas Pophale) SiO2 
 PCOD9092865
Probable space group: P -1
;
_chemical_formula_sum "Si O2"
_cell_formula_units_Z 16
_cell_length_a 8.598138
_cell_length_b 5.771180
_cell_length_c 19.113402
_cell_angle_alpha 50.909598
_cell_angle_beta 90.721026
_cell_angle_gamma 99.778695
_cell_volume 719.874565
_symmetry_space_group_name_H-M "P -1"
_symmetry_group_IT_number 2
_symmetry_cell_setting 'triclinic'
loop_
_space_group_symop_operation_xyz
x,y,z
-x,-y,-z
loop_
_atom_site_type_symbol
_atom_site_label
_atom_site_fract_x
_atom_site_fract_y
_atom_site_fract_z
Si Si1 0.361981 0.691342 0.140805
Si Si2 0.830602 0.280346 0.150418
Si Si3 0.233384 0.444287 0.692630
Si Si4 0.361977 0.333695 0.579673
Si Si5 0.548663 0.235871 0.253476
Si Si6 0.974143 0.847245 0.450675
Si Si7 0.622230 0.273743 0.029022
Si Si8 0.940629 0.595566 0.745657
O O1 0.394858 0.349657 0.208542
O O2 0.216268 0.667209 0.197620
O O3 0.516471 0.945116 0.114420
O O4 0.337673 0.752467 0.047380
O O5 0.687386 0.380030 0.172956
O O6 0.787239 0.360284 0.056539
O O7 0.986453 0.385592 0.178528
O O8 0.798195 0.916762 0.226405
O O9 0.275527 0.519199 0.598189
O O10 0.388491 0.612956 0.702065
O O11 0.075011 0.520852 0.709333
O O12 0.500000 0.500000 0.500000
O O13 0.211754 0.161697 0.566957
O O14 0.445369 0.112927 0.669633
O O15 0.000000 0.500000 0.500000
O O16 0.000000 0.000000 0.500000
O O17 0.076150 0.080015 0.349679
O O18 0.500000 0.500000 0.000000
#
# Coordination Sequence:
#
# PCOD9092865 Si02
#       8
#     2   2   2   2   2   2   2   2
#     4  11  25  40  67 105 131 178 224 290 344 417
#     4  10  20  41  70  89 126 182 214 277 342 412
#     4  10  19  43  67  89 132 179 227 276 343 423
#     4  11  25  43  70 100 131 187 237 290 346 426
#     4  10  20  40  68  93 129 175 233 269 346 414
#     4  12  27  47  68 105 151 187 233 307 364 421
#     4  11  23  43  67  99 139 166 231 289 343 408
#     4  11  25  44  67  97 139 181 228 278 360 423
#
# _framework density 22.226092999999999
#
# number of rings (size 3 to 8) (size 9 to 14) (size 15 to 20)
#    0.000    1.250    6.250    0.750    1.750    3.000 
#    0.000    1.250    0.000    0.000    0.000    0.000 
#    0.000    0.000    0.000    0.000    0.000    0.000 
#
# Total GULP energy -89127.100850 kJ/mol
# GULP energy per Si atom -5570.443803 kJ/mol
# Density = 2.217551 g / cm^3
# Si number density = 22.226093 Si / 1000 Ang^3
#
#
#
# Elastic Constant Matrix: (Units=GPa)
#
#
# Indices 1 2 3 4 5 6 
#
# 1 49.9915 14.3938 54.5377 -2.8355 -15.1766 0.4240
# 2 14.3938 73.5282 23.6061 9.8423 -2.6698 -9.4744
# 3 54.5377 23.6061 93.2649 5.1147 -9.3111 1.3451
# 4 -2.8355 9.8423 5.1147 32.8258 3.6341 13.2839
# 5 -15.1766 -2.6698 -9.3111 3.6341 34.3854 -5.8225
# 6 0.4240 -9.4744 1.3451 13.2839 -5.8225 19.7792
#
#
#
# Elastic Compliance Matrix: (Units=1/GPa)
#
#
# Indices 1 2 3 4 5 6 
#
# 1 0.068758 -0.002340 -0.038406 0.011607 0.018125 -0.002443
# 2 -0.002340 0.019786 -0.002640 -0.014809 0.004927 0.021104
# 3 -0.038406 -0.002640 0.033484 -0.006777 -0.007433 -0.000355
# 4 0.011607 -0.014809 -0.006777 0.058524 -0.012491 -0.049864
# 5 0.018125 0.004927 -0.007433 -0.012491 0.040637 0.022829
# 6 -0.002443 0.021104 -0.000355 -0.049864 0.022829 0.100953
#
#
# Mechanical properties :
#
#
# Convention : Reuss Voigt Hill
#
# Bulk Modulus (GPa) = 28.36480 44.65107 36.50793
# Shear Modulus (GPa) = 11.88587 25.68123 18.78355
#
# Velocity S-wave (km/s) = 2.31502 3.40288 2.91024
# Velocity P-wave (km/s) = 4.46491 5.96428 5.26821
#
# Compressibility (1/GPa) = 0.03525497
#
# Stress axis : x y z
#
# Youngs Moduli (GPa) = 14.54380 50.53952 29.86542
#
# Poissons Ratio (x) = 0.11827 1.14702
# Poissons Ratio (y) = 0.03403 0.07885
# Poissons Ratio (z) = 0.55857 0.13343
#
# Static dielectric constant tensor:
#      x y z
#    x 1.841680 -0.016610 0.065500 
#    y -0.016610 1.930660 0.021080 
#    z 0.065500 0.021080 1.887460 
# 
# From -- ./inp_files/480315.got.cif
#   From: 2010.05.17/outbox.cif.g08.bks.cpg/sg2_241_cif.got.tgz:480315.got - 2010.06.03 11:33:40.
