data_PCOD9092104
_publ_section_title
;
Structure prediction by ZEFSAII (Michael W. Deem and Ramdas Pophale) SiO2 
 PCOD9092104
Probable space group: P -1
;
_chemical_formula_sum "Si O2"
_cell_formula_units_Z 12
_cell_length_a 6.967201
_cell_length_b 13.860842
_cell_length_c 6.836998
_cell_angle_alpha 62.888562
_cell_angle_beta 104.716917
_cell_angle_gamma 129.543450
_cell_volume 452.580485
_symmetry_space_group_name_H-M "P -1"
_symmetry_group_IT_number 2
_symmetry_cell_setting 'triclinic'
loop_
_space_group_symop_operation_xyz
x,y,z
-x,-y,-z
loop_
_atom_site_type_symbol
_atom_site_label
_atom_site_fract_x
_atom_site_fract_y
_atom_site_fract_z
Si Si1 0.577844 0.498477 0.836790
Si Si2 0.274401 0.826349 0.906952
Si Si3 0.793980 0.729903 0.354135
Si Si4 0.269958 0.761332 0.512982
Si Si5 0.273837 0.049332 0.819579
Si Si6 0.930794 0.520511 0.138554
O O1 0.686736 0.635537 0.610259
O O2 0.596798 0.635516 0.221587
O O3 0.845256 0.498971 0.896395
O O4 0.333351 0.481499 0.916510
O O5 0.551893 0.920611 0.977653
O O6 0.134946 0.677286 0.098651
O O7 0.056054 0.760145 0.360482
O O8 0.139421 0.895260 0.858750
O O9 0.848760 0.875653 0.247475
O O10 0.284742 0.806469 0.698658
O O11 0.531402 0.863072 0.385207
O O12 0.182384 0.608290 0.632454
#
# Coordination Sequence:
#
# PCOD9092104 Si02
#       6
#     2   2   2   2   2   2
#     4  11  23  40  62  97 133 164 210 276 326 375
#     4  10  23  44  64  93 136 172 216 263 324 391
#     4  11  24  40  65 101 127 162 227 267 314 391
#     4  11  23  42  71  96 128 172 219 269 321 380
#     4  11  25  43  67  92 134 179 209 264 329 387
#     4  10  19  40  66  90 128 166 207 270 318 371
#
# _framework density 26.514621000000002
#
# number of rings (size 3 to 8) (size 9 to 14) (size 15 to 20)
#    0.000    1.333    3.333    3.500    4.667    1.333 
#    0.000    3.333    0.000    0.000    0.000    0.000 
#    0.000    0.000    0.000    0.000    0.000    0.000 
#
# Total GULP energy -67191.040655 kJ/mol
# GULP energy per Si atom -5599.253388 kJ/mol
# Density = 2.645427 g / cm^3
# Si number density = 26.514621 Si / 1000 Ang^3
#
#
#
# Elastic Constant Matrix: (Units=GPa)
#
#
# Indices 1 2 3 4 5 6 
#
# 1 143.4080 38.8207 48.3675 8.9426 20.1600 -3.5381
# 2 38.8207 87.7194 42.3757 4.3339 13.8044 -14.4198
# 3 48.3675 42.3757 142.1298 -18.6648 22.7447 -13.4991
# 4 8.9426 4.3339 -18.6648 51.7988 -2.6092 5.7794
# 5 20.1600 13.8044 22.7447 -2.6092 60.5824 12.6250
# 6 -3.5381 -14.4198 -13.4991 5.7794 12.6250 36.1546
#
#
#
# Elastic Compliance Matrix: (Units=1/GPa)
#
#
# Indices 1 2 3 4 5 6 
#
# 1 0.008764 -0.002416 -0.002305 -0.002215 -0.001583 -0.000060
# 2 -0.002416 0.015647 -0.003132 -0.002883 -0.003034 0.006355
# 3 -0.002305 -0.003132 0.009912 0.003819 -0.002602 0.002524
# 4 -0.002215 -0.002883 0.003819 0.021844 0.001743 -0.004041
# 5 -0.001583 -0.003034 -0.002602 0.001743 0.020838 -0.009891
# 6 -0.000060 0.006355 0.002524 -0.004041 -0.009891 0.035230
#
#
# Mechanical properties :
#
#
# Convention : Reuss Voigt Hill
#
# Bulk Modulus (GPa) = 53.71958 70.26503 61.99230
# Shear Modulus (GPa) = 37.27267 45.95337 41.61302
#
# Velocity S-wave (km/s) = 3.75339 4.16761 3.96591
# Velocity P-wave (km/s) = 6.25206 7.05100 6.66351
#
# Compressibility (1/GPa) = 0.01861519
#
# Stress axis : x y z
#
# Youngs Moduli (GPa) = 114.10551 63.91031 100.88993
#
# Poissons Ratio (x) = 0.15442 0.23256
# Poissons Ratio (y) = 0.27570 0.31602
# Poissons Ratio (z) = 0.26303 0.20019
#
# Static dielectric constant tensor:
#      x y z
#    x 2.432850 0.064900 0.062850 
#    y 0.064900 2.001990 0.058620 
#    z 0.062850 0.058620 1.994190 
# 
# From -- ./inp_files/466214.got.cif
#   From: 2010.05.17/outbox.cif.g08.bks.cpg/sg2_234_cif.got.tgz:466214.got - 2010.06.03 11:33:40.
