data_PCOD9092761
_publ_section_title
;
Structure prediction by ZEFSAII (Michael W. Deem and Ramdas Pophale) SiO2 
 PCOD9092761
Probable space group: P -1
;
_chemical_formula_sum "Si O2"
_cell_formula_units_Z 14
_cell_length_a 12.066618
_cell_length_b 7.888241
_cell_length_c 12.861470
_cell_angle_alpha 118.954424
_cell_angle_beta 134.116045
_cell_angle_gamma 38.466870
_cell_volume 541.619375
_symmetry_space_group_name_H-M "P -1"
_symmetry_group_IT_number 2
_symmetry_cell_setting 'triclinic'
loop_
_space_group_symop_operation_xyz
x,y,z
-x,-y,-z
loop_
_atom_site_type_symbol
_atom_site_label
_atom_site_fract_x
_atom_site_fract_y
_atom_site_fract_z
Si Si1 0.393384 0.821889 0.853146
Si Si2 0.275213 0.749083 0.369478
Si Si3 0.076445 0.405795 0.708362
Si Si4 0.253610 0.766233 0.125212
Si Si5 0.065765 0.792709 0.573798
Si Si6 0.856292 0.570643 0.826954
Si Si7 0.505170 0.153247 0.842766
O O1 0.639697 0.543713 0.900147
O O2 0.263852 0.735005 0.735785
O O3 0.263401 0.086232 0.774785
O O4 0.405852 0.898991 0.997952
O O5 0.500000 0.500000 0.500000
O O6 0.299863 0.793624 0.280656
O O7 0.144413 0.660854 0.255527
O O8 0.136408 0.026086 0.425581
O O9 0.913143 0.433250 0.534750
O O10 0.240481 0.401979 0.752747
O O11 0.950856 0.574337 0.781763
O O12 0.376146 0.785662 0.126506
O O13 0.000000 0.000000 0.000000
O O14 0.000000 0.000000 0.500000
O O15 0.610843 0.866997 0.775790
O O16 0.000000 0.500000 0.000000
#
# Coordination Sequence:
#
# PCOD9092761 Si02
#       7
#     2   2   2   2   2   2   2
#     4  11  22  45  73  99 141 194 249 289 351 438
#     4  12  24  45  79 103 140 194 255 294 344 444
#     4  11  24  43  75 108 146 188 242 305 359 429
#     4  12  28  45  71 109 150 192 239 305 371 434
#     4  10  19  42  68 103 134 182 242 296 345 417
#     4  12  23  43  71 108 148 185 245 302 361 425
#     4  12  26  43  66 108 147 188 233 303 373 429
#
# _framework density 25.848410000000001
#
# number of rings (size 3 to 8) (size 9 to 14) (size 15 to 20)
#    0.000    0.571    4.286    6.000    4.000    0.000 
#    0.000    3.571    0.000    0.000    0.000    0.000 
#    0.000    0.000    0.000    0.000    0.000    0.000 
#
# Total GULP energy -78466.518705 kJ/mol
# GULP energy per Si atom -5604.751336 kJ/mol
# Density = 2.578958 g / cm^3
# Si number density = 25.848410 Si / 1000 Ang^3
#
#
#
# Elastic Constant Matrix: (Units=GPa)
#
#
# Indices 1 2 3 4 5 6 
#
# 1 115.7205 7.4128 32.6277 7.7255 5.1672 -20.6112
# 2 7.4128 106.2304 23.6417 -7.0232 -15.5565 -25.2212
# 3 32.6277 23.6417 142.4822 10.5948 9.8691 -19.2821
# 4 7.7255 -7.0232 10.5948 37.5240 -9.7367 -7.7651
# 5 5.1672 -15.5565 9.8691 -9.7367 47.7029 7.6764
# 6 -20.6112 -25.2212 -19.2821 -7.7651 7.6764 51.0829
#
#
#
# Elastic Compliance Matrix: (Units=1/GPa)
#
#
# Indices 1 2 3 4 5 6 
#
# 1 0.009856 0.000214 -0.001628 -0.001184 -0.001467 0.003509
# 2 0.000214 0.012130 -0.002022 0.005089 0.004519 0.005407
# 3 -0.001628 -0.002022 0.008357 -0.002878 -0.003044 0.001519
# 4 -0.001184 0.005089 -0.002878 0.031707 0.008123 0.004547
# 5 -0.001467 0.004519 -0.003044 0.008123 0.025216 -0.002064
# 6 0.003509 0.005407 0.001519 0.004547 -0.002064 0.025236
#
#
# Mechanical properties :
#
#
# Convention : Reuss Voigt Hill
#
# Bulk Modulus (GPa) = 42.60136 54.64417 48.62276
# Shear Modulus (GPa) = 39.30875 47.31202 43.31039
#
# Velocity S-wave (km/s) = 3.90390 4.28292 4.09779
# Velocity P-wave (km/s) = 6.06940 6.75603 6.42190
#
# Compressibility (1/GPa) = 0.02347343
#
# Stress axis : x y z
#
# Youngs Moduli (GPa) = 101.45766 82.43741 119.65782
#
# Poissons Ratio (x) = -0.01768 0.19482
# Poissons Ratio (y) = -0.02176 0.24190
# Poissons Ratio (z) = 0.16519 0.16665
#
# Static dielectric constant tensor:
#      x y z
#    x 2.166590 0.005860 0.016750 
#    y 0.005860 2.101980 -0.018760 
#    z 0.016750 -0.018760 2.005760 
# 
# From -- ./inp_files/402897.got.cif
#   From: 2010.05.17/outbox.cif.g08.bks.cpg/sg2_202_cif.got.tgz:402897.got - 2010.06.03 11:33:40.
