data_PCOD9092147
_publ_section_title
;
Structure prediction by ZEFSAII (Michael W. Deem and Ramdas Pophale) SiO2 
 PCOD9092147
Probable space group: P -1
;
_chemical_formula_sum "Si O2"
_cell_formula_units_Z 16
_cell_length_a 8.244743
_cell_length_b 10.372553
_cell_length_c 10.074297
_cell_angle_alpha 118.220839
_cell_angle_beta 87.915688
_cell_angle_gamma 58.633691
_cell_volume 600.761356
_symmetry_space_group_name_H-M "P -1"
_symmetry_group_IT_number 2
_symmetry_cell_setting 'triclinic'
loop_
_space_group_symop_operation_xyz
x,y,z
-x,-y,-z
loop_
_atom_site_type_symbol
_atom_site_label
_atom_site_fract_x
_atom_site_fract_y
_atom_site_fract_z
Si Si1 0.650533 0.537472 0.952480
Si Si2 0.176175 0.070079 0.810980
Si Si3 0.849116 0.144870 0.688067
Si Si4 0.527177 0.184567 0.559081
Si Si5 0.076486 0.363955 0.306005
Si Si6 0.674998 0.410945 0.338338
Si Si7 0.841793 0.636922 0.210811
Si Si8 0.532536 0.179511 0.125609
O O1 0.778560 0.352580 0.764156
O O2 0.541366 0.730649 0.972981
O O3 0.762616 0.550664 0.078145
O O4 0.500000 0.500000 0.000000
O O5 0.345546 0.913771 0.625636
O O6 0.281744 0.026083 0.929831
O O7 0.122428 0.255170 0.842291
O O8 0.971981 0.086830 0.795009
O O9 0.662564 0.138209 0.663896
O O10 0.000000 0.000000 0.500000
O O11 0.408176 0.403659 0.647630
O O12 0.333045 0.193613 0.606390
O O13 0.325676 0.235780 0.234051
O O14 0.000000 0.500000 0.500000
O O15 0.918503 0.312026 0.299813
O O16 0.012104 0.482167 0.229246
O O17 0.500000 0.500000 0.500000
O O18 0.638694 0.274476 0.209692
#
# Coordination Sequence:
#
# PCOD9092147 Si02
#       8
#     2   2   2   2   2   2   2   2
#     4  12  24  48  79 101 147 206 250 304 377 457
#     4  11  24  40  63 106 148 186 241 313 373 430
#     4  10  22  41  70 104 137 186 244 299 369 431
#     4  10  19  40  66  99 136 189 239 301 364 433
#     4  11  23  41  69 106 142 194 252 312 372 442
#     4  11  19  37  67 100 140 182 248 307 362 430
#     4  11  24  42  68 103 144 193 247 297 370 451
#     4  12  24  43  69 106 148 195 250 307 370 449
#
# _framework density 26.632873
#
# number of rings (size 3 to 8) (size 9 to 14) (size 15 to 20)
#    0.000    1.000    5.000    2.625    0.000    2.500 
#    4.500    0.625    0.000    0.000    0.000    0.000 
#    0.000    0.000    0.000    0.000    0.000    0.000 
#
# Total GULP energy -89228.550694 kJ/mol
# GULP energy per Si atom -5576.784418 kJ/mol
# Density = 2.657226 g / cm^3
# Si number density = 26.632873 Si / 1000 Ang^3
#
#
#
# Elastic Constant Matrix: (Units=GPa)
#
#
# Indices 1 2 3 4 5 6 
#
# 1 158.6009 27.5811 25.5903 0.2577 1.0246 -17.3003
# 2 27.5811 94.3873 25.2874 -25.0901 -0.1232 -17.8738
# 3 25.5903 25.2874 73.3004 -4.6440 2.1159 0.4922
# 4 0.2577 -25.0901 -4.6440 37.1302 -3.3550 6.9620
# 5 1.0246 -0.1232 2.1159 -3.3550 48.2871 3.9774
# 6 -17.3003 -17.8738 0.4922 6.9620 3.9774 52.9052
#
#
#
# Elastic Compliance Matrix: (Units=1/GPa)
#
#
# Indices 1 2 3 4 5 6 
#
# 1 0.007152 -0.001635 -0.002052 -0.001833 -0.000364 0.002074
# 2 -0.001635 0.015289 -0.004159 0.009239 0.000617 0.003407
# 3 -0.002052 -0.004159 0.015793 -0.000469 -0.000517 -0.002122
# 4 -0.001833 0.009239 -0.000469 0.033761 0.002603 -0.002112
# 5 -0.000364 0.000617 -0.000517 0.002603 0.021073 -0.001833
# 6 0.002074 0.003407 -0.002122 -0.002112 -0.001833 0.021166
#
#
# Mechanical properties :
#
#
# Convention : Reuss Voigt Hill
#
# Bulk Modulus (GPa) = 44.36293 53.68959 49.02626
# Shear Modulus (GPa) = 36.37936 44.18649 40.28292
#
# Velocity S-wave (km/s) = 3.69990 4.07762 3.89334
# Velocity P-wave (km/s) = 5.91149 6.50939 6.21763
#
# Compressibility (1/GPa) = 0.02254134
#
# Stress axis : x y z
#
# Youngs Moduli (GPa) = 139.81699 65.40848 63.31850
#
# Poissons Ratio (x) = 0.10695 0.12996
# Poissons Ratio (y) = 0.22861 0.26333
# Poissons Ratio (z) = 0.28696 0.27202
#
# Static dielectric constant tensor:
#      x y z
#    x 2.286930 0.014100 -0.156350 
#    y 0.014100 2.240710 0.019510 
#    z -0.156350 0.019510 2.273100 
# 
# From -- ./inp_files/390387.got.cif
#   From: 2010.05.17/outbox.cif.g08.bks.cpg/sg2_196_cif.got.tgz:390387.got - 2010.06.03 11:33:40.
