data_PCOD9092495
_publ_section_title
;
Structure prediction by ZEFSAII (Michael W. Deem and Ramdas Pophale) SiO2 
 PCOD9092495
Probable space group: P -1
;
_chemical_formula_sum "Si O2"
_cell_formula_units_Z 13
_cell_length_a 8.538997
_cell_length_b 11.857808
_cell_length_c 7.769507
_cell_angle_alpha 47.830791
_cell_angle_beta 108.389283
_cell_angle_gamma 81.060842
_cell_volume 471.912411
_symmetry_space_group_name_H-M "P -1"
_symmetry_group_IT_number 2
_symmetry_cell_setting 'triclinic'
loop_
_space_group_symop_operation_xyz
x,y,z
-x,-y,-z
loop_
_atom_site_type_symbol
_atom_site_label
_atom_site_fract_x
_atom_site_fract_y
_atom_site_fract_z
Si Si1 0.970027 0.925344 0.769068
Si Si2 0.352464 0.596038 0.655018
Si Si3 0.009136 0.750475 0.629595
Si Si4 0.500000 0.500000 0.500000
Si Si5 0.546362 0.229609 0.195900
Si Si6 0.669137 0.728979 0.446772
Si Si7 0.305914 0.103187 0.062238
O O1 0.071839 0.770964 0.821729
O O2 0.882518 0.891409 0.942021
O O3 0.759545 0.059452 0.459224
O O4 0.055705 0.054630 0.679217
O O5 0.307432 0.664017 0.376927
O O6 0.460717 0.666049 0.740297
O O7 0.180226 0.621854 0.689961
O O8 0.496697 0.383395 0.875870
O O9 0.850048 0.698013 0.651932
O O10 0.628545 0.574666 0.556169
O O11 0.394393 0.170858 0.170959
O O12 0.478713 0.907740 0.266118
O O13 0.727365 0.774660 0.236920
#
# Coordination Sequence:
#
# PCOD9092495 Si02
#       7
#     2   2   2   1   2   2   2
#     4  10  21  39  70  93 130 163 224 261 328 369
#     4  10  23  40  67  92 135 164 220 260 331 374
#     4  10  22  41  63  98 128 169 205 285 317 375
#     4  12  24  44  62  96 126 184 204 262 320 406
#     4  10  19  41  66  93 123 172 217 263 300 402
#     4  11  24  40  68  95 135 164 224 262 327 375
#     4  11  22  41  67  99 120 178 223 261 308 404
#
# _framework density 27.547485000000002
#
# number of rings (size 3 to 8) (size 9 to 14) (size 15 to 20)
#    0.000    1.538    3.077    2.308    2.154    1.231 
#    0.000    6.923    0.000    0.000    0.000    0.000 
#    0.000    0.000    0.000    0.000    0.000    0.000 
#
# Total GULP energy -72474.642785 kJ/mol
# GULP energy per Si atom -5574.972522 kJ/mol
# Density = 2.748479 g / cm^3
# Si number density = 27.547485 Si / 1000 Ang^3
#
#
#
# Elastic Constant Matrix: (Units=GPa)
#
#
# Indices 1 2 3 4 5 6 
#
# 1 151.8518 80.6413 24.0099 -8.1875 -16.6904 -1.9171
# 2 80.6413 175.4096 5.7024 3.8605 0.5442 14.2521
# 3 24.0099 5.7024 47.5688 -17.4692 -6.8025 8.3568
# 4 -8.1875 3.8605 -17.4692 28.1955 2.0790 -11.0754
# 5 -16.6904 0.5442 -6.8025 2.0790 42.3727 -4.4744
# 6 -1.9171 14.2521 8.3568 -11.0754 -4.4744 70.0403
#
#
#
# Elastic Compliance Matrix: (Units=1/GPa)
#
#
# Indices 1 2 3 4 5 6 
#
# 1 0.010289 -0.004845 -0.003779 0.001927 0.003652 0.002256
# 2 -0.004845 0.008186 0.000487 -0.003045 -0.002047 -0.002469
# 3 -0.003779 0.000487 0.029442 0.016532 0.002320 -0.000953
# 4 0.001927 -0.003045 0.016532 0.049143 0.001736 0.006582
# 5 0.003652 -0.002047 0.002320 0.001736 0.025579 0.002148
# 6 0.002256 -0.002469 -0.000953 0.006582 0.002148 0.016133
#
#
# Mechanical properties :
#
#
# Convention : Reuss Voigt Hill
#
# Bulk Modulus (GPa) = 31.60236 66.17081 48.88658
# Shear Modulus (GPa) = 30.19412 45.75346 37.97379
#
# Velocity S-wave (km/s) = 3.31429 4.07983 3.71682
# Velocity P-wave (km/s) = 5.11302 6.80192 6.01702
#
# Compressibility (1/GPa) = 0.03164320
#
# Stress axis : x y z
#
# Youngs Moduli (GPa) = 97.18696 122.15579 33.96528
#
# Poissons Ratio (x) = 0.59179 0.12837
# Poissons Ratio (y) = 0.47083 -0.01653
# Poissons Ratio (z) = 0.36730 -0.05946
#
# Static dielectric constant tensor:
#      x y z
#    x 1.930070 0.148160 0.568520 
#    y 0.148160 1.943120 -0.446740 
#    z 0.568520 -0.446740 1.217140 
# 
# From -- ./inp_files/167182.got.cif
#   From: 2010.05.17/outbox.cif.g08.bks.cpg/sg2_84_cif.got.tgz:167182.got - 2010.06.03 11:33:40.
