data_PCOD9092588
_publ_section_title
;
Structure prediction by ZEFSAII (Michael W. Deem and Ramdas Pophale) SiO2 
 PCOD9092588
Probable space group: P -1
;
_chemical_formula_sum "Si O2"
_cell_formula_units_Z 14
_cell_length_a 7.945074
_cell_length_b 5.170445
_cell_length_c 14.192206
_cell_angle_alpha 74.613028
_cell_angle_beta 98.524153
_cell_angle_gamma 96.593888
_cell_volume 554.157289
_symmetry_space_group_name_H-M "P -1"
_symmetry_group_IT_number 2
_symmetry_cell_setting 'triclinic'
loop_
_space_group_symop_operation_xyz
x,y,z
-x,-y,-z
loop_
_atom_site_type_symbol
_atom_site_label
_atom_site_fract_x
_atom_site_fract_y
_atom_site_fract_z
Si Si1 0.750891 0.078680 0.767641
Si Si2 0.611847 0.870071 0.247238
Si Si3 0.904287 0.539021 0.271372
Si Si4 0.188944 0.133695 0.011368
Si Si5 0.345013 0.682948 0.942055
Si Si6 0.868215 0.858653 0.628546
Si Si7 0.163407 0.279959 0.561040
O O1 0.585198 0.237867 0.758860
O O2 0.931527 0.251728 0.755827
O O3 0.762834 0.874659 0.874087
O O4 0.722476 0.934918 0.678853
O O5 0.736504 0.685536 0.218016
O O6 0.690828 0.874700 0.358415
O O7 0.626608 0.157656 0.168861
O O8 0.859805 0.490241 0.385041
O O9 0.990681 0.269780 0.280395
O O10 0.194137 0.444762 0.950120
O O11 0.305243 0.921774 0.988469
O O12 0.000000 0.000000 0.000000
O O13 0.500000 0.500000 0.000000
O O14 0.801843 0.684292 0.549803
O O15 0.979039 0.115870 0.572545
#
# Coordination Sequence:
#
# PCOD9092588 Si02
#       7
#     2   2   2   2   2   2   2
#     4  11  24  42  64 103 135 177 234 291 350 422
#     4  10  23  44  66 100 136 183 231 291 351 419
#     4   9  21  40  65  93 134 176 226 279 352 409
#     4  12  28  48  74 105 143 188 242 298 360 425
#     4  12  26  50  73 102 144 188 240 293 363 420
#     4  10  19  41  69  94 134 180 223 289 347 426
#     4   8  20  39  66  95 132 176 227 278 358 415
#
# _framework density 25.263587000000001
#
# number of rings (size 3 to 8) (size 9 to 14) (size 15 to 20)
#    0.857    0.857    1.429    2.143    2.000    2.857 
#    2.571    0.714    0.000    0.000    0.000    0.000 
#    0.000    0.000    0.000    0.000    0.000    0.000 
#
# Total GULP energy -78034.558407 kJ/mol
# GULP energy per Si atom -5573.897029 kJ/mol
# Density = 2.520609 g / cm^3
# Si number density = 25.263587 Si / 1000 Ang^3
#
#
#
# Elastic Constant Matrix: (Units=GPa)
#
#
# Indices 1 2 3 4 5 6 
#
# 1 126.5426 8.0012 29.5644 -5.9221 -7.6002 -28.1156
# 2 8.0012 79.1130 18.0820 -13.0945 -15.9060 -14.3743
# 3 29.5644 18.0820 116.7612 -1.7451 5.8899 -20.6954
# 4 -5.9221 -13.0945 -1.7451 31.4825 -7.6213 11.4982
# 5 -7.6002 -15.9060 5.8899 -7.6213 25.6604 -7.1078
# 6 -28.1156 -14.3743 -20.6954 11.4982 -7.1078 26.7102
#
#
#
# Elastic Compliance Matrix: (Units=1/GPa)
#
#
# Indices 1 2 3 4 5 6 
#
# 1 0.012637 0.004858 -0.001415 0.000805 0.012228 0.017727
# 2 0.004858 0.022082 -0.002649 0.009328 0.023246 0.017115
# 3 -0.001415 -0.002649 0.010512 -0.003888 -0.004012 0.005836
# 4 0.000805 0.009328 -0.003888 0.043856 0.016733 -0.011572
# 5 0.012228 0.023246 -0.004012 0.016733 0.072404 0.034337
# 6 0.017727 0.017115 0.005836 -0.011572 0.034337 0.083949
#
#
# Mechanical properties :
#
#
# Convention : Reuss Voigt Hill
#
# Bulk Modulus (GPa) = 21.35941 48.19023 34.77482
# Shear Modulus (GPa) = 19.27100 34.55522 26.91311
#
# Velocity S-wave (km/s) = 2.76487 3.70237 3.26742
# Velocity P-wave (km/s) = 4.32038 6.11499 5.29428
#
# Compressibility (1/GPa) = 0.04681777
#
# Stress axis : x y z
#
# Youngs Moduli (GPa) = 79.13492 45.28658 95.13294
#
# Poissons Ratio (x) = -0.22000 0.13459
# Poissons Ratio (y) = -0.38444 0.25204
# Poissons Ratio (z) = 0.11195 0.11998
#
# Static dielectric constant tensor:
#      x y z
#    x 2.069310 0.076050 0.063980 
#    y 0.076050 2.094670 0.041790 
#    z 0.063980 0.041790 2.093480 
# 
# From -- ./inp_files/488172.got.cif
#   From: 2010.05.17/outbox.cif.g08.bks.cpg/sg2_245_cif.got.tgz:488172.got - 2010.06.03 11:33:40.
