data_PCOD9092965
_publ_section_title
;
Structure prediction by ZEFSAII (Michael W. Deem and Ramdas Pophale) SiO2 
 PCOD9092965
Probable space group: P -1
;
_chemical_formula_sum "Si O2"
_cell_formula_units_Z 16
_cell_length_a 13.697816
_cell_length_b 5.512399
_cell_length_c 15.691833
_cell_angle_alpha 122.606142
_cell_angle_beta 53.087166
_cell_angle_gamma 86.414547
_cell_volume 653.842360
_symmetry_space_group_name_H-M "P -1"
_symmetry_group_IT_number 2
_symmetry_cell_setting 'triclinic'
loop_
_space_group_symop_operation_xyz
x,y,z
-x,-y,-z
loop_
_atom_site_type_symbol
_atom_site_label
_atom_site_fract_x
_atom_site_fract_y
_atom_site_fract_z
Si Si1 0.628021 0.909617 0.121153
Si Si2 0.873828 0.520188 0.198585
Si Si3 0.890410 0.799119 0.749383
Si Si4 0.931539 0.328517 0.772226
Si Si5 0.753620 0.329732 0.081605
Si Si6 0.655555 0.671454 0.467521
Si Si7 0.571038 0.086960 0.900752
Si Si8 0.587321 0.253632 0.518634
O O1 0.663460 0.706632 0.153420
O O2 0.475382 0.027346 0.179546
O O3 0.658850 0.211044 0.158137
O O4 0.754023 0.599448 0.932226
O O5 0.872827 0.305865 0.079571
O O6 0.821418 0.432252 0.296889
O O7 0.003328 0.561673 0.164377
O O8 0.729817 0.917411 0.331628
O O9 0.976443 0.934807 0.680417
O O10 0.745829 0.891629 0.790820
O O11 0.972064 0.419492 0.678288
O O12 0.829896 0.055101 0.912705
O O13 0.616145 0.548062 0.547302
O O14 0.554390 0.661764 0.444274
O O15 0.609578 0.067467 0.561819
O O16 0.500000 0.500000 0.000000
O O17 0.500000 0.000000 0.000000
#
# Coordination Sequence:
#
# PCOD9092965 Si02
#       8
#     2   2   2   2   2   2   2   2
#     4  10  20  32  41  64  81 116 147 194 207 255
#     4  10  21  28  46  62  90 128 136 172 207 250
#     4  10  20  32  41  64  81 116 147 194 207 255
#     4  10  20  29  42  60  90 111 157 168 212 246
#     4  10  20  29  42  60  90 111 157 168 212 246
#     4   8  16  30  44  61  79 110 147 173 206 247
#     4  12  16  32  52  58  72 112 152 190 238 240
#     4   8  16  30  44  61  79 110 147 173 206 247
#
# _framework density 24.470732000000002
#
# number of rings (size 3 to 8) (size 9 to 14) (size 15 to 20)
#    0.750    1.500    5.000    0.000    3.500    4.000 
#    0.000    0.000    0.000    0.000    0.000    0.000 
#    0.000    0.000    0.000   49.500    0.000    0.000 
#
# Total GULP energy -89261.674430 kJ/mol
# GULP energy per Si atom -5578.854652 kJ/mol
# Density = 2.441504 g / cm^3
# Si number density = 24.470732 Si / 1000 Ang^3
#
#
#
# Elastic Constant Matrix: (Units=GPa)
#
#
# Indices 1 2 3 4 5 6 
#
# 1 157.1728 41.0401 9.6686 -7.3705 -11.4748 4.8925
# 2 41.0401 251.6571 3.4216 -19.9143 4.0862 -6.1691
# 3 9.6686 3.4216 26.9146 0.6387 -0.4791 -1.4594
# 4 -7.3705 -19.9143 0.6387 16.9808 2.8019 -3.4977
# 5 -11.4748 4.0862 -0.4791 2.8019 11.9179 -7.8730
# 6 4.8925 -6.1691 -1.4594 -3.4977 -7.8730 28.4130
#
#
#
# Elastic Compliance Matrix: (Units=1/GPa)
#
#
# Indices 1 2 3 4 5 6 
#
# 1 0.007403 -0.001230 -0.002354 0.000710 0.007647 0.000544
# 2 -0.001230 0.004718 -0.000307 0.005791 -0.003548 0.000950
# 3 -0.002354 -0.000307 0.038260 -0.002583 0.001586 0.002425
# 4 0.000710 0.005791 -0.002583 0.069569 -0.014006 0.005686
# 5 0.007647 -0.003548 0.001586 -0.014006 0.114302 0.027942
# 6 0.000544 0.000950 0.002425 0.005686 0.027942 0.043875
#
#
# Mechanical properties :
#
#
# Convention : Reuss Voigt Hill
#
# Bulk Modulus (GPa) = 23.47497 60.44501 41.95999
# Shear Modulus (GPa) = 16.66061 36.90330 26.78195
#
# Velocity S-wave (km/s) = 2.61212 3.88759 3.31183
# Velocity P-wave (km/s) = 4.32567 6.70117 5.63991
#
# Compressibility (1/GPa) = 0.04259856
#
# Stress axis : x y z
#
# Youngs Moduli (GPa) = 135.07913 211.97193 26.13672
#
# Poissons Ratio (x) = 0.26072 0.06153
# Poissons Ratio (y) = 0.16614 0.00802
# Poissons Ratio (z) = 0.31801 0.06507
#
# Static dielectric constant tensor:
#      x y z
#    x 1.914020 0.008760 -0.052490 
#    y 0.008760 2.149600 0.014970 
#    z -0.052490 0.014970 2.044140 
# 
# From -- ./inp_files/592387.got.cif
#   From: 2010.05.17/outbox.cif.g08.bks.cpg/sg2_297_cif.got.tgz:592387.got - 2010.06.03 11:33:40.
