data_PCOD9092927
_publ_section_title
;
Structure prediction by ZEFSAII (Michael W. Deem and Ramdas Pophale) SiO2 
 PCOD9092927
Probable space group: P -1
;
_chemical_formula_sum "Si O2"
_cell_formula_units_Z 14
_cell_length_a 12.121610
_cell_length_b 7.276447
_cell_length_c 7.502899
_cell_angle_alpha 109.089785
_cell_angle_beta 95.753971
_cell_angle_gamma 55.528382
_cell_volume 512.500283
_symmetry_space_group_name_H-M "P -1"
_symmetry_group_IT_number 2
_symmetry_cell_setting 'triclinic'
loop_
_space_group_symop_operation_xyz
x,y,z
-x,-y,-z
loop_
_atom_site_type_symbol
_atom_site_label
_atom_site_fract_x
_atom_site_fract_y
_atom_site_fract_z
Si Si1 0.807205 0.859408 0.355590
Si Si2 0.142318 0.228610 0.063813
Si Si3 0.732761 0.482634 0.239402
Si Si4 0.172833 0.641736 0.158879
Si Si5 0.397917 0.167804 0.189517
Si Si6 0.528860 0.276480 0.541137
Si Si7 0.002515 0.819762 0.648441
O O1 0.824293 0.899890 0.163091
O O2 0.757713 0.686954 0.284456
O O3 0.938384 0.746800 0.464497
O O4 0.688157 0.091589 0.511315
O O5 0.893865 0.508183 0.900950
O O6 0.282158 0.119832 0.161269
O O7 0.041580 0.221187 0.177714
O O8 0.574735 0.606165 0.275718
O O9 0.835624 0.329245 0.368354
O O10 0.787068 0.328227 0.022001
O O11 0.314443 0.444419 0.208815
O O12 0.072157 0.900657 0.299916
O O13 0.472065 0.151191 0.375538
O O14 0.500000 0.000000 0.000000
O O15 0.500000 0.500000 0.500000
#
# Coordination Sequence:
#
# PCOD9092927 Si02
#       7
#     2   2   2   2   2   2   2
#     4  11  24  46  72 107 138 186 242 290 358 425
#     4   9  23  44  72 103 142 187 234 287 363 416
#     4  11  25  46  69 101 145 185 235 294 354 431
#     4   9  23  43  67 104 139 186 235 289 352 419
#     4  10  19  44  68  99 141 186 230 289 356 414
#     4  12  25  44  69 106 138 183 242 297 349 425
#     4  12  24  47  73 106 145 189 235 295 355 424
#
# _framework density 27.317060000000001
#
# number of rings (size 3 to 8) (size 9 to 14) (size 15 to 20)
#    0.857    0.571    1.429    3.000    2.000    3.429 
#    5.143    3.571    0.000    0.000    0.000    0.000 
#    0.000    0.000    0.000    0.000    0.000    0.000 
#
# Total GULP energy -78478.568047 kJ/mol
# GULP energy per Si atom -5605.612003 kJ/mol
# Density = 2.725489 g / cm^3
# Si number density = 27.317060 Si / 1000 Ang^3
#
#
#
# Elastic Constant Matrix: (Units=GPa)
#
#
# Indices 1 2 3 4 5 6 
#
# 1 95.8858 22.2449 32.9823 -1.3042 -15.9677 -6.6562
# 2 22.2449 124.0081 31.3961 5.4431 -13.3317 -13.1257
# 3 32.9823 31.3961 124.5311 1.6724 -29.8833 -6.3518
# 4 -1.3042 5.4431 1.6724 52.8446 -7.6112 0.5669
# 5 -15.9677 -13.3317 -29.8833 -7.6112 40.6867 -0.6569
# 6 -6.6562 -13.1257 -6.3518 0.5669 -0.6569 48.9171
#
#
#
# Elastic Compliance Matrix: (Units=1/GPa)
#
#
# Indices 1 2 3 4 5 6 
#
# 1 0.012021 -0.001230 -0.002127 0.000903 0.002939 0.001059
# 2 -0.001230 0.009064 -0.001544 -0.000758 0.001245 0.002090
# 3 -0.002127 -0.001544 0.010591 0.000712 0.006584 0.000752
# 4 0.000903 -0.000758 0.000712 0.019622 0.004296 -0.000158
# 5 0.002939 0.001245 0.006584 0.004296 0.031811 0.001966
# 6 0.001059 0.002090 0.000752 -0.000158 0.001966 0.021273
#
#
# Mechanical properties :
#
#
# Convention : Reuss Voigt Hill
#
# Bulk Modulus (GPa) = 45.71261 57.51910 51.61586
# Shear Modulus (GPa) = 41.16108 45.67644 43.41876
#
# Velocity S-wave (km/s) = 3.88595 4.09355 3.99110
# Velocity P-wave (km/s) = 6.07491 6.59126 6.33835
#
# Compressibility (1/GPa) = 0.02187580
#
# Stress axis : x y z
#
# Youngs Moduli (GPa) = 83.18770 110.32938 94.41724
#
# Poissons Ratio (x) = 0.13566 0.20080
# Poissons Ratio (y) = 0.10228 0.14577
# Poissons Ratio (z) = 0.17692 0.17033
#
# Static dielectric constant tensor:
#      x y z
#    x 2.169220 -0.040740 -0.020390 
#    y -0.040740 2.184220 -0.016210 
#    z -0.020390 -0.016210 2.115940 
# 
# From -- ./inp_files/158781.got.cif
#   From: 2010.05.17/outbox.cif.g08.bks.cpg/sg2_80_cif.got.tgz:158781.got - 2010.06.03 11:33:40.
