data_PCOD9092087
_publ_section_title
;
Structure prediction by ZEFSAII (Michael W. Deem and Ramdas Pophale) SiO2 
 PCOD9092087
Probable space group: P -1
;
_chemical_formula_sum "Si O2"
_cell_formula_units_Z 14
_cell_length_a 8.716293
_cell_length_b 11.495227
_cell_length_c 25.063608
_cell_angle_alpha 145.777591
_cell_angle_beta 154.888465
_cell_angle_gamma 36.545442
_cell_volume 583.437993
_symmetry_space_group_name_H-M "P -1"
_symmetry_group_IT_number 2
_symmetry_cell_setting 'triclinic'
loop_
_space_group_symop_operation_xyz
x,y,z
-x,-y,-z
loop_
_atom_site_type_symbol
_atom_site_label
_atom_site_fract_x
_atom_site_fract_y
_atom_site_fract_z
Si Si1 0.940927 0.085631 0.896939
Si Si2 0.910236 0.711225 0.294362
Si Si3 0.080952 0.727839 0.147070
Si Si4 0.023588 0.485940 0.133950
Si Si5 0.372018 0.044775 0.537042
Si Si6 0.119441 0.491037 0.595688
Si Si7 0.154164 0.610377 0.763148
O O1 0.496135 0.138043 0.767511
O O2 0.103675 0.163529 0.923303
O O3 0.094334 0.837352 0.858199
O O4 0.007671 0.245826 0.024814
O O5 0.019315 0.545775 0.313921
O O6 0.874791 0.579762 0.179338
O O7 0.201882 0.857087 0.433829
O O8 0.858060 0.638704 0.089712
O O9 0.287000 0.898791 0.302700
O O10 0.418414 0.527879 0.160526
O O11 0.449638 0.503929 0.273462
O O12 0.074913 0.268371 0.522503
O O13 0.500000 0.000000 0.500000
O O14 0.995861 0.644946 0.665789
O O15 0.000000 0.500000 0.500000
#
# Coordination Sequence:
#
# PCOD9092087 Si02
#       7
#     2   2   2   2   2   2   2
#     4  11  23  39  64  91 129 173 201 249 329 363
#     4  11  22  41  64  93 129 162 207 260 312 376
#     4   9  21  40  63  92 118 165 216 259 304 365
#     4  10  21  41  64  90 127 164 214 261 298 376
#     4  10  19  40  66  86 120 160 206 257 313 359
#     4  10  23  41  66  97 119 162 219 259 307 369
#     4   9  23  40  58  92 132 160 209 257 305 375
#
# _framework density 23.995695000000001
#
# number of rings (size 3 to 8) (size 9 to 14) (size 15 to 20)
#    0.000    2.286    2.857    0.857    2.000    9.143 
#    0.000    8.571    0.000    0.000    0.000    0.000 
#    0.000    0.000    0.000    0.000    0.000    0.000 
#
# Total GULP energy -78215.827485 kJ/mol
# GULP energy per Si atom -5586.844820 kJ/mol
# Density = 2.394108 g / cm^3
# Si number density = 23.995695 Si / 1000 Ang^3
#
#
#
# Elastic Constant Matrix: (Units=GPa)
#
#
# Indices 1 2 3 4 5 6 
#
# 1 121.1031 31.0292 32.8230 13.0905 -4.6454 8.7005
# 2 31.0292 97.7858 44.7969 27.0295 2.9526 8.0012
# 3 32.8230 44.7969 105.2284 28.3773 -1.9388 1.5864
# 4 13.0905 27.0295 28.3773 43.1920 7.1748 -2.4015
# 5 -4.6454 2.9526 -1.9388 7.1748 43.8629 6.7822
# 6 8.7005 8.0012 1.5864 -2.4015 6.7822 29.1321
#
#
#
# Elastic Compliance Matrix: (Units=1/GPa)
#
#
# Indices 1 2 3 4 5 6 
#
# 1 0.009584 -0.001710 -0.001921 -0.000997 0.001634 -0.002751
# 2 -0.001710 0.014622 -0.003923 -0.006319 0.000295 -0.003881
# 3 -0.001921 -0.003923 0.013437 -0.006061 0.001640 0.000038
# 4 -0.000997 -0.006319 -0.006061 0.032805 -0.006325 0.006540
# 5 0.001634 0.000295 0.001640 -0.006325 0.025146 -0.007034
# 6 -0.002751 -0.003881 0.000038 0.006540 -0.007034 0.038388
#
#
# Mechanical properties :
#
#
# Convention : Reuss Voigt Hill
#
# Bulk Modulus (GPa) = 44.37742 60.15727 52.26735
# Shear Modulus (GPa) = 31.92794 37.60196 34.76495
#
# Velocity S-wave (km/s) = 3.65165 3.96287 3.81044
# Velocity P-wave (km/s) = 6.02607 6.78701 6.41783
#
# Compressibility (1/GPa) = 0.02253398
#
# Stress axis : x y z
#
# Youngs Moduli (GPa) = 104.33760 68.39167 74.42327
#
# Poissons Ratio (x) = 0.11694 0.14299
# Poissons Ratio (y) = 0.17840 0.29198
# Poissons Ratio (z) = 0.20046 0.26831
#
# Static dielectric constant tensor:
#      x y z
#    x 1.956460 -0.004870 -0.036320 
#    y -0.004870 2.003330 -0.024040 
#    z -0.036320 -0.024040 1.992770 
# 
# From -- ./inp_files/617008.got.cif
#   From: 2010.05.17/outbox.cif.g08.bks.cpg/sg2_309_cif.got.tgz:617008.got - 2010.06.03 11:33:40.
