data_PCOD9092344
_publ_section_title
;
Structure prediction by ZEFSAII (Michael W. Deem and Ramdas Pophale) SiO2 
 PCOD9092344
Probable space group: P -1
;
_chemical_formula_sum "Si O2"
_cell_formula_units_Z 12
_cell_length_a 17.470997
_cell_length_b 9.237171
_cell_length_c 10.014034
_cell_angle_alpha 47.385934
_cell_angle_beta 53.663100
_cell_angle_gamma 27.078562
_cell_volume 541.141189
_symmetry_space_group_name_H-M "P -1"
_symmetry_group_IT_number 2
_symmetry_cell_setting 'triclinic'
loop_
_space_group_symop_operation_xyz
x,y,z
-x,-y,-z
loop_
_atom_site_type_symbol
_atom_site_label
_atom_site_fract_x
_atom_site_fract_y
_atom_site_fract_z
Si Si1 0.638755 0.381711 0.590334
Si Si2 0.295682 0.360888 0.784117
Si Si3 0.526847 0.585765 0.048181
Si Si4 0.806635 0.384160 0.968920
Si Si5 0.121825 0.300855 0.372978
Si Si6 0.980165 0.703117 0.783985
O O1 0.601318 0.659500 0.397978
O O2 0.723200 0.115190 0.547337
O O3 0.794907 0.114306 0.703102
O O4 0.496619 0.507757 0.737542
O O5 0.120877 0.621281 0.724934
O O6 0.387674 0.996296 0.935616
O O7 0.258009 0.504294 0.881415
O O8 0.700518 0.406473 0.983947
O O9 0.500000 0.500000 0.000000
O O10 0.798581 0.620680 0.777200
O O11 0.000000 0.000000 0.000000
O O12 0.003545 0.440016 0.283326
O O13 0.000000 0.500000 0.500000
O O14 0.000000 0.500000 0.000000
#
# Coordination Sequence:
#
# PCOD9092344 Si02
#       6
#     2   2   2   2   2   2
#     4  10  24  43  73 106 144 195 242 297 364 435
#     4  12  23  47  76 104 146 196 241 303 366 433
#     4  12  29  48  72 105 152 191 245 309 366 427
#     4  12  27  45  76 106 145 196 245 298 372 440
#     4  10  22  42  70 109 147 184 245 299 352 438
#     4  10  19  40  75 101 146 189 236 290 365 418
#
# _framework density 22.175359
#
# number of rings (size 3 to 8) (size 9 to 14) (size 15 to 20)
#    1.000    0.000    5.000    2.000    4.667    2.667 
#    3.000    0.000    0.000    0.000    0.000    0.000 
#    0.000    0.000    0.000    0.000    0.000    0.000 
#
# Total GULP energy -67063.928086 kJ/mol
# GULP energy per Si atom -5588.660674 kJ/mol
# Density = 2.212489 g / cm^3
# Si number density = 22.175359 Si / 1000 Ang^3
#
#
#
# Elastic Constant Matrix: (Units=GPa)
#
#
# Indices 1 2 3 4 5 6 
#
# 1 151.5618 19.5004 36.2961 9.7003 3.8484 0.7190
# 2 19.5004 41.5135 -0.3524 8.1926 10.3468 8.2853
# 3 36.2961 -0.3524 137.0670 15.2879 -9.5071 20.0446
# 4 9.7003 8.1926 15.2879 27.5628 8.0587 3.0602
# 5 3.8484 10.3468 -9.5071 8.0587 44.4838 3.1775
# 6 0.7190 8.2853 20.0446 3.0602 3.1775 36.3347
#
#
#
# Elastic Compliance Matrix: (Units=1/GPa)
#
#
# Indices 1 2 3 4 5 6 
#
# 1 0.007678 -0.003880 -0.002327 -0.000390 -0.000337 0.002079
# 2 -0.003880 0.029800 0.002634 -0.006904 -0.004267 -0.007217
# 3 -0.002327 0.002634 0.009571 -0.005535 0.003039 -0.005634
# 4 -0.000390 -0.006904 -0.005535 0.043568 -0.007552 0.001627
# 5 -0.000337 -0.004267 0.003039 -0.007552 0.025684 -0.002307
# 6 0.002079 -0.007217 -0.005634 0.001627 -0.002307 0.032299
#
#
# Mechanical properties :
#
#
# Convention : Reuss Voigt Hill
#
# Bulk Modulus (GPa) = 25.06187 49.00338 37.03262
# Shear Modulus (GPa) = 29.57733 39.98947 34.78340
#
# Velocity S-wave (km/s) = 3.65607 4.25117 3.96480
# Velocity P-wave (km/s) = 5.39895 6.80020 6.13968
#
# Compressibility (1/GPa) = 0.03990126
#
# Stress axis : x y z
#
# Youngs Moduli (GPa) = 130.23892 33.55719 104.48423
#
# Poissons Ratio (x) = 0.13022 0.24314
# Poissons Ratio (y) = 0.50538 -0.27517
# Poissons Ratio (z) = 0.30307 -0.08838
#
# Static dielectric constant tensor:
#      x y z
#    x 1.732570 0.002480 0.020030 
#    y 0.002480 1.831730 -0.024090 
#    z 0.020030 -0.024090 1.811860 
# 
# From -- ./inp_files/324469.got.cif
#   From: 2010.05.17/outbox.cif.g08.bks.cpg/sg2_163_cif.got.tgz:324469.got - 2010.06.03 11:33:40.
