data_PCOD9092275
_publ_section_title
;
Structure prediction by ZEFSAII (Michael W. Deem and Ramdas Pophale) SiO2 
 PCOD9092275
Probable space group: P -1
;
_chemical_formula_sum "Si O2"
_cell_formula_units_Z 16
_cell_length_a 15.003071
_cell_length_b 9.136487
_cell_length_c 11.800104
_cell_angle_alpha 54.166621
_cell_angle_beta 72.589223
_cell_angle_gamma 36.339866
_cell_volume 725.340228
_symmetry_space_group_name_H-M "P -1"
_symmetry_group_IT_number 2
_symmetry_cell_setting 'triclinic'
loop_
_space_group_symop_operation_xyz
x,y,z
-x,-y,-z
loop_
_atom_site_type_symbol
_atom_site_label
_atom_site_fract_x
_atom_site_fract_y
_atom_site_fract_z
Si Si1 0.323625 0.687967 0.991848
Si Si2 0.303707 0.455636 0.903588
Si Si3 0.574093 0.124892 0.801066
Si Si4 0.900936 0.305874 0.331974
Si Si5 0.591187 0.780859 0.387272
Si Si6 0.904142 0.679040 0.840196
Si Si7 0.314616 0.457448 0.297386
Si Si8 0.026120 0.754715 0.147827
O O1 0.316975 0.519318 0.993279
O O2 0.153918 0.042843 0.853570
O O3 0.500000 0.500000 0.000000
O O4 0.295599 0.673951 0.138639
O O5 0.146131 0.689541 0.778976
O O6 0.419363 0.405420 0.808843
O O7 0.360040 0.160780 0.032319
O O8 0.723278 0.021138 0.783701
O O9 0.515868 0.173044 0.675256
O O10 0.736724 0.610368 0.325555
O O11 0.007185 0.314854 0.271993
O O12 0.000000 0.000000 0.500000
O O13 0.661248 0.570679 0.565558
O O14 0.474268 0.117459 0.332290
O O15 0.898691 0.497535 0.858578
O O16 0.000000 0.500000 0.000000
O O17 0.158710 0.577265 0.275343
O O18 0.000000 0.000000 0.000000
#
# Coordination Sequence:
#
# PCOD9092275 Si02
#       8
#     2   2   2   2   2   2   2   2
#     4  11  24  38  64 100 136 166 224 276 341 399
#     4  10  21  41  66  94 133 176 216 283 341 399
#     4  10  19  40  69  94 125 168 228 280 330 407
#     4  11  27  44  66  96 140 180 223 285 345 397
#     4  10  21  42  66  87 130 180 219 267 347 401
#     4  12  24  40  72 103 130 176 237 277 332 406
#     4  10  21  41  66  90 131 178 215 272 344 402
#     4  10  23  41  66 101 135 172 220 282 335 400
#
# _framework density 22.058615
#
# number of rings (size 3 to 8) (size 9 to 14) (size 15 to 20)
#    0.000    1.500    3.750    0.750    5.250    1.000 
#    2.250    1.875    0.000    0.000    0.000    0.000 
#    0.000    0.000    0.000    0.000    0.000    0.000 
#
# Total GULP energy -89260.269059 kJ/mol
# GULP energy per Si atom -5578.766816 kJ/mol
# Density = 2.200841 g / cm^3
# Si number density = 22.058615 Si / 1000 Ang^3
#
#
#
# Elastic Constant Matrix: (Units=GPa)
#
#
# Indices 1 2 3 4 5 6 
#
# 1 114.9527 41.7617 50.8669 3.6188 11.5741 -29.2957
# 2 41.7617 51.0021 1.2783 3.1963 -4.8325 -25.1800
# 3 50.8669 1.2783 122.3538 14.4155 27.9050 0.1912
# 4 3.6188 3.1963 14.4155 30.3941 -0.6288 3.2482
# 5 11.5741 -4.8325 27.9050 -0.6288 31.0563 -2.2312
# 6 -29.2957 -25.1800 0.1912 3.2482 -2.2312 47.5650
#
#
#
# Elastic Compliance Matrix: (Units=1/GPa)
#
#
# Indices 1 2 3 4 5 6 
#
# 1 0.017417 -0.012453 -0.006933 0.002065 -0.001875 0.003934
# 2 -0.012453 0.037061 0.003568 -0.005296 0.008005 0.012672
# 3 -0.006933 0.003568 0.013953 -0.006104 -0.009700 -0.002475
# 4 0.002065 -0.005296 -0.006104 0.036604 0.004359 -0.003803
# 5 -0.001875 0.008005 -0.009700 0.004359 0.043297 0.004855
# 6 0.003934 0.012672 -0.002475 -0.003803 0.004855 0.030653
#
#
# Mechanical properties :
#
#
# Convention : Reuss Voigt Hill
#
# Bulk Modulus (GPa) = 27.17580 52.90249 40.03914
# Shear Modulus (GPa) = 22.43315 34.76320 28.59817
#
# Velocity S-wave (km/s) = 3.19247 3.97413 3.60455
# Velocity P-wave (km/s) = 5.09271 6.71513 5.95939
#
# Compressibility (1/GPa) = 0.03679745
#
# Stress axis : x y z
#
# Youngs Moduli (GPa) = 57.41389 26.98258 71.66864
#
# Poissons Ratio (x) = 0.33601 0.49685
# Poissons Ratio (y) = 0.71496 -0.25574
# Poissons Ratio (z) = 0.39803 -0.09628
#
# Static dielectric constant tensor:
#      x y z
#    x 1.812330 -0.060740 0.013410 
#    y -0.060740 1.926770 -0.016460 
#    z 0.013410 -0.016460 1.768220 
# 
# From -- ./inp_files/445645.got.cif
#   From: 2010.05.17/outbox.cif.g08.bks.cpg/sg2_223_cif.got.tgz:445645.got - 2010.06.03 11:33:40.
