data_PCOD9092483
_publ_section_title
;
Structure prediction by ZEFSAII (Michael W. Deem and Ramdas Pophale) SiO2 
 PCOD9092483
Probable space group: P -1
;
_chemical_formula_sum "Si O2"
_cell_formula_units_Z 14
_cell_length_a 8.309466
_cell_length_b 8.769261
_cell_length_c 10.838897
_cell_angle_alpha 61.192356
_cell_angle_beta 69.377406
_cell_angle_gamma 57.957552
_cell_volume 581.652693
_symmetry_space_group_name_H-M "P -1"
_symmetry_group_IT_number 2
_symmetry_cell_setting 'triclinic'
loop_
_space_group_symop_operation_xyz
x,y,z
-x,-y,-z
loop_
_atom_site_type_symbol
_atom_site_label
_atom_site_fract_x
_atom_site_fract_y
_atom_site_fract_z
Si Si1 0.584651 0.350458 0.648617
Si Si2 0.883084 0.872097 0.078234
Si Si3 0.504338 0.570125 0.830275
Si Si4 0.244938 0.053030 0.163022
Si Si5 0.878275 0.566000 0.812336
Si Si6 0.985968 0.332620 0.489225
Si Si7 0.157152 0.982437 0.711064
O O1 0.500000 0.500000 0.500000
O O2 0.497429 0.436768 0.771867
O O3 0.801995 0.319661 0.597382
O O4 0.608506 0.130625 0.726991
O O5 0.838876 0.879086 0.231320
O O6 0.013654 0.653124 0.084971
O O7 0.716545 0.968475 0.986073
O O8 0.000000 0.000000 0.000000
O O9 0.709061 0.574045 0.766657
O O10 0.335444 0.779836 0.767254
O O11 0.500000 0.500000 0.000000
O O12 0.220028 0.260037 0.134215
O O13 0.031870 0.057185 0.226527
O O14 0.026013 0.608533 0.672541
O O15 0.000000 0.500000 0.500000
O O16 0.151483 0.112663 0.544436
#
# Coordination Sequence:
#
# PCOD9092483 Si02
#       7
#     2   2   2   2   2   2   2
#     4  11  26  46  69  95 138 177 216 276 329 391
#     4  10  19  41  66  90 127 177 214 262 329 393
#     4  12  25  44  67  99 133 176 222 273 331 385
#     4  10  23  42  65  97 130 173 222 265 328 395
#     4  12  24  41  70  98 133 169 224 273 323 399
#     4  11  22  44  67  96 130 177 221 262 331 397
#     4  10  22  39  68  93 132 176 215 269 328 394
#
# _framework density 24.069345999999999
#
# number of rings (size 3 to 8) (size 9 to 14) (size 15 to 20)
#    0.000    1.143    2.857    4.714    4.000    2.857 
#    0.000    1.429    0.000    0.000    0.000    0.000 
#    0.000    0.000    0.000    0.000    0.000    0.000 
#
# Total GULP energy -78165.802036 kJ/mol
# GULP energy per Si atom -5583.271574 kJ/mol
# Density = 2.401456 g / cm^3
# Si number density = 24.069346 Si / 1000 Ang^3
#
#
#
# Elastic Constant Matrix: (Units=GPa)
#
#
# Indices 1 2 3 4 5 6 
#
# 1 33.9222 17.9973 8.8582 -14.3278 11.5601 -1.3710
# 2 17.9973 145.9757 60.7769 -36.8627 23.0427 10.5822
# 3 8.8582 60.7769 116.1882 -29.8277 12.7597 4.7207
# 4 -14.3278 -36.8627 -29.8277 53.7373 -6.1862 10.7108
# 5 11.5601 23.0427 12.7597 -6.1862 32.7068 -1.3000
# 6 -1.3710 10.5822 4.7207 10.7108 -1.3000 34.6264
#
#
#
# Elastic Compliance Matrix: (Units=1/GPa)
#
#
# Indices 1 2 3 4 5 6 
#
# 1 0.037259 -0.000936 0.001279 0.009018 -0.011367 -0.001629
# 2 -0.000936 0.011043 -0.003445 0.005797 -0.005205 -0.004931
# 3 0.001279 -0.003445 0.011808 0.004729 -0.001818 -0.002037
# 4 0.009018 0.005797 0.004729 0.029408 -0.004004 -0.011306
# 5 -0.011367 -0.005205 -0.001818 -0.004004 0.038373 0.004068
# 6 -0.001629 -0.004931 -0.002037 -0.011306 0.004068 0.034250
#
#
# Mechanical properties :
#
#
# Convention : Reuss Voigt Hill
#
# Bulk Modulus (GPa) = 18.55126 52.37231 35.46179
# Shear Modulus (GPa) = 26.83649 38.11102 32.47375
#
# Velocity S-wave (km/s) = 3.34273 3.98349 3.67710
# Velocity P-wave (km/s) = 4.75633 6.55468 5.72654
#
# Compressibility (1/GPa) = 0.05390468
#
# Stress axis : x y z
#
# Youngs Moduli (GPa) = 26.83922 90.55321 84.69121
#
# Poissons Ratio (x) = 0.08478 -0.10830
# Poissons Ratio (y) = 0.02513 0.29176
# Poissons Ratio (z) = -0.03432 0.31196
#
# Static dielectric constant tensor:
#      x y z
#    x 1.934950 -0.030390 -0.002200 
#    y -0.030390 1.974650 0.028310 
#    z -0.002200 0.028310 2.053740 
# 
# From -- ./inp_files/240882.got.cif
#   From: 2010.05.17/outbox.cif.g08.bks.cpg/sg2_121_cif.got.tgz:240882.got - 2010.06.03 11:33:40.
