data_PCOD9092646
_publ_section_title
;
Structure prediction by ZEFSAII (Michael W. Deem and Ramdas Pophale) SiO2 
 PCOD9092646
Probable space group: P -1
;
_chemical_formula_sum "Si O2"
_cell_formula_units_Z 14
_cell_length_a 7.246453
_cell_length_b 15.982481
_cell_length_c 15.124581
_cell_angle_alpha 153.109591
_cell_angle_beta 127.042874
_cell_angle_gamma 68.590107
_cell_volume 555.753738
_symmetry_space_group_name_H-M "P -1"
_symmetry_group_IT_number 2
_symmetry_cell_setting 'triclinic'
loop_
_space_group_symop_operation_xyz
x,y,z
-x,-y,-z
loop_
_atom_site_type_symbol
_atom_site_label
_atom_site_fract_x
_atom_site_fract_y
_atom_site_fract_z
Si Si1 0.277255 0.475195 0.187562
Si Si2 0.492409 0.913752 0.572740
Si Si3 0.211500 0.301194 0.646035
Si Si4 0.841951 0.628736 0.582486
Si Si5 0.296020 0.245643 0.807840
Si Si6 0.953434 0.738091 0.912305
Si Si7 0.800141 0.071326 0.171939
O O1 0.325486 0.698141 0.373751
O O2 0.564472 0.527617 0.357637
O O3 0.076620 0.397305 0.137615
O O4 0.198301 0.302573 0.924361
O O5 0.634533 0.831816 0.464168
O O6 0.335177 0.039679 0.622690
O O7 0.745987 0.097586 0.869240
O O8 0.142934 0.246564 0.676449
O O9 0.970499 0.246302 0.458244
O O10 0.421414 0.545006 0.925120
O O11 0.808398 0.635056 0.683153
O O12 0.000000 0.500000 0.500000
O O13 0.030701 0.847010 0.792326
O O14 0.814248 0.873518 0.029159
O O15 0.500000 0.000000 0.000000
#
# Coordination Sequence:
#
# PCOD9092646 Si02
#       7
#     2   2   2   2   2   2   2
#     4  11  23  43  64 104 142 180 235 286 340 421
#     4  10  21  41  67 101 141 178 237 284 348 414
#     4   9  20  40  71 104 139 179 233 292 342 417
#     4  12  23  43  65  97 138 183 226 288 348 410
#     4  10  19  41  73 100 135 187 230 285 355 407
#     4  11  24  43  65  97 145 178 229 291 341 418
#     4  11  23  43  68 103 139 182 230 282 355 414
#
# _framework density 25.191015
#
# number of rings (size 3 to 8) (size 9 to 14) (size 15 to 20)
#    0.000    1.429    4.286    3.000    0.000    0.000 
#    2.571    2.857    0.000   23.143    0.000    0.000 
#    0.000    0.000    0.000    0.000    0.000    0.000 
#
# Total GULP energy -78326.097692 kJ/mol
# GULP energy per Si atom -5594.721264 kJ/mol
# Density = 2.513368 g / cm^3
# Si number density = 25.191015 Si / 1000 Ang^3
#
#
#
# Elastic Constant Matrix: (Units=GPa)
#
#
# Indices 1 2 3 4 5 6 
#
# 1 92.9996 61.3180 63.9407 -2.2224 -5.5987 10.6357
# 2 61.3180 137.3657 64.5039 -2.3460 -11.7727 18.2479
# 3 63.9407 64.5039 110.4714 -1.1945 2.4823 1.5582
# 4 -2.2224 -2.3460 -1.1945 48.2303 -5.3099 -10.8753
# 5 -5.5987 -11.7727 2.4823 -5.3099 30.9602 -5.2138
# 6 10.6357 18.2479 1.5582 -10.8753 -5.2138 36.0915
#
#
#
# Elastic Compliance Matrix: (Units=1/GPa)
#
#
# Indices 1 2 3 4 5 6 
#
# 1 0.020452 -0.004043 -0.009485 0.000049 0.002389 -0.003213
# 2 -0.004043 0.012223 -0.004817 -0.000309 0.003515 -0.004366
# 3 -0.009485 -0.004817 0.017397 0.000175 -0.004252 0.003918
# 4 0.000049 -0.000309 0.000175 0.023057 0.005150 0.007826
# 5 0.002389 0.003515 -0.004252 0.005150 0.036043 0.004461
# 6 -0.003213 -0.004366 0.003918 0.007826 0.004461 0.033695
#
#
# Mechanical properties :
#
#
# Convention : Reuss Voigt Hill
#
# Bulk Modulus (GPa) = 74.73179 80.04021 77.38600
# Shear Modulus (GPa) = 27.17134 33.12800 30.14967
#
# Velocity S-wave (km/s) = 3.28779 3.63033 3.46329
# Velocity P-wave (km/s) = 6.64403 7.02956 6.83951
#
# Compressibility (1/GPa) = 0.01338119
#
# Stress axis : x y z
#
# Youngs Moduli (GPa) = 48.89466 81.81527 57.48220
#
# Poissons Ratio (x) = 0.33081 0.54519
# Poissons Ratio (y) = 0.19770 0.27690
# Poissons Ratio (z) = 0.46375 0.39412
#
# Static dielectric constant tensor:
#      x y z
#    x 1.894870 -0.304940 0.221800 
#    y -0.304940 1.345580 0.570110 
#    z 0.221800 0.570110 1.624800 
# 
# From -- ./inp_files/505974.got.cif
#   From: 2010.05.17/outbox.cif.g08.bks.cpg/sg2_253_cif.got.tgz:505974.got - 2010.06.03 11:33:40.
