data_PCOD9092653
_publ_section_title
;
Structure prediction by ZEFSAII (Michael W. Deem and Ramdas Pophale) SiO2 
 PCOD9092653
Probable space group: P -1
;
_chemical_formula_sum "Si O2"
_cell_formula_units_Z 15
_cell_length_a 12.311829
_cell_length_b 9.224217
_cell_length_c 6.833269
_cell_angle_alpha 67.735809
_cell_angle_beta 100.823007
_cell_angle_gamma 60.718315
_cell_volume 555.488297
_symmetry_space_group_name_H-M "P -1"
_symmetry_group_IT_number 2
_symmetry_cell_setting 'triclinic'
loop_
_space_group_symop_operation_xyz
x,y,z
-x,-y,-z
loop_
_atom_site_type_symbol
_atom_site_label
_atom_site_fract_x
_atom_site_fract_y
_atom_site_fract_z
Si Si1 0.591819 0.562387 0.582025
Si Si2 0.454024 0.336448 0.016253
Si Si3 0.102103 0.385854 0.836963
Si Si4 0.000000 0.000000 0.500000
Si Si5 0.451388 0.062130 0.675595
Si Si6 0.829400 0.816135 0.647590
Si Si7 0.261419 0.769292 0.747054
Si Si8 0.876225 0.369147 0.567889
O O1 0.500000 0.500000 0.500000
O O2 0.574614 0.608817 0.786263
O O3 0.529578 0.774216 0.355115
O O4 0.755058 0.422818 0.649255
O O5 0.613474 0.256327 0.083544
O O6 0.461901 0.146369 0.078248
O O7 0.344586 0.555782 0.778583
O O8 0.175127 0.438357 0.682246
O O9 0.980669 0.610365 0.761054
O O10 0.013139 0.324626 0.740715
O O11 0.194856 0.225504 0.119635
O O12 0.823337 0.011088 0.508463
O O13 0.126953 0.830416 0.785638
O O14 0.288302 0.152441 0.550462
O O15 0.500000 0.000000 0.500000
O O16 0.069783 0.817279 0.454535
#
# Coordination Sequence:
#
# PCOD9092653 Si02
#       8
#     2   2   2   1   2   2   2   2
#     4  11  22  41  68 105 150 192 248 308 357 439
#     4   9  21  41  71  96 141 197 246 292 367 435
#     4  10  22  41  74 107 136 192 234 310 364 447
#     4  12  24  40  66  98 146 190 236 300 364 426
#     4   9  19  38  69 103 135 188 244 292 359 435
#     4  10  19  41  74 102 142 181 248 297 374 434
#     4  10  21  41  68 102 141 193 242 298 359 449
#     4  11  24  43  69 106 151 187 248 302 370 444
#
# _framework density 27.003271999999999
#
# number of rings (size 3 to 8) (size 9 to 14) (size 15 to 20)
#    0.000    1.867    2.667    0.800    0.000    3.200 
#    0.000    8.000    2.933   15.200    0.000    0.000 
#    0.000    0.000    0.000    0.000    0.000    0.000 
#
# Total GULP energy -83639.049445 kJ/mol
# GULP energy per Si atom -5575.936630 kJ/mol
# Density = 2.694181 g / cm^3
# Si number density = 27.003272 Si / 1000 Ang^3
#
#
#
# Elastic Constant Matrix: (Units=GPa)
#
#
# Indices 1 2 3 4 5 6 
#
# 1 111.2397 66.9130 31.4917 1.2205 22.7505 13.6095
# 2 66.9130 206.3450 54.8033 -31.8242 9.2604 47.3771
# 3 31.4917 54.8033 140.7628 -34.2358 0.3798 -1.0564
# 4 1.2205 -31.8242 -34.2358 48.1487 -11.2820 0.1078
# 5 22.7505 9.2604 0.3798 -11.2820 46.7801 -7.3704
# 6 13.6095 47.3771 -1.0564 0.1078 -7.3704 56.0105
#
#
#
# Elastic Compliance Matrix: (Units=1/GPa)
#
#
# Indices 1 2 3 4 5 6 
#
# 1 0.014410 -0.004375 -0.003334 -0.007517 -0.008071 -0.000911
# 2 -0.004375 0.008830 -0.001235 0.005236 0.000652 -0.006354
# 3 -0.003334 -0.001235 0.010140 0.007403 0.003971 0.002554
# 4 -0.007517 0.005236 0.007403 0.032054 0.010101 -0.001195
# 5 -0.008071 0.000652 0.003971 0.010101 0.028396 0.005202
# 6 -0.000911 -0.006354 0.002554 -0.001195 0.005202 0.024184
#
#
# Mechanical properties :
#
#
# Convention : Reuss Voigt Hill
#
# Bulk Modulus (GPa) = 64.54965 84.97373 74.76169
# Shear Modulus (GPa) = 35.44460 50.53049 42.98754
#
# Velocity S-wave (km/s) = 3.62692 4.33051 3.99424
# Velocity P-wave (km/s) = 6.44171 7.51936 7.00130
#
# Compressibility (1/GPa) = 0.01549195
#
# Stress axis : x y z
#
# Youngs Moduli (GPa) = 69.39752 113.24839 98.62254
#
# Poissons Ratio (x) = 0.49550 0.32876
# Poissons Ratio (y) = 0.30364 0.12179
# Poissons Ratio (z) = 0.23134 0.13985
#
# Static dielectric constant tensor:
#      x y z
#    x 1.731340 0.052170 0.016690 
#    y 0.052170 2.095560 0.081900 
#    z 0.016690 0.081900 2.343580 
# 
# From -- ./inp_files/237973.got.cif
#   From: 2010.05.17/outbox.cif.g08.bks.cpg/sg2_119_cif.got.tgz:237973.got - 2010.06.03 11:33:40.
