data_PCOD9092878
_publ_section_title
;
Structure prediction by ZEFSAII (Michael W. Deem and Ramdas Pophale) SiO2 
 PCOD9092878
Probable space group: P -1
;
_chemical_formula_sum "Si O2"
_cell_formula_units_Z 16
_cell_length_a 8.728394
_cell_length_b 17.446001
_cell_length_c 9.167804
_cell_angle_alpha 133.559822
_cell_angle_beta 116.948174
_cell_angle_gamma 47.753412
_cell_volume 748.743224
_symmetry_space_group_name_H-M "P -1"
_symmetry_group_IT_number 2
_symmetry_cell_setting 'triclinic'
loop_
_space_group_symop_operation_xyz
x,y,z
-x,-y,-z
loop_
_atom_site_type_symbol
_atom_site_label
_atom_site_fract_x
_atom_site_fract_y
_atom_site_fract_z
Si Si1 0.576221 0.577795 0.048372
Si Si2 0.131815 0.547166 0.542524
Si Si3 0.215821 0.290712 0.608373
Si Si4 0.421620 0.344034 0.165031
Si Si5 0.367219 0.958179 0.472003
Si Si6 0.142078 0.895310 0.044110
Si Si7 0.157938 0.229394 0.823714
Si Si8 0.852556 0.283033 0.999699
O O1 0.745922 0.595992 0.215413
O O2 0.500000 0.500000 0.000000
O O3 0.628042 0.566846 0.883210
O O4 0.350572 0.711647 0.128280
O O5 0.316380 0.436617 0.378788
O O6 0.211250 0.601532 0.767604
O O7 0.000000 0.500000 0.500000
O O8 0.960890 0.666883 0.529043
O O9 0.448720 0.165758 0.525702
O O10 0.134199 0.271757 0.701408
O O11 0.665352 0.232085 0.119095
O O12 0.314260 0.265542 0.996905
O O13 0.237938 0.943628 0.269236
O O14 0.500000 0.000000 0.500000
O O15 0.225309 0.083397 0.671931
O O16 0.022872 0.845759 0.020963
O O17 0.000000 0.000000 0.000000
O O18 0.957386 0.300449 0.930062
#
# Coordination Sequence:
#
# PCOD9092878 Si02
#       8
#     2   2   2   2   2   2   2   2
#     4  10  21  39  63  92 136 170 215 274 330 384
#     4  12  25  41  67 100 138 175 227 267 328 406
#     4  10  22  42  68  94 129 177 223 270 330 400
#     4  10  22  44  65  96 133 176 221 267 331 398
#     4  10  19  43  69  94 123 172 225 266 321 411
#     4  11  24  45  68  99 138 169 215 284 346 388
#     4  10  21  40  73  92 127 173 231 272 327 389
#     4  11  24  42  63 101 136 166 225 284 324 395
#
# _framework density 21.369140000000002
#
# number of rings (size 3 to 8) (size 9 to 14) (size 15 to 20)
#    0.000    1.500    6.250    0.750    5.250    3.500 
#    2.250    2.500    0.000    0.000    0.000    0.000 
#    0.000    0.000    0.000    0.000    0.000    0.000 
#
# Total GULP energy -89073.800220 kJ/mol
# GULP energy per Si atom -5567.112514 kJ/mol
# Density = 2.132050 g / cm^3
# Si number density = 21.369140 Si / 1000 Ang^3
#
#
#
# Elastic Constant Matrix: (Units=GPa)
#
#
# Indices 1 2 3 4 5 6 
#
# 1 94.6283 4.3395 36.4479 -2.6527 -6.7852 10.9179
# 2 4.3395 87.9033 37.3255 -0.1013 1.6829 1.7106
# 3 36.4479 37.3255 110.3435 9.2168 -6.5344 -7.1468
# 4 -2.6527 -0.1013 9.2168 24.7825 -2.7177 5.2671
# 5 -6.7852 1.6829 -6.5344 -2.7177 29.5090 2.4945
# 6 10.9179 1.7106 -7.1468 5.2671 2.4945 35.2086
#
#
#
# Elastic Compliance Matrix: (Units=1/GPa)
#
#
# Indices 1 2 3 4 5 6 
#
# 1 0.013891 0.001923 -0.005954 0.005426 0.002826 -0.006622
# 2 0.001923 0.013824 -0.005801 0.002891 -0.001128 -0.002798
# 3 -0.005954 -0.005801 0.014020 -0.007042 0.000914 0.005963
# 4 0.005426 0.002891 -0.007042 0.046310 0.004677 -0.010512
# 5 0.002826 -0.001128 0.000914 0.004677 0.035561 -0.003855
# 6 -0.006622 -0.002798 0.005963 -0.010512 -0.003855 0.033647
#
#
# Mechanical properties :
#
#
# Convention : Reuss Voigt Hill
#
# Bulk Modulus (GPa) = 45.30559 49.90008 47.60283
# Shear Modulus (GPa) = 27.13356 32.21750 29.67553
#
# Velocity S-wave (km/s) = 3.56723 3.88708 3.73058
# Velocity P-wave (km/s) = 6.18177 6.59909 6.39383
#
# Compressibility (1/GPa) = 0.02207233
#
# Stress axis : x y z
#
# Youngs Moduli (GPa) = 71.98695 72.33934 71.32638
#
# Poissons Ratio (x) = -0.13914 0.42467
# Poissons Ratio (y) = -0.13846 0.41376
# Poissons Ratio (z) = 0.42861 0.41963
#
# Static dielectric constant tensor:
#      x y z
#    x 1.815980 -0.119460 -0.116430 
#    y -0.119460 2.190250 0.280180 
#    z -0.116430 0.280180 1.973770 
# 
# From -- ./inp_files/218690.got.cif
#   From: 2010.05.17/outbox.cif.g08.bks.cpg/sg2_110_cif.got.tgz:218690.got - 2010.06.03 11:33:40.
