data_PCOD9092960
_publ_section_title
;
Structure prediction by ZEFSAII (Michael W. Deem and Ramdas Pophale) SiO2 
 PCOD9092960
Probable space group: P -1
;
_chemical_formula_sum "Si O2"
_cell_formula_units_Z 16
_cell_length_a 15.606155
_cell_length_b 15.612669
_cell_length_c 15.447484
_cell_angle_alpha 127.584592
_cell_angle_beta 19.440763
_cell_angle_gamma 126.748333
_cell_volume 988.897992
_symmetry_space_group_name_H-M "P -1"
_symmetry_group_IT_number 2
_symmetry_cell_setting 'triclinic'
loop_
_space_group_symop_operation_xyz
x,y,z
-x,-y,-z
loop_
_atom_site_type_symbol
_atom_site_label
_atom_site_fract_x
_atom_site_fract_y
_atom_site_fract_z
Si Si1 0.750280 0.566232 0.761252
Si Si2 0.534824 0.496109 0.748395
Si Si3 0.744230 0.931894 0.234896
Si Si4 0.788310 0.706159 0.968084
Si Si5 0.752539 0.779486 0.281926
Si Si6 0.772926 0.646306 0.334601
Si Si7 0.702473 0.433172 0.148736
Si Si8 0.807023 0.322748 0.306144
O O1 0.683411 0.568612 0.725025
O O2 0.782371 0.676005 0.854498
O O3 0.000000 0.500000 0.500000
O O4 0.500000 0.500000 0.000000
O O5 0.349255 0.551662 0.894064
O O6 0.742112 0.445578 0.456541
O O7 0.375202 0.393659 0.886518
O O8 0.792661 0.893148 0.263518
O O9 0.500000 0.000000 0.500000
O O10 0.698368 0.820482 0.154330
O O11 0.000000 0.000000 0.000000
O O12 0.081540 0.708936 0.726509
O O13 0.780293 0.758676 0.344000
O O14 0.459860 0.737938 0.508753
O O15 0.966715 0.707104 0.991182
O O16 0.720917 0.550126 0.252585
O O17 0.539789 0.633464 0.616066
O O18 0.039236 0.622666 0.110730
#
# Coordination Sequence:
#
# PCOD9092960 Si02
#       8
#     2   2   2   2   2   2   2   2
#     4  10  21  31  49  71  94 133 170 189 231 289
#     4  11  20  32  49  70 100 133 163 192 233 281
#     4  11  22  33  52  74  93 125 163 201 246 290
#     4  10  21  35  50  69 104 130 163 201 238 286
#     4  11  21  33  47  66  97 128 160 193 245 279
#     4  10  20  30  42  64  91 131 156 194 231 274
#     4  10  20  27  44  66  93 122 169 188 222 279
#     4  11  17  28  50  64  91 135 152 189 230 276
#
# _framework density 16.179625999999999
#
# number of rings (size 3 to 8) (size 9 to 14) (size 15 to 20)
#    0.000    1.500    5.000    2.250    5.250    0.000 
#    0.000    0.000    0.000    0.000    0.000    0.000 
#    0.000    6.000    0.000    0.000    0.000    0.000 
#
# Total GULP energy -89159.172082 kJ/mol
# GULP energy per Si atom -5572.448255 kJ/mol
# Density = 1.614280 g / cm^3
# Si number density = 16.179626 Si / 1000 Ang^3
#
#
#
# Elastic Constant Matrix: (Units=GPa)
#
#
# Indices 1 2 3 4 5 6 
#
# 1 113.5622 44.1120 39.2311 0.5756 -15.8349 -12.6781
# 2 44.1120 67.3071 32.4794 -0.2523 -0.1204 -16.8541
# 3 39.2311 32.4794 113.7189 -9.3890 -20.8853 -9.9749
# 4 0.5756 -0.2523 -9.3890 21.1795 -4.7817 2.4427
# 5 -15.8349 -0.1204 -20.8853 -4.7817 18.6727 -1.2052
# 6 -12.6781 -16.8541 -9.9749 2.4427 -1.2052 25.8084
#
#
#
# Elastic Compliance Matrix: (Units=1/GPa)
#
#
# Indices 1 2 3 4 5 6 
#
# 1 0.014188 -0.009105 0.000494 0.002539 0.013279 0.001595
# 2 -0.009105 0.026907 -0.007465 -0.007804 -0.017240 0.010148
# 3 0.000494 -0.007465 0.015644 0.011393 0.020870 0.001310
# 4 0.002539 -0.007804 0.011393 0.059251 0.029783 -0.003663
# 5 0.013279 -0.017240 0.020870 0.029783 0.095997 0.004995
# 6 0.001595 0.010148 0.001310 -0.003663 0.004995 0.047244
#
#
# Mechanical properties :
#
#
# Convention : Reuss Voigt Hill
#
# Bulk Modulus (GPa) = 40.66831 58.47038 49.56935
# Shear Modulus (GPa) = 16.69016 25.04983 20.86999
#
# Velocity S-wave (km/s) = 3.21527 3.93903 3.59540
# Velocity P-wave (km/s) = 6.24292 7.54352 6.92382
#
# Compressibility (1/GPa) = 0.02458917
#
# Stress axis : x y z
#
# Youngs Moduli (GPa) = 70.47968 37.16461 63.92289
#
# Poissons Ratio (x) = 0.33837 -0.03157
# Poissons Ratio (y) = 0.64169 0.47715
# Poissons Ratio (z) = -0.03481 0.27742
#
# Static dielectric constant tensor:
#      x y z
#    x 1.591670 -0.033020 0.006310 
#    y -0.033020 1.571550 -0.010810 
#    z 0.006310 -0.010810 1.592380 
# 
# From -- ./inp_files/533770.got.cif
#   From: 2010.05.17/outbox.cif.g08.bks.cpg/sg2_267_cif.got.tgz:533770.got - 2010.06.03 11:33:40.
