data_PCOD9092798
_publ_section_title
;
Structure prediction by ZEFSAII (Michael W. Deem and Ramdas Pophale) SiO2 
 PCOD9092798
Probable space group: P -1
;
_chemical_formula_sum "Si O2"
_cell_formula_units_Z 10
_cell_length_a 8.133372
_cell_length_b 11.105060
_cell_length_c 7.276036
_cell_angle_alpha 135.988489
_cell_angle_beta 88.972256
_cell_angle_gamma 89.634987
_cell_volume 456.363562
_symmetry_space_group_name_H-M "P -1"
_symmetry_group_IT_number 2
_symmetry_cell_setting 'triclinic'
loop_
_space_group_symop_operation_xyz
x,y,z
-x,-y,-z
loop_
_atom_site_type_symbol
_atom_site_label
_atom_site_fract_x
_atom_site_fract_y
_atom_site_fract_z
Si Si1 0.057648 0.079541 0.277327
Si Si2 0.638051 0.391148 0.486726
Si Si3 0.145864 0.601128 0.202437
Si Si4 0.430719 0.094636 0.286601
Si Si5 0.735494 0.206486 0.912649
O O1 0.240377 0.157081 0.332965
O O2 0.932024 0.222643 0.513736
O O3 0.099264 0.915394 0.228419
O O4 0.000000 0.000000 0.000000
O O5 0.500000 0.500000 0.500000
O O6 0.759130 0.490068 0.729175
O O7 0.547821 0.255427 0.474160
O O8 0.729873 0.290355 0.207666
O O9 0.263539 0.652789 0.089718
O O10 0.000000 0.500000 0.000000
O O11 0.409247 0.933418 0.249314
O O12 0.500000 0.000000 0.000000
#
# Coordination Sequence:
#
# PCOD9092798 Si02
#       5
#     2   2   2   2   2
#     4  10  19  42  70  92 129 175 224 269 323 397
#     4  11  24  44  65  96 139 178 215 272 338 397
#     4  12  26  42  65 105 136 171 220 279 336 388
#     4   8  18  39  64  94 120 168 223 266 318 389
#     4   9  22  41  69  94 128 170 229 270 327 384
#
# _framework density 21.912355000000002
#
# number of rings (size 3 to 8) (size 9 to 14) (size 15 to 20)
#    1.200    0.800    2.000    0.600    2.800    4.000 
#    0.000    2.000    0.000    0.000    0.000    0.000 
#    0.000    0.000    0.000    0.000    0.000    0.000 
#
# Total GULP energy -55672.559517 kJ/mol
# GULP energy per Si atom -5567.255952 kJ/mol
# Density = 2.186248 g / cm^3
# Si number density = 21.912355 Si / 1000 Ang^3
#
#
#
# Elastic Constant Matrix: (Units=GPa)
#
#
# Indices 1 2 3 4 5 6 
#
# 1 66.1258 18.5422 26.7055 -16.4897 4.8163 4.9041
# 2 18.5422 68.9733 37.8538 -18.6788 6.3675 3.4831
# 3 26.7055 37.8538 112.0068 -22.2422 30.7402 5.7596
# 4 -16.4897 -18.6788 -22.2422 26.4550 -5.4195 -1.0218
# 5 4.8163 6.3675 30.7402 -5.4195 32.1920 -2.9500
# 6 4.9041 3.4831 5.7596 -1.0218 -2.9500 37.4822
#
#
#
# Elastic Compliance Matrix: (Units=1/GPa)
#
#
# Indices 1 2 3 4 5 6 
#
# 1 0.018738 -0.001290 -0.002526 0.008830 0.001203 -0.001608
# 2 -0.001290 0.020114 -0.005398 0.009444 0.002923 -0.000383
# 3 -0.002526 -0.005398 0.016236 0.005425 -0.013380 -0.002568
# 4 0.008830 0.009444 0.005425 0.054627 0.000706 -0.001322
# 5 0.001203 0.002923 -0.013380 0.000706 0.043667 0.005083
# 6 -0.001608 -0.000383 -0.002568 -0.001322 0.005083 0.027684
#
#
# Mechanical properties :
#
#
# Convention : Reuss Voigt Hill
#
# Bulk Modulus (GPa) = 27.27605 45.92322 36.59963
# Shear Modulus (GPa) = 23.61692 30.15946 26.88819
#
# Velocity S-wave (km/s) = 3.28653 3.71397 3.50677
# Velocity P-wave (km/s) = 5.18426 6.27651 5.75635
#
# Compressibility (1/GPa) = 0.03666221
#
# Stress axis : x y z
#
# Youngs Moduli (GPa) = 53.36772 49.71550 61.59185
#
# Poissons Ratio (x) = 0.06412 0.15556
# Poissons Ratio (y) = 0.06883 0.33244
# Poissons Ratio (z) = 0.13479 0.26834
#
# Static dielectric constant tensor:
#      x y z
#    x 1.896130 0.009460 0.066970 
#    y 0.009460 1.881470 0.035580 
#    z 0.066970 0.035580 1.826000 
# 
# From -- ./inp_files/20772.got.cif
#   From: 2010.05.17/outbox.cif.g08.bks.cpg/sg2_11_cif.got.tgz:20772.got - 2010.06.03 11:33:40.
