data_PCOD9092846
_publ_section_title
;
Structure prediction by ZEFSAII (Michael W. Deem and Ramdas Pophale) SiO2 
 PCOD9092846
Probable space group: P -1
;
_chemical_formula_sum "Si O2"
_cell_formula_units_Z 16
_cell_length_a 11.265482
_cell_length_b 19.561739
_cell_length_c 9.020946
_cell_angle_alpha 45.996849
_cell_angle_beta 117.419226
_cell_angle_gamma 148.098780
_cell_volume 710.623394
_symmetry_space_group_name_H-M "P -1"
_symmetry_group_IT_number 2
_symmetry_cell_setting 'triclinic'
loop_
_space_group_symop_operation_xyz
x,y,z
-x,-y,-z
loop_
_atom_site_type_symbol
_atom_site_label
_atom_site_fract_x
_atom_site_fract_y
_atom_site_fract_z
Si Si1 0.678458 0.312081 0.694563
Si Si2 0.833714 0.737907 0.950726
Si Si3 0.832841 0.780587 0.217688
Si Si4 0.550235 0.380381 0.264005
Si Si5 0.096333 0.379140 0.470307
Si Si6 0.222043 0.829016 0.125784
Si Si7 0.209013 0.548990 0.005349
Si Si8 0.358669 0.138740 0.020324
O O1 0.566081 0.303209 0.505475
O O2 0.813191 0.469896 0.633193
O O3 0.838139 0.315263 0.740539
O O4 0.476336 0.154066 0.928152
O O5 0.711306 0.738201 0.764007
O O6 0.847217 0.802843 0.014959
O O7 0.661156 0.542965 0.150702
O O8 0.085817 0.830242 0.951394
O O9 0.749036 0.624253 0.417212
O O10 0.677189 0.775134 0.192470
O O11 0.094934 0.945912 0.191836
O O12 0.713639 0.443303 0.122835
O O13 0.111992 0.404452 0.266192
O O14 0.866024 0.219757 0.679966
O O15 0.500000 0.000000 0.000000
O O16 0.452357 0.739534 0.922966
O O17 0.000000 0.500000 0.000000
#
# Coordination Sequence:
#
# PCOD9092846 Si02
#       8
#     2   2   2   2   2   2   2   2
#     4  11  21  37  67  97 121 164 223 256 309 380
#     4  10  22  38  63  95 126 168 204 265 317 370
#     4  10  19  43  63  91 125 164 216 252 318 377
#     4  11  22  40  64  95 133 159 211 268 324 363
#     4  10  22  39  67  92 119 163 221 254 301 383
#     4  11  22  40  64  93 128 166 211 263 315 378
#     4  11  24  40  64  95 127 163 208 265 322 367
#     4  10  23  38  68  89 125 169 206 260 312 386
#
# _framework density 22.515443000000001
#
# number of rings (size 3 to 8) (size 9 to 14) (size 15 to 20)
#    0.000    1.500    3.750    2.625    3.500    4.000 
#    0.000    3.125    8.250    0.000    0.000    0.000 
#    0.000    0.000    0.000    0.000    0.000    0.000 
#
# Total GULP energy -89135.795380 kJ/mol
# GULP energy per Si atom -5570.987211 kJ/mol
# Density = 2.246420 g / cm^3
# Si number density = 22.515443 Si / 1000 Ang^3
#
#
#
# Elastic Constant Matrix: (Units=GPa)
#
#
# Indices 1 2 3 4 5 6 
#
# 1 126.5944 13.8054 12.7055 0.4581 4.9581 1.5071
# 2 13.8054 94.3484 10.5649 0.1432 -5.8530 16.1557
# 3 12.7055 10.5649 54.6081 8.3774 -6.3139 -2.6326
# 4 0.4581 0.1432 8.3774 30.3190 6.2238 4.9579
# 5 4.9581 -5.8530 -6.3139 6.2238 31.3150 -0.3634
# 6 1.5071 16.1557 -2.6326 4.9579 -0.3634 40.9622
#
#
#
# Elastic Compliance Matrix: (Units=1/GPa)
#
#
# Indices 1 2 3 4 5 6 
#
# 1 0.008312 -0.001088 -0.002119 0.000926 -0.002133 -0.000144
# 2 -0.001088 0.011960 -0.002264 0.001046 0.001686 -0.004934
# 3 -0.002119 -0.002264 0.021221 -0.007536 0.005727 0.003298
# 4 0.000926 0.001046 -0.007536 0.037818 -0.009052 -0.005589
# 5 -0.002133 0.001686 0.005727 -0.009052 0.035554 0.001193
# 6 -0.000144 -0.004934 0.003298 -0.005589 0.001193 0.027263
#
#
# Mechanical properties :
#
#
# Convention : Reuss Voigt Hill
#
# Bulk Modulus (GPa) = 32.73322 38.85584 35.79453
# Shear Modulus (GPa) = 30.62725 36.41758 33.52241
#
# Velocity S-wave (km/s) = 3.69219 4.02611 3.86276
# Velocity P-wave (km/s) = 5.72242 6.23760 5.98556
#
# Compressibility (1/GPa) = 0.03055001
#
# Stress axis : x y z
#
# Youngs Moduli (GPa) = 120.30121 83.61463 47.12413
#
# Poissons Ratio (x) = 0.09098 0.09986
# Poissons Ratio (y) = 0.13090 0.10669
# Poissons Ratio (z) = 0.25494 0.18931
#
# Static dielectric constant tensor:
#      x y z
#    x 1.838320 0.022200 0.019560 
#    y 0.022200 1.925930 -0.005750 
#    z 0.019560 -0.005750 1.905910 
# 
# From -- ./inp_files/282914.got.cif
#   From: 2010.05.17/outbox.cif.g08.bks.cpg/sg2_142_cif.got.tgz:282914.got - 2010.06.03 11:33:40.
