data_PCOD9092869
_publ_section_title
;
Structure prediction by ZEFSAII (Michael W. Deem and Ramdas Pophale) SiO2 
 PCOD9092869
Probable space group: P -1
;
_chemical_formula_sum "Si O2"
_cell_formula_units_Z 14
_cell_length_a 11.416427
_cell_length_b 8.783933
_cell_length_c 17.421263
_cell_angle_alpha 132.954767
_cell_angle_beta 31.119233
_cell_angle_gamma 141.019953
_cell_volume 567.286169
_symmetry_space_group_name_H-M "P -1"
_symmetry_group_IT_number 2
_symmetry_cell_setting 'triclinic'
loop_
_space_group_symop_operation_xyz
x,y,z
-x,-y,-z
loop_
_atom_site_type_symbol
_atom_site_label
_atom_site_fract_x
_atom_site_fract_y
_atom_site_fract_z
Si Si1 0.915763 0.402820 0.098463
Si Si2 0.723943 0.788652 0.182573
Si Si3 0.484305 0.108017 0.816222
Si Si4 0.193727 0.520680 0.650635
Si Si5 0.776007 0.925018 0.503703
Si Si6 0.184459 0.384873 0.351130
Si Si7 0.175564 0.291215 0.148116
O O1 0.872549 0.532354 0.238796
O O2 0.137350 0.343317 0.978845
O O3 0.650747 0.145965 0.151361
O O4 0.000000 0.500000 0.000000
O O5 0.661299 0.909263 0.188242
O O6 0.462307 0.584280 0.301311
O O7 0.937568 0.008604 0.188983
O O8 0.739667 0.110836 0.641969
O O9 0.406966 0.270833 0.966893
O O10 0.492935 0.755401 0.559650
O O11 0.193659 0.281536 0.541830
O O12 0.976532 0.577095 0.756780
O O13 0.025500 0.111487 0.376846
O O14 0.254579 0.385661 0.222516
O O15 0.000000 0.500000 0.500000
#
# Coordination Sequence:
#
# PCOD9092869 Si02
#       7
#     2   2   2   2   2   2   2
#     4  10  20  37  68 103 133 175 228 284 331 394
#     4  11  21  44  70  98 136 173 230 277 326 409
#     4  10  19  43  67  96 131 177 228 273 322 413
#     4  10  20  41  67  98 135 182 225 271 346 407
#     4  10  22  40  64  95 145 168 216 287 331 395
#     4  12  26  43  66 107 140 168 230 286 326 407
#     4  11  22  43  77  94 126 190 227 270 341 394
#
# _framework density 24.678902000000001
#
# number of rings (size 3 to 8) (size 9 to 14) (size 15 to 20)
#    0.000    1.429    5.714    0.857    4.000    2.857 
#    5.143    2.857    0.000    0.000    0.000    0.000 
#    0.000    0.000    0.000    0.000    0.000    0.000 
#
# Total GULP energy -78105.159822 kJ/mol
# GULP energy per Si atom -5578.939987 kJ/mol
# Density = 2.462273 g / cm^3
# Si number density = 24.678902 Si / 1000 Ang^3
#
#
#
# Elastic Constant Matrix: (Units=GPa)
#
#
# Indices 1 2 3 4 5 6 
#
# 1 62.1279 18.3768 22.7582 1.6475 -1.2348 -0.6779
# 2 18.3768 121.0649 33.8983 9.5390 6.7652 -6.9053
# 3 22.7582 33.8983 115.0528 19.2385 -3.1480 -6.4013
# 4 1.6475 9.5390 19.2385 41.9855 -16.3243 10.5180
# 5 -1.2348 6.7652 -3.1480 -16.3243 31.4344 -2.9669
# 6 -0.6779 -6.9053 -6.4013 10.5180 -2.9669 30.9980
#
#
#
# Elastic Compliance Matrix: (Units=1/GPa)
#
#
# Indices 1 2 3 4 5 6 
#
# 1 0.017919 -0.002169 -0.003339 0.002441 0.001970 -0.001421
# 2 -0.002169 0.009736 -0.001829 -0.003447 -0.003914 0.002539
# 3 -0.003339 -0.001829 0.011061 -0.005990 -0.001391 0.003703
# 4 0.002441 -0.003447 -0.005990 0.037736 0.018610 -0.012974
# 5 0.001970 -0.003914 -0.001391 0.018610 0.041935 -0.003417
# 6 -0.001421 0.002539 0.003703 -0.012974 -0.003417 0.037635
#
#
# Mechanical properties :
#
#
# Convention : Reuss Voigt Hill
#
# Bulk Modulus (GPa) = 41.59236 49.81243 45.70240
# Shear Modulus (GPa) = 27.97839 35.76440 31.87140
#
# Velocity S-wave (km/s) = 3.37069 3.81095 3.59756
# Velocity P-wave (km/s) = 5.66028 6.29226 5.98462
#
# Compressibility (1/GPa) = 0.02404287
#
# Stress axis : x y z
#
# Youngs Moduli (GPa) = 55.80576 102.70647 90.41032
#
# Poissons Ratio (x) = 0.22273 0.30188
# Poissons Ratio (y) = 0.12102 0.16538
# Poissons Ratio (z) = 0.18633 0.18788
#
# Static dielectric constant tensor:
#      x y z
#    x 2.005600 -0.011900 -0.015790 
#    y -0.011900 2.066380 -0.016670 
#    z -0.015790 -0.016670 2.015330 
# 
# From -- ./inp_files/492082.got.cif
#   From: 2010.05.17/outbox.cif.g08.bks.cpg/sg2_247_cif.got.tgz:492082.got - 2010.06.03 11:33:40.
