data_PCOD9092923
_publ_section_title
;
Structure prediction by ZEFSAII (Michael W. Deem and Ramdas Pophale) SiO2 
 PCOD9092923
Probable space group: P -1
;
_chemical_formula_sum "Si O2"
_cell_formula_units_Z 14
_cell_length_a 21.736039
_cell_length_b 9.183472
_cell_length_c 7.631577
_cell_angle_alpha 46.529665
_cell_angle_beta 146.330432
_cell_angle_gamma 135.534931
_cell_volume 573.987212
_symmetry_space_group_name_H-M "P -1"
_symmetry_group_IT_number 2
_symmetry_cell_setting 'triclinic'
loop_
_space_group_symop_operation_xyz
x,y,z
-x,-y,-z
loop_
_atom_site_type_symbol
_atom_site_label
_atom_site_fract_x
_atom_site_fract_y
_atom_site_fract_z
Si Si1 0.227063 0.477571 0.854695
Si Si2 0.914631 0.223128 0.742082
Si Si3 0.144180 0.132701 0.397165
Si Si4 0.477833 0.712505 0.186182
Si Si5 0.450796 0.127239 0.412979
Si Si6 0.372347 0.411227 0.588761
Si Si7 0.821694 0.972755 0.074788
O O1 0.126245 0.578159 0.558224
O O2 0.186934 0.250943 0.851465
O O3 0.339432 0.637713 0.879721
O O4 0.288016 0.456663 0.200864
O O5 0.855579 0.029317 0.624777
O O6 0.052210 0.250229 0.037523
O O7 0.872391 0.148840 0.900637
O O8 0.275647 0.303715 0.594404
O O9 0.105761 0.002071 0.594325
O O10 0.500000 0.500000 0.500000
O O11 0.509013 0.874334 0.287667
O O12 0.570395 0.756146 0.212763
O O13 0.517542 0.371672 0.302373
O O14 0.500000 0.000000 0.500000
O O15 0.310015 0.044265 0.166011
#
# Coordination Sequence:
#
# PCOD9092923 Si02
#       7
#     2   2   2   2   2   2   2
#     4  10  20  42  72  92 134 184 212 273 341 388
#     4  11  26  48  65 101 132 179 232 271 331 390
#     4  11  26  44  70  97 134 177 228 281 322 394
#     4   8  15  36  65  90 131 177 203 259 344 390
#     4  10  20  35  65 103 134 165 220 275 327 400
#     4  10  19  44  67  97 137 177 213 269 346 396
#     4  12  23  46  67  98 139 174 221 281 329 398
#
# _framework density 24.390788000000001
#
# number of rings (size 3 to 8) (size 9 to 14) (size 15 to 20)
#    0.000    2.000    5.714    0.429    4.000    2.857 
#    2.571    3.571    0.000    0.000    0.000    0.000 
#    0.000    0.000    0.000    0.000    0.000    0.000 
#
# Total GULP energy -78295.670863 kJ/mol
# GULP energy per Si atom -5592.547919 kJ/mol
# Density = 2.433527 g / cm^3
# Si number density = 24.390788 Si / 1000 Ang^3
#
#
#
# Elastic Constant Matrix: (Units=GPa)
#
#
# Indices 1 2 3 4 5 6 
#
# 1 90.0357 18.2070 23.2610 -9.3690 9.3180 -6.3397
# 2 18.2070 32.2688 18.4772 -8.3448 25.0921 -8.0698
# 3 23.2610 18.4772 74.2365 -16.7566 12.0484 -14.8755
# 4 -9.3690 -8.3448 -16.7566 35.8566 -4.1385 14.8406
# 5 9.3180 25.0921 12.0484 -4.1385 47.5034 -7.1519
# 6 -6.3397 -8.0698 -14.8755 14.8406 -7.1519 36.5240
#
#
#
# Elastic Compliance Matrix: (Units=1/GPa)
#
#
# Indices 1 2 3 4 5 6 
#
# 1 0.013098 -0.007366 -0.002449 0.000934 0.001972 -0.000345
# 2 -0.007366 0.064566 -0.007271 0.005435 -0.030051 0.001933
# 3 -0.002449 -0.007271 0.017647 0.004577 0.000762 0.003445
# 4 0.000934 0.005435 0.004577 0.036188 -0.002875 -0.012040
# 5 0.001972 -0.030051 0.000762 -0.002875 0.036443 0.002317
# 6 -0.000345 0.001933 0.003445 -0.012040 0.002317 0.034496
#
#
# Mechanical properties :
#
#
# Convention : Reuss Voigt Hill
#
# Bulk Modulus (GPa) = 16.35623 35.15905 25.75764
# Shear Modulus (GPa) = 19.45608 33.08318 26.26963
#
# Velocity S-wave (km/s) = 2.82739 3.68690 3.28538
# Velocity P-wave (km/s) = 4.16885 5.70706 4.99749
#
# Compressibility (1/GPa) = 0.06113879
#
# Stress axis : x y z
#
# Youngs Moduli (GPa) = 76.34876 15.48807 56.66610
#
# Poissons Ratio (x) = 0.11409 0.13877
# Poissons Ratio (y) = 0.56241 0.41201
# Poissons Ratio (z) = 0.18697 0.11261
#
# Static dielectric constant tensor:
#      x y z
#    x 1.987060 0.105140 -0.076320 
#    y 0.105140 1.911340 -0.009390 
#    z -0.076320 -0.009390 1.959860 
# 
# From -- ./inp_files/351645.got.cif
#   From: 2010.05.17/outbox.cif.g08.bks.cpg/sg2_176_cif.got.tgz:351645.got - 2010.06.03 11:33:40.
