data_PCOD9092062
_publ_section_title
;
Structure prediction by ZEFSAII (Michael W. Deem and Ramdas Pophale) SiO2 
 PCOD9092062
Probable space group: P -1
;
_chemical_formula_sum "Si O2"
_cell_formula_units_Z 16
_cell_length_a 17.325505
_cell_length_b 22.789613
_cell_length_c 11.654543
_cell_angle_alpha 147.490039
_cell_angle_beta 151.693301
_cell_angle_gamma 21.016099
_cell_volume 776.316140
_symmetry_space_group_name_H-M "P -1"
_symmetry_group_IT_number 2
_symmetry_cell_setting 'triclinic'
loop_
_space_group_symop_operation_xyz
x,y,z
-x,-y,-z
loop_
_atom_site_type_symbol
_atom_site_label
_atom_site_fract_x
_atom_site_fract_y
_atom_site_fract_z
Si Si1 0.352772 0.087773 0.072790
Si Si2 0.760813 0.621132 0.472693
Si Si3 0.763999 0.191702 0.014427
Si Si4 0.327942 0.240575 0.911141
Si Si5 0.168433 0.669316 0.298747
Si Si6 0.297171 0.554447 0.739298
Si Si7 0.535329 0.313670 0.154722
Si Si8 0.786411 0.482390 0.652770
O O1 0.294391 0.238096 0.296694
O O2 0.505014 0.939590 0.118635
O O3 0.086112 0.174572 0.834258
O O4 0.500000 0.000000 0.000000
O O5 0.497699 0.723594 0.235949
O O6 0.806380 0.499492 0.421273
O O7 0.000000 0.500000 0.500000
O O8 0.842871 0.264035 0.175096
O O9 0.719046 0.227248 0.149040
O O10 0.000000 0.000000 0.000000
O O11 0.045513 0.349870 0.705560
O O12 0.444834 0.241264 0.955525
O O13 0.293892 0.356352 0.150022
O O14 0.307227 0.505738 0.140021
O O15 0.337298 0.689219 0.575281
O O16 0.153689 0.617014 0.318334
O O17 0.398527 0.468989 0.604999
O O18 0.500000 0.500000 0.000000
#
# Coordination Sequence:
#
# PCOD9092062 Si02
#       8
#     2   2   2   2   2   2   2   2
#     4  12  24  41  66 103 131 168 222 279 322 385
#     4  11  27  46  68  97 136 181 222 278 338 401
#     4  11  25  44  68  95 133 175 228 275 327 401
#     4  10  23  36  67 100 131 167 213 278 329 391
#     4  10  21  39  69  90 133 168 215 268 327 399
#     4  10  23  43  65  90 128 180 219 260 332 409
#     4  10  22  42  63  96 124 176 212 268 332 394
#     4  10  19  40  65  95 130 173 215 261 342 402
#
# _framework density 20.61016
#
# number of rings (size 3 to 8) (size 9 to 14) (size 15 to 20)
#    0.000    1.500    2.500    1.500    8.750    1.500 
#    0.000    2.500    0.000    0.000    0.000    0.000 
#    0.000    0.000    0.000    0.000    0.000    0.000 
#
# Total GULP energy -89134.618632 kJ/mol
# GULP energy per Si atom -5570.913664 kJ/mol
# Density = 2.056325 g / cm^3
# Si number density = 20.610160 Si / 1000 Ang^3
#
#
#
# Elastic Constant Matrix: (Units=GPa)
#
#
# Indices 1 2 3 4 5 6 
#
# 1 113.6475 60.0840 17.3228 23.5679 17.3940 7.7940
# 2 60.0840 138.1921 35.2663 16.3100 8.8952 -4.2702
# 3 17.3228 35.2663 77.6341 6.3434 2.7718 6.9352
# 4 23.5679 16.3100 6.3434 27.8637 2.7299 3.6465
# 5 17.3940 8.8952 2.7718 2.7299 35.6689 2.3493
# 6 7.7940 -4.2702 6.9352 3.6465 2.3493 21.8311
#
#
#
# Elastic Compliance Matrix: (Units=1/GPa)
#
#
# Indices 1 2 3 4 5 6 
#
# 1 0.014135 -0.005126 0.000385 -0.008012 -0.004747 -0.004322
# 2 -0.005126 0.010927 -0.004167 -0.001833 -0.000131 0.005611
# 3 0.000385 -0.004167 0.015244 -0.000620 0.000090 -0.005701
# 4 -0.008012 -0.001833 -0.000620 0.044385 0.001335 -0.004859
# 5 -0.004747 -0.000131 0.000090 0.001335 0.030396 -0.001853
# 6 -0.004322 0.005611 -0.005701 -0.004859 -0.001853 0.051269
#
#
# Mechanical properties :
#
#
# Convention : Reuss Voigt Hill
#
# Bulk Modulus (GPa) = 44.46358 61.64666 53.05512
# Shear Modulus (GPa) = 26.08669 31.52612 28.80640
#
# Velocity S-wave (km/s) = 3.56156 3.91530 3.74261
# Velocity P-wave (km/s) = 6.20752 7.10037 6.66890
#
# Compressibility (1/GPa) = 0.02249032
#
# Stress axis : x y z
#
# Youngs Moduli (GPa) = 70.74547 91.51980 65.59746
#
# Poissons Ratio (x) = 0.46917 -0.02525
# Poissons Ratio (y) = 0.36267 0.27331
# Poissons Ratio (z) = -0.02723 0.38132
#
# Static dielectric constant tensor:
#      x y z
#    x 1.771650 0.070820 -0.006020 
#    y 0.070820 -1.796770 0.333650 
#    z -0.006020 0.333650 1.812470 
# 
# From -- ./inp_files/467493.got.cif
#   From: 2010.05.17/outbox.cif.g08.bks.cpg/sg2_234_cif.got.tgz:467493.got - 2010.06.03 11:33:40.
