data_PCOD9092355
_publ_section_title
;
Structure prediction by ZEFSAII (Michael W. Deem and Ramdas Pophale) SiO2 
 PCOD9092355
Probable space group: P -1
;
_chemical_formula_sum "Si O2"
_cell_formula_units_Z 16
_cell_length_a 13.319238
_cell_length_b 14.938593
_cell_length_c 8.677578
_cell_angle_alpha 65.224816
_cell_angle_beta 97.304452
_cell_angle_gamma 42.591363
_cell_volume 748.203327
_symmetry_space_group_name_H-M "P -1"
_symmetry_group_IT_number 2
_symmetry_cell_setting 'triclinic'
loop_
_space_group_symop_operation_xyz
x,y,z
-x,-y,-z
loop_
_atom_site_type_symbol
_atom_site_label
_atom_site_fract_x
_atom_site_fract_y
_atom_site_fract_z
Si Si1 0.669276 0.524468 0.246781
Si Si2 0.285721 0.419631 0.453968
Si Si3 0.397059 0.214937 0.132638
Si Si4 0.028731 0.123127 0.392727
Si Si5 0.309472 0.167599 0.721580
Si Si6 0.610989 0.079695 0.568566
Si Si7 0.870054 0.722593 0.088645
Si Si8 0.685356 0.288580 0.092362
O O1 0.715377 0.520638 0.431010
O O2 0.870375 0.301089 0.364375
O O3 0.615773 0.666698 0.030790
O O4 0.456347 0.640151 0.119041
O O5 0.276858 0.307991 0.566035
O O6 0.079289 0.603633 0.177429
O O7 0.492959 0.265643 0.506326
O O8 0.607484 0.978529 0.284182
O O9 0.433468 0.189050 0.340194
O O10 0.186876 0.336579 0.947422
O O11 0.871790 0.209452 0.171903
O O12 0.188824 0.061862 0.390140
O O13 0.187494 0.906100 0.652423
O O14 0.131762 0.280725 0.722379
O O15 0.500000 0.000000 0.000000
O O16 0.687345 0.939919 0.814426
O O17 0.500000 0.500000 0.000000
#
# Coordination Sequence:
#
# PCOD9092355 Si02
#       8
#     2   2   2   2   2   2   2   2
#     4  11  22  41  68  97 123 168 220 256 311 390
#     4  12  25  39  62  90 133 179 216 260 309 367
#     4  11  22  39  62  90 130 175 217 262 306 362
#     4  10  23  40  70 100 124 158 208 269 327 379
#     4  10  19  41  58  82 127 180 222 257 292 363
#     4  12  25  41  60  97 134 165 213 273 317 369
#     4  11  24  39  58  88 134 177 216 258 310 362
#     4   9  20  44  72  97 122 156 210 267 321 388
#
# _framework density 21.384558999999999
#
# number of rings (size 3 to 8) (size 9 to 14) (size 15 to 20)
#    0.000    1.250    6.250    0.750    3.500    1.500 
#    0.000    0.625    0.000    7.500    0.000    0.000 
#    0.000    0.000    0.000    0.000    0.000    0.000 
#
# Total GULP energy -89107.133816 kJ/mol
# GULP energy per Si atom -5569.195863 kJ/mol
# Density = 2.133589 g / cm^3
# Si number density = 21.384559 Si / 1000 Ang^3
#
#
#
# Elastic Constant Matrix: (Units=GPa)
#
#
# Indices 1 2 3 4 5 6 
#
# 1 53.8001 32.4519 18.7301 7.4570 27.3682 9.0637
# 2 32.4519 114.9429 45.8320 -0.0982 12.2289 4.7262
# 3 18.7301 45.8320 78.8007 1.2754 23.0615 10.4550
# 4 7.4570 -0.0982 1.2754 34.0438 6.5224 2.0507
# 5 27.3682 12.2289 23.0615 6.5224 31.6482 0.1574
# 6 9.0637 4.7262 10.4550 2.0507 0.1574 26.3035
#
#
#
# Elastic Compliance Matrix: (Units=1/GPa)
#
#
# Indices 1 2 3 4 5 6 
#
# 1 0.048517 -0.012751 0.011579 -0.001334 -0.045099 -0.018655
# 2 -0.012751 0.014697 -0.009905 0.000488 0.012437 0.005577
# 3 0.011579 -0.009905 0.024344 0.001886 -0.024255 -0.011888
# 4 -0.001334 0.000488 0.001886 0.031065 -0.006798 -0.002759
# 5 -0.045099 0.012437 -0.024255 -0.006798 0.084752 0.022969
# 6 -0.018655 0.005577 -0.011888 -0.002759 0.022969 0.048247
#
#
# Mechanical properties :
#
#
# Convention : Reuss Voigt Hill
#
# Bulk Modulus (GPa) = 15.28939 49.06352 32.17646
# Shear Modulus (GPa) = 16.91603 28.43443 22.67523
#
# Velocity S-wave (km/s) = 2.81559 3.65042 3.25984
# Velocity P-wave (km/s) = 4.21134 6.38441 5.40814
#
# Compressibility (1/GPa) = 0.06540484
#
# Stress axis : x y z
#
# Youngs Moduli (GPa) = 20.61142 68.03924 41.07783
#
# Poissons Ratio (x) = 0.86756 -0.47565
# Poissons Ratio (y) = 0.26281 0.40688
# Poissons Ratio (z) = -0.23867 0.67394
#
# Static dielectric constant tensor:
#      x y z
#    x 1.876750 -0.051590 0.017050 
#    y -0.051590 2.216870 -0.128100 
#    z 0.017050 -0.128100 1.791110 
# 
# From -- ./inp_files/314975.got.cif
#   From: 2010.05.17/outbox.cif.g08.bks.cpg/sg2_158_cif.got.tgz:314975.got - 2010.06.03 11:33:40.
