data_PCOD9092221
_publ_section_title
;
Structure prediction by ZEFSAII (Michael W. Deem and Ramdas Pophale) SiO2 
 PCOD9092221
Probable space group: P -1
;
_chemical_formula_sum "Si O2"
_cell_formula_units_Z 14
_cell_length_a 10.849951
_cell_length_b 9.469743
_cell_length_c 8.652981
_cell_angle_alpha 127.596958
_cell_angle_beta 72.810629
_cell_angle_gamma 130.936170
_cell_volume 524.020374
_symmetry_space_group_name_H-M "P -1"
_symmetry_group_IT_number 2
_symmetry_cell_setting 'triclinic'
loop_
_space_group_symop_operation_xyz
x,y,z
-x,-y,-z
loop_
_atom_site_type_symbol
_atom_site_label
_atom_site_fract_x
_atom_site_fract_y
_atom_site_fract_z
Si Si1 0.275045 0.842538 0.135680
Si Si2 0.769702 0.884179 0.023349
Si Si3 0.365421 0.733978 0.335772
Si Si4 0.051769 0.841883 0.399376
Si Si5 0.463719 0.723652 0.829434
Si Si6 0.648869 0.722155 0.286369
Si Si7 0.918573 0.679665 0.664581
O O1 0.300404 0.723961 0.184576
O O2 0.093799 0.770945 0.180518
O O3 0.417672 0.120067 0.252161
O O4 0.328302 0.761828 0.920561
O O5 0.739175 0.757510 0.114029
O O6 0.601032 0.826578 0.985873
O O7 0.836448 0.802760 0.816721
O O8 0.909770 0.151191 0.191491
O O9 0.470687 0.645100 0.259079
O O10 0.206460 0.575881 0.397208
O O11 0.500000 0.000000 0.500000
O O12 0.947948 0.679580 0.472213
O O13 0.237118 0.022829 0.519556
O O14 0.000000 0.000000 0.500000
O O15 0.370992 0.455725 0.704534
#
# Coordination Sequence:
#
# PCOD9092221 Si02
#       7
#     2   2   2   2   2   2   2
#     4  11  25  41  65 101 137 170 225 278 326 391
#     4  10  19  40  68 100 128 168 227 270 322 399
#     4  12  23  43  68 101 134 171 228 276 322 401
#     4  11  25  45  63  97 138 175 221 273 338 398
#     4  11  22  41  70 102 131 176 223 277 330 386
#     4  11  22  41  74  97 126 182 224 268 332 399
#     4  10  23  39  67  98 131 178 213 270 337 388
#
# _framework density 26.716515999999999
#
# number of rings (size 3 to 8) (size 9 to 14) (size 15 to 20)
#    0.000    1.143    4.286    2.143    0.000    2.286 
#    0.000    4.286    0.000    0.000    0.000    0.000 
#    0.000    0.000    0.000    0.000    0.000    0.000 
#
# Total GULP energy -78307.696418 kJ/mol
# GULP energy per Si atom -5593.406887 kJ/mol
# Density = 2.665571 g / cm^3
# Si number density = 26.716516 Si / 1000 Ang^3
#
#
#
# Elastic Constant Matrix: (Units=GPa)
#
#
# Indices 1 2 3 4 5 6 
#
# 1 97.3600 17.2412 23.7200 -5.3565 -21.8600 -1.1130
# 2 17.2412 227.6261 46.6705 -23.9476 -7.1766 7.9745
# 3 23.7200 46.6705 70.8386 -12.6432 -24.9082 16.8540
# 4 -5.3565 -23.9476 -12.6432 55.7291 14.0655 0.3641
# 5 -21.8600 -7.1766 -24.9082 14.0655 47.3895 6.0479
# 6 -1.1130 7.9745 16.8540 0.3641 6.0479 45.0109
#
#
#
# Elastic Compliance Matrix: (Units=1/GPa)
#
#
# Indices 1 2 3 4 5 6 
#
# 1 0.011868 -0.000331 -0.002593 -0.000643 0.004154 0.000770
# 2 -0.000331 0.005344 -0.004011 0.001883 -0.002115 0.000816
# 3 -0.002593 -0.004011 0.024412 0.000564 0.012153 -0.010132
# 4 -0.000643 0.001883 0.000564 0.020267 -0.005736 0.000046
# 5 0.004154 -0.002115 0.012153 -0.005736 0.031848 -0.008306
# 6 0.000770 0.000816 -0.010132 0.000046 -0.008306 0.027001
#
#
# Mechanical properties :
#
#
# Convention : Reuss Voigt Hill
#
# Bulk Modulus (GPa) = 36.03302 63.45421 49.74361
# Shear Modulus (GPa) = 34.75580 50.17210 42.46395
#
# Velocity S-wave (km/s) = 3.61073 4.33823 3.99109
# Velocity P-wave (km/s) = 5.55874 6.99257 6.31647
#
# Compressibility (1/GPa) = 0.02775233
#
# Stress axis : x y z
#
# Youngs Moduli (GPa) = 84.26281 187.14314 40.96282
#
# Poissons Ratio (x) = 0.06192 0.10623
# Poissons Ratio (y) = 0.02788 0.16432
# Poissons Ratio (z) = 0.21852 0.75070
#
# Static dielectric constant tensor:
#      x y z
#    x 2.128910 0.017390 -0.058020 
#    y 0.017390 2.089420 0.020190 
#    z -0.058020 0.020190 2.202760 
# 
# From -- ./inp_files/245450.got.cif
#   From: 2010.05.17/outbox.cif.g08.bks.cpg/sg2_123_cif.got.tgz:245450.got - 2010.06.03 11:33:40.
