data_PCOD9092528
_publ_section_title
;
Structure prediction by ZEFSAII (Michael W. Deem and Ramdas Pophale) SiO2 
 PCOD9092528
Probable space group: P -1
;
_chemical_formula_sum "Si O2"
_cell_formula_units_Z 13
_cell_length_a 8.932706
_cell_length_b 7.461059
_cell_length_c 10.032446
_cell_angle_alpha 76.329671
_cell_angle_beta 129.636823
_cell_angle_gamma 114.602583
_cell_volume 467.765273
_symmetry_space_group_name_H-M "P -1"
_symmetry_group_IT_number 2
_symmetry_cell_setting 'triclinic'
loop_
_space_group_symop_operation_xyz
x,y,z
-x,-y,-z
loop_
_atom_site_type_symbol
_atom_site_label
_atom_site_fract_x
_atom_site_fract_y
_atom_site_fract_z
Si Si1 0.501750 0.638390 0.774448
Si Si2 0.890800 0.502729 0.292569
Si Si3 0.923288 0.681886 0.903210
Si Si4 0.000000 0.000000 0.500000
Si Si5 0.427321 0.021645 0.607010
Si Si6 0.289295 0.591195 0.377256
Si Si7 0.747923 0.081833 0.127580
O O1 0.333449 0.489039 0.802677
O O2 0.742785 0.667359 0.907801
O O3 0.403309 0.579146 0.580812
O O4 0.483348 0.852569 0.743400
O O5 0.831884 0.293658 0.217258
O O6 0.000000 0.500000 0.500000
O O7 0.085630 0.642796 0.294151
O O8 0.792328 0.620766 0.701338
O O9 0.121977 0.870400 0.945496
O O10 0.000000 0.500000 0.000000
O O11 0.809424 0.008944 0.491341
O O12 0.165265 0.051458 0.708100
O O13 0.570555 0.247613 0.673719
O O14 0.500000 0.000000 0.500000
O O15 0.500000 0.000000 0.000000
#
# Coordination Sequence:
#
# PCOD9092528 Si02
#       7
#     2   2   2   1   2   2   2
#     4  10  19  41  67  95 135 179 243 297 352 444
#     4   9  19  40  69  98 139 179 234 300 361 434
#     4  11  25  44  63 100 144 190 232 303 376 432
#     4  12  24  44  82 100 150 200 240 306 376 438
#     4  10  21  39  69 108 130 186 252 297 360 443
#     4   9  20  39  65  98 133 174 241 292 363 434
#     4  11  25  47  70 108 144 188 250 300 368 446
#
# _framework density 27.791716000000001
#
# number of rings (size 3 to 8) (size 9 to 14) (size 15 to 20)
#    0.000    1.846    1.538    2.308    2.154    2.462 
#    0.000    9.231    0.000    0.000    0.000    0.000 
#    0.000    0.000    0.000    0.000    0.000    0.000 
#
# Total GULP energy -72394.351926 kJ/mol
# GULP energy per Si atom -5568.796302 kJ/mol
# Density = 2.772846 g / cm^3
# Si number density = 27.791716 Si / 1000 Ang^3
#
#
#
# Elastic Constant Matrix: (Units=GPa)
#
#
# Indices 1 2 3 4 5 6 
#
# 1 254.4841 37.8370 79.3668 1.4797 88.1523 38.8580
# 2 37.8370 88.9362 24.7797 17.8201 24.1537 5.8931
# 3 79.3668 24.7797 152.1689 14.5844 58.0353 11.1720
# 4 1.4797 17.8201 14.5844 37.9329 1.1416 -0.8755
# 5 88.1523 24.1537 58.0353 1.1416 77.6690 16.6576
# 6 38.8580 5.8931 11.1720 -0.8755 16.6576 37.5196
#
#
#
# Elastic Compliance Matrix: (Units=1/GPa)
#
#
# Indices 1 2 3 4 5 6 
#
# 1 0.007165 -0.000934 -0.000958 0.000618 -0.006232 -0.004207
# 2 -0.000934 0.013758 0.000067 -0.006356 -0.003187 0.000053
# 3 -0.000958 0.000067 0.009762 -0.003538 -0.006349 0.000812
# 4 0.000618 -0.006356 -0.003538 0.030599 0.003330 0.000647
# 5 -0.006232 -0.003187 -0.006349 0.003330 0.026218 -0.002716
# 6 -0.004207 0.000053 0.000812 0.000647 -0.002716 0.031981
#
#
# Mechanical properties :
#
#
# Convention : Reuss Voigt Hill
#
# Bulk Modulus (GPa) = 36.98929 86.61737 61.80333
# Shear Modulus (GPa) = 37.83782 54.19799 46.01790
#
# Velocity S-wave (km/s) = 3.69382 4.42084 4.07358
# Velocity P-wave (km/s) = 5.61523 7.56919 6.66421
#
# Compressibility (1/GPa) = 0.02703486
#
# Stress axis : x y z
#
# Youngs Moduli (GPa) = 139.57002 72.68499 102.44315
#
# Poissons Ratio (x) = 0.06786 0.09818
# Poissons Ratio (y) = 0.13031 -0.00690
# Poissons Ratio (z) = 0.13376 -0.00489
#
# Static dielectric constant tensor:
#      x y z
#    x 2.183530 0.042550 -0.065920 
#    y 0.042550 2.330930 0.012120 
#    z -0.065920 0.012120 2.249390 
# 
# From -- ./inp_files/378959.got.cif
#   From: 2010.05.17/outbox.cif.g08.bks.cpg/sg2_190_cif.got.tgz:378959.got - 2010.06.03 11:33:40.
