data_PCOD9092891
_publ_section_title
;
Structure prediction by ZEFSAII (Michael W. Deem and Ramdas Pophale) SiO2 
 PCOD9092891
Probable space group: P -1
;
_chemical_formula_sum "Si O2"
_cell_formula_units_Z 16
_cell_length_a 13.395607
_cell_length_b 9.289504
_cell_length_c 6.984482
_cell_angle_alpha 116.272567
_cell_angle_beta 103.955574
_cell_angle_gamma 94.918006
_cell_volume 737.617824
_symmetry_space_group_name_H-M "P -1"
_symmetry_group_IT_number 2
_symmetry_cell_setting 'triclinic'
loop_
_space_group_symop_operation_xyz
x,y,z
-x,-y,-z
loop_
_atom_site_type_symbol
_atom_site_label
_atom_site_fract_x
_atom_site_fract_y
_atom_site_fract_z
Si Si1 0.667567 0.063086 0.530579
Si Si2 0.111433 0.584472 0.696216
Si Si3 0.204540 0.201247 0.548745
Si Si4 0.860758 0.627589 0.044659
Si Si5 0.980526 0.808623 0.850049
Si Si6 0.716541 0.402202 0.546235
Si Si7 0.472198 0.768077 0.195985
Si Si8 0.417716 0.466512 0.702323
O O1 0.695807 0.213235 0.486159
O O2 0.623338 0.147613 0.742390
O O3 0.760712 0.970776 0.565054
O O4 0.572540 0.920786 0.318251
O O5 0.116754 0.492038 0.845334
O O6 0.204940 0.582441 0.591172
O O7 0.000000 0.500000 0.500000
O O8 0.091027 0.765655 0.819330
O O9 0.166520 0.222605 0.759260
O O10 0.114256 0.226831 0.373024
O O11 0.310421 0.345018 0.660666
O O12 0.944888 0.705979 0.968046
O O13 0.769476 0.514885 0.811829
O O14 0.000000 0.000000 0.000000
O O15 0.617556 0.474091 0.478956
O O16 0.500109 0.650375 0.307922
O O17 0.451263 0.635951 0.937950
#
# Coordination Sequence:
#
# PCOD9092891 Si02
#       8
#     2   2   2   2   2   2   2   2
#     4  10  24  41  65 103 138 169 220 272 350 380
#     4  12  24  46  67  98 134 173 234 271 318 400
#     4  11  23  45  63  99 137 174 220 275 323 407
#     4  12  23  44  68  92 128 186 217 273 323 385
#     4  12  28  42  66 101 134 178 221 278 334 382
#     4  12  25  40  70 102 127 183 220 273 325 401
#     4   9  21  43  71  96 134 176 209 289 325 407
#     4  10  19  43  71  95 131 170 229 259 334 398
#
# _framework density 21.691452000000002
#
# number of rings (size 3 to 8) (size 9 to 14) (size 15 to 20)
#    0.000    1.000    5.000    1.125    3.500    1.500 
#    0.000    0.000    0.000    0.000    0.000    0.000 
#    0.000    0.000    0.000    0.000    0.000    0.000 
#
# Total GULP energy -89283.852005 kJ/mol
# GULP energy per Si atom -5580.240750 kJ/mol
# Density = 2.164208 g / cm^3
# Si number density = 21.691452 Si / 1000 Ang^3
#
#
#
# Elastic Constant Matrix: (Units=GPa)
#
#
# Indices 1 2 3 4 5 6 
#
# 1 48.8830 22.4072 26.4405 -7.7490 -8.7447 -23.8272
# 2 22.4072 116.8881 43.8447 5.9636 1.5760 -18.9007
# 3 26.4405 43.8447 107.6059 -7.0862 2.2352 -5.9691
# 4 -7.7490 5.9636 -7.0862 45.9913 -4.1350 -2.3262
# 5 -8.7447 1.5760 2.2352 -4.1350 20.4430 6.2082
# 6 -23.8272 -18.9007 -5.9691 -2.3262 6.2082 51.2330
#
#
#
# Elastic Compliance Matrix: (Units=1/GPa)
#
#
# Indices 1 2 3 4 5 6 
#
# 1 0.035338 -0.002657 -0.006666 0.007156 0.013436 0.013375
# 2 -0.002657 0.011103 -0.003836 -0.002606 -0.002904 0.002647
# 3 -0.006666 -0.003836 0.012466 0.000897 -0.002927 -0.002668
# 4 0.007156 -0.002606 0.000897 0.024212 0.007244 0.002693
# 5 0.013436 -0.002904 -0.002927 0.007244 0.057210 -0.001767
# 6 0.013375 0.002647 -0.002668 0.002693 -0.001767 0.026741
#
#
# Mechanical properties :
#
#
# Convention : Reuss Voigt Hill
#
# Bulk Modulus (GPa) = 30.68523 50.97352 40.82937
# Shear Modulus (GPa) = 24.47955 35.57911 30.02933
#
# Velocity S-wave (km/s) = 3.36301 4.05438 3.72477
# Velocity P-wave (km/s) = 5.40895 6.74297 6.11246
#
# Compressibility (1/GPa) = 0.03258897
#
# Stress axis : x y z
#
# Youngs Moduli (GPa) = 28.29812 90.06188 80.21865
#
# Poissons Ratio (x) = 0.23932 0.53476
# Poissons Ratio (y) = 0.07520 0.30769
# Poissons Ratio (z) = 0.18864 0.34545
#
# Static dielectric constant tensor:
#      x y z
#    x 1.851130 -0.024560 -0.030230 
#    y -0.024560 1.796260 0.032060 
#    z -0.030230 0.032060 1.831690 
# 
# From -- ./inp_files/91015.got.cif
#   From: 2010.05.17/outbox.cif.g08.bks.cpg/sg2_46_cif.got.tgz:91015.got - 2010.06.03 11:33:40.
