data_PCOD9092199
_publ_section_title
;
Structure prediction by ZEFSAII (Michael W. Deem and Ramdas Pophale) SiO2 
 PCOD9092199
Probable space group: P -1
;
_chemical_formula_sum "Si O2"
_cell_formula_units_Z 16
_cell_length_a 6.344213
_cell_length_b 7.009595
_cell_length_c 17.472128
_cell_angle_alpha 68.264623
_cell_angle_beta 67.571347
_cell_angle_gamma 77.661084
_cell_volume 664.778146
_symmetry_space_group_name_H-M "P -1"
_symmetry_group_IT_number 2
_symmetry_cell_setting 'triclinic'
loop_
_space_group_symop_operation_xyz
x,y,z
-x,-y,-z
loop_
_atom_site_type_symbol
_atom_site_label
_atom_site_fract_x
_atom_site_fract_y
_atom_site_fract_z
Si Si1 0.661267 0.357089 0.555123
Si Si2 0.239071 0.559279 0.050882
Si Si3 0.890857 0.798928 0.980014
Si Si4 0.802731 0.032848 0.812274
Si Si5 0.678427 0.669187 0.779838
Si Si6 0.234784 0.224881 0.698522
Si Si7 0.064558 0.405118 0.396172
Si Si8 0.603415 0.645357 0.181476
O O1 0.500000 0.500000 0.500000
O O2 0.493256 0.193584 0.635101
O O3 0.747032 0.504347 0.588351
O O4 0.892156 0.279479 0.489362
O O5 0.100986 0.383177 0.057312
O O6 0.222918 0.515725 0.149199
O O7 0.500000 0.500000 0.000000
O O8 0.133181 0.770737 0.995168
O O9 0.811436 0.987371 0.908548
O O10 0.713401 0.749631 0.077870
O O11 0.679560 0.864577 0.805631
O O12 0.647850 0.241576 0.786652
O O13 0.066597 0.043570 0.750149
O O14 0.823811 0.698788 0.679315
O O15 0.437805 0.589774 0.797849
O O16 0.258801 0.313014 0.767695
O O17 0.096636 0.399308 0.641179
#
# Coordination Sequence:
#
# PCOD9092199 Si02
#       8
#     2   2   2   2   2   2   2   2
#     4   9  19  35  68 100 123 164 212 265 327 405
#     4  10  20  39  62  93 126 168 222 277 314 382
#     4  10  23  38  62  92 126 180 226 265 329 382
#     4  11  26  41  60  99 136 169 225 280 317 389
#     4  11  22  42  66  90 129 175 216 272 329 382
#     4  11  21  40  63  95 131 168 216 271 331 385
#     4  10  19  40  67  95 127 166 218 263 328 396
#     4  12  23  43  64  92 133 180 222 273 321 384
#
# _framework density 24.068178
#
# number of rings (size 3 to 8) (size 9 to 14) (size 15 to 20)
#    0.000    1.500    3.750    1.125    0.000    2.500 
#    4.500    0.625    0.000   10.500    0.000    0.000 
#    0.000    0.000    0.000    0.000    0.000    0.000 
#
# Total GULP energy -89374.450064 kJ/mol
# GULP energy per Si atom -5585.903129 kJ/mol
# Density = 2.401340 g / cm^3
# Si number density = 24.068178 Si / 1000 Ang^3
#
#
#
# Elastic Constant Matrix: (Units=GPa)
#
#
# Indices 1 2 3 4 5 6 
#
# 1 115.7942 33.4476 39.5317 4.2908 0.4961 6.2470
# 2 33.4476 58.3531 13.1734 5.1194 6.0336 25.4441
# 3 39.5317 13.1734 135.0817 16.0490 -17.8161 7.8941
# 4 4.2908 5.1194 16.0490 25.8705 11.5705 0.0361
# 5 0.4961 6.0336 -17.8161 11.5705 63.6675 4.3463
# 6 6.2470 25.4441 7.8941 0.0361 4.3463 30.4542
#
#
#
# Elastic Compliance Matrix: (Units=1/GPa)
#
#
# Indices 1 2 3 4 5 6 
#
# 1 0.011913 -0.008714 -0.003389 0.002306 -0.001035 0.005860
# 2 -0.008714 0.034163 0.001610 -0.006412 0.000304 -0.027209
# 3 -0.003389 0.001610 0.009975 -0.007890 0.004362 -0.003849
# 4 0.002306 -0.006412 -0.007890 0.049423 -0.011178 0.008466
# 5 -0.001035 0.000304 0.004362 -0.011178 0.019204 -0.003900
# 6 0.005860 -0.027209 -0.003849 0.008466 -0.003900 0.055911
#
#
# Mechanical properties :
#
#
# Convention : Reuss Voigt Hill
#
# Bulk Modulus (GPa) = 28.51756 53.50383 41.01070
# Shear Modulus (GPa) = 23.44512 38.87019 31.15766
#
# Velocity S-wave (km/s) = 3.12446 4.02307 3.60190
# Velocity P-wave (km/s) = 4.98906 6.62257 5.86299
#
# Compressibility (1/GPa) = 0.03506611
#
# Stress axis : x y z
#
# Youngs Moduli (GPa) = 83.94188 29.27115 100.24583
#
# Poissons Ratio (x) = 0.25506 0.33977
# Poissons Ratio (y) = 0.73145 -0.16143
# Poissons Ratio (z) = 0.28451 -0.04714
#
# Static dielectric constant tensor:
#      x y z
#    x 1.958900 -0.008690 -0.029450 
#    y -0.008690 1.932060 -0.039800 
#    z -0.029450 -0.039800 1.973560 
# 
# From -- ./inp_files/547965.got.cif
#   From: 2010.05.17/outbox.cif.g08.bks.cpg/sg2_274_cif.got.tgz:547965.got - 2010.06.03 11:33:40.
