data_PCOD9092201
_publ_section_title
;
Structure prediction by ZEFSAII (Michael W. Deem and Ramdas Pophale) SiO2 
 PCOD9092201
Probable space group: P -1
;
_chemical_formula_sum "Si O2"
_cell_formula_units_Z 14
_cell_length_a 16.688225
_cell_length_b 5.246189
_cell_length_c 8.204659
_cell_angle_alpha 120.506716
_cell_angle_beta 125.983240
_cell_angle_gamma 74.562725
_cell_volume 500.258738
_symmetry_space_group_name_H-M "P -1"
_symmetry_group_IT_number 2
_symmetry_cell_setting 'triclinic'
loop_
_space_group_symop_operation_xyz
x,y,z
-x,-y,-z
loop_
_atom_site_type_symbol
_atom_site_label
_atom_site_fract_x
_atom_site_fract_y
_atom_site_fract_z
Si Si1 0.793439 0.091283 0.965991
Si Si2 0.610372 0.425706 0.732340
Si Si3 0.092418 0.629002 0.254665
Si Si4 0.722664 0.036864 0.540370
Si Si5 0.016829 0.243722 0.314292
Si Si6 0.707179 0.987754 0.146701
Si Si7 0.457848 0.653936 0.841479
O O1 0.908228 0.163807 0.082842
O O2 0.798156 0.020234 0.141231
O O3 0.705414 0.325876 0.922494
O O4 0.749975 0.891057 0.698453
O O5 0.622955 0.209755 0.523106
O O6 0.502222 0.435083 0.686503
O O7 0.638219 0.776290 0.878001
O O8 0.192897 0.697195 0.297187
O O9 0.092168 0.403198 0.329358
O O10 0.059995 0.961122 0.359825
O O11 0.000000 0.500000 0.000000
O O12 0.720519 0.874770 0.311787
O O13 0.000000 0.500000 0.500000
O O14 0.656218 0.291853 0.234089
O O15 0.500000 0.500000 0.000000
O O16 0.500000 0.000000 0.000000
#
# Coordination Sequence:
#
# PCOD9092201 Si02
#       7
#     2   2   2   2   2   2   2
#     4  10  23  42  63  93 135 171 223 282 330 401
#     4   9  22  41  62  95 131 168 218 277 330 401
#     4  12  25  45  66  96 135 179 225 281 345 400
#     4  10  24  42  66  98 131 178 225 279 336 407
#     4  12  27  43  70  97 133 181 231 284 343 408
#     4  11  22  41  69  93 132 176 220 276 338 406
#     4  10  19  40  67  95 134 174 217 274 340 396
#
# _framework density 27.985517000000002
#
# number of rings (size 3 to 8) (size 9 to 14) (size 15 to 20)
#    0.857    0.571    2.857    1.714    6.000    0.571 
#    2.571    0.000    0.000    6.000    0.000    0.000 
#    0.000    0.000    0.000    0.000    0.000    0.000 
#
# Total GULP energy -77989.658948 kJ/mol
# GULP energy per Si atom -5570.689925 kJ/mol
# Density = 2.792182 g / cm^3
# Si number density = 27.985517 Si / 1000 Ang^3
#
#
#
# Elastic Constant Matrix: (Units=GPa)
#
#
# Indices 1 2 3 4 5 6 
#
# 1 144.0634 45.8752 37.4372 7.3168 -40.7754 -5.9814
# 2 45.8752 101.3854 31.5412 14.8945 -14.6197 -15.9075
# 3 37.4372 31.5412 115.4119 3.0351 -29.5601 -1.4240
# 4 7.3168 14.8945 3.0351 33.7221 -8.0613 -0.2954
# 5 -40.7754 -14.6197 -29.5601 -8.0613 57.4175 1.2177
# 6 -5.9814 -15.9075 -1.4240 -0.2954 1.2177 46.5461
#
#
#
# Elastic Compliance Matrix: (Units=1/GPa)
#
#
# Indices 1 2 3 4 5 6 
#
# 1 0.009869 -0.003532 -0.000764 0.000883 0.005842 -0.000110
# 2 -0.003532 0.013525 -0.002688 -0.005233 -0.001270 0.004086
# 3 -0.000764 -0.002688 0.010760 0.001461 0.004535 -0.000797
# 4 0.000883 -0.005233 0.001461 0.032747 0.004678 -0.001545
# 5 0.005842 -0.001270 0.004535 0.004678 0.024236 -0.000149
# 6 -0.000110 0.004086 -0.000797 -0.001545 -0.000149 0.022836
#
#
# Mechanical properties :
#
#
# Convention : Reuss Voigt Hill
#
# Bulk Modulus (GPa) = 49.54057 65.61868 57.57962
# Shear Modulus (GPa) = 37.12794 43.93761 40.53278
#
# Velocity S-wave (km/s) = 3.64632 3.96664 3.80985
# Velocity P-wave (km/s) = 5.95552 6.66912 6.32240
#
# Compressibility (1/GPa) = 0.02018548
#
# Stress axis : x y z
#
# Youngs Moduli (GPa) = 101.32858 73.93971 92.93505
#
# Poissons Ratio (x) = 0.26118 0.07102
# Poissons Ratio (y) = 0.35792 0.24977
# Poissons Ratio (z) = 0.07744 0.19872
#
# Static dielectric constant tensor:
#      x y z
#    x 1.033460 -0.317810 1.474370 
#    y -0.317810 2.070210 0.192830 
#    z 1.474370 0.192830 0.674420 
# 
# From -- ./inp_files/323054.got.cif
#   From: 2010.05.17/outbox.cif.g08.bks.cpg/sg2_162_cif.got.tgz:323054.got - 2010.06.03 11:33:40.
