data_PCOD9092567
_publ_section_title
;
Structure prediction by ZEFSAII (Michael W. Deem and Ramdas Pophale) SiO2 
 PCOD9092567
Probable space group: P -1
;
_chemical_formula_sum "Si O2"
_cell_formula_units_Z 12
_cell_length_a 8.799655
_cell_length_b 10.641369
_cell_length_c 13.908052
_cell_angle_alpha 147.150438
_cell_angle_beta 137.607179
_cell_angle_gamma 49.395772
_cell_volume 474.644263
_symmetry_space_group_name_H-M "P -1"
_symmetry_group_IT_number 2
_symmetry_cell_setting 'triclinic'
loop_
_space_group_symop_operation_xyz
x,y,z
-x,-y,-z
loop_
_atom_site_type_symbol
_atom_site_label
_atom_site_fract_x
_atom_site_fract_y
_atom_site_fract_z
Si Si1 0.402323 0.829473 0.422090
Si Si2 0.767551 0.507444 0.119436
Si Si3 0.240039 0.365752 0.003547
Si Si4 0.016507 0.827497 0.571153
Si Si5 0.132975 0.093013 0.959673
Si Si6 0.483774 0.776254 0.646516
O O1 0.413366 0.566129 0.221003
O O2 0.494656 0.820274 0.566682
O O3 0.500000 0.000000 0.500000
O O4 0.146449 0.944122 0.383172
O O5 0.890412 0.610129 0.334452
O O6 0.916267 0.269622 0.003369
O O7 0.500000 0.500000 0.000000
O O8 0.775673 0.689203 0.151416
O O9 0.267882 0.200885 0.002416
O O10 0.000000 0.500000 0.000000
O O11 0.059372 0.857783 0.725043
O O12 0.243432 0.840352 0.625003
O O13 0.315578 0.089527 0.126751
O O14 0.500000 0.500000 0.500000
#
# Coordination Sequence:
#
# PCOD9092567 Si02
#       6
#     2   2   2   2   2   2
#     4  12  25  44  75 111 144 191 250 303 364 443
#     4  11  23  40  69 107 147 190 241 301 375 431
#     4  10  19  41  68  98 143 183 246 295 347 429
#     4  12  25  43  77 106 139 202 253 293 355 457
#     4  11  24  44  71 107 143 188 250 305 353 438
#     4  12  24  47  73 108 148 194 245 305 370 433
#
# _framework density 25.282091000000001
#
# number of rings (size 3 to 8) (size 9 to 14) (size 15 to 20)
#    0.000    0.667    6.667    3.000    2.333    0.000 
#    0.000    3.333    0.000    0.000    0.000    0.000 
#    0.000    0.000    0.000    0.000    0.000    0.000 
#
# Total GULP energy -67088.584945 kJ/mol
# GULP energy per Si atom -5590.715412 kJ/mol
# Density = 2.522455 g / cm^3
# Si number density = 25.282091 Si / 1000 Ang^3
#
#
#
# Elastic Constant Matrix: (Units=GPa)
#
#
# Indices 1 2 3 4 5 6 
#
# 1 136.4134 49.7831 66.6305 -6.8224 5.5766 -16.0982
# 2 49.7831 60.3217 26.9416 -14.8275 -3.7272 -0.7007
# 3 66.6305 26.9416 195.5645 -21.2218 -30.4589 -9.7197
# 4 -6.8224 -14.8275 -21.2218 50.8087 0.5041 -6.7476
# 5 5.5766 -3.7272 -30.4589 0.5041 41.6251 -9.1255
# 6 -16.0982 -0.7007 -9.7197 -6.7476 -9.1255 34.0187
#
#
#
# Elastic Compliance Matrix: (Units=1/GPa)
#
#
# Indices 1 2 3 4 5 6 
#
# 1 0.013492 -0.010173 -0.004067 -0.002380 -0.004962 0.003210
# 2 -0.010173 0.026318 0.001113 0.006532 0.004114 -0.001555
# 3 -0.004067 0.001113 0.007968 0.003429 0.007081 0.002954
# 4 -0.002380 0.006532 0.003429 0.023429 0.004404 0.005816
# 5 -0.004962 0.004114 0.007081 0.004404 0.032219 0.009276
# 6 0.003210 -0.001555 0.002954 0.005816 0.009276 0.035369
#
#
# Mechanical properties :
#
#
# Convention : Reuss Voigt Hill
#
# Bulk Modulus (GPa) = 46.46179 75.44554 60.95366
# Shear Modulus (GPa) = 29.03191 41.88679 35.45935
#
# Velocity S-wave (km/s) = 3.39236 4.07477 3.74912
# Velocity P-wave (km/s) = 5.81046 7.21419 6.55004
#
# Compressibility (1/GPa) = 0.02152306
#
# Stress axis : x y z
#
# Youngs Moduli (GPa) = 74.11555 37.99624 125.50940
#
# Poissons Ratio (x) = 0.38654 0.51046
# Poissons Ratio (y) = 0.75399 -0.13964
# Poissons Ratio (z) = 0.30143 -0.04227
#
# Static dielectric constant tensor:
#      x y z
#    x 2.047690 0.017920 0.004340 
#    y 0.017920 2.087190 0.069780 
#    z 0.004340 0.069780 2.185900 
# 
# From -- ./inp_files/498568.got.cif
#   From: 2010.05.17/outbox.cif.g08.bks.cpg/sg2_250_cif.got.tgz:498568.got - 2010.06.03 11:33:40.
