data_PCOD9092223
_publ_section_title
;
Structure prediction by ZEFSAII (Michael W. Deem and Ramdas Pophale) SiO2 
 PCOD9092223
Probable space group: P -1
;
_chemical_formula_sum "Si O2"
_cell_formula_units_Z 14
_cell_length_a 11.162199
_cell_length_b 9.394969
_cell_length_c 15.972576
_cell_angle_alpha 54.707619
_cell_angle_beta 25.149878
_cell_angle_gamma 48.628302
_cell_volume 533.100231
_symmetry_space_group_name_H-M "P -1"
_symmetry_group_IT_number 2
_symmetry_cell_setting 'triclinic'
loop_
_space_group_symop_operation_xyz
x,y,z
-x,-y,-z
loop_
_atom_site_type_symbol
_atom_site_label
_atom_site_fract_x
_atom_site_fract_y
_atom_site_fract_z
Si Si1 0.490069 0.993706 0.608298
Si Si2 0.254901 0.106387 0.882387
Si Si3 0.600564 0.693605 0.015338
Si Si4 0.643971 0.566158 0.637405
Si Si5 0.476339 0.591617 0.393215
Si Si6 0.838002 0.722080 0.685724
Si Si7 0.965187 0.906596 0.796233
O O1 0.207334 0.097501 0.815174
O O2 0.592106 0.770860 0.632518
O O3 0.500000 0.000000 0.500000
O O4 0.740680 0.082218 0.438795
O O5 0.301853 0.300953 0.797791
O O6 0.573158 0.920994 0.760112
O O7 0.041397 0.093565 0.097495
O O8 0.505225 0.542438 0.172940
O O9 0.284853 0.366382 0.130826
O O10 0.304966 0.891404 0.127280
O O11 0.851404 0.747074 0.888828
O O12 0.486230 0.569554 0.644850
O O13 0.997477 0.435229 0.435220
O O14 0.500000 0.500000 0.500000
O O15 0.134075 0.744030 0.532595
#
# Coordination Sequence:
#
# PCOD9092223 Si02
#       7
#     2   2   2   2   2   2   2
#     4  12  27  44  61  94 137 179 208 261 340 393
#     4  11  21  41  68  92 123 176 220 263 320 378
#     4  10  19  40  68 102 120 162 224 271 317 372
#     4  10  23  40  61  95 131 165 215 270 320 377
#     4  10  20  39  62  92 131 168 210 267 316 374
#     4   9  21  36  66  94 126 163 217 268 318 373
#     4  10  22  39  68  97 129 163 219 271 312 388
#
# _framework density 26.261475999999998
#
# number of rings (size 3 to 8) (size 9 to 14) (size 15 to 20)
#    0.857    0.857    1.429    3.000    0.000    4.000 
#    2.571    4.286    0.000    0.000    0.000    0.000 
#    0.000    0.000    0.000    0.000    0.000    0.000 
#
# Total GULP energy -78340.954281 kJ/mol
# GULP energy per Si atom -5595.782449 kJ/mol
# Density = 2.620170 g / cm^3
# Si number density = 26.261476 Si / 1000 Ang^3
#
#
#
# Elastic Constant Matrix: (Units=GPa)
#
#
# Indices 1 2 3 4 5 6 
#
# 1 106.4874 21.9223 24.7194 -7.0241 26.8862 10.0627
# 2 21.9223 130.7540 51.1371 -13.6432 9.5483 2.6373
# 3 24.7194 51.1371 160.8663 -14.6290 43.1887 2.5236
# 4 -7.0241 -13.6432 -14.6290 44.7335 -7.6357 2.9719
# 5 26.8862 9.5483 43.1887 -7.6357 41.2456 3.2464
# 6 10.0627 2.6373 2.5236 2.9719 3.2464 28.3395
#
#
#
# Elastic Compliance Matrix: (Units=1/GPa)
#
#
# Indices 1 2 3 4 5 6 
#
# 1 0.011875 -0.001657 0.000947 0.000523 -0.007994 -0.003286
# 2 -0.001657 0.009201 -0.003212 0.001994 0.002722 -0.000503
# 3 0.000947 -0.003212 0.009857 0.000660 -0.010087 0.000171
# 4 0.000523 0.001994 0.000660 0.024030 0.003217 -0.003318
# 5 -0.007994 0.002722 -0.010087 0.003217 0.040097 -0.001447
# 6 -0.003286 -0.000503 0.000171 -0.003318 -0.001447 0.036999
#
#
# Mechanical properties :
#
#
# Convention : Reuss Voigt Hill
#
# Bulk Modulus (GPa) = 43.30802 65.96281 54.63542
# Shear Modulus (GPa) = 33.87546 42.88566 38.38056
#
# Velocity S-wave (km/s) = 3.59546 4.04546 3.82708
# Velocity P-wave (km/s) = 5.81062 6.85516 6.35439
#
# Compressibility (1/GPa) = 0.02309041
#
# Stress axis : x y z
#
# Youngs Moduli (GPa) = 84.20852 108.68006 101.44893
#
# Poissons Ratio (x) = 0.18007 -0.09608
# Poissons Ratio (y) = 0.13952 0.32585
# Poissons Ratio (z) = -0.07975 0.34907
#
# Static dielectric constant tensor:
#      x y z
#    x 2.234250 0.014000 -0.056530 
#    y 0.014000 2.024470 0.072000 
#    z -0.056530 0.072000 1.998560 
# 
# From -- ./inp_files/564761.got.cif
#   From: 2010.05.17/outbox.cif.g08.bks.cpg/sg2_283_cif.got.tgz:564761.got - 2010.06.03 11:33:40.
