data_PCOD9092258
_publ_section_title
;
Structure prediction by ZEFSAII (Michael W. Deem and Ramdas Pophale) SiO2 
 PCOD9092258
Probable space group: P -1
;
_chemical_formula_sum "Si O2"
_cell_formula_units_Z 16
_cell_length_a 13.876310
_cell_length_b 9.203295
_cell_length_c 9.828840
_cell_angle_alpha 131.078895
_cell_angle_beta 56.190280
_cell_angle_gamma 89.553400
_cell_volume 631.164881
_symmetry_space_group_name_H-M "P -1"
_symmetry_group_IT_number 2
_symmetry_cell_setting 'triclinic'
loop_
_space_group_symop_operation_xyz
x,y,z
-x,-y,-z
loop_
_atom_site_type_symbol
_atom_site_label
_atom_site_fract_x
_atom_site_fract_y
_atom_site_fract_z
Si Si1 0.582021 0.017127 0.322924
Si Si2 0.896030 0.978338 0.234889
Si Si3 0.175425 0.460600 0.071223
Si Si4 0.910598 0.907582 0.679371
Si Si5 0.822171 0.511299 0.240468
Si Si6 0.721351 0.230008 0.778868
Si Si7 0.573718 0.022093 0.827763
Si Si8 0.726466 0.203783 0.234658
O O1 0.500000 0.000000 0.500000
O O2 0.518033 0.968857 0.217539
O O3 0.583067 0.243916 0.430536
O O4 0.747390 0.805934 0.100210
O O5 0.764701 0.090981 0.514779
O O6 0.836932 0.104357 0.214139
O O7 0.990024 0.048076 0.282058
O O8 0.013675 0.689760 0.963512
O O9 0.276972 0.541076 0.090026
O O10 0.021638 0.639974 0.374276
O O11 0.172699 0.474760 0.918489
O O12 0.845723 0.070268 0.696022
O O13 0.780038 0.008483 0.949765
O O14 0.736870 0.775691 0.532955
O O15 0.729193 0.413917 0.297074
O O16 0.586560 0.240110 0.944650
O O17 0.500000 0.000000 0.000000
#
# Coordination Sequence:
#
# PCOD9092258 Si02
#       8
#     2   2   2   2   2   2   2   2
#     4  12  27  46  62  95 134 178 232 267 301 389
#     4  10  20  38  70 104 130 160 213 271 336 404
#     4  11  22  42  75  93 130 177 214 263 339 394
#     4  10  19  40  69 102 130 162 213 269 334 407
#     4  11  22  44  71  96 131 175 212 267 338 394
#     4  11  21  42  69  97 130 170 211 270 333 388
#     4  12  29  43  63  97 134 172 233 273 304 381
#     4  11  24  40  70 101 136 166 211 279 336 377
#
# _framework density 25.349952999999999
#
# number of rings (size 3 to 8) (size 9 to 14) (size 15 to 20)
#    0.000    1.000    5.000    3.750    0.000    7.000 
#    0.000    0.000    0.000    0.000    0.000    0.000 
#    0.000    0.000    0.000    0.000    0.000    0.000 
#
# Total GULP energy -89514.122416 kJ/mol
# GULP energy per Si atom -5594.632651 kJ/mol
# Density = 2.529226 g / cm^3
# Si number density = 25.349953 Si / 1000 Ang^3
#
#
#
# Elastic Constant Matrix: (Units=GPa)
#
#
# Indices 1 2 3 4 5 6 
#
# 1 92.7586 25.5315 -5.8107 -9.4507 3.8652 3.0693
# 2 25.5315 105.9237 29.3393 -27.6281 11.2378 2.1174
# 3 -5.8107 29.3393 96.9917 -14.4426 23.5633 -5.4212
# 4 -9.4507 -27.6281 -14.4426 48.7658 -3.9333 -0.5458
# 5 3.8652 11.2378 23.5633 -3.9333 30.6160 -6.7621
# 6 3.0693 2.1174 -5.4212 -0.5458 -6.7621 66.0016
#
#
#
# Elastic Compliance Matrix: (Units=1/GPa)
#
#
# Indices 1 2 3 4 5 6 
#
# 1 0.011965 -0.002986 0.002278 0.001124 -0.002130 -0.000482
# 2 -0.002986 0.012567 -0.002824 0.005579 -0.001478 -0.000602
# 3 0.002278 -0.002824 0.013996 0.002206 -0.009704 0.000158
# 4 0.001124 0.005579 0.002206 0.024480 -0.000725 0.000078
# 5 -0.002130 -0.001478 -0.009704 -0.000725 0.041647 0.003610
# 6 -0.000482 -0.000602 0.000158 0.000078 0.003610 0.015576
#
#
# Mechanical properties :
#
#
# Convention : Reuss Voigt Hill
#
# Bulk Modulus (GPa) = 31.78359 43.75491 37.76925
# Shear Modulus (GPa) = 36.28910 45.51762 40.90336
#
# Velocity S-wave (km/s) = 3.78765 4.24201 4.02126
# Velocity P-wave (km/s) = 5.62971 6.42579 6.04087
#
# Compressibility (1/GPa) = 0.03146278
#
# Stress axis : x y z
#
# Youngs Moduli (GPa) = 83.58059 79.57594 71.45042
#
# Poissons Ratio (x) = 0.23761 -0.16276
# Poissons Ratio (y) = 0.24957 0.20177
# Poissons Ratio (z) = -0.19039 0.22472
#
# Static dielectric constant tensor:
#      x y z
#    x 2.061070 0.065540 -0.045360 
#    y 0.065540 1.946910 -0.018150 
#    z -0.045360 -0.018150 2.094200 
# 
# From -- ./inp_files/299458.got.cif
#   From: 2010.05.17/outbox.cif.g08.bks.cpg/sg2_150_cif.got.tgz:299458.got - 2010.06.03 11:33:40.
