data_PCOD9092793
_publ_section_title
;
Structure prediction by ZEFSAII (Michael W. Deem and Ramdas Pophale) SiO2 
 PCOD9092793
Probable space group: P -1
;
_chemical_formula_sum "Si O2"
_cell_formula_units_Z 12
_cell_length_a 9.797439
_cell_length_b 11.205330
_cell_length_c 8.582934
_cell_angle_alpha 93.088548
_cell_angle_beta 111.986505
_cell_angle_gamma 140.326148
_cell_volume 455.275096
_symmetry_space_group_name_H-M "P -1"
_symmetry_group_IT_number 2
_symmetry_cell_setting 'triclinic'
loop_
_space_group_symop_operation_xyz
x,y,z
-x,-y,-z
loop_
_atom_site_type_symbol
_atom_site_label
_atom_site_fract_x
_atom_site_fract_y
_atom_site_fract_z
Si Si1 0.163116 0.742472 0.861445
Si Si2 0.182648 0.936272 0.632814
Si Si3 0.299474 0.188702 0.355525
Si Si4 0.339631 0.765232 0.372691
Si Si5 0.704990 0.739179 0.272594
Si Si6 0.865465 0.729554 0.945863
O O1 0.994504 0.499084 0.789699
O O2 0.042824 0.744646 0.947543
O O3 0.072301 0.746941 0.663798
O O4 0.500000 0.000000 0.000000
O O5 0.499734 0.141720 0.717263
O O6 0.207636 0.074557 0.757124
O O7 0.944535 0.803810 0.392873
O O8 0.543148 0.256813 0.464303
O O9 0.311757 0.233099 0.547581
O O10 0.294650 0.304591 0.258779
O O11 0.053861 0.944708 0.146253
O O12 0.500000 0.000000 0.500000
O O13 0.391252 0.493834 0.075536
#
# Coordination Sequence:
#
# PCOD9092793 Si02
#       6
#     2   2   2   2   2   2
#     4  12  26  44  70  99 138 189 227 277 348 409
#     4  10  22  41  72  96 131 182 225 278 345 402
#     4  10  21  39  71 100 132 176 228 278 343 400
#     4  11  26  48  67  98 143 184 226 287 338 406
#     4  10  19  42  69  97 135 173 224 288 343 397
#     4  11  21  41  71 100 138 175 225 289 340 401
#
# _framework density 26.357690999999999
#
# number of rings (size 3 to 8) (size 9 to 14) (size 15 to 20)
#    0.000    1.333    5.000    1.500    2.333    2.667 
#    6.000    7.500    0.000    0.000    0.000    0.000 
#    0.000    0.000    0.000    0.000    0.000    0.000 
#
# Total GULP energy -66823.810063 kJ/mol
# GULP energy per Si atom -5568.650839 kJ/mol
# Density = 2.629770 g / cm^3
# Si number density = 26.357691 Si / 1000 Ang^3
#
#
#
# Elastic Constant Matrix: (Units=GPa)
#
#
# Indices 1 2 3 4 5 6 
#
# 1 86.5343 40.1708 28.3481 19.9062 8.4630 5.8415
# 2 40.1708 161.6545 50.4630 48.8376 5.3456 -2.3870
# 3 28.3481 50.4630 108.6172 36.0619 9.5851 7.3050
# 4 19.9062 48.8376 36.0619 70.0770 11.4359 4.3132
# 5 8.4630 5.3456 9.5851 11.4359 30.1537 1.1283
# 6 5.8415 -2.3870 7.3050 4.3132 1.1283 27.3314
#
#
#
# Elastic Compliance Matrix: (Units=1/GPa)
#
#
# Indices 1 2 3 4 5 6 
#
# 1 0.013946 -0.002675 -0.001804 -0.000598 -0.002545 -0.002533
# 2 -0.002675 0.008967 -0.002197 -0.004777 0.001573 0.002631
# 3 -0.001804 -0.002197 0.012280 -0.003892 -0.001441 -0.002415
# 4 -0.000598 -0.004777 -0.003892 0.020821 -0.005558 -0.002306
# 5 -0.002545 0.001573 -0.001441 -0.005558 0.036148 0.000452
# 6 -0.002533 0.002631 -0.002415 -0.002306 0.000452 0.038350
#
#
# Mechanical properties :
#
#
# Convention : Reuss Voigt Hill
#
# Bulk Modulus (GPa) = 45.78639 66.08555 55.93597
# Shear Modulus (GPa) = 33.08095 41.36734 37.22414
#
# Velocity S-wave (km/s) = 3.54655 3.96594 3.76209
# Velocity P-wave (km/s) = 5.84633 6.78959 6.33554
#
# Compressibility (1/GPa) = 0.02184055
#
# Stress axis : x y z
#
# Youngs Moduli (GPa) = 71.70382 111.52231 81.43336
#
# Poissons Ratio (x) = 0.29835 0.14687
# Poissons Ratio (y) = 0.19183 0.17895
# Poissons Ratio (z) = 0.12932 0.24507
#
# Static dielectric constant tensor:
#      x y z
#    x 2.314630 0.051690 0.091450 
#    y 0.051690 2.231700 0.048930 
#    z 0.091450 0.048930 2.201550 
# 
# From -- ./inp_files/426009.got.cif
#   From: 2010.05.17/outbox.cif.g08.bks.cpg/sg2_214_cif.got.tgz:426009.got - 2010.06.03 11:33:40.
