data_PCOD9092325
_publ_section_title
;
Structure prediction by ZEFSAII (Michael W. Deem and Ramdas Pophale) SiO2 
 PCOD9092325
Probable space group: P -1
;
_chemical_formula_sum "Si O2"
_cell_formula_units_Z 16
_cell_length_a 10.202816
_cell_length_b 9.308449
_cell_length_c 11.783498
_cell_angle_alpha 101.263044
_cell_angle_beta 80.655114
_cell_angle_gamma 133.090214
_cell_volume 800.865571
_symmetry_space_group_name_H-M "P -1"
_symmetry_group_IT_number 2
_symmetry_cell_setting 'triclinic'
loop_
_space_group_symop_operation_xyz
x,y,z
-x,-y,-z
loop_
_atom_site_type_symbol
_atom_site_label
_atom_site_fract_x
_atom_site_fract_y
_atom_site_fract_z
Si Si1 0.489490 0.408207 0.869409
Si Si2 0.399411 0.569413 0.480156
Si Si3 0.073340 0.144849 0.405618
Si Si4 0.476156 0.891605 0.683248
Si Si5 0.299131 0.654395 0.286971
Si Si6 0.090331 0.757155 0.728943
Si Si7 0.163008 0.015599 0.952357
Si Si8 0.344311 0.190672 0.195993
O O1 0.634359 0.384551 0.839017
O O2 0.296832 0.188625 0.868091
O O3 0.537333 0.575003 0.802951
O O4 0.500000 0.500000 0.000000
O O5 0.500000 0.500000 0.500000
O O6 0.194218 0.362400 0.479082
O O7 0.465230 0.753603 0.573097
O O8 0.408121 0.640328 0.363202
O O9 0.194921 0.133331 0.301423
O O10 0.936771 0.130358 0.340230
O O11 0.000000 0.000000 0.500000
O O12 0.280978 0.820917 0.698070
O O13 0.533097 0.848728 0.781772
O O14 0.626603 0.127412 0.680086
O O15 0.085762 0.475489 0.300086
O O16 0.089877 0.819945 0.866885
O O17 0.261342 0.077803 0.069879
O O18 0.000000 0.000000 0.000000
#
# Coordination Sequence:
#
# PCOD9092325 Si02
#       8
#     2   2   2   2   2   2   2   2
#     4  10  19  40  72  93 131 181 225 283 336 400
#     4  11  23  43  68  94 133 184 237 274 341 415
#     4  11  24  41  71 102 140 176 238 287 330 418
#     4  12  26  42  68 101 142 184 220 291 354 400
#     4  11  23  44  66  98 141 180 228 286 345 411
#     4  11  24  44  67 103 140 177 233 282 348 409
#     4  11  21  42  76 102 132 180 235 283 342 411
#     4  11  23  45  67 104 137 180 237 279 340 424
#
# _framework density 19.978383999999998
#
# number of rings (size 3 to 8) (size 9 to 14) (size 15 to 20)
#    0.000    1.000    6.250    1.125    1.750    5.500 
#    2.250    0.625    0.000    0.000    0.000    0.000 
#    0.000    0.000    0.000    0.000    0.000    0.000 
#
# Total GULP energy -89157.229748 kJ/mol
# GULP energy per Si atom -5572.326859 kJ/mol
# Density = 1.993291 g / cm^3
# Si number density = 19.978384 Si / 1000 Ang^3
#
#
#
# Elastic Constant Matrix: (Units=GPa)
#
#
# Indices 1 2 3 4 5 6 
#
# 1 131.0119 50.1331 40.3753 0.1053 19.0965 3.0111
# 2 50.1331 136.3985 56.2517 10.7702 4.8668 -7.3365
# 3 40.3753 56.2517 94.2721 10.3136 15.0830 -5.1701
# 4 0.1053 10.7702 10.3136 44.1109 4.9814 -3.5744
# 5 19.0965 4.8668 15.0830 4.9814 29.5415 6.0376
# 6 3.0111 -7.3365 -5.1701 -3.5744 6.0376 31.6298
#
#
#
# Elastic Compliance Matrix: (Units=1/GPa)
#
#
# Indices 1 2 3 4 5 6 
#
# 1 0.010126 -0.002879 -0.002019 0.001670 -0.005161 -0.000788
# 2 -0.002879 0.010687 -0.005368 -0.001579 0.002873 0.001149
# 3 -0.002019 -0.005368 0.015980 -0.001507 -0.006243 0.002581
# 4 0.001670 -0.001579 -0.001507 0.024167 -0.004709 0.002859
# 5 -0.005161 0.002873 -0.006243 -0.004709 0.042431 -0.008495
# 6 -0.000788 0.001149 0.002581 0.002859 -0.008495 0.034324
#
#
# Mechanical properties :
#
#
# Convention : Reuss Voigt Hill
#
# Bulk Modulus (GPa) = 61.49384 72.80030 67.14707
# Shear Modulus (GPa) = 30.54950 35.38459 32.96705
#
# Velocity S-wave (km/s) = 3.91465 4.21306 4.06659
# Velocity P-wave (km/s) = 7.16098 7.75791 7.46541
#
# Compressibility (1/GPa) = 0.01626179
#
# Stress axis : x y z
#
# Youngs Moduli (GPa) = 98.75664 93.56791 62.57641
#
# Poissons Ratio (x) = 0.26940 0.12634
# Poissons Ratio (y) = 0.28434 0.33590
# Poissons Ratio (z) = 0.19938 0.50226
#
# Static dielectric constant tensor:
#      x y z
#    x 1.700810 -0.002500 0.001960 
#    y -0.002500 1.765570 0.019720 
#    z 0.001960 0.019720 1.849930 
# 
# From -- ./inp_files/188886.got.cif
#   From: 2010.05.17/outbox.cif.g08.bks.cpg/sg2_95_cif.got.tgz:188886.got - 2010.06.03 11:33:40.
