data_PCOD9092998
_publ_section_title
;
Structure prediction by ZEFSAII (Michael W. Deem and Ramdas Pophale) SiO2 
 PCOD9092998
Probable space group: P -1
;
_chemical_formula_sum "Si O2"
_cell_formula_units_Z 16
_cell_length_a 15.661660
_cell_length_b 14.684407
_cell_length_c 17.786567
_cell_angle_alpha 155.708796
_cell_angle_beta 41.738126
_cell_angle_gamma 120.419497
_cell_volume 865.746715
_symmetry_space_group_name_H-M "P -1"
_symmetry_group_IT_number 2
_symmetry_cell_setting 'triclinic'
loop_
_space_group_symop_operation_xyz
x,y,z
-x,-y,-z
loop_
_atom_site_type_symbol
_atom_site_label
_atom_site_fract_x
_atom_site_fract_y
_atom_site_fract_z
Si Si1 0.541065 0.657595 0.038272
Si Si2 0.592645 0.809894 0.868600
Si Si3 0.627380 0.823478 0.353143
Si Si4 0.883905 0.215603 0.170271
Si Si5 0.173631 0.136712 0.860676
Si Si6 0.223543 0.077581 0.064173
Si Si7 0.505249 0.492818 0.199159
Si Si8 0.884482 0.486706 0.674014
O O1 0.456935 0.963452 0.360716
O O2 0.500000 0.500000 0.000000
O O3 0.467409 0.678914 0.022700
O O4 0.739624 0.463573 0.756064
O O5 0.774673 0.527960 0.512421
O O6 0.624035 0.970930 0.030008
O O7 0.508360 0.678106 0.856850
O O8 0.500000 0.000000 0.000000
O O9 0.783165 0.782320 0.183917
O O10 0.634365 0.555164 0.164470
O O11 0.500000 0.000000 0.500000
O O12 0.011367 0.163706 0.985213
O O13 0.765257 0.163347 0.170679
O O14 0.000000 0.000000 0.000000
O O15 0.328135 0.814441 0.544756
O O16 0.135952 0.352071 0.114546
O O17 0.169221 0.306795 0.206903
O O18 0.071406 0.213959 0.325720
#
# Coordination Sequence:
#
# PCOD9092998 Si02
#       8
#     2   2   2   2   2   2   2   2
#     4  12  19  29  51  85 125 152 183 239 304 352
#     4  12  26  41  59  86 119 161 204 243 294 353
#     4  10  20  30  48  83 116 151 185 229 292 352
#     4  12  21  37  62  87 118 155 188 248 307 348
#     4  11  18  33  55  86 120 144 185 235 295 354
#     4  11  22  35  55  84 113 155 196 240 292 355
#     4  11  20  35  54  80 121 155 187 241 294 345
#     4  11  18  31  54  84 120 145 187 239 298 348
#
# _framework density 18.481155999999999
#
# number of rings (size 3 to 8) (size 9 to 14) (size 15 to 20)
#    0.000    0.750   10.000    1.500    0.000    0.500 
#    0.000    0.000    0.000    0.750    0.000    1.750 
#    0.000    0.000    0.000    0.000    0.000    0.000 
#
# Total GULP energy -89194.735362 kJ/mol
# GULP energy per Si atom -5574.670960 kJ/mol
# Density = 1.843909 g / cm^3
# Si number density = 18.481156 Si / 1000 Ang^3
#
#
#
# Elastic Constant Matrix: (Units=GPa)
#
#
# Indices 1 2 3 4 5 6 
#
# 1 69.1222 23.8108 17.1894 14.6320 25.7290 10.0016
# 2 23.8108 134.8756 18.9684 -2.6183 -2.6333 24.5843
# 3 17.1894 18.9684 37.5902 -5.6238 16.0145 -10.0641
# 4 14.6320 -2.6183 -5.6238 24.5246 -0.4039 2.3811
# 5 25.7290 -2.6333 16.0145 -0.4039 27.1295 -4.3867
# 6 10.0016 24.5843 -10.0641 2.3811 -4.3867 32.5161
#
#
#
# Elastic Compliance Matrix: (Units=1/GPa)
#
#
# Indices 1 2 3 4 5 6 
#
# 1 0.037471 -0.004156 -0.007815 -0.023827 -0.033885 -0.013629
# 2 -0.004156 0.011542 -0.010173 0.002458 0.009569 -0.009486
# 3 -0.007815 -0.010173 0.051970 0.012976 -0.020426 0.022475
# 4 -0.023827 0.002458 0.012976 0.057777 0.017262 0.007585
# 5 -0.033885 0.009569 -0.020426 0.017262 0.083346 0.006846
# 6 -0.013629 -0.009486 0.022475 0.007585 0.006846 0.049442
#
#
# Mechanical properties :
#
#
# Convention : Reuss Voigt Hill
#
# Bulk Modulus (GPa) = 17.63811 40.16948 28.90379
# Shear Modulus (GPa) = 14.09506 28.94201 21.51853
#
# Velocity S-wave (km/s) = 2.76465 3.96160 3.41596
# Velocity P-wave (km/s) = 4.44473 6.53516 5.58855
#
# Compressibility (1/GPa) = 0.05669543
#
# Stress axis : x y z
#
# Youngs Moduli (GPa) = 26.68739 86.63952 19.24184
#
# Poissons Ratio (x) = 0.36006 0.15038
# Poissons Ratio (y) = 0.11091 0.19574
# Poissons Ratio (z) = 0.20857 0.88135
#
# Static dielectric constant tensor:
#      x y z
#    x 1.666690 0.053020 0.038240 
#    y 0.053020 1.743950 -0.059020 
#    z 0.038240 -0.059020 1.670060 
# 
# From -- ./inp_files/432584.got.cif
#   From: 2010.05.17/outbox.cif.g08.bks.cpg/sg2_217_cif.got.tgz:432584.got - 2010.06.03 11:33:40.
