data_PCOD9092777
_publ_section_title
;
Structure prediction by ZEFSAII (Michael W. Deem and Ramdas Pophale) SiO2 
 PCOD9092777
Probable space group: P -1
;
_chemical_formula_sum "Si O2"
_cell_formula_units_Z 11
_cell_length_a 8.430628
_cell_length_b 4.996409
_cell_length_c 12.991528
_cell_angle_alpha 64.920775
_cell_angle_beta 53.781229
_cell_angle_gamma 81.969176
_cell_volume 395.252928
_symmetry_space_group_name_H-M "P -1"
_symmetry_group_IT_number 2
_symmetry_cell_setting 'triclinic'
loop_
_space_group_symop_operation_xyz
x,y,z
-x,-y,-z
loop_
_atom_site_type_symbol
_atom_site_label
_atom_site_fract_x
_atom_site_fract_y
_atom_site_fract_z
Si Si1 0.405060 0.364504 0.720450
Si Si2 0.672282 0.167734 0.476933
Si Si3 0.945245 0.073817 0.690964
Si Si4 0.850099 0.713586 0.983540
Si Si5 0.718339 0.564446 0.730360
Si Si6 0.500000 0.500000 0.000000
O O1 0.281939 0.524059 0.657078
O O2 0.904851 0.412642 0.648641
O O3 0.256771 0.185724 0.888755
O O4 0.557471 0.578660 0.701674
O O5 0.564753 0.224195 0.614379
O O6 0.500000 0.000000 0.500000
O O7 0.862689 0.000261 0.431440
O O8 0.764389 0.856960 0.737801
O O9 0.955736 0.957189 0.822425
O O10 0.685405 0.517182 0.007410
O O11 0.000000 0.500000 0.000000
O O12 0.618624 0.332332 0.892707
#
# Coordination Sequence:
#
# PCOD9092777 Si02
#       6
#     2   2   2   2   2   1
#     4  10  24  45  68  96 141 183 231 283 355 408
#     4  11  26  44  66  99 140 183 233 286 339 426
#     4  11  25  45  72 103 139 175 237 285 342 422
#     4  10  19  42  69 101 134 183 227 288 350 410
#     4  10  24  44  70 103 138 181 226 292 347 406
#     4   8  20  38  64 100 142 164 226 280 342 408
#
# _framework density 27.830282
#
# number of rings (size 3 to 8) (size 9 to 14) (size 15 to 20)
#    0.000    1.818    1.818    0.000    7.636    8.000 
#    6.545    4.545    0.000    0.000    0.000    0.000 
#    0.000    0.000    0.000    0.000    0.000    0.000 
#
# Total GULP energy -61316.282286 kJ/mol
# GULP energy per Si atom -5574.207481 kJ/mol
# Density = 2.776694 g / cm^3
# Si number density = 27.830282 Si / 1000 Ang^3
#
#
#
# Elastic Constant Matrix: (Units=GPa)
#
#
# Indices 1 2 3 4 5 6 
#
# 1 114.9992 24.5742 18.1752 -5.3670 26.8378 -7.9715
# 2 24.5742 100.4155 41.5214 0.2431 16.4318 -23.7685
# 3 18.1752 41.5214 182.5927 32.2461 29.2859 8.9067
# 4 -5.3670 0.2431 32.2461 39.5212 3.8164 -0.8313
# 5 26.8378 16.4318 29.2859 3.8164 34.7378 1.0589
# 6 -7.9715 -23.7685 8.9067 -0.8313 1.0589 50.8870
#
#
#
# Elastic Compliance Matrix: (Units=1/GPa)
#
#
# Indices 1 2 3 4 5 6 
#
# 1 0.011080 -0.000980 -0.000028 0.002374 -0.008379 0.001496
# 2 -0.000980 0.013807 -0.003355 0.003003 -0.003489 0.007004
# 3 -0.000028 -0.003355 0.008237 -0.006328 -0.004548 -0.003022
# 4 0.002374 0.003003 -0.006328 0.030980 -0.001428 0.003418
# 5 -0.008379 -0.003489 -0.004548 -0.001428 0.040994 -0.003023
# 6 0.001496 0.007004 -0.003022 0.003418 -0.003023 0.023805
#
#
# Mechanical properties :
#
#
# Convention : Reuss Voigt Hill
#
# Bulk Modulus (GPa) = 40.98871 62.94990 51.96930
# Shear Modulus (GPa) = 34.30266 45.94497 40.12381
#
# Velocity S-wave (km/s) = 3.51460 4.06753 3.80113
# Velocity P-wave (km/s) = 5.58838 6.68791 6.16271
#
# Compressibility (1/GPa) = 0.02439696
#
# Stress axis : x y z
#
# Youngs Moduli (GPa) = 90.25644 72.42543 121.40743
#
# Poissons Ratio (x) = 0.07100 0.00344
# Poissons Ratio (y) = 0.08848 0.40728
# Poissons Ratio (z) = 0.00256 0.24296
#
# Static dielectric constant tensor:
#      x y z
#    x 2.216500 0.325470 -0.512210 
#    y 0.325470 3.131760 -1.407880 
#    z -0.512210 -1.407880 4.591420 
# 
# From -- ./inp_files/488920.got.cif
#   From: 2010.05.17/outbox.cif.g08.bks.cpg/sg2_245_cif.got.tgz:488920.got - 2010.06.03 11:33:40.
