data_PCOD9092394
_publ_section_title
;
Structure prediction by ZEFSAII (Michael W. Deem and Ramdas Pophale) SiO2 
 PCOD9092394
Probable space group: P -1
;
_chemical_formula_sum "Si O2"
_cell_formula_units_Z 14
_cell_length_a 7.872739
_cell_length_b 13.853476
_cell_length_c 8.869657
_cell_angle_alpha 127.599943
_cell_angle_beta 125.582855
_cell_angle_gamma 68.049137
_cell_volume 623.058139
_symmetry_space_group_name_H-M "P -1"
_symmetry_group_IT_number 2
_symmetry_cell_setting 'triclinic'
loop_
_space_group_symop_operation_xyz
x,y,z
-x,-y,-z
loop_
_atom_site_type_symbol
_atom_site_label
_atom_site_fract_x
_atom_site_fract_y
_atom_site_fract_z
Si Si1 0.445048 0.123193 0.494827
Si Si2 0.326352 0.291795 0.355270
Si Si3 0.612165 0.126497 0.143520
Si Si4 0.946562 0.335522 0.002233
Si Si5 0.427010 0.743246 0.046725
Si Si6 0.887633 0.130551 0.553434
Si Si7 0.581297 0.489941 0.860861
O O1 0.280709 0.176864 0.335598
O O2 0.410438 0.215160 0.704294
O O3 0.660204 0.133061 0.519579
O O4 0.500000 0.000000 0.500000
O O5 0.464109 0.230348 0.237745
O O6 0.458524 0.387864 0.609696
O O7 0.136693 0.358672 0.233773
O O8 0.830175 0.141911 0.358482
O O9 0.625289 0.150233 0.996298
O O10 0.500000 0.000000 0.000000
O O11 0.775465 0.283259 0.981616
O O12 0.001750 0.234829 0.805728
O O13 0.821661 0.445910 0.959709
O O14 0.518261 0.623388 0.896702
O O15 0.000000 0.000000 0.500000
O O16 0.500000 0.500000 0.000000
#
# Coordination Sequence:
#
# PCOD9092394 Si02
#       7
#     2   2   2   2   2   2   2
#     4  10  20  37  58  85 120 154 200 249 294 355
#     4  11  21  39  63  88 122 163 197 250 306 353
#     4  11  22  39  61  90 124 161 198 249 311 355
#     4  10  21  39  63  90 120 160 207 243 300 362
#     4  10  21  38  62  88 121 159 199 251 302 355
#     4  10  20  37  57  82 123 157 193 250 296 353
#     4  10  19  41  63  86 126 155 203 254 296 355
#
# _framework density 22.469812999999998
#
# number of rings (size 3 to 8) (size 9 to 14) (size 15 to 20)
#    0.000    1.714    5.714    2.571    0.000    4.000 
#    0.000    4.286    0.000    0.000    0.000    0.000 
#    0.000    0.000    0.000    0.000    0.000    0.000 
#
# Total GULP energy -77983.385961 kJ/mol
# GULP energy per Si atom -5570.241854 kJ/mol
# Density = 2.241867 g / cm^3
# Si number density = 22.469813 Si / 1000 Ang^3
#
#
#
# Elastic Constant Matrix: (Units=GPa)
#
#
# Indices 1 2 3 4 5 6 
#
# 1 27.9280 18.5638 24.5224 -3.9939 -11.0288 1.7961
# 2 18.5638 107.3594 46.5955 -4.6713 -0.1046 -12.0019
# 3 24.5224 46.5955 117.8796 -18.1997 -11.4426 -13.5396
# 4 -3.9939 -4.6713 -18.1997 50.1226 -8.9760 -8.1087
# 5 -11.0288 -0.1046 -11.4426 -8.9760 26.2790 -4.8146
# 6 1.7961 -12.0019 -13.5396 -8.1087 -4.8146 40.3870
#
#
#
# Elastic Compliance Matrix: (Units=1/GPa)
#
#
# Indices 1 2 3 4 5 6 
#
# 1 0.055348 -0.006960 -0.006279 0.004841 0.021554 -0.003093
# 2 -0.006960 0.012347 -0.003885 -0.001356 -0.004688 0.001845
# 3 -0.006279 -0.003885 0.013534 0.006104 0.006362 0.005646
# 4 0.004841 -0.001356 0.006104 0.026562 0.015331 0.008589
# 5 0.021554 -0.004688 0.006362 0.015331 0.056852 0.009636
# 6 -0.003093 0.001845 0.005646 0.008589 0.009636 0.030212
#
#
# Mechanical properties :
#
#
# Convention : Reuss Voigt Hill
#
# Bulk Modulus (GPa) = 21.28472 48.05893 34.67182
# Shear Modulus (GPa) = 20.42798 34.25675 27.34236
#
# Velocity S-wave (km/s) = 3.01845 3.90881 3.49212
# Velocity P-wave (km/s) = 4.65201 6.46578 5.63239
#
# Compressibility (1/GPa) = 0.04698207
#
# Stress axis : x y z
#
# Youngs Moduli (GPa) = 18.06740 80.99247 73.89046
#
# Poissons Ratio (x) = 0.56367 0.46393
# Poissons Ratio (y) = 0.12574 0.28708
# Poissons Ratio (z) = 0.11344 0.31467
#
# Static dielectric constant tensor:
#      x y z
#    x 1.853180 0.027780 0.076600 
#    y 0.027780 1.939650 -0.023220 
#    z 0.076600 -0.023220 1.947680 
# 
# From -- ./inp_files/200441.got.cif
#   From: 2010.05.17/outbox.cif.g08.bks.cpg/sg2_101_cif.got.tgz:200441.got - 2010.06.03 11:33:40.
