data_PCOD9092323
_publ_section_title
;
Structure prediction by ZEFSAII (Michael W. Deem and Ramdas Pophale) SiO2 
 PCOD9092323
Probable space group: P -1
;
_chemical_formula_sum "Si O2"
_cell_formula_units_Z 16
_cell_length_a 9.485448
_cell_length_b 13.866433
_cell_length_c 14.269463
_cell_angle_alpha 151.620199
_cell_angle_beta 118.528782
_cell_angle_gamma 69.869176
_cell_volume 770.672666
_symmetry_space_group_name_H-M "P -1"
_symmetry_group_IT_number 2
_symmetry_cell_setting 'triclinic'
loop_
_space_group_symop_operation_xyz
x,y,z
-x,-y,-z
loop_
_atom_site_type_symbol
_atom_site_label
_atom_site_fract_x
_atom_site_fract_y
_atom_site_fract_z
Si Si1 0.027265 0.765005 0.309047
Si Si2 0.479443 0.729871 0.707884
Si Si3 0.656674 0.058738 0.334224
Si Si4 0.250686 0.891926 0.908912
Si Si5 0.073587 0.550722 0.841304
Si Si6 0.303979 0.944413 0.189520
Si Si7 0.891123 0.802970 0.107139
Si Si8 0.059543 0.204271 0.396509
O O1 0.913268 0.616910 0.217699
O O2 0.985644 0.708881 0.140412
O O3 0.207970 0.794242 0.435278
O O4 0.000000 0.000000 0.500000
O O5 0.500000 0.500000 0.500000
O O6 0.365944 0.746139 0.775554
O O7 0.393468 0.820208 0.668848
O O8 0.653551 0.883832 0.904135
O O9 0.497833 0.987316 0.285345
O O10 0.726144 0.860129 0.145989
O O11 0.070666 0.830706 0.758497
O O12 0.251093 0.895813 0.023569
O O13 0.066752 0.424435 0.634821
O O14 0.219339 0.746479 0.052326
O O15 0.912585 0.649924 0.897921
O O16 0.228917 0.142548 0.366536
O O17 0.984032 0.028592 0.297567
#
# Coordination Sequence:
#
# PCOD9092323 Si02
#       8
#     2   2   2   2   2   2   2   2
#     4  10  19  40  72  93 120 161 217 265 311 376
#     4  10  21  37  64  96 129 163 216 262 309 369
#     4  10  20  44  63  97 128 164 205 273 315 357
#     4  10  21  40  57  93 129 166 214 256 313 366
#     4  11  22  40  64  93 121 168 211 254 320 380
#     4  10  25  39  60  90 137 162 205 262 319 373
#     4  10  21  40  70  92 125 158 218 267 306 375
#     4  11  21  41  61  90 127 171 208 258 309 378
#
# _framework density 20.761084
#
# number of rings (size 3 to 8) (size 9 to 14) (size 15 to 20)
#    0.000    1.750    3.750    0.750    0.000    6.500 
#    2.250    5.000    0.000    0.000    0.000    0.000 
#    0.000    0.000    0.000    0.000    0.000    0.000 
#
# Total GULP energy -89279.008204 kJ/mol
# GULP energy per Si atom -5579.938013 kJ/mol
# Density = 2.071383 g / cm^3
# Si number density = 20.761084 Si / 1000 Ang^3
#
#
#
# Elastic Constant Matrix: (Units=GPa)
#
#
# Indices 1 2 3 4 5 6 
#
# 1 133.9147 17.5931 46.5298 12.9897 -9.2681 -14.1407
# 2 17.5931 62.3365 18.2107 -0.9959 -1.5153 -2.0985
# 3 46.5298 18.2107 84.5298 12.0911 -21.6492 -20.2151
# 4 12.9897 -0.9959 12.0911 32.8593 -10.2979 -5.9126
# 5 -9.2681 -1.5153 -21.6492 -10.2979 31.0314 6.9749
# 6 -14.1407 -2.0985 -20.2151 -5.9126 6.9749 23.9157
#
#
#
# Elastic Compliance Matrix: (Units=1/GPa)
#
#
# Indices 1 2 3 4 5 6 
#
# 1 0.009543 -0.001350 -0.004689 -0.002324 -0.001584 0.001448
# 2 -0.001350 0.017553 -0.004099 0.001802 -0.001387 -0.001873
# 3 -0.004689 -0.004099 0.020652 -0.000701 0.010053 0.011219
# 4 -0.002324 0.001802 -0.000701 0.035459 0.009747 0.004116
# 5 -0.001584 -0.001387 0.010053 0.009747 0.042506 -0.002547
# 6 0.001448 -0.001873 0.011219 0.004116 -0.002547 0.053749
#
#
# Mechanical properties :
#
#
# Convention : Reuss Voigt Hill
#
# Bulk Modulus (GPa) = 36.40185 49.49427 42.94806
# Shear Modulus (GPa) = 23.93545 30.79108 27.36327
#
# Velocity S-wave (km/s) = 3.39912 3.85530 3.63438
# Velocity P-wave (km/s) = 5.74257 6.61131 6.19220
#
# Compressibility (1/GPa) = 0.02747113
#
# Stress axis : x y z
#
# Youngs Moduli (GPa) = 104.79200 56.97169 48.42061
#
# Poissons Ratio (x) = 0.07693 0.22704
# Poissons Ratio (y) = 0.14150 0.19848
# Poissons Ratio (z) = 0.49136 0.23353
#
# Static dielectric constant tensor:
#      x y z
#    x 1.768100 0.006450 -0.025900 
#    y 0.006450 1.779370 -0.035990 
#    z -0.025900 -0.035990 1.803520 
# 
# From -- ./inp_files/505949.got.cif
#   From: 2010.05.17/outbox.cif.g08.bks.cpg/sg2_253_cif.got.tgz:505949.got - 2010.06.03 11:33:40.
