data_PCOD9092082
_publ_section_title
;
Structure prediction by ZEFSAII (Michael W. Deem and Ramdas Pophale) SiO2 
 PCOD9092082
Probable space group: P -1
;
_chemical_formula_sum "Si O2"
_cell_formula_units_Z 14
_cell_length_a 10.965421
_cell_length_b 9.376583
_cell_length_c 16.670771
_cell_angle_alpha 53.232217
_cell_angle_beta 31.970154
_cell_angle_gamma 38.517415
_cell_volume 554.032820
_symmetry_space_group_name_H-M "P -1"
_symmetry_group_IT_number 2
_symmetry_cell_setting 'triclinic'
loop_
_space_group_symop_operation_xyz
x,y,z
-x,-y,-z
loop_
_atom_site_type_symbol
_atom_site_label
_atom_site_fract_x
_atom_site_fract_y
_atom_site_fract_z
Si Si1 0.169393 0.731290 0.521617
Si Si2 0.114465 0.716212 0.388235
Si Si3 0.511208 0.325022 0.189131
Si Si4 0.403044 0.321938 0.951538
Si Si5 0.434880 0.040533 0.618477
Si Si6 0.760676 0.641131 0.237608
Si Si7 0.445592 0.105260 0.152320
O O1 0.193541 0.605822 0.468535
O O2 0.504733 0.618608 0.395474
O O3 0.906881 0.769431 0.705486
O O4 0.000000 0.000000 0.500000
O O5 0.191545 0.541210 0.333470
O O6 0.763834 0.931379 0.507121
O O7 0.349050 0.761102 0.226312
O O8 0.643381 0.116700 0.249095
O O9 0.475394 0.251101 0.149572
O O10 0.666525 0.439449 0.059695
O O11 0.557450 0.121808 0.999551
O O12 0.063795 0.424981 0.096180
O O13 0.500000 0.000000 0.500000
O O14 0.219905 0.279273 0.710259
O O15 0.622674 0.859682 0.180664
#
# Coordination Sequence:
#
# PCOD9092082 Si02
#       7
#     2   2   2   2   2   2   2
#     4  10  19  40  66  80 123 168 205 245 301 358
#     4  10  21  39  61  88 121 162 198 255 307 351
#     4   9  21  37  58  88 123 156 198 246 315 348
#     4  10  24  36  62  95 124 158 201 253 314 352
#     4  11  22  36  64  92 123 156 209 251 303 364
#     4  10  23  41  61  92 122 164 208 248 295 372
#     4  10  20  39  65  86 124 169 194 252 307 364
#
# _framework density 25.269262999999999
#
# number of rings (size 3 to 8) (size 9 to 14) (size 15 to 20)
#    0.857    1.143    4.286    0.857    2.000    4.571 
#    0.000    2.857    0.000    0.000    0.000    0.000 
#    0.000    0.000    0.000    0.000    0.000    0.000 
#
# Total GULP energy -78085.608310 kJ/mol
# GULP energy per Si atom -5577.543451 kJ/mol
# Density = 2.521175 g / cm^3
# Si number density = 25.269263 Si / 1000 Ang^3
#
#
#
# Elastic Constant Matrix: (Units=GPa)
#
#
# Indices 1 2 3 4 5 6 
#
# 1 85.1685 10.2338 15.6651 -3.4310 10.4900 9.6455
# 2 10.2338 72.6123 18.6922 -0.4913 7.2253 -2.9491
# 3 15.6651 18.6922 88.5481 -18.4054 12.2138 -12.2965
# 4 -3.4310 -0.4913 -18.4054 27.6296 -4.5841 13.9304
# 5 10.4900 7.2253 12.2138 -4.5841 36.1398 1.8109
# 6 9.6455 -2.9491 -12.2965 13.9304 1.8109 22.8739
#
#
#
# Elastic Compliance Matrix: (Units=1/GPa)
#
#
# Indices 1 2 3 4 5 6 
#
# 1 0.013930 -0.001585 -0.002248 0.005058 -0.001813 -0.010224
# 2 -0.001585 0.015102 -0.002935 -0.004151 -0.002281 0.003746
# 3 -0.002248 -0.002935 0.014776 0.006595 -0.003155 0.004746
# 4 0.005058 -0.004151 0.006595 0.060713 0.006669 -0.036625
# 5 -0.001813 -0.002281 -0.003155 0.006669 0.030953 -0.007738
# 6 -0.010224 0.003746 0.004746 -0.036625 -0.007738 0.073981
#
#
# Mechanical properties :
#
#
# Convention : Reuss Voigt Hill
#
# Bulk Modulus (GPa) = 33.03553 37.27902 35.15728
# Shear Modulus (GPa) = 21.45159 30.77784 26.11471
#
# Velocity S-wave (km/s) = 2.91678 3.49376 3.21823
# Velocity P-wave (km/s) = 4.94422 5.57314 5.26807
#
# Compressibility (1/GPa) = 0.03027044
#
# Stress axis : x y z
#
# Youngs Moduli (GPa) = 71.78568 66.21684 67.67788
#
# Poissons Ratio (x) = 0.10497 0.15215
# Poissons Ratio (y) = 0.11379 0.19867
# Poissons Ratio (z) = 0.16139 0.19438
#
# Static dielectric constant tensor:
#      x y z
#    x 2.061340 0.034430 -0.018360 
#    y 0.034430 2.058530 -0.043210 
#    z -0.018360 -0.043210 1.967930 
# 
# From -- ./inp_files/426747.got.cif
#   From: 2010.05.17/outbox.cif.g08.bks.cpg/sg2_214_cif.got.tgz:426747.got - 2010.06.03 11:33:40.
