data_PCOD9092732
_publ_section_title
;
Structure prediction by ZEFSAII (Michael W. Deem and Ramdas Pophale) SiO2 
 PCOD9092732
Probable space group: P -1
;
_chemical_formula_sum "Si O2"
_cell_formula_units_Z 12
_cell_length_a 11.060355
_cell_length_b 15.636052
_cell_length_c 9.636552
_cell_angle_alpha 124.379212
_cell_angle_beta 112.368921
_cell_angle_gamma 22.475284
_cell_volume 470.204260
_symmetry_space_group_name_H-M "P -1"
_symmetry_group_IT_number 2
_symmetry_cell_setting 'triclinic'
loop_
_space_group_symop_operation_xyz
x,y,z
-x,-y,-z
loop_
_atom_site_type_symbol
_atom_site_label
_atom_site_fract_x
_atom_site_fract_y
_atom_site_fract_z
Si Si1 0.767866 0.062893 0.133270
Si Si2 0.450796 0.587340 0.833557
Si Si3 0.283953 0.097510 0.376125
Si Si4 0.279264 0.241588 0.990243
Si Si5 0.623677 0.630981 0.177117
Si Si6 0.473299 0.685460 0.474706
O O1 0.648810 0.257572 0.187193
O O2 0.485867 0.181385 0.097213
O O3 0.800306 0.058944 0.306436
O O4 0.114956 0.780319 0.938610
O O5 0.627973 0.360632 0.626558
O O6 0.586902 0.560052 0.993107
O O7 0.860507 0.414758 0.469666
O O8 0.500000 0.000000 0.500000
O O9 0.390460 0.897992 0.259239
O O10 0.453987 0.012865 0.228997
O O11 0.036404 0.356772 0.093447
O O12 0.000000 0.500000 0.000000
O O13 0.505853 0.703686 0.349999
#
# Coordination Sequence:
#
# PCOD9092732 Si02
#       6
#     2   2   2   2   2   2
#     4  11  22  42  72  94 138 177 229 279 328 401
#     4  11  22  45  66  98 139 183 219 274 337 402
#     4  11  23  42  69 101 136 176 226 274 343 396
#     4  10  19  42  66  94 133 177 213 284 332 382
#     4  11  25  44  69 100 141 171 227 283 329 404
#     4  12  25  43  71 105 131 181 228 271 340 403
#
# _framework density 25.520824000000001
#
# number of rings (size 3 to 8) (size 9 to 14) (size 15 to 20)
#    0.000    1.000    5.000    4.000    0.000    4.000 
#    3.000    0.000    0.000    0.000    0.000    0.000 
#    0.000    0.000    0.000    0.000    0.000    0.000 
#
# Total GULP energy -67221.152282 kJ/mol
# GULP energy per Si atom -5601.762690 kJ/mol
# Density = 2.546274 g / cm^3
# Si number density = 25.520824 Si / 1000 Ang^3
#
#
#
# Elastic Constant Matrix: (Units=GPa)
#
#
# Indices 1 2 3 4 5 6 
#
# 1 52.3032 27.0768 17.4280 -11.1757 -10.1382 -16.5211
# 2 27.0768 105.3358 21.4676 -18.3278 6.9638 -19.7752
# 3 17.4280 21.4676 146.4406 -30.3444 -4.6210 -11.5297
# 4 -11.1757 -18.3278 -30.3444 39.5076 -4.9375 1.1744
# 5 -10.1382 6.9638 -4.6210 -4.9375 45.1806 -13.3232
# 6 -16.5211 -19.7752 -11.5297 1.1744 -13.3232 48.8784
#
#
#
# Elastic Compliance Matrix: (Units=1/GPa)
#
#
# Indices 1 2 3 4 5 6 
#
# 1 0.028589 -0.004903 -0.000102 0.006796 0.010996 0.010489
# 2 -0.004903 0.012055 -0.000274 0.003690 -0.001826 0.002569
# 3 -0.000102 -0.000274 0.008503 0.006592 0.002296 0.002327
# 4 0.006796 0.003690 0.006592 0.034734 0.007347 0.006513
# 5 0.010996 -0.001826 0.002296 0.007347 0.029257 0.011318
# 6 0.010489 0.002569 0.002327 0.006513 0.011318 0.028521
#
#
# Mechanical properties :
#
#
# Convention : Reuss Voigt Hill
#
# Bulk Modulus (GPa) = 25.91611 48.44713 37.18162
# Shear Modulus (GPa) = 30.28828 42.58714 36.43771
#
# Velocity S-wave (km/s) = 3.44874 4.08943 3.78268
# Velocity P-wave (km/s) = 5.10249 6.42826 5.80336
#
# Compressibility (1/GPa) = 0.03858604
#
# Stress axis : x y z
#
# Youngs Moduli (GPa) = 34.97907 82.95505 117.60844
#
# Poissons Ratio (x) = 0.40674 0.01205
# Poissons Ratio (y) = 0.17151 0.03227
# Poissons Ratio (z) = 0.00358 0.02276
#
# Static dielectric constant tensor:
#      x y z
#    x 1.988150 0.028340 -0.004180 
#    y 0.028340 2.084070 0.038090 
#    z -0.004180 0.038090 1.980170 
# 
# From -- ./inp_files/147924.got.cif
#   From: 2010.05.17/outbox.cif.g08.bks.cpg/sg2_74_cif.got.tgz:147924.got - 2010.06.03 11:33:40.
