data_PCOD9092966
_publ_section_title
;
Structure prediction by ZEFSAII (Michael W. Deem and Ramdas Pophale) SiO2 
 PCOD9092966
Probable space group: P -1
;
_chemical_formula_sum "Si O2"
_cell_formula_units_Z 16
_cell_length_a 12.288408
_cell_length_b 5.466267
_cell_length_c 14.081737
_cell_angle_alpha 101.142117
_cell_angle_beta 45.998877
_cell_angle_gamma 103.095710
_cell_volume 661.843360
_symmetry_space_group_name_H-M "P -1"
_symmetry_group_IT_number 2
_symmetry_cell_setting 'triclinic'
loop_
_space_group_symop_operation_xyz
x,y,z
-x,-y,-z
loop_
_atom_site_type_symbol
_atom_site_label
_atom_site_fract_x
_atom_site_fract_y
_atom_site_fract_z
Si Si1 0.499799 0.609647 0.755609
Si Si2 0.818558 0.732845 0.639582
Si Si3 0.161677 0.382678 0.669335
Si Si4 0.319158 0.937788 0.607802
Si Si5 0.774729 0.694022 0.176268
Si Si6 0.898498 0.287233 0.670508
Si Si7 0.361050 0.923243 0.007551
Si Si8 0.274316 0.377847 0.005895
O O1 0.679307 0.660112 0.645420
O O2 0.390734 0.484758 0.729813
O O3 0.431658 0.851415 0.857022
O O4 0.448269 0.417219 0.860253
O O5 0.980434 0.739068 0.491342
O O6 0.811562 0.514693 0.705577
O O7 0.804854 0.008978 0.709644
O O8 0.123977 0.387174 0.805775
O O9 0.015371 0.350025 0.690381
O O10 0.260645 0.647654 0.604563
O O11 0.258826 0.028825 0.752967
O O12 0.248843 0.133846 0.594587
O O13 0.500000 0.000000 0.500000
O O14 0.820743 0.669977 0.037625
O O15 0.269515 0.653786 0.071660
O O16 0.259694 0.141249 0.063937
O O17 0.500000 0.000000 0.000000
#
# Coordination Sequence:
#
# PCOD9092966 Si02
#       8
#     2   2   2   2   2   2   2   2
#     4   8  20  30  53  69 101 126 156 201 242 291
#     4  10  21  36  48  66  93 131 174 203 238 283
#     4  10  20  33  47  65  94 122 162 211 237 289
#     4  10  20  29  45  69  92 122 154 207 249 285
#     4   7  20  30  46  71  94 119 159 193 248 289
#     4  10  22  36  48  65  92 136 173 210 238 259
#     4   9  17  30  47  73 103 128 150 181 240 304
#     4   8  18  28  47  71  98 129 145 188 239 289
#
# _framework density 24.174906
#
# number of rings (size 3 to 8) (size 9 to 14) (size 15 to 20)
#    2.250    0.500    0.000    1.500    7.000    0.000 
#    0.000    0.000    0.000    0.000    0.000    0.000 
#    0.000   14.000    0.000    0.000    0.000    0.000 
#
# Total GULP energy -89157.431580 kJ/mol
# GULP energy per Si atom -5572.339474 kJ/mol
# Density = 2.411988 g / cm^3
# Si number density = 24.174906 Si / 1000 Ang^3
#
#
#
# Elastic Constant Matrix: (Units=GPa)
#
#
# Indices 1 2 3 4 5 6 
#
# 1 105.5985 52.3362 10.9959 13.0403 27.1257 -19.2405
# 2 52.3362 159.0868 32.0663 15.5723 16.5517 -23.0577
# 3 10.9959 32.0663 35.3372 8.0785 3.7634 -6.2262
# 4 13.0403 15.5723 8.0785 28.1760 5.1889 3.4908
# 5 27.1257 16.5517 3.7634 5.1889 36.9888 4.3165
# 6 -19.2405 -23.0577 -6.2262 3.4908 4.3165 24.7589
#
#
#
# Elastic Compliance Matrix: (Units=1/GPa)
#
#
# Indices 1 2 3 4 5 6 
#
# 1 0.017077 -0.001781 0.001965 -0.007036 -0.012727 0.015317
# 2 -0.001781 0.009710 -0.005978 -0.003189 -0.002811 0.007095
# 3 0.001965 -0.005978 0.036454 -0.008506 -0.002062 0.006686
# 4 -0.007036 -0.003189 -0.008506 0.044510 0.003241 -0.017418
# 5 -0.012727 -0.002811 -0.002062 0.003241 0.039764 -0.020416
# 6 0.015317 0.007095 0.006686 -0.017418 -0.020416 0.066596
#
#
# Mechanical properties :
#
#
# Convention : Reuss Voigt Hill
#
# Bulk Modulus (GPa) = 19.36009 54.53548 36.94779
# Shear Modulus (GPa) = 20.58313 31.62634 26.10473
#
# Velocity S-wave (km/s) = 2.92108 3.62087 3.28964
# Velocity P-wave (km/s) = 4.40485 6.33156 5.45396
#
# Compressibility (1/GPa) = 0.05165265
#
# Stress axis : x y z
#
# Youngs Moduli (GPa) = 58.55878 102.98854 27.43155
#
# Poissons Ratio (x) = 0.18344 -0.05391
# Poissons Ratio (y) = 0.10430 0.16399
# Poissons Ratio (z) = -0.11508 0.61569
#
# Static dielectric constant tensor:
#      x y z
#    x 1.854640 -0.007360 0.046590 
#    y -0.007360 1.956990 -0.011520 
#    z 0.046590 -0.011520 2.053460 
# 
# From -- ./inp_files/553729.got.cif
#   From: 2010.05.17/outbox.cif.g08.bks.cpg/sg2_277_cif.got.tgz:553729.got - 2010.06.03 11:33:40.
