data_PCOD9092348
_publ_section_title
;
Structure prediction by ZEFSAII (Michael W. Deem and Ramdas Pophale) SiO2 
 PCOD9092348
Probable space group: P -1
;
_chemical_formula_sum "Si O2"
_cell_formula_units_Z 14
_cell_length_a 14.464712
_cell_length_b 16.080068
_cell_length_c 8.458470
_cell_angle_alpha 146.715704
_cell_angle_beta 60.933862
_cell_angle_gamma 143.060352
_cell_volume 540.685472
_symmetry_space_group_name_H-M "P -1"
_symmetry_group_IT_number 2
_symmetry_cell_setting 'triclinic'
loop_
_space_group_symop_operation_xyz
x,y,z
-x,-y,-z
loop_
_atom_site_type_symbol
_atom_site_label
_atom_site_fract_x
_atom_site_fract_y
_atom_site_fract_z
Si Si1 0.124952 0.611931 0.855716
Si Si2 0.820757 0.827132 0.594110
Si Si3 0.242659 0.551371 0.378664
Si Si4 0.240409 0.980282 0.821764
Si Si5 0.925898 0.105400 0.673193
Si Si6 0.222907 0.266919 0.199590
Si Si7 0.478036 0.940301 0.239701
O O1 0.176687 0.617421 0.644265
O O2 0.917211 0.312965 0.581118
O O3 0.142542 0.810754 0.182964
O O4 0.265313 0.686769 0.968554
O O5 0.700103 0.612934 0.494040
O O6 0.776552 0.831789 0.461781
O O7 0.847113 0.021851 0.967505
O O8 0.984329 0.899104 0.538336
O O9 0.265096 0.439700 0.307395
O O10 0.430050 0.821641 0.566818
O O11 0.097505 0.341200 0.026620
O O12 0.289738 0.173001 0.964268
O O13 0.397651 0.061150 0.890226
O O14 0.000000 0.000000 0.000000
O O15 0.500000 0.000000 0.500000
#
# Coordination Sequence:
#
# PCOD9092348 Si02
#       7
#     2   2   2   2   2   2   2
#     4  12  24  46  84 109 150 202 251 309 392 439
#     4   9  21  38  72 110 153 191 247 303 380 442
#     4  12  22  46  75 112 154 197 253 309 376 457
#     4  10  22  50  82 102 153 198 248 311 378 451
#     4  11  20  39  76 117 148 190 251 312 367 451
#     4  10  19  40  76 105 145 197 246 294 379 446
#     4  12  30  50  73 115 154 194 261 317 369 454
#
# _framework density 25.893059000000001
#
# number of rings (size 3 to 8) (size 9 to 14) (size 15 to 20)
#    0.857    0.286    5.714    1.714    0.000    2.857 
#    0.000    1.429    6.286    0.000    0.000    0.000 
#    0.000    0.000    0.000    0.000    0.000    0.000 
#
# Total GULP energy -78173.200050 kJ/mol
# GULP energy per Si atom -5583.800004 kJ/mol
# Density = 2.583412 g / cm^3
# Si number density = 25.893059 Si / 1000 Ang^3
#
#
#
# Elastic Constant Matrix: (Units=GPa)
#
#
# Indices 1 2 3 4 5 6 
#
# 1 217.2393 47.7908 42.9578 6.7540 -20.7901 -14.1853
# 2 47.7908 115.3444 37.5925 -5.0750 -19.7517 -28.0464
# 3 42.9578 37.5925 78.3342 -3.6306 5.2152 9.0272
# 4 6.7540 -5.0750 -3.6306 47.4545 4.4425 -14.8839
# 5 -20.7901 -19.7517 5.2152 4.4425 42.8447 0.8244
# 6 -14.1853 -28.0464 9.0272 -14.8839 0.8244 39.9598
#
#
#
# Elastic Compliance Matrix: (Units=1/GPa)
#
#
# Indices 1 2 3 4 5 6 
#
# 1 0.005855 -0.000039 -0.003740 -0.000617 0.003293 0.002598
# 2 -0.000039 0.018219 -0.011027 0.005680 0.008802 0.017198
# 3 -0.003740 -0.011027 0.022304 -0.002786 -0.009036 -0.014956
# 4 -0.000617 0.005680 -0.002786 0.026003 -0.000309 0.014089
# 5 0.003293 0.008802 -0.009036 -0.000309 0.029961 0.008655
# 6 0.002598 0.017198 -0.014956 0.014089 0.008655 0.046467
#
#
# Mechanical properties :
#
#
# Convention : Reuss Voigt Hill
#
# Bulk Modulus (GPa) = 59.63615 74.17778 66.90697
# Shear Modulus (GPa) = 27.17281 44.89025 36.03153
#
# Velocity S-wave (km/s) = 3.24300 4.16826 3.73440
# Velocity P-wave (km/s) = 6.09134 7.20249 6.67009
#
# Compressibility (1/GPa) = 0.01676835
#
# Stress axis : x y z
#
# Youngs Moduli (GPa) = 170.78947 54.88922 44.83449
#
# Poissons Ratio (x) = 0.00212 0.16766
# Poissons Ratio (y) = 0.00661 0.49437
# Poissons Ratio (z) = 0.63868 0.60524
#
# Static dielectric constant tensor:
#      x y z
#    x 2.060480 0.018560 0.065020 
#    y 0.018560 2.343620 0.199800 
#    z 0.065020 0.199800 2.300080 
# 
# From -- ./inp_files/314122.got.cif
#   From: 2010.05.17/outbox.cif.g08.bks.cpg/sg2_158_cif.got.tgz:314122.got - 2010.06.03 11:33:40.
