data_PCOD9092912
_publ_section_title
;
Structure prediction by ZEFSAII (Michael W. Deem and Ramdas Pophale) SiO2 
 PCOD9092912
Probable space group: P -1
;
_chemical_formula_sum "Si O2"
_cell_formula_units_Z 16
_cell_length_a 7.503254
_cell_length_b 11.287266
_cell_length_c 11.858557
_cell_angle_alpha 53.813863
_cell_angle_beta 90.787346
_cell_angle_gamma 120.743746
_cell_volume 633.751689
_symmetry_space_group_name_H-M "P -1"
_symmetry_group_IT_number 2
_symmetry_cell_setting 'triclinic'
loop_
_space_group_symop_operation_xyz
x,y,z
-x,-y,-z
loop_
_atom_site_type_symbol
_atom_site_label
_atom_site_fract_x
_atom_site_fract_y
_atom_site_fract_z
Si Si1 0.308902 0.502087 0.708669
Si Si2 0.480517 0.789255 0.734600
Si Si3 0.875835 0.931894 0.288511
Si Si4 0.864287 0.114151 0.985583
Si Si5 0.217689 0.402797 0.409476
Si Si6 0.142600 0.871198 0.615580
Si Si7 0.465286 0.095614 0.092903
Si Si8 0.341581 0.721346 0.384583
O O1 0.378856 0.596906 0.778642
O O2 0.524033 0.520029 0.654054
O O3 0.277419 0.631331 0.558287
O O4 0.076743 0.294183 0.823463
O O5 0.296687 0.826876 0.701563
O O6 0.693905 0.958709 0.567177
O O7 0.528104 0.790483 0.866469
O O8 0.892711 0.770564 0.407273
O O9 0.607999 0.819912 0.328675
O O10 0.935841 0.054450 0.331911
O O11 0.971257 0.056088 0.108733
O O12 0.676338 0.943090 0.998799
O O13 0.715016 0.165401 0.017800
O O14 0.221722 0.561045 0.380037
O O15 0.068556 0.310103 0.348445
O O16 0.337261 0.888539 0.262041
#
# Coordination Sequence:
#
# PCOD9092912 Si02
#       8
#     2   2   2   2   2   2   2   2
#     4  11  23  40  64 102 129 166 220 271 317 383
#     4  11  21  40  68 100 125 162 223 277 314 375
#     4  10  19  44  62  88 135 171 209 256 326 389
#     4  10  23  41  66  92 138 173 208 265 328 392
#     4  11  24  40  69  97 130 171 218 269 322 377
#     4  11  21  39  68  97 124 171 215 270 326 371
#     4  10  22  44  66  96 131 173 214 264 333 381
#     4  10  20  41  65  95 129 165 221 273 311 375
#
# _framework density 25.246482
#
# number of rings (size 3 to 8) (size 9 to 14) (size 15 to 20)
#    0.000    1.500    5.000    2.625    3.500    1.000 
#    0.000    6.250    0.000    0.000    0.000    0.000 
#    0.000    0.000    0.000    0.000    0.000    0.000 
#
# Total GULP energy -89691.488040 kJ/mol
# GULP energy per Si atom -5605.718003 kJ/mol
# Density = 2.518902 g / cm^3
# Si number density = 25.246482 Si / 1000 Ang^3
#
#
#
# Elastic Constant Matrix: (Units=GPa)
#
#
# Indices 1 2 3 4 5 6 
#
# 1 88.4128 14.7493 16.4284 2.1512 -20.7019 8.1604
# 2 14.7493 158.7021 11.8445 21.6973 -7.1652 8.8177
# 3 16.4284 11.8445 82.0408 14.8933 -4.7438 7.7610
# 4 2.1512 21.6973 14.8933 36.0600 -2.4300 2.0247
# 5 -20.7019 -7.1652 -4.7438 -2.4300 16.5499 2.8014
# 6 8.1604 8.8177 7.7610 2.0247 2.8014 34.6584
#
#
#
# Elastic Compliance Matrix: (Units=1/GPa)
#
#
# Indices 1 2 3 4 5 6 
#
# 1 0.017406 -0.000414 -0.001955 0.001823 0.022225 -0.005458
# 2 -0.000414 0.007078 0.000080 -0.004021 0.002261 -0.001669
# 3 -0.001955 0.000080 0.013855 -0.005437 0.001175 -0.002440
# 4 0.001823 -0.004021 -0.005437 0.032569 0.003830 -0.000401
# 5 0.022225 0.002261 0.001175 0.003830 0.092432 -0.013766
# 6 -0.005458 -0.001669 -0.002440 -0.000401 -0.013766 0.032245
#
#
# Mechanical properties :
#
#
# Convention : Reuss Voigt Hill
#
# Bulk Modulus (GPa) = 29.62092 46.13334 37.87713
# Shear Modulus (GPa) = 23.64973 36.52922 30.08948
#
# Velocity S-wave (km/s) = 3.06396 3.80795 3.45603
# Velocity P-wave (km/s) = 4.92700 6.13570 5.56427
#
# Compressibility (1/GPa) = 0.03375992
#
# Stress axis : x y z
#
# Youngs Moduli (GPa) = 57.45009 141.27805 72.17666
#
# Poissons Ratio (x) = 0.05853 0.14112
# Poissons Ratio (y) = 0.02380 -0.00575
# Poissons Ratio (z) = 0.11233 -0.01125
#
# Static dielectric constant tensor:
#      x y z
#    x 2.027100 0.006850 -0.013350 
#    y 0.006850 1.983220 0.041900 
#    z -0.013350 0.041900 2.026280 
# 
# From -- ./inp_files/392359.got.cif
#   From: 2010.05.17/outbox.cif.g08.bks.cpg/sg2_197_cif.got.tgz:392359.got - 2010.06.03 11:33:40.
