data_PCOD9092019
_publ_section_title
;
Structure prediction by ZEFSAII (Michael W. Deem and Ramdas Pophale) SiO2 
 PCOD9092019
Probable space group: P -1
;
_chemical_formula_sum "Si O2"
_cell_formula_units_Z 16
_cell_length_a 8.735582
_cell_length_b 22.107591
_cell_length_c 13.065502
_cell_angle_alpha 153.348208
_cell_angle_beta 133.625286
_cell_angle_gamma 34.405160
_cell_volume 628.227176
_symmetry_space_group_name_H-M "P -1"
_symmetry_group_IT_number 2
_symmetry_cell_setting 'triclinic'
loop_
_space_group_symop_operation_xyz
x,y,z
-x,-y,-z
loop_
_atom_site_type_symbol
_atom_site_label
_atom_site_fract_x
_atom_site_fract_y
_atom_site_fract_z
Si Si1 0.066884 0.657475 0.154167
Si Si2 0.436684 0.208461 0.993549
Si Si3 0.190061 0.300813 0.683934
Si Si4 0.817229 0.107420 0.478902
Si Si5 0.061759 0.637386 0.745862
Si Si6 0.695745 0.190729 0.874235
Si Si7 0.180482 0.588082 0.499310
Si Si8 0.462557 0.026110 0.901079
O O1 0.988756 0.672122 0.259142
O O2 0.252967 0.707934 0.287644
O O3 0.166173 0.466774 0.888465
O O4 0.781780 0.800348 0.176669
O O5 0.246965 0.402671 0.246202
O O6 0.612644 0.193318 0.956603
O O7 0.602374 0.070507 0.953133
O O8 0.493288 0.186902 0.701652
O O9 0.026978 0.290765 0.504113
O O10 0.002756 0.987601 0.285355
O O11 0.000000 0.000000 0.500000
O O12 0.558074 0.114278 0.367749
O O13 0.041280 0.685975 0.689773
O O14 0.000000 0.500000 0.500000
O O15 0.315606 0.640641 0.893610
O O16 0.844126 0.782266 0.945646
O O17 0.500000 0.500000 0.500000
O O18 0.500000 0.000000 0.000000
#
# Coordination Sequence:
#
# PCOD9092019 Si02
#       8
#     2   2   2   2   2   2   2   2
#     4   9  19  38  63  90 123 156 208 258 317 359
#     4  10  19  40  65  86 125 165 206 266 314 370
#     4   9  21  38  66 100 118 155 223 268 301 375
#     4  11  23  42  63  88 129 176 205 256 330 380
#     4  11  23  41  64  92 128 173 208 261 330 381
#     4  10  23  41  65  96 124 167 220 259 319 383
#     4  11  21  38  68  95 126 166 207 264 328 371
#     4  11  25  42  60  91 131 167 215 260 321 383
#
# _framework density 25.468495000000001
#
# number of rings (size 3 to 8) (size 9 to 14) (size 15 to 20)
#    0.000    1.750    3.750    0.750    0.000    5.000 
#    2.250    2.500    0.000    0.000    0.000    0.000 
#    0.000    0.000    0.000    0.000    0.000    0.000 
#
# Total GULP energy -89067.627321 kJ/mol
# GULP energy per Si atom -5566.726708 kJ/mol
# Density = 2.541053 g / cm^3
# Si number density = 25.468495 Si / 1000 Ang^3
#
#
#
# Elastic Constant Matrix: (Units=GPa)
#
#
# Indices 1 2 3 4 5 6 
#
# 1 108.8720 32.8911 26.3815 -1.4300 8.1205 14.1364
# 2 32.8911 63.8620 19.4991 -20.6215 5.2971 18.3060
# 3 26.3815 19.4991 87.8113 -5.0296 8.3005 16.6899
# 4 -1.4300 -20.6215 -5.0296 36.7550 3.1572 5.6627
# 5 8.1205 5.2971 8.3005 3.1572 44.2818 1.7183
# 6 14.1364 18.3060 16.6899 5.6627 1.7183 36.6984
#
#
#
# Elastic Compliance Matrix: (Units=1/GPa)
#
#
# Indices 1 2 3 4 5 6 
#
# 1 0.011651 -0.006473 -0.002260 -0.003479 -0.000704 0.000338
# 2 -0.006473 0.029794 -0.000455 0.018968 -0.003064 -0.014945
# 3 -0.002260 -0.000455 0.013519 0.002505 -0.002037 -0.005342
# 4 -0.003479 0.018968 0.002505 0.040801 -0.004414 -0.015350
# 5 -0.000704 -0.003064 -0.002037 -0.004414 0.023686 0.002298
# 6 0.000338 -0.014945 -0.005342 -0.015350 0.002298 0.039264
#
#
# Mechanical properties :
#
#
# Convention : Reuss Voigt Hill
#
# Bulk Modulus (GPa) = 27.32995 46.45431 36.89213
# Shear Modulus (GPa) = 26.41484 35.66527 31.04005
#
# Velocity S-wave (km/s) = 3.22399 3.74621 3.49487
# Velocity P-wave (km/s) = 4.96115 6.08207 5.54998
#
# Compressibility (1/GPa) = 0.03658989
#
# Stress axis : x y z
#
# Youngs Moduli (GPa) = 85.82897 33.56325 73.96776
#
# Poissons Ratio (x) = 0.21724 0.16718
# Poissons Ratio (y) = 0.55554 0.03363
# Poissons Ratio (z) = 0.19399 0.01526
#
# Static dielectric constant tensor:
#      x y z
#    x 2.123150 -0.096250 0.091540 
#    y -0.096250 2.159720 -0.040750 
#    z 0.091540 -0.040750 2.191470 
# 
# From -- ./inp_files/392889.got.cif
#   From: 2010.05.17/outbox.cif.g08.bks.cpg/sg2_197_cif.got.tgz:392889.got - 2010.06.03 11:33:40.
