data_PCOD9092050
_publ_section_title
;
Structure prediction by ZEFSAII (Michael W. Deem and Ramdas Pophale) SiO2 
 PCOD9092050
Probable space group: P -1
;
_chemical_formula_sum "Si O2"
_cell_formula_units_Z 12
_cell_length_a 11.934085
_cell_length_b 19.261979
_cell_length_c 7.030355
_cell_angle_alpha 74.517139
_cell_angle_beta 85.410874
_cell_angle_gamma 23.655911
_cell_volume 565.541028
_symmetry_space_group_name_H-M "P -1"
_symmetry_group_IT_number 2
_symmetry_cell_setting 'triclinic'
loop_
_space_group_symop_operation_xyz
x,y,z
-x,-y,-z
loop_
_atom_site_type_symbol
_atom_site_label
_atom_site_fract_x
_atom_site_fract_y
_atom_site_fract_z
Si Si1 0.887986 0.197604 0.595764
Si Si2 0.614956 0.151584 0.483437
Si Si3 0.717546 0.460077 0.348733
Si Si4 0.711195 0.802666 0.614748
Si Si5 0.268115 0.448678 0.025573
Si Si6 0.261344 0.906591 0.050422
O O1 0.837391 0.307517 0.445238
O O2 0.560443 0.366824 0.594305
O O3 0.060929 0.044593 0.532128
O O4 0.109858 0.064621 0.847607
O O5 0.461290 0.165593 0.449619
O O6 0.399282 0.342365 0.282887
O O7 0.665943 0.127124 0.716489
O O8 0.996526 0.347346 0.443072
O O9 0.625212 0.538347 0.088232
O O10 0.500000 0.000000 0.500000
O O11 0.899580 0.671723 0.880561
O O12 0.436272 0.295340 0.962860
O O13 0.000000 0.000000 0.000000
#
# Coordination Sequence:
#
# PCOD9092050 Si02
#       6
#     2   2   2   2   2   2
#     4  10  20  40  63  90 124 161 201 261 299 366
#     4  11  22  37  69  91 121 168 204 243 321 360
#     4   9  19  39  64  87 132 154 196 266 303 349
#     4  10  19  40  65  92 122 161 205 253 302 377
#     4   9  21  38  62  91 126 155 201 262 300 366
#     4  11  22  41  59  93 128 160 207 258 299 365
#
# _framework density 21.218620999999999
#
# number of rings (size 3 to 8) (size 9 to 14) (size 15 to 20)
#    1.000    1.000    3.333    0.500    0.000    3.333 
#    0.000    7.500    0.000    0.000    0.000    0.000 
#    0.000    0.000    0.000    0.000    0.000    0.000 
#
# Total GULP energy -66888.605390 kJ/mol
# GULP energy per Si atom -5574.050449 kJ/mol
# Density = 2.117033 g / cm^3
# Si number density = 21.218621 Si / 1000 Ang^3
#
#
#
# Elastic Constant Matrix: (Units=GPa)
#
#
# Indices 1 2 3 4 5 6 
#
# 1 88.4081 14.1356 47.0985 -16.6356 -25.4192 2.4628
# 2 14.1356 78.0414 46.5135 -27.3141 -6.4300 -0.4278
# 3 47.0985 46.5135 167.9197 -8.5723 -24.7069 29.1363
# 4 -16.6356 -27.3141 -8.5723 33.0389 8.4822 -11.0494
# 5 -25.4192 -6.4300 -24.7069 8.4822 32.7704 -9.7898
# 6 2.4628 -0.4278 29.1363 -11.0494 -9.7898 28.4333
#
#
#
# Elastic Compliance Matrix: (Units=1/GPa)
#
#
# Indices 1 2 3 4 5 6 
#
# 1 0.021464 0.009797 -0.009354 0.019970 0.012284 0.019863
# 2 0.009797 0.034313 -0.015411 0.039309 0.001918 0.031396
# 3 -0.009354 -0.015411 0.015940 -0.021375 0.000092 -0.024030
# 4 0.019970 0.039309 -0.021375 0.085099 0.001274 0.054274
# 5 0.012284 0.001918 0.000092 0.001274 0.044553 0.014706
# 6 0.019863 0.031396 -0.024030 0.054274 0.014706 0.084701
#
#
# Mechanical properties :
#
#
# Convention : Reuss Voigt Hill
#
# Bulk Modulus (GPa) = 23.93430 61.09605 42.51517
# Shear Modulus (GPa) = 15.15466 33.95663 24.55564
#
# Velocity S-wave (km/s) = 2.67538 4.00474 3.40556
# Velocity P-wave (km/s) = 4.56595 7.08802 5.96188
#
# Compressibility (1/GPa) = 0.04178104
#
# Stress axis : x y z
#
# Youngs Moduli (GPa) = 46.58934 29.14374 62.73655
#
# Poissons Ratio (x) = -0.28554 0.58683
# Poissons Ratio (y) = -0.45646 0.96686
# Poissons Ratio (z) = 0.43579 0.44915
#
# Static dielectric constant tensor:
#      x y z
#    x 1.808510 -0.027170 -0.044910 
#    y -0.027170 1.794620 -0.039890 
#    z -0.044910 -0.039890 1.801620 
# 
# From -- ./inp_files/101063.got.cif
#   From: 2010.05.17/outbox.cif.g08.bks.cpg/sg2_51_cif.got.tgz:101063.got - 2010.06.03 11:33:40.
