data_PCOD9092379
_publ_section_title
;
Structure prediction by ZEFSAII (Michael W. Deem and Ramdas Pophale) SiO2 
 PCOD9092379
Probable space group: P -1
;
_chemical_formula_sum "Si O2"
_cell_formula_units_Z 13
_cell_length_a 10.780927
_cell_length_b 7.669918
_cell_length_c 12.794365
_cell_angle_alpha 120.181399
_cell_angle_beta 36.477033
_cell_angle_gamma 98.910398
_cell_volume 475.397572
_symmetry_space_group_name_H-M "P -1"
_symmetry_group_IT_number 2
_symmetry_cell_setting 'triclinic'
loop_
_space_group_symop_operation_xyz
x,y,z
-x,-y,-z
loop_
_atom_site_type_symbol
_atom_site_label
_atom_site_fract_x
_atom_site_fract_y
_atom_site_fract_z
Si Si1 0.315313 0.429464 0.706544
Si Si2 0.176072 0.049762 0.541992
Si Si3 0.500000 0.000000 0.500000
Si Si4 0.865922 0.323458 0.656698
Si Si5 0.792655 0.089167 0.977241
Si Si6 0.811503 0.328866 0.350422
Si Si7 0.312447 0.314575 0.268470
O O1 0.250537 0.263738 0.765386
O O2 0.608067 0.243477 0.460266
O O3 0.252139 0.498373 0.651237
O O4 0.278586 0.661963 0.852892
O O5 0.402017 0.020195 0.445411
O O6 0.983421 0.277649 0.677530
O O7 0.009159 0.027694 0.734731
O O8 0.235685 0.846858 0.356355
O O9 0.101444 0.256051 0.406295
O O10 0.686824 0.577483 0.811754
O O11 0.561365 0.117667 0.083295
O O12 0.923212 0.878145 0.904081
O O13 0.764558 0.474939 0.531742
#
# Coordination Sequence:
#
# PCOD9092379 Si02
#       7
#     2   2   1   2   2   2   2
#     4  10  22  36  66  90 138 177 217 267 338 390
#     4  11  23  41  68  93 138 173 222 268 341 385
#     4  12  22  44  64  94 130 184 206 274 330 402
#     4  10  22  44  65  96 133 184 209 275 338 397
#     4  11  21  40  68 103 129 174 225 285 314 403
#     4  10  19  41  61  97 132 174 215 277 329 395
#     4  10  21  40  70  91 129 171 230 269 331 386
#
# _framework density 27.345535999999999
#
# number of rings (size 3 to 8) (size 9 to 14) (size 15 to 20)
#    0.000    1.538    3.077    2.308    0.000    1.846 
#    2.769    0.000    3.385    0.000    0.000    0.000 
#    0.000    0.000    0.000    0.000    0.000    0.000 
#
# Total GULP energy -72473.029596 kJ/mol
# GULP energy per Si atom -5574.848430 kJ/mol
# Density = 2.728330 g / cm^3
# Si number density = 27.345536 Si / 1000 Ang^3
#
#
#
# Elastic Constant Matrix: (Units=GPa)
#
#
# Indices 1 2 3 4 5 6 
#
# 1 213.3406 48.8959 39.5119 14.2548 -34.5543 3.6220
# 2 48.8959 77.6910 20.0251 34.0883 -13.9590 -26.8381
# 3 39.5119 20.0251 97.0039 28.7623 -25.8399 -3.0145
# 4 14.2548 34.0883 28.7623 45.3867 -13.8382 -17.6025
# 5 -34.5543 -13.9590 -25.8399 -13.8382 49.0846 11.9093
# 6 3.6220 -26.8381 -3.0145 -17.6025 11.9093 56.2008
#
#
#
# Elastic Compliance Matrix: (Units=1/GPa)
#
#
# Indices 1 2 3 4 5 6 
#
# 1 0.006721 -0.005496 -0.001543 0.003022 0.003943 -0.003030
# 2 -0.005496 0.025215 0.001279 -0.015617 -0.002388 0.008079
# 3 -0.001543 0.001279 0.014650 -0.009184 0.004993 -0.002438
# 4 0.003022 -0.015617 -0.009184 0.041268 0.003507 0.004037
# 5 0.003943 -0.002388 0.004993 0.003507 0.027508 -0.005858
# 6 -0.003030 0.008079 -0.002438 0.004037 -0.005858 0.024221
#
#
# Mechanical properties :
#
#
# Convention : Reuss Voigt Hill
#
# Bulk Modulus (GPa) = 28.51748 67.21125 47.86436
# Shear Modulus (GPa) = 30.71382 48.77459 39.74421
#
# Velocity S-wave (km/s) = 3.35502 4.22790 3.81649
# Velocity P-wave (km/s) = 5.04573 6.96171 6.07967
#
# Compressibility (1/GPa) = 0.03506622
#
# Stress axis : x y z
#
# Youngs Moduli (GPa) = 148.78748 39.65867 68.25720
#
# Poissons Ratio (x) = 0.21798 0.10531
# Poissons Ratio (y) = 0.81780 -0.08731
# Poissons Ratio (z) = 0.22955 -0.05073
#
# Static dielectric constant tensor:
#      x y z
#    x 2.014080 -0.580890 -0.077860 
#    y -0.580890 0.399280 -0.026940 
#    z -0.077860 -0.026940 2.203320 
# 
# From -- ./inp_files/30266.got.cif
#   From: 2010.05.17/outbox.cif.g08.bks.cpg/sg2_16_cif.got.tgz:30266.got - 2010.06.03 11:33:40.
