data_PCOD9092236
_publ_section_title
;
Structure prediction by ZEFSAII (Michael W. Deem and Ramdas Pophale) SiO2 
 PCOD9092236
Probable space group: P -1
;
_chemical_formula_sum "Si O2"
_cell_formula_units_Z 16
_cell_length_a 9.874119
_cell_length_b 14.618511
_cell_length_c 9.435865
_cell_angle_alpha 142.201091
_cell_angle_beta 109.595183
_cell_angle_gamma 88.021629
_cell_volume 721.056322
_symmetry_space_group_name_H-M "P -1"
_symmetry_group_IT_number 2
_symmetry_cell_setting 'triclinic'
loop_
_space_group_symop_operation_xyz
x,y,z
-x,-y,-z
loop_
_atom_site_type_symbol
_atom_site_label
_atom_site_fract_x
_atom_site_fract_y
_atom_site_fract_z
Si Si1 0.474357 0.189275 0.452213
Si Si2 0.854028 0.586115 0.427610
Si Si3 0.538702 0.363202 0.421971
Si Si4 0.895985 0.559490 0.732490
Si Si5 0.866846 0.916587 0.735570
Si Si6 0.374490 0.049207 0.794921
Si Si7 0.879887 0.111949 0.703898
Si Si8 0.384857 0.761182 0.133234
O O1 0.499452 0.340070 0.545065
O O2 0.292391 0.072037 0.250674
O O3 0.527888 0.239161 0.691390
O O4 0.582220 0.099389 0.321651
O O5 0.895089 0.631930 0.662851
O O6 0.837719 0.727220 0.502376
O O7 0.988191 0.533574 0.348326
O O8 0.699915 0.420696 0.174938
O O9 0.500000 0.500000 0.500000
O O10 0.725239 0.426788 0.546638
O O11 0.427308 0.191268 0.102355
O O12 0.967598 0.719484 0.052422
O O13 0.902264 0.995305 0.688725
O O14 0.000000 0.000000 0.000000
O O15 0.492932 0.127230 0.800544
O O16 0.201201 0.981711 0.582994
O O17 0.748809 0.172235 0.796471
#
# Coordination Sequence:
#
# PCOD9092236 Si02
#       8
#     2   2   2   2   2   2   2   2
#     4  11  24  41  64  98 130 165 208 262 319 384
#     4  10  21  34  63  95 120 168 210 261 311 364
#     4  12  27  43  63  93 134 171 209 257 323 385
#     4  10  21  41  61  86 129 169 210 250 316 381
#     4  12  22  33  61 100 129 151 212 269 313 361
#     4  11  21  43  67  92 124 174 213 261 311 376
#     4  10  20  39  65  94 124 160 214 267 311 363
#     4  10  19  40  68  93 122 166 220 260 310 370
#
# _framework density 22.189667
#
# number of rings (size 3 to 8) (size 9 to 14) (size 15 to 20)
#    0.000    1.250    5.000    1.875    1.750    1.500 
#    0.000    6.250    0.000    0.000    0.000    0.000 
#    0.000    0.000    0.000    0.000    0.000    0.000 
#
# Total GULP energy -89472.377587 kJ/mol
# GULP energy per Si atom -5592.023599 kJ/mol
# Density = 2.213916 g / cm^3
# Si number density = 22.189667 Si / 1000 Ang^3
#
#
#
# Elastic Constant Matrix: (Units=GPa)
#
#
# Indices 1 2 3 4 5 6 
#
# 1 38.2321 16.4942 24.0692 -8.1229 9.8600 -1.2360
# 2 16.4942 108.3079 20.4436 -4.4468 4.8746 -15.4564
# 3 24.0692 20.4436 116.2384 3.4454 32.1098 -13.0773
# 4 -8.1229 -4.4468 3.4454 29.4281 -6.9000 4.4862
# 5 9.8600 4.8746 32.1098 -6.9000 22.2509 -1.1569
# 6 -1.2360 -15.4564 -13.0773 4.4862 -1.1569 23.5536
#
#
#
# Elastic Compliance Matrix: (Units=1/GPa)
#
#
# Indices 1 2 3 4 5 6 
#
# 1 0.035003 -0.004502 -0.007299 0.010696 -0.001051 -0.007259
# 2 -0.004502 0.010919 -0.000214 -0.000604 0.000085 0.006930
# 3 -0.007299 -0.000214 0.019693 -0.012781 -0.028505 0.011445
# 4 0.010696 -0.000604 -0.012781 0.047042 0.027669 -0.014532
# 5 -0.001051 0.000085 -0.028505 0.027669 0.094249 -0.016467
# 6 -0.007259 0.006930 0.011445 -0.014532 -0.016467 0.054936
#
#
# Mechanical properties :
#
#
# Convention : Reuss Voigt Hill
#
# Bulk Modulus (GPa) = 24.04803 42.75470 33.40137
# Shear Modulus (GPa) = 16.68145 28.49794 22.58970
#
# Velocity S-wave (km/s) = 2.74481 3.58759 3.19412
# Velocity P-wave (km/s) = 4.57234 6.03910 5.35617
#
# Compressibility (1/GPa) = 0.04158344
#
# Stress axis : x y z
#
# Youngs Moduli (GPa) = 28.56915 91.58117 50.77981
#
# Poissons Ratio (x) = 0.41232 0.37066
# Poissons Ratio (y) = 0.12863 0.01087
# Poissons Ratio (z) = 0.20854 0.01961
#
# Static dielectric constant tensor:
#      x y z
#    x 1.860710 -0.017310 0.004180 
#    y -0.017310 1.784750 0.003260 
#    z 0.004180 0.003260 1.857830 
# 
# From -- ./inp_files/263601.got.cif
#   From: 2010.05.17/outbox.cif.g08.bks.cpg/sg2_132_cif.got.tgz:263601.got - 2010.06.03 11:33:40.
