data_PCOD9092498
_publ_section_title
;
Structure prediction by ZEFSAII (Michael W. Deem and Ramdas Pophale) SiO2 
 PCOD9092498
Probable space group: P -1
;
_chemical_formula_sum "Si O2"
_cell_formula_units_Z 16
_cell_length_a 8.425154
_cell_length_b 12.738526
_cell_length_c 12.331104
_cell_angle_alpha 48.308355
_cell_angle_beta 112.310272
_cell_angle_gamma 133.834003
_cell_volume 704.761097
_symmetry_space_group_name_H-M "P -1"
_symmetry_group_IT_number 2
_symmetry_cell_setting 'triclinic'
loop_
_space_group_symop_operation_xyz
x,y,z
-x,-y,-z
loop_
_atom_site_type_symbol
_atom_site_label
_atom_site_fract_x
_atom_site_fract_y
_atom_site_fract_z
Si Si1 0.192507 0.025263 0.284652
Si Si2 0.262647 0.027120 0.825355
Si Si3 0.823849 0.035003 0.914400
Si Si4 0.047222 0.685551 0.858442
Si Si5 0.813486 0.542872 0.309636
Si Si6 0.639308 0.429451 0.582111
Si Si7 0.419015 0.408521 0.160501
Si Si8 0.910593 0.306776 0.379790
O O1 0.288899 0.052844 0.169848
O O2 0.953087 0.980824 0.239471
O O3 0.155729 0.860547 0.449497
O O4 0.348693 0.209500 0.266250
O O5 0.472449 0.213126 0.699665
O O6 0.193640 0.847207 0.872361
O O7 0.306349 0.028806 0.963158
O O8 0.963458 0.251235 0.788883
O O9 0.000000 0.000000 0.000000
O O10 0.804952 0.631054 0.836449
O O11 0.150705 0.750161 0.721301
O O12 0.000000 0.500000 0.000000
O O13 0.767664 0.490163 0.459444
O O14 0.613126 0.528288 0.215625
O O15 0.820001 0.403091 0.340163
O O16 0.500000 0.500000 0.500000
O O17 0.822843 0.534694 0.650798
O O18 0.500000 0.500000 0.000000
#
# Coordination Sequence:
#
# PCOD9092498 Si02
#       8
#     2   2   2   2   2   2   2   2
#     4  10  22  39  68  97 132 177 222 275 338 398
#     4  10  22  41  69 100 131 175 230 273 337 403
#     4  10  19  41  66  93 132 176 219 275 332 398
#     4  11  25  46  69  96 140 177 220 284 342 399
#     4  12  25  43  67  97 139 175 225 276 336 406
#     4  12  23  43  68 103 129 175 225 278 338 396
#     4  11  24  43  68  99 130 181 230 270 338 409
#     4  12  25  44  66  98 140 177 221 282 342 396
#
# _framework density 22.702726999999999
#
# number of rings (size 3 to 8) (size 9 to 14) (size 15 to 20)
#    0.000    1.000    2.500    5.625    1.750    2.500 
#    2.250    3.750    0.000    0.000    0.000    0.000 
#    0.000    0.000    0.000    0.000    0.000    0.000 
#
# Total GULP energy -89627.932689 kJ/mol
# GULP energy per Si atom -5601.745793 kJ/mol
# Density = 2.265106 g / cm^3
# Si number density = 22.702727 Si / 1000 Ang^3
#
#
#
# Elastic Constant Matrix: (Units=GPa)
#
#
# Indices 1 2 3 4 5 6 
#
# 1 69.1213 19.7418 22.9364 -4.5881 3.0481 -24.4727
# 2 19.7418 61.3414 21.7055 -2.8875 14.8037 -15.3493
# 3 22.9364 21.7055 114.4163 -9.2743 -12.7860 -24.3327
# 4 -4.5881 -2.8875 -9.2743 45.1062 -9.3113 -2.0243
# 5 3.0481 14.8037 -12.7860 -9.3113 26.9979 1.9049
# 6 -24.4727 -15.3493 -24.3327 -2.0243 1.9049 44.0187
#
#
#
# Elastic Compliance Matrix: (Units=1/GPa)
#
#
# Indices 1 2 3 4 5 6 
#
# 1 0.019118 -0.003079 -0.001347 0.001629 -0.001177 0.008936
# 2 -0.003079 0.024090 -0.005118 -0.003062 -0.016655 0.004439
# 3 -0.001347 -0.005118 0.012304 0.004308 0.009987 0.004034
# 4 0.001629 -0.003062 0.004308 0.025670 0.012186 0.002872
# 5 -0.001177 -0.016655 0.009987 0.012186 0.055434 -0.002780
# 6 0.008936 0.004439 0.004034 0.002872 -0.002780 0.031716
#
#
# Mechanical properties :
#
#
# Convention : Reuss Voigt Hill
#
# Bulk Modulus (GPa) = 27.45564 41.51628 34.48596
# Shear Modulus (GPa) = 25.05491 35.25757 30.15624
#
# Velocity S-wave (km/s) = 3.32566 3.94510 3.64855
# Velocity P-wave (km/s) = 5.18329 6.25127 5.74216
#
# Compressibility (1/GPa) = 0.03642239
#
# Stress axis : x y z
#
# Youngs Moduli (GPa) = 52.30749 41.51052 81.27389
#
# Poissons Ratio (x) = 0.12782 0.10951
# Poissons Ratio (y) = 0.16107 0.41597
# Poissons Ratio (z) = 0.07048 0.21246
#
# Static dielectric constant tensor:
#      x y z
#    x 1.786770 -0.068730 -0.010200 
#    y -0.068730 1.715870 -0.029080 
#    z -0.010200 -0.029080 1.794400 
# 
# From -- ./inp_files/352216.got.cif
#   From: 2010.05.17/outbox.cif.g08.bks.cpg/sg2_177_cif.got.tgz:352216.got - 2010.06.03 11:33:40.
