data_PCOD9092692
_publ_section_title
;
Structure prediction by ZEFSAII (Michael W. Deem and Ramdas Pophale) SiO2 
 PCOD9092692
Probable space group: P -1
;
_chemical_formula_sum "Si O2"
_cell_formula_units_Z 12
_cell_length_a 9.486800
_cell_length_b 10.109100
_cell_length_c 7.104740
_cell_angle_alpha 84.434737
_cell_angle_beta 65.065181
_cell_angle_gamma 122.320681
_cell_volume 473.675112
_symmetry_space_group_name_H-M "P -1"
_symmetry_group_IT_number 2
_symmetry_cell_setting 'triclinic'
loop_
_space_group_symop_operation_xyz
x,y,z
-x,-y,-z
loop_
_atom_site_type_symbol
_atom_site_label
_atom_site_fract_x
_atom_site_fract_y
_atom_site_fract_z
Si Si1 0.710787 0.040348 0.908372
Si Si2 0.340351 0.433826 0.772394
Si Si3 0.954272 0.658161 0.585908
Si Si4 0.301542 0.228810 0.292098
Si Si5 0.772367 0.396718 0.409445
Si Si6 0.701756 0.872666 0.278619
O O1 0.686163 0.888368 0.833433
O O2 0.767621 0.032135 0.091548
O O3 0.882512 0.215660 0.682248
O O4 0.500000 0.000000 0.000000
O O5 0.500000 0.500000 0.500000
O O6 0.482186 0.580793 0.826017
O O7 0.191662 0.466261 0.778339
O O8 0.260045 0.240787 0.850426
O O9 0.847080 0.734947 0.692351
O O10 0.798261 0.477196 0.590713
O O11 0.074705 0.641688 0.675876
O O12 0.228281 0.129312 0.550713
O O13 0.538703 0.230892 0.545244
#
# Coordination Sequence:
#
# PCOD9092692 Si02
#       6
#     2   2   2   2   2   2
#     4  12  26  38  58  95 123 155 204 247 298 353
#     4   8  15  36  61  89 109 156 202 233 295 353
#     4  11  19  37  62  92 120 156 198 246 300 352
#     4  10  21  40  66  85 119 166 197 239 303 355
#     4   9  17  35  67  83 119 161 193 245 298 353
#     4  10  19  42  64  87 120 157 199 248 294 360
#
# _framework density 25.333819999999999
#
# number of rings (size 3 to 8) (size 9 to 14) (size 15 to 20)
#    0.000    2.333    6.667    0.500    0.000    2.000 
#    0.000    0.000    0.000    5.000    0.000    0.000 
#    0.000    0.000    0.000    0.000    0.000    0.000 
#
# Total GULP energy -67100.307662 kJ/mol
# GULP energy per Si atom -5591.692305 kJ/mol
# Density = 2.527616 g / cm^3
# Si number density = 25.333820 Si / 1000 Ang^3
#
#
#
# Elastic Constant Matrix: (Units=GPa)
#
#
# Indices 1 2 3 4 5 6 
#
# 1 190.3887 51.8058 30.8994 4.9969 -10.6651 -58.9816
# 2 51.8058 60.7393 21.0531 17.1036 0.5520 -18.0962
# 3 30.8994 21.0531 78.1375 5.3740 11.4691 -19.7230
# 4 4.9969 17.1036 5.3740 28.0033 -11.2756 2.5046
# 5 -10.6651 0.5520 11.4691 -11.2756 35.1822 -7.4842
# 6 -58.9816 -18.0962 -19.7230 2.5046 -7.4842 48.1926
#
#
#
# Elastic Compliance Matrix: (Units=1/GPa)
#
#
# Indices 1 2 3 4 5 6 
#
# 1 0.011333 -0.007208 -0.001068 0.004719 0.007900 0.011708
# 2 -0.007208 0.029238 -0.002278 -0.019408 -0.007908 0.001005
# 3 -0.001068 -0.002278 0.015935 -0.004245 -0.006070 0.003637
# 4 0.004719 -0.019408 -0.004245 0.056035 0.020442 -0.002987
# 5 0.007900 -0.007908 -0.006070 0.020442 0.041515 0.009600
# 6 0.011708 0.001005 0.003637 -0.002987 0.009600 0.038590
#
#
# Mechanical properties :
#
#
# Convention : Reuss Voigt Hill
#
# Bulk Modulus (GPa) = 28.25139 59.64246 43.94693
# Shear Modulus (GPa) = 22.16763 37.30943 29.73853
#
# Velocity S-wave (km/s) = 2.96128 3.84176 3.42989
# Velocity P-wave (km/s) = 4.78206 6.57819 5.75068
#
# Compressibility (1/GPa) = 0.03539649
#
# Stress axis : x y z
#
# Youngs Moduli (GPa) = 88.23898 34.20210 62.75471
#
# Poissons Ratio (x) = 0.24654 0.06704
# Poissons Ratio (y) = 0.63605 0.14296
# Poissons Ratio (z) = 0.09427 0.07791
#
# Static dielectric constant tensor:
#      x y z
#    x 2.021420 0.015580 0.044650 
#    y 0.015580 2.029560 -0.047690 
#    z 0.044650 -0.047690 2.040440 
# 
# From -- ./inp_files/154510.got.cif
#   From: 2010.05.17/outbox.cif.g08.bks.cpg/sg2_78_cif.got.tgz:154510.got - 2010.06.03 11:33:40.
