data_PCOD9092801
_publ_section_title
;
Structure prediction by ZEFSAII (Michael W. Deem and Ramdas Pophale) SiO2 
 PCOD9092801
Probable space group: P -1
;
_chemical_formula_sum "Si O2"
_cell_formula_units_Z 16
_cell_length_a 11.593755
_cell_length_b 11.315189
_cell_length_c 20.128121
_cell_angle_alpha 31.139988
_cell_angle_beta 148.201990
_cell_angle_gamma 143.960020
_cell_volume 686.856399
_symmetry_space_group_name_H-M "P -1"
_symmetry_group_IT_number 2
_symmetry_cell_setting 'triclinic'
loop_
_space_group_symop_operation_xyz
x,y,z
-x,-y,-z
loop_
_atom_site_type_symbol
_atom_site_label
_atom_site_fract_x
_atom_site_fract_y
_atom_site_fract_z
Si Si1 0.210223 0.312959 0.520583
Si Si2 0.800286 0.351550 0.523495
Si Si3 0.694287 0.556821 0.644134
Si Si4 0.717107 0.072815 0.407295
Si Si5 0.016252 0.360295 0.963119
Si Si6 0.509754 0.622867 0.750677
Si Si7 0.137061 0.171401 0.840304
Si Si8 0.760180 0.510783 0.131785
O O1 0.186249 0.485580 0.484641
O O2 0.474445 0.320253 0.650763
O O3 0.197654 0.415416 0.390739
O O4 0.989500 0.091002 0.535864
O O5 0.560581 0.305713 0.390657
O O6 0.000000 0.500000 0.500000
O O7 0.897407 0.142566 0.697824
O O8 0.861942 0.539725 0.794380
O O9 0.604787 0.790705 0.490441
O O10 0.592726 0.206850 0.333240
O O11 0.731547 0.235139 0.270883
O O12 0.120264 0.387446 0.926948
O O13 0.234826 0.389348 0.103894
O O14 0.848928 0.093207 0.018020
O O15 0.344681 0.354100 0.814628
O O16 0.136868 0.307309 0.844791
O O17 0.500000 0.500000 0.000000
#
# Coordination Sequence:
#
# PCOD9092801 Si02
#       8
#     2   2   2   2   2   2   2   2
#     4  11  22  42  63  94 128 166 219 254 316 387
#     4  10  19  42  70  94 121 163 229 273 304 371
#     4  11  27  39  63  98 134 175 202 252 334 402
#     4  11  21  41  65  95 127 170 212 264 319 379
#     4  12  23  39  59  95 133 165 209 263 328 380
#     4  10  23  41  68  98 117 163 225 275 315 357
#     4  10  21  36  62  92 125 160 206 274 319 358
#     4  11  20  36  61  98 126 159 208 272 326 362
#
# _framework density 23.294533999999999
#
# number of rings (size 3 to 8) (size 9 to 14) (size 15 to 20)
#    0.000    1.250    7.500    0.750    1.750    3.500 
#    0.000    0.625    0.000    2.250    0.000    0.000 
#    0.000    0.000    0.000    0.000    0.000    0.000 
#
# Total GULP energy -89152.395428 kJ/mol
# GULP energy per Si atom -5572.024714 kJ/mol
# Density = 2.324151 g / cm^3
# Si number density = 23.294534 Si / 1000 Ang^3
#
#
#
# Elastic Constant Matrix: (Units=GPa)
#
#
# Indices 1 2 3 4 5 6 
#
# 1 43.3382 6.3539 -5.7079 -7.4750 2.2422 3.3184
# 2 6.3539 78.6132 50.2262 2.3381 -4.3666 12.4951
# 3 -5.7079 50.2262 140.3195 12.4995 -9.7341 -8.8120
# 4 -7.4750 2.3381 12.4995 48.5092 5.4834 -1.5553
# 5 2.2422 -4.3666 -9.7341 5.4834 21.5040 6.1072
# 6 3.3184 12.4951 -8.8120 -1.5553 6.1072 27.4915
#
#
#
# Elastic Compliance Matrix: (Units=1/GPa)
#
#
# Indices 1 2 3 4 5 6 
#
# 1 0.024635 -0.003343 0.001605 0.003947 -0.003547 0.000072
# 2 -0.003343 0.020178 -0.007783 -0.000386 0.004511 -0.012286
# 3 0.001605 -0.007783 0.010690 -0.002143 0.001867 0.006234
# 4 0.003947 -0.000386 -0.002143 0.022745 -0.007839 0.002040
# 5 -0.003547 0.004511 0.001867 -0.007839 0.054487 -0.013571
# 6 0.000072 -0.012286 0.006234 0.002040 -0.013571 0.047079
#
#
# Mechanical properties :
#
#
# Convention : Reuss Voigt Hill
#
# Bulk Modulus (GPa) = 27.42563 40.44613 33.93588
# Shear Modulus (GPa) = 23.69585 33.59419 28.64502
#
# Velocity S-wave (km/s) = 3.19286 3.80168 3.51050
# Velocity P-wave (km/s) = 5.03899 6.05566 5.57057
#
# Compressibility (1/GPa) = 0.03646224
#
# Stress axis : x y z
#
# Youngs Moduli (GPa) = 40.59322 49.55905 93.54889
#
# Poissons Ratio (x) = 0.16565 -0.15018
# Poissons Ratio (y) = 0.13569 0.72807
# Poissons Ratio (z) = -0.06517 0.38571
#
# Static dielectric constant tensor:
#      x y z
#    x 1.946390 0.035220 0.068550 
#    y 0.035220 1.911770 0.079870 
#    z 0.068550 0.079870 1.923450 
# 
# From -- ./inp_files/595074.got.cif
#   From: 2010.05.17/outbox.cif.g08.bks.cpg/sg2_298_cif.got.tgz:595074.got - 2010.06.03 11:33:40.
