data_PCOD9092569
_publ_section_title
;
Structure prediction by ZEFSAII (Michael W. Deem and Ramdas Pophale) SiO2 
 PCOD9092569
Probable space group: P -1
;
_chemical_formula_sum "Si O2"
_cell_formula_units_Z 16
_cell_length_a 7.231221
_cell_length_b 17.073678
_cell_length_c 12.060337
_cell_angle_alpha 148.009256
_cell_angle_beta 75.074291
_cell_angle_gamma 114.235437
_cell_volume 706.569564
_symmetry_space_group_name_H-M "P -1"
_symmetry_group_IT_number 2
_symmetry_cell_setting 'triclinic'
loop_
_space_group_symop_operation_xyz
x,y,z
-x,-y,-z
loop_
_atom_site_type_symbol
_atom_site_label
_atom_site_fract_x
_atom_site_fract_y
_atom_site_fract_z
Si Si1 0.199698 0.122622 0.555298
Si Si2 0.346212 0.331833 0.582659
Si Si3 0.743992 0.958579 0.875109
Si Si4 0.011413 0.289508 0.153663
Si Si5 0.812631 0.082963 0.245032
Si Si6 0.387617 0.324852 0.983855
Si Si7 0.080865 0.407862 0.529980
Si Si8 0.482436 0.940964 0.305403
O O1 0.188197 0.226701 0.575683
O O2 0.323795 0.251396 0.783606
O O3 0.318262 0.007837 0.362275
O O4 0.000000 0.000000 0.500000
O O5 0.249425 0.405166 0.589128
O O6 0.408768 0.198113 0.350063
O O7 0.516302 0.484312 0.795986
O O8 0.690177 0.979325 0.035073
O O9 0.965012 0.934632 0.812022
O O10 0.813176 0.129947 0.013198
O O11 0.112334 0.350260 0.332349
O O12 0.943654 0.425800 0.278209
O O13 0.182668 0.266534 0.021316
O O14 0.870971 0.269331 0.437940
O O15 0.691496 0.026824 0.308642
O O16 0.544045 0.243372 0.907388
O O17 0.500000 0.000000 0.500000
#
# Coordination Sequence:
#
# PCOD9092569 Si02
#       8
#     2   2   2   2   2   2   2   2
#     4  11  26  47  69  91 127 180 232 276 337 401
#     4  11  24  41  63 100 133 172 222 273 333 390
#     4   9  18  36  69  93 129 175 211 266 326 406
#     4  10  19  41  68  99 133 177 221 263 335 392
#     4   9  17  37  65 100 128 169 220 267 331 392
#     4  11  24  42  67  96 135 173 218 285 330 396
#     4   9  22  37  69  99 135 177 216 272 327 402
#     4  10  23  41  68  94 129 171 224 280 334 386
#
# _framework density 22.644621000000001
#
# number of rings (size 3 to 8) (size 9 to 14) (size 15 to 20)
#    0.000    2.000    1.250    1.875    7.000    2.500 
#    0.000    1.875    0.000    0.000    0.000    0.000 
#    0.000    0.000    0.000    0.000    0.000    0.000 
#
# Total GULP energy -89368.716781 kJ/mol
# GULP energy per Si atom -5585.544799 kJ/mol
# Density = 2.259308 g / cm^3
# Si number density = 22.644621 Si / 1000 Ang^3
#
#
#
# Elastic Constant Matrix: (Units=GPa)
#
#
# Indices 1 2 3 4 5 6 
#
# 1 57.9497 26.1776 28.0768 -0.0271 -8.1142 -8.9892
# 2 26.1776 119.7461 41.4152 -2.2229 -10.6069 -19.5094
# 3 28.0768 41.4152 149.1409 11.3575 -0.9191 -11.1782
# 4 -0.0271 -2.2229 11.3575 48.0323 -3.7136 -3.6779
# 5 -8.1142 -10.6069 -0.9191 -3.7136 35.6080 -0.9714
# 6 -8.9892 -19.5094 -11.1782 -3.6779 -0.9714 34.7193
#
#
#
# Elastic Compliance Matrix: (Units=1/GPa)
#
#
# Indices 1 2 3 4 5 6 
#
# 1 0.020997 -0.002623 -0.003047 0.001177 0.004135 0.003222
# 2 -0.002623 0.010782 -0.002238 0.001624 0.002860 0.004911
# 3 -0.003047 -0.002238 0.008073 -0.002097 -0.001363 0.000292
# 4 0.001177 0.001624 -0.002097 0.021853 0.003057 0.002943
# 5 0.004135 0.002860 -0.001363 0.003057 0.030254 0.003409
# 6 0.003222 0.004911 0.000292 0.002943 0.003409 0.032897
#
#
# Mechanical properties :
#
#
# Convention : Reuss Voigt Hill
#
# Bulk Modulus (GPa) = 41.60515 57.57510 49.59013
# Shear Modulus (GPa) = 33.62793 39.08306 36.35550
#
# Velocity S-wave (km/s) = 3.85779 4.15894 4.01119
# Velocity P-wave (km/s) = 6.18517 6.96729 6.58785
#
# Compressibility (1/GPa) = 0.02403548
#
# Stress axis : x y z
#
# Youngs Moduli (GPa) = 47.62595 92.74620 123.86246
#
# Poissons Ratio (x) = 0.24329 0.37742
# Poissons Ratio (y) = 0.12493 0.27723
# Poissons Ratio (z) = 0.14512 0.20759
#
# Static dielectric constant tensor:
#      x y z
#    x 1.909400 -0.042610 0.021820 
#    y -0.042610 1.855070 0.000640 
#    z 0.021820 0.000640 1.849520 
# 
# From -- ./inp_files/402471.got.cif
#   From: 2010.05.17/outbox.cif.g08.bks.cpg/sg2_202_cif.got.tgz:402471.got - 2010.06.03 11:33:40.
