data_PCOD9092962
_publ_section_title
;
Structure prediction by ZEFSAII (Michael W. Deem and Ramdas Pophale) SiO2 
 PCOD9092962
Probable space group: P -1
;
_chemical_formula_sum "Si O2"
_cell_formula_units_Z 16
_cell_length_a 5.492368
_cell_length_b 10.493875
_cell_length_c 12.958022
_cell_angle_alpha 125.881068
_cell_angle_beta 80.082298
_cell_angle_gamma 91.410686
_cell_volume 593.350434
_symmetry_space_group_name_H-M "P -1"
_symmetry_group_IT_number 2
_symmetry_cell_setting 'triclinic'
loop_
_space_group_symop_operation_xyz
x,y,z
-x,-y,-z
loop_
_atom_site_type_symbol
_atom_site_label
_atom_site_fract_x
_atom_site_fract_y
_atom_site_fract_z
Si Si1 0.408780 0.940055 0.642925
Si Si2 0.494024 0.658136 0.004122
Si Si3 0.623870 0.213929 0.646625
Si Si4 0.994875 0.657688 0.005705
Si Si5 0.546357 0.713286 0.790917
Si Si6 0.781280 0.642566 0.549634
Si Si7 0.103013 0.404550 0.713096
Si Si8 0.059099 0.823828 0.759766
O O1 0.323313 0.878093 0.508466
O O2 0.605417 0.803374 0.611038
O O3 0.169611 0.953416 0.740843
O O4 0.563687 0.085775 0.674423
O O5 0.537921 0.637508 0.868174
O O6 0.724632 0.742167 0.064809
O O7 0.776379 0.827380 0.826469
O O8 0.500000 0.500000 0.000000
O O9 0.862937 0.306466 0.698268
O O10 0.357643 0.317865 0.699987
O O11 0.222108 0.745403 0.068159
O O12 0.044503 0.571996 0.851821
O O13 0.000000 0.500000 0.000000
O O14 0.626626 0.586671 0.633260
O O15 0.276551 0.793556 0.814697
O O16 0.850181 0.574559 0.401113
O O17 0.032204 0.686490 0.609489
#
# Coordination Sequence:
#
# PCOD9092962 Si02
#       8
#     2   2   2   2   2   2   2   2
#     4   9  17  29  45  74 109 150 175 202 242 292
#     4  10  20  37  57  76  96 125 170 228 267 312
#     4  10  20  27  49  73 107 140 185 207 242 309
#     4  10  22  38  56  72  99 130 172 231 275 308
#     4   9  17  30  50  73 102 133 169 208 253 306
#     4   8  18  29  49  69 111 144 167 201 242 314
#     4  11  20  34  48  74 103 144 177 214 264 303
#     4   9  16  28  46  69 109 139 170 198 243 301
#
# _framework density 26.965515
#
# number of rings (size 3 to 8) (size 9 to 14) (size 15 to 20)
#    0.750    1.750    1.250    1.500    1.750    1.500 
#    0.000    1.250    0.000    0.000    0.000    0.000 
#    0.000  184.000    0.000    0.000    0.000    0.000 
#
# Total GULP energy -89311.502719 kJ/mol
# GULP energy per Si atom -5581.968920 kJ/mol
# Density = 2.690414 g / cm^3
# Si number density = 26.965515 Si / 1000 Ang^3
#
#
#
# Elastic Constant Matrix: (Units=GPa)
#
#
# Indices 1 2 3 4 5 6 
#
# 1 278.9485 64.1454 34.9677 -9.3768 -5.7146 39.6522
# 2 64.1454 94.8602 69.9985 -40.2916 -8.5883 31.8465
# 3 34.9677 69.9985 128.3283 -40.7813 11.6593 1.5657
# 4 -9.3768 -40.2916 -40.7813 44.5168 -0.2536 0.0783
# 5 -5.7146 -8.5883 11.6593 -0.2536 24.9607 -8.7445
# 6 39.6522 31.8465 1.5657 0.0783 -8.7445 47.4494
#
#
#
# Elastic Compliance Matrix: (Units=1/GPa)
#
#
# Indices 1 2 3 4 5 6 
#
# 1 0.004539 -0.003810 0.000206 -0.002307 -0.000882 -0.001401
# 2 -0.003810 0.045962 -0.017003 0.025347 0.014573 -0.024459
# 3 0.000206 -0.017003 0.018395 0.001426 -0.011392 0.008531
# 4 -0.002307 0.025347 0.001426 0.046267 0.002854 -0.014682
# 5 -0.000882 0.014573 -0.011392 0.002854 0.050444 0.000624
# 6 -0.001401 -0.024459 0.008531 -0.014682 0.000624 0.038520
#
#
# Mechanical properties :
#
#
# Convention : Reuss Voigt Hill
#
# Bulk Modulus (GPa) = 36.12614 93.37339 64.74976
# Shear Modulus (GPa) = 19.64113 45.58709 32.61411
#
# Velocity S-wave (km/s) = 2.70178 4.11611 3.48152
# Velocity P-wave (km/s) = 4.81239 7.56915 6.34236
#
# Compressibility (1/GPa) = 0.02768078
#
# Stress axis : x y z
#
# Youngs Moduli (GPa) = 220.31980 21.75724 54.36273
#
# Poissons Ratio (x) = 0.08290 -0.01119
# Poissons Ratio (y) = 0.83949 0.92433
# Poissons Ratio (z) = -0.04536 0.36994
#
# Static dielectric constant tensor:
#      x y z
#    x 2.153680 -0.038090 0.005920 
#    y -0.038090 2.228590 -0.109710 
#    z 0.005920 -0.109710 2.211530 
# 
# From -- ./inp_files/364975.got.cif
#   From: 2010.05.17/outbox.cif.g08.bks.cpg/sg2_183_cif.got.tgz:364975.got - 2010.06.03 11:33:40.
