data_PCOD9092208
_publ_section_title
;
Structure prediction by ZEFSAII (Michael W. Deem and Ramdas Pophale) SiO2 
 PCOD9092208
Probable space group: P -1
;
_chemical_formula_sum "Si O2"
_cell_formula_units_Z 12
_cell_length_a 8.777555
_cell_length_b 9.250367
_cell_length_c 12.661310
_cell_angle_alpha 145.185699
_cell_angle_beta 83.919608
_cell_angle_gamma 107.796639
_cell_volume 538.592324
_symmetry_space_group_name_H-M "P -1"
_symmetry_group_IT_number 2
_symmetry_cell_setting 'triclinic'
loop_
_space_group_symop_operation_xyz
x,y,z
-x,-y,-z
loop_
_atom_site_type_symbol
_atom_site_label
_atom_site_fract_x
_atom_site_fract_y
_atom_site_fract_z
Si Si1 0.827836 0.328869 0.965581
Si Si2 0.514961 0.895690 0.256580
Si Si3 0.130704 0.296516 0.631197
Si Si4 0.386385 0.399138 0.111988
Si Si5 0.522720 0.574002 0.418903
Si Si6 0.989642 0.741480 0.912379
O O1 0.788548 0.543385 0.171146
O O2 0.879604 0.143774 0.932213
O O3 0.673813 0.186058 0.818454
O O4 0.000000 0.500000 0.000000
O O5 0.504400 0.696749 0.235298
O O6 0.567257 0.212758 0.467059
O O7 0.605528 0.821292 0.106605
O O8 0.280511 0.305299 0.551109
O O9 0.039880 0.496179 0.715622
O O10 0.000000 0.000000 0.500000
O O11 0.439848 0.353264 0.198860
O O12 0.200709 0.389847 0.117366
O O13 0.500000 0.500000 0.500000
O O14 0.000000 0.000000 0.000000
#
# Coordination Sequence:
#
# PCOD9092208 Si02
#       6
#     2   2   2   2   2   2
#     4  10  19  40  67  97 123 177 228 268 338 403
#     4  11  23  42  72  94 132 180 225 276 335 406
#     4  10  22  44  69  95 139 180 230 274 332 420
#     4  11  23  45  65 100 133 175 228 280 331 413
#     4  12  27  42  67 103 138 179 223 279 348 401
#     4  10  23  38  68  94 136 172 216 288 337 390
#
# _framework density 22.280304000000001
#
# number of rings (size 3 to 8) (size 9 to 14) (size 15 to 20)
#    1.000    0.333    3.333    2.500    4.667    0.667 
#    0.000    0.833    0.000    0.000    0.000    0.000 
#    0.000    0.000    0.000    0.000    0.000    0.000 
#
# Total GULP energy -66899.196764 kJ/mol
# GULP energy per Si atom -5574.933064 kJ/mol
# Density = 2.222959 g / cm^3
# Si number density = 22.280304 Si / 1000 Ang^3
#
#
#
# Elastic Constant Matrix: (Units=GPa)
#
#
# Indices 1 2 3 4 5 6 
#
# 1 125.5582 42.7343 19.5370 -8.9316 -24.9562 -4.3969
# 2 42.7343 118.9725 35.9862 -14.4555 -19.2339 -9.2755
# 3 19.5370 35.9862 70.4881 -12.3555 -31.7633 6.4619
# 4 -8.9316 -14.4555 -12.3555 37.6061 -6.5445 -8.4117
# 5 -24.9562 -19.2339 -31.7633 -6.5445 47.6464 -9.0570
# 6 -4.3969 -9.2755 6.4619 -8.4117 -9.0570 40.2208
#
#
#
# Elastic Compliance Matrix: (Units=1/GPa)
#
#
# Indices 1 2 3 4 5 6 
#
# 1 0.010185 -0.002505 0.001828 0.003753 0.006533 0.002498
# 2 -0.002505 0.011676 -0.004055 0.003892 0.002059 0.004348
# 3 0.001828 -0.004055 0.025740 0.010847 0.018257 0.001509
# 4 0.003753 0.003892 0.010847 0.038335 0.018256 0.011693
# 5 0.006533 0.002059 0.018257 0.018256 0.042117 0.011558
# 6 0.002498 0.004348 0.001509 0.011693 0.011558 0.030944
#
#
# Mechanical properties :
#
#
# Convention : Reuss Voigt Hill
#
# Bulk Modulus (GPa) = 26.22017 56.83709 41.52863
# Shear Modulus (GPa) = 27.59769 39.54542 33.57156
#
# Velocity S-wave (km/s) = 3.52328 4.21753 3.88594
# Velocity P-wave (km/s) = 5.32402 7.02013 6.23006
#
# Compressibility (1/GPa) = 0.03813857
#
# Stress axis : x y z
#
# Youngs Moduli (GPa) = 98.18042 85.64263 38.84945
#
# Poissons Ratio (x) = 0.21451 -0.07103
# Poissons Ratio (y) = 0.24591 0.15755
# Poissons Ratio (z) = -0.17950 0.34731
#
# Static dielectric constant tensor:
#      x y z
#    x 1.814440 0.081500 0.022980 
#    y 0.081500 1.919590 0.035450 
#    z 0.022980 0.035450 1.897510 
# 
# From -- ./inp_files/380777.got.cif
#   From: 2010.05.17/outbox.cif.g08.bks.cpg/sg2_191_cif.got.tgz:380777.got - 2010.06.03 11:33:40.
