data_PCOD9092071
_publ_section_title
;
Structure prediction by ZEFSAII (Michael W. Deem and Ramdas Pophale) SiO2 
 PCOD9092071
Probable space group: P -1
;
_chemical_formula_sum "Si O2"
_cell_formula_units_Z 14
_cell_length_a 13.078193
_cell_length_b 7.626748
_cell_length_c 9.051715
_cell_angle_alpha 84.938121
_cell_angle_beta 70.461080
_cell_angle_gamma 50.036352
_cell_volume 642.053865
_symmetry_space_group_name_H-M "P -1"
_symmetry_group_IT_number 2
_symmetry_cell_setting 'triclinic'
loop_
_space_group_symop_operation_xyz
x,y,z
-x,-y,-z
loop_
_atom_site_type_symbol
_atom_site_label
_atom_site_fract_x
_atom_site_fract_y
_atom_site_fract_z
Si Si1 0.301936 0.468347 0.193521
Si Si2 0.592296 0.212150 0.206682
Si Si3 0.064951 0.573964 0.852017
Si Si4 0.355891 0.252702 0.876471
Si Si5 0.844235 0.635305 0.497970
Si Si6 0.870422 0.086660 0.946510
Si Si7 0.434913 0.889688 0.460506
O O1 0.443815 0.417850 0.183612
O O2 0.236423 0.429124 0.363971
O O3 0.179595 0.719419 0.163776
O O4 0.356243 0.282921 0.048960
O O5 0.565582 0.243002 0.392943
O O6 0.629484 0.969544 0.157129
O O7 0.727753 0.181791 0.095352
O O8 0.204269 0.491447 0.878179
O O9 0.128332 0.435582 0.680449
O O10 0.939941 0.841896 0.854843
O O11 0.000000 0.500000 0.000000
O O12 0.472561 0.230152 0.722752
O O13 0.000000 0.500000 0.500000
O O14 0.728084 0.913321 0.528136
O O15 0.000000 0.000000 0.000000
O O16 0.500000 0.000000 0.500000
#
# Coordination Sequence:
#
# PCOD9092071 Si02
#       7
#     2   2   2   2   2   2   2
#     4  12  25  42  65 103 135 171 221 276 328 398
#     4  11  22  43  69  93 134 172 226 271 325 392
#     4  12  22  44  71  93 128 179 220 270 333 393
#     4  11  20  39  73  97 123 171 227 267 328 390
#     4  12  25  38  68 106 132 163 228 280 323 388
#     4  12  27  42  66  95 138 181 216 270 340 389
#     4  10  19  40  65  97 122 168 217 276 322 380
#
# _framework density 21.805024
#
# number of rings (size 3 to 8) (size 9 to 14) (size 15 to 20)
#    0.000    0.571    8.571    1.714    2.000    0.571 
#    0.000    0.714    3.143    0.000    0.000    0.000 
#    0.000    0.000    0.000    0.000    0.000    0.000 
#
# Total GULP energy -78225.562226 kJ/mol
# GULP energy per Si atom -5587.540159 kJ/mol
# Density = 2.175539 g / cm^3
# Si number density = 21.805024 Si / 1000 Ang^3
#
#
#
# Elastic Constant Matrix: (Units=GPa)
#
#
# Indices 1 2 3 4 5 6 
#
# 1 79.1069 19.2139 34.9379 1.4961 -9.0604 -41.6953
# 2 19.2139 106.2051 26.1518 -3.4203 10.0022 -26.2835
# 3 34.9379 26.1518 167.8207 2.3926 -20.0349 -7.0246
# 4 1.4961 -3.4203 2.3926 36.4471 -12.9786 -1.2493
# 5 -9.0604 10.0022 -20.0349 -12.9786 15.1044 0.7353
# 6 -41.6953 -26.2835 -7.0246 -1.2493 0.7353 45.5500
#
#
#
# Elastic Compliance Matrix: (Units=1/GPa)
#
#
# Indices 1 2 3 4 5 6 
#
# 1 0.030284 0.000714 -0.003292 0.006126 0.017251 0.027515
# 2 0.000714 0.013994 -0.004186 -0.004936 -0.019034 0.008255
# 3 -0.003292 -0.004186 0.009161 0.005304 0.017708 -0.004156
# 4 0.006126 -0.004936 0.005304 0.045271 0.052686 0.003969
# 5 0.017251 -0.019034 0.017708 0.052686 0.157605 0.006440
# 6 0.027515 0.008255 -0.004156 0.003969 0.006440 0.051268
#
#
# Mechanical properties :
#
#
# Convention : Reuss Voigt Hill
#
# Bulk Modulus (GPa) = 25.05583 57.08222 41.06903
# Shear Modulus (GPa) = 14.95152 37.60890 26.28021
#
# Velocity S-wave (km/s) = 2.62141 4.15755 3.47542
# Velocity P-wave (km/s) = 4.54733 7.02014 5.91441
#
# Compressibility (1/GPa) = 0.03991087
#
# Stress axis : x y z
#
# Youngs Moduli (GPa) = 33.02045 71.46077 109.16005
#
# Poissons Ratio (x) = -0.05102 0.35937
# Poissons Ratio (y) = -0.02357 0.45691
# Poissons Ratio (z) = 0.10871 0.29911
#
# Static dielectric constant tensor:
#      x y z
#    x 2.038060 0.000360 0.303620 
#    y 0.000360 1.848060 -0.043950 
#    z 0.303620 -0.043950 2.148510 
# 
# From -- ./inp_files/174075.got.cif
#   From: 2010.05.17/outbox.cif.g08.bks.cpg/sg2_88_cif.got.tgz:174075.got - 2010.06.03 11:33:40.
