data_PCOD9092472
_publ_section_title
;
Structure prediction by ZEFSAII (Michael W. Deem and Ramdas Pophale) SiO2 
 PCOD9092472
Probable space group: P -1
;
_chemical_formula_sum "Si O2"
_cell_formula_units_Z 16
_cell_length_a 12.281944
_cell_length_b 17.278838
_cell_length_c 9.240303
_cell_angle_alpha 124.961200
_cell_angle_beta 89.371389
_cell_angle_gamma 44.116483
_cell_volume 752.049813
_symmetry_space_group_name_H-M "P -1"
_symmetry_group_IT_number 2
_symmetry_cell_setting 'triclinic'
loop_
_space_group_symop_operation_xyz
x,y,z
-x,-y,-z
loop_
_atom_site_type_symbol
_atom_site_label
_atom_site_fract_x
_atom_site_fract_y
_atom_site_fract_z
Si Si1 0.508863 0.511089 0.179888
Si Si2 0.717584 0.229325 0.112727
Si Si3 0.777120 0.801454 0.256532
Si Si4 0.025816 0.325126 0.329857
Si Si5 0.057362 0.816453 0.700881
Si Si6 0.922096 0.598894 0.309578
Si Si7 0.580254 0.628413 0.487145
Si Si8 0.380554 0.963953 0.738243
O O1 0.659804 0.319420 0.058885
O O2 0.257576 0.689085 0.448179
O O3 0.603214 0.541678 0.257578
O O4 0.500000 0.500000 0.000000
O O5 0.879292 0.177515 0.144185
O O6 0.506170 0.371459 0.378778
O O7 0.828483 0.042606 0.889486
O O8 0.912461 0.691881 0.290425
O O9 0.500000 0.000000 0.500000
O O10 0.771661 0.897373 0.254784
O O11 0.895955 0.620770 0.979042
O O12 0.024044 0.407387 0.537244
O O13 0.977626 0.265398 0.353995
O O14 0.818275 0.491559 0.394317
O O15 0.268840 0.121555 0.025113
O O16 0.653361 0.770856 0.495131
O O17 0.388359 0.853768 0.689222
#
# Coordination Sequence:
#
# PCOD9092472 Si02
#       8
#     2   2   2   2   2   2   2   2
#     4  11  23  42  61  91 128 164 202 259 318 375
#     4  10  19  41  66  83 122 163 206 254 316 362
#     4   9  21  46  65  84 125 170 203 255 316 372
#     4  12  22  39  65  96 123 162 216 261 308 369
#     4  10  20  39  65  89 118 163 206 257 309 375
#     4  10  23  43  65  91 129 170 207 257 315 367
#     4  11  22  39  64  91 124 164 209 261 311 371
#     4  11  23  40  63  96 126 165 210 263 312 365
#
# _framework density 21.275186000000001
#
# number of rings (size 3 to 8) (size 9 to 14) (size 15 to 20)
#    0.000    1.500    3.750    1.875    0.000    4.500 
#   11.250    0.000    0.000    0.000    0.000    0.000 
#    0.000    0.000    0.000    0.000    0.000    0.000 
#
# Total GULP energy -89276.290488 kJ/mol
# GULP energy per Si atom -5579.768155 kJ/mol
# Density = 2.122676 g / cm^3
# Si number density = 21.275186 Si / 1000 Ang^3
#
#
#
# Elastic Constant Matrix: (Units=GPa)
#
#
# Indices 1 2 3 4 5 6 
#
# 1 38.7035 30.6407 13.1304 0.3662 3.1751 8.2547
# 2 30.6407 160.9420 61.4967 -11.1117 21.2521 24.1899
# 3 13.1304 61.4967 102.7755 7.2806 -2.5108 -0.2958
# 4 0.3662 -11.1117 7.2806 37.5874 4.7599 -0.2696
# 5 3.1751 21.2521 -2.5108 4.7599 22.1304 8.3527
# 6 8.2547 24.1899 -0.2958 -0.2696 8.3527 28.0043
#
#
#
# Elastic Compliance Matrix: (Units=1/GPa)
#
#
# Indices 1 2 3 4 5 6 
#
# 1 0.031311 -0.005592 -0.000421 -0.002345 0.003386 -0.005436
# 2 -0.005592 0.013442 -0.008147 0.007101 -0.012160 -0.006354
# 3 -0.000421 -0.008147 0.015362 -0.006531 0.009343 0.004474
# 4 -0.002345 0.007101 -0.006531 0.031707 -0.013610 -0.001147
# 5 0.003386 -0.012160 0.009343 -0.013610 0.063994 -0.009614
# 6 -0.005436 -0.006354 0.004474 -0.001147 -0.009614 0.045703
#
#
# Mechanical properties :
#
#
# Convention : Reuss Voigt Hill
#
# Bulk Modulus (GPa) = 31.45132 56.99518 44.22325
# Shear Modulus (GPa) = 20.79536 30.68798 25.74167
#
# Velocity S-wave (km/s) = 3.12981 3.80205 3.48219
# Velocity P-wave (km/s) = 5.27978 6.79131 6.08268
#
# Compressibility (1/GPa) = 0.03179517
#
# Stress axis : x y z
#
# Youngs Moduli (GPa) = 31.93734 74.39397 65.09433
#
# Poissons Ratio (x) = 0.41604 0.02740
# Poissons Ratio (y) = 0.17860 0.53032
# Poissons Ratio (z) = 0.01344 0.60609
#
# Static dielectric constant tensor:
#      x y z
#    x 1.808480 0.045180 -0.029620 
#    y 0.045180 1.795990 0.021940 
#    z -0.029620 0.021940 1.800910 
# 
# From -- ./inp_files/279913.got.cif
#   From: 2010.05.17/outbox.cif.g08.bks.cpg/sg2_140_cif.got.tgz:279913.got - 2010.06.03 11:33:40.
