data_PCOD9092205
_publ_section_title
;
Structure prediction by ZEFSAII (Michael W. Deem and Ramdas Pophale) SiO2 
 PCOD9092205
Probable space group: P -1
;
_chemical_formula_sum "Si O2"
_cell_formula_units_Z 14
_cell_length_a 26.021543
_cell_length_b 7.986153
_cell_length_c 9.829538
_cell_angle_alpha 135.154765
_cell_angle_beta 19.590998
_cell_angle_gamma 134.451880
_cell_volume 478.464867
_symmetry_space_group_name_H-M "P -1"
_symmetry_group_IT_number 2
_symmetry_cell_setting 'triclinic'
loop_
_space_group_symop_operation_xyz
x,y,z
-x,-y,-z
loop_
_atom_site_type_symbol
_atom_site_label
_atom_site_fract_x
_atom_site_fract_y
_atom_site_fract_z
Si Si1 0.560164 0.446222 0.474866
Si Si2 0.590831 0.920752 0.003843
Si Si3 0.159748 0.083074 0.403170
Si Si4 0.279470 0.676237 0.714345
Si Si5 0.204820 0.560947 0.429049
Si Si6 0.007714 0.657045 0.712715
Si Si7 0.323846 0.052841 0.480345
O O1 0.634570 0.384597 0.396615
O O2 0.669212 0.699655 0.314577
O O3 0.560576 0.194873 0.252063
O O4 0.384177 0.504413 0.944200
O O5 0.427250 0.755013 0.297244
O O6 0.677513 0.864120 0.891683
O O7 0.699284 0.895734 0.591460
O O8 0.118858 0.325828 0.581195
O O9 0.049844 0.922060 0.693134
O O10 0.193460 0.905146 0.094248
O O11 0.148522 0.456452 0.885763
O O12 0.134361 0.612045 0.485800
O O13 0.214979 0.806175 0.634091
O O14 0.000000 0.500000 0.500000
O O15 0.500000 0.000000 0.000000
#
# Coordination Sequence:
#
# PCOD9092205 Si02
#       7
#     2   2   2   2   2   2   2
#     4  10  21  41  68 102 133 172 232 281 333 404
#     4  11  19  42  72  99 138 177 224 294 334 392
#     4  10  19  40  67  96 133 184 224 275 344 404
#     4  10  20  39  63 104 136 168 236 281 332 408
#     4  11  20  41  66  94 141 178 227 281 333 415
#     4  10  23  39  63 102 140 182 226 274 353 409
#     4  10  24  39  63 108 135 175 232 278 347 403
#
# _framework density 29.260245999999999
#
# number of rings (size 3 to 8) (size 9 to 14) (size 15 to 20)
#    0.000    1.714    4.286    0.857    0.000    5.143 
#    0.000    0.714    0.000    4.286    0.000    0.000 
#    0.000    0.000    0.000    0.000    0.000    0.000 
#
# Total GULP energy -78400.745358 kJ/mol
# GULP energy per Si atom -5600.053240 kJ/mol
# Density = 2.919365 g / cm^3
# Si number density = 29.260246 Si / 1000 Ang^3
#
#
#
# Elastic Constant Matrix: (Units=GPa)
#
#
# Indices 1 2 3 4 5 6 
#
# 1 130.0231 64.3024 12.7469 11.7316 -21.3574 -12.1823
# 2 64.3024 296.8627 93.7584 -15.7932 -5.3446 -13.5157
# 3 12.7469 93.7584 121.5379 -27.9919 -16.9023 9.6456
# 4 11.7316 -15.7932 -27.9919 68.1702 4.5637 2.6094
# 5 -21.3574 -5.3446 -16.9023 4.5637 42.5449 2.9045
# 6 -12.1823 -13.5157 9.6456 2.6094 2.9045 52.2324
#
#
#
# Elastic Compliance Matrix: (Units=1/GPa)
#
#
# Indices 1 2 3 4 5 6 
#
# 1 0.009992 -0.002416 0.000902 -0.002311 0.005226 0.001364
# 2 -0.002416 0.005283 -0.004297 -0.000032 -0.002371 0.001731
# 3 0.000902 -0.004297 0.013419 0.004169 0.005061 -0.003869
# 4 -0.002311 -0.000032 0.004169 0.016930 -0.001181 -0.002097
# 5 0.005226 -0.002371 0.005061 -0.001181 0.028092 -0.001832
# 6 0.001364 0.001731 -0.003869 -0.002097 -0.001832 0.020832
#
#
# Mechanical properties :
#
#
# Convention : Reuss Voigt Hill
#
# Bulk Modulus (GPa) = 58.57238 98.89323 78.73281
# Shear Modulus (GPa) = 44.69803 57.76391 51.23097
#
# Velocity S-wave (km/s) = 3.91270 4.44795 4.18888
# Velocity P-wave (km/s) = 6.36187 7.76210 7.09661
#
# Compressibility (1/GPa) = 0.01707289
#
# Stress axis : x y z
#
# Youngs Moduli (GPa) = 100.08069 189.27392 74.52121
#
# Poissons Ratio (x) = 0.45729 -0.06723
# Poissons Ratio (y) = 0.24180 0.32020
# Poissons Ratio (z) = -0.09029 0.81327
#
# Static dielectric constant tensor:
#      x y z
#    x 2.361080 -0.058340 0.013910 
#    y -0.058340 2.276020 0.007790 
#    z 0.013910 0.007790 2.301250 
# 
# From -- ./inp_files/477476.got.cif
#   From: 2010.05.17/outbox.cif.g08.bks.cpg/sg2_239_cif.got.tgz:477476.got - 2010.06.03 11:33:40.
