data_PCOD9092756
_publ_section_title
;
Structure prediction by ZEFSAII (Michael W. Deem and Ramdas Pophale) SiO2 
 PCOD9092756
Probable space group: P -1
;
_chemical_formula_sum "Si O2"
_cell_formula_units_Z 12
_cell_length_a 12.344410
_cell_length_b 9.743489
_cell_length_c 11.554886
_cell_angle_alpha 140.008405
_cell_angle_beta 137.130206
_cell_angle_gamma 71.337709
_cell_volume 506.549614
_symmetry_space_group_name_H-M "P -1"
_symmetry_group_IT_number 2
_symmetry_cell_setting 'triclinic'
loop_
_space_group_symop_operation_xyz
x,y,z
-x,-y,-z
loop_
_atom_site_type_symbol
_atom_site_label
_atom_site_fract_x
_atom_site_fract_y
_atom_site_fract_z
Si Si1 0.796279 0.444597 0.280706
Si Si2 0.293041 0.608902 0.567975
Si Si3 0.846337 0.572611 0.900789
Si Si4 0.700341 0.749357 0.273015
Si Si5 0.271910 0.097226 0.871374
Si Si6 0.550585 0.045201 0.433807
O O1 0.732453 0.489803 0.384681
O O2 0.831837 0.653452 0.349500
O O3 0.000000 0.500000 0.500000
O O4 0.634263 0.162620 0.922072
O O5 0.177467 0.422000 0.252048
O O6 0.231998 0.814201 0.654819
O O7 0.517358 0.746636 0.804865
O O8 0.650042 0.331911 0.649333
O O9 0.864088 0.822720 0.128785
O O10 0.000000 0.500000 0.000000
O O11 0.705627 0.811592 0.184409
O O12 0.707713 0.975569 0.492778
O O13 0.500000 0.500000 0.000000
O O14 0.500000 0.000000 0.500000
#
# Coordination Sequence:
#
# PCOD9092756 Si02
#       6
#     2   2   2   2   2   2
#     4  11  25  43  71 102 138 184 232 288 353 414
#     4  11  23  44  69 101 142 181 238 288 351 419
#     4  12  27  42  71 108 138 184 239 294 353 417
#     4  10  19  42  67  97 133 185 225 277 354 415
#     4  11  22  45  72  96 139 186 233 289 352 421
#     4  11  23  44  71  99 140 182 236 284 346 424
#
# _framework density 23.689684
#
# number of rings (size 3 to 8) (size 9 to 14) (size 15 to 20)
#    0.000    1.000    5.000    3.500    4.667    2.000 
#    0.000    0.833    0.000    0.000    0.000    0.000 
#    0.000    0.000    0.000    0.000    0.000    0.000 
#
# Total GULP energy -67055.948590 kJ/mol
# GULP energy per Si atom -5587.995716 kJ/mol
# Density = 2.363577 g / cm^3
# Si number density = 23.689684 Si / 1000 Ang^3
#
#
#
# Elastic Constant Matrix: (Units=GPa)
#
#
# Indices 1 2 3 4 5 6 
#
# 1 101.7828 18.7474 35.1950 -15.8549 -22.1108 -7.2730
# 2 18.7474 129.3859 32.1657 -4.9269 -0.2387 -7.7421
# 3 35.1950 32.1657 73.3418 -0.5934 -0.6814 12.6138
# 4 -15.8549 -4.9269 -0.5934 49.7590 5.9225 0.6577
# 5 -22.1108 -0.2387 -0.6814 5.9225 37.1139 -8.6725
# 6 -7.2730 -7.7421 12.6138 0.6577 -8.6725 57.7954
#
#
#
# Elastic Compliance Matrix: (Units=1/GPa)
#
#
# Indices 1 2 3 4 5 6 
#
# 1 0.015839 0.000306 -0.008532 0.003722 0.009936 0.005345
# 2 0.000306 0.008963 -0.004459 0.000835 0.000559 0.002287
# 3 -0.008532 -0.004459 0.020833 -0.002097 -0.006054 -0.007102
# 4 0.003722 0.000835 -0.002097 0.021462 -0.001093 0.000630
# 5 0.009936 0.000559 -0.006054 -0.001093 0.034771 0.007877
# 6 0.005345 0.002287 -0.007102 0.000630 0.007877 0.021006
#
#
# Mechanical properties :
#
#
# Convention : Reuss Voigt Hill
#
# Bulk Modulus (GPa) = 49.34625 52.96963 51.15794
# Shear Modulus (GPa) = 32.25838 43.49381 37.87609
#
# Velocity S-wave (km/s) = 3.69413 4.28948 4.00289
# Velocity P-wave (km/s) = 6.25068 6.85137 6.55790
#
# Compressibility (1/GPa) = 0.02026497
#
# Stress axis : x y z
#
# Youngs Moduli (GPa) = 63.13569 111.57428 48.00124
#
# Poissons Ratio (x) = -0.03413 0.40953
# Poissons Ratio (y) = -0.01931 0.21403
# Poissons Ratio (z) = 0.53866 0.49750
#
# Static dielectric constant tensor:
#      x y z
#    x 1.949850 -0.051770 0.129530 
#    y -0.051770 1.941820 -0.013310 
#    z 0.129530 -0.013310 2.017530 
# 
# From -- ./inp_files/379373.got.cif
#   From: 2010.05.17/outbox.cif.g08.bks.cpg/sg2_190_cif.got.tgz:379373.got - 2010.06.03 11:33:40.
