data_PCOD9092339
_publ_section_title
;
Structure prediction by ZEFSAII (Michael W. Deem and Ramdas Pophale) SiO2 
 PCOD9092339
Probable space group: P -1
;
_chemical_formula_sum "Si O2"
_cell_formula_units_Z 16
_cell_length_a 11.165499
_cell_length_b 13.631922
_cell_length_c 7.876806
_cell_angle_alpha 83.192364
_cell_angle_beta 131.066698
_cell_angle_gamma 127.861517
_cell_volume 626.736732
_symmetry_space_group_name_H-M "P -1"
_symmetry_group_IT_number 2
_symmetry_cell_setting 'triclinic'
loop_
_space_group_symop_operation_xyz
x,y,z
-x,-y,-z
loop_
_atom_site_type_symbol
_atom_site_label
_atom_site_fract_x
_atom_site_fract_y
_atom_site_fract_z
Si Si1 0.639582 0.171499 0.211543
Si Si2 0.041927 0.678935 0.830093
Si Si3 0.067050 0.569386 0.359876
Si Si4 0.269832 0.297668 0.282880
Si Si5 0.387167 0.523472 0.143721
Si Si6 0.497809 0.066786 0.648438
Si Si7 0.689070 0.799347 0.191822
Si Si8 0.082549 0.030344 0.289928
O O1 0.855947 0.247431 0.275851
O O2 0.722591 0.266661 0.438376
O O3 0.524494 0.020550 0.198520
O O4 0.478624 0.180243 0.968808
O O5 0.911551 0.518320 0.715276
O O6 0.885610 0.692202 0.763185
O O7 0.267898 0.770279 0.137340
O O8 0.000000 0.500000 0.500000
O O9 0.858601 0.539246 0.100058
O O10 0.355362 0.393542 0.176856
O O11 0.487952 0.379204 0.590703
O O12 0.116977 0.131712 0.162281
O O13 0.543356 0.635191 0.115000
O O14 0.276800 0.036203 0.443472
O O15 0.500000 0.000000 0.500000
O O16 0.846722 0.879305 0.488377
O O17 0.843188 0.878465 0.153653
#
# Coordination Sequence:
#
# PCOD9092339 Si02
#       8
#     2   2   2   2   2   2   2   2
#     4  11  23  43  69 108 143 190 249 308 360 436
#     4  11  22  44  73  99 142 198 246 299 364 440
#     4  10  21  43  70 100 144 187 249 303 357 430
#     4  10  23  39  69 106 145 192 241 294 374 442
#     4  10  20  41  64 103 145 184 236 296 364 435
#     4  12  27  45  71 109 144 190 251 309 367 435
#     4  10  19  40  74 102 139 184 248 295 362 436
#     4  10  22  42  72 104 138 194 245 299 365 437
#
# _framework density 25.529060999999999
#
# number of rings (size 3 to 8) (size 9 to 14) (size 15 to 20)
#    0.000    1.500    3.750    1.875    7.000    0.500 
#    6.750    6.250    0.000    0.000    0.000    0.000 
#    0.000    0.000    0.000    0.000    0.000    0.000 
#
# Total GULP energy -89603.310969 kJ/mol
# GULP energy per Si atom -5600.206936 kJ/mol
# Density = 2.547096 g / cm^3
# Si number density = 25.529061 Si / 1000 Ang^3
#
#
#
# Elastic Constant Matrix: (Units=GPa)
#
#
# Indices 1 2 3 4 5 6 
#
# 1 94.3150 46.2078 25.6957 5.2930 -14.4782 13.1949
# 2 46.2078 207.0530 20.5625 -5.0326 2.5447 2.3946
# 3 25.6957 20.5625 63.9850 -14.1124 15.6137 -3.9213
# 4 5.2930 -5.0326 -14.1124 45.0598 3.2539 -9.7883
# 5 -14.4782 2.5447 15.6137 3.2539 30.3200 3.1706
# 6 13.1949 2.3946 -3.9213 -9.7883 3.1706 35.8572
#
#
#
# Elastic Compliance Matrix: (Units=1/GPa)
#
#
# Indices 1 2 3 4 5 6 
#
# 1 0.025354 -0.004194 -0.019664 -0.015332 0.026080 -0.017692
# 2 -0.004194 0.005702 0.001408 0.002332 -0.003695 0.002280
# 3 -0.019664 0.001408 0.036825 0.020644 -0.032747 0.019700
# 4 -0.015332 0.002332 0.020644 0.036794 -0.024180 0.019926
# 5 0.026080 -0.003695 -0.032747 -0.024180 0.067874 -0.025534
# 6 -0.017692 0.002280 0.019700 0.019926 -0.025534 0.044098
#
#
# Mechanical properties :
#
#
# Convention : Reuss Voigt Hill
#
# Bulk Modulus (GPa) = 43.51664 61.14279 52.32971
# Shear Modulus (GPa) = 18.57311 40.43988 29.50649
#
# Velocity S-wave (km/s) = 2.70020 3.98436 3.40339
# Velocity P-wave (km/s) = 5.17729 6.72079 5.99889
#
# Compressibility (1/GPa) = 0.02297972
#
# Stress axis : x y z
#
# Youngs Moduli (GPa) = 39.44158 175.39015 27.15578
#
# Poissons Ratio (x) = 0.73558 0.53399
# Poissons Ratio (y) = 0.16542 -0.03823
# Poissons Ratio (z) = 0.77558 -0.24690
#
# Static dielectric constant tensor:
#      x y z
#    x 1.970470 0.033710 -0.079410 
#    y 0.033710 2.057970 0.003010 
#    z -0.079410 0.003010 2.034570 
# 
# From -- ./inp_files/273004.got.cif
#   From: 2010.05.17/outbox.cif.g08.bks.cpg/sg2_137_cif.got.tgz:273004.got - 2010.06.03 11:33:40.
