data_PCOD9092438
_publ_section_title
;
Structure prediction by ZEFSAII (Michael W. Deem and Ramdas Pophale) SiO2 
 PCOD9092438
Probable space group: P -1
;
_chemical_formula_sum "Si O2"
_cell_formula_units_Z 16
_cell_length_a 15.623007
_cell_length_b 12.544351
_cell_length_c 9.498733
_cell_angle_alpha 65.300022
_cell_angle_beta 104.847328
_cell_angle_gamma 150.984455
_cell_volume 794.760349
_symmetry_space_group_name_H-M "P -1"
_symmetry_group_IT_number 2
_symmetry_cell_setting 'triclinic'
loop_
_space_group_symop_operation_xyz
x,y,z
-x,-y,-z
loop_
_atom_site_type_symbol
_atom_site_label
_atom_site_fract_x
_atom_site_fract_y
_atom_site_fract_z
Si Si1 0.301206 0.825441 0.535049
Si Si2 0.025574 0.830995 0.595828
Si Si3 0.035213 0.579844 0.810527
Si Si4 0.924055 0.663042 0.337003
Si Si5 0.769022 0.100781 0.799355
Si Si6 0.796836 0.748740 0.668125
Si Si7 0.558455 0.648762 0.076395
Si Si8 0.110400 0.126540 0.831455
O O1 0.214396 0.752440 0.694277
O O2 0.177556 0.576129 0.566478
O O3 0.282004 0.910506 0.370842
O O4 0.500000 0.000000 0.500000
O O5 0.023716 0.793771 0.453489
O O6 0.836002 0.674395 0.642667
O O7 0.044707 0.732036 0.738490
O O8 0.171629 0.105740 0.505193
O O9 0.864792 0.320545 0.799319
O O10 0.000000 0.500000 0.000000
O O11 0.810673 0.649563 0.272445
O O12 0.074338 0.816862 0.196297
O O13 0.608355 0.839816 0.945893
O O14 0.608558 0.540384 0.782548
O O15 0.958619 0.936375 0.750657
O O16 0.731621 0.785864 0.145175
O O17 0.500000 0.500000 0.000000
O O18 0.000000 0.000000 0.000000
#
# Coordination Sequence:
#
# PCOD9092438 Si02
#       8
#     2   2   2   2   2   2   2   2
#     4  11  24  40  65  99 126 171 228 270 321 403
#     4  10  20  44  65  85 129 173 217 259 346 384
#     4  11  24  42  70  93 130 180 215 276 338 393
#     4  10  19  41  65  85 122 170 217 259 318 396
#     4  11  22  43  67  95 129 175 220 266 332 399
#     4  10  24  40  65  94 128 174 212 277 323 397
#     4  12  24  39  65 100 133 164 221 276 327 388
#     4  11  21  37  62  92 123 165 212 262 327 385
#
# _framework density 20.131853
#
# number of rings (size 3 to 8) (size 9 to 14) (size 15 to 20)
#    0.000    1.250    5.000    1.500    3.500    1.000 
#    2.250    6.875    0.000    0.000    0.000    0.000 
#    0.000    0.000    0.000    0.000    0.000    0.000 
#
# Total GULP energy -89118.426932 kJ/mol
# GULP energy per Si atom -5569.901683 kJ/mol
# Density = 2.008603 g / cm^3
# Si number density = 20.131853 Si / 1000 Ang^3
#
#
#
# Elastic Constant Matrix: (Units=GPa)
#
#
# Indices 1 2 3 4 5 6 
#
# 1 129.5283 34.2282 60.9050 -24.6845 6.9216 5.5485
# 2 34.2282 43.7649 33.8826 -12.6818 -1.8174 13.8157
# 3 60.9050 33.8826 142.1962 -26.5691 10.2185 7.1371
# 4 -24.6845 -12.6818 -26.5691 32.2301 1.0484 -5.2708
# 5 6.9216 -1.8174 10.2185 1.0484 39.4385 -6.3497
# 6 5.5485 13.8157 7.1371 -5.2708 -6.3497 26.3483
#
#
#
# Elastic Compliance Matrix: (Units=1/GPa)
#
#
# Indices 1 2 3 4 5 6 
#
# 1 0.011464 -0.006443 -0.002531 0.004568 -0.001417 0.002222
# 2 -0.006443 0.037792 -0.004949 0.003170 0.001474 -0.016129
# 3 -0.002531 -0.004949 0.010343 0.004834 -0.002480 0.000696
# 4 0.004568 0.003170 0.004834 0.040420 -0.002408 0.003572
# 5 -0.001417 0.001474 -0.002480 -0.002408 0.027396 0.006318
# 6 0.002222 -0.016129 0.000696 0.003572 0.006318 0.047991
#
#
# Mechanical properties :
#
#
# Convention : Reuss Voigt Hill
#
# Bulk Modulus (GPa) = 31.49513 63.72455 47.60984
# Shear Modulus (GPa) = 23.38227 32.03495 27.70861
#
# Velocity S-wave (km/s) = 3.41171 3.99338 3.71395
# Velocity P-wave (km/s) = 5.58553 7.27909 6.48780
#
# Compressibility (1/GPa) = 0.03175094
#
# Stress axis : x y z
#
# Youngs Moduli (GPa) = 87.22860 26.46092 96.68688
#
# Poissons Ratio (x) = 0.17049 0.24474
# Poissons Ratio (y) = 0.56202 0.47854
# Poissons Ratio (z) = 0.22080 0.13097
#
# Static dielectric constant tensor:
#      x y z
#    x 1.784000 0.000630 -0.004080 
#    y 0.000630 1.670950 0.026410 
#    z -0.004080 0.026410 1.734710 
# 
# From -- ./inp_files/307075.got.cif
#   From: 2010.05.17/outbox.cif.g08.bks.cpg/sg2_154_cif.got.tgz:307075.got - 2010.06.03 11:33:40.
