data_PCOD9092140
_publ_section_title
;
Structure prediction by ZEFSAII (Michael W. Deem and Ramdas Pophale) SiO2 
 PCOD9092140
Probable space group: P -1
;
_chemical_formula_sum "Si O2"
_cell_formula_units_Z 16
_cell_length_a 23.561970
_cell_length_b 14.124286
_cell_length_c 17.711663
_cell_angle_alpha 151.252967
_cell_angle_beta 19.438794
_cell_angle_gamma 159.818525
_cell_volume 674.964963
_symmetry_space_group_name_H-M "P -1"
_symmetry_group_IT_number 2
_symmetry_cell_setting 'triclinic'
loop_
_space_group_symop_operation_xyz
x,y,z
-x,-y,-z
loop_
_atom_site_type_symbol
_atom_site_label
_atom_site_fract_x
_atom_site_fract_y
_atom_site_fract_z
Si Si1 0.400395 0.165354 0.199436
Si Si2 0.559617 0.932394 0.547464
Si Si3 0.459242 0.652891 0.210063
Si Si4 0.308145 0.458400 0.763126
Si Si5 0.167508 0.970269 0.868535
Si Si6 0.607616 0.071813 0.101927
Si Si7 0.981224 0.603509 0.342231
Si Si8 0.098741 0.309378 0.664322
O O1 0.580863 0.400945 0.196528
O O2 0.197137 0.169551 0.448929
O O3 0.251781 0.860978 0.205839
O O4 0.480753 0.154478 0.008872
O O5 0.502599 0.095705 0.693788
O O6 0.746038 0.959626 0.279772
O O7 0.599316 0.025995 0.650048
O O8 0.313263 0.612932 0.639477
O O9 0.180289 0.418331 0.411063
O O10 0.609923 0.773301 0.182893
O O11 0.500000 0.500000 0.000000
O O12 0.500000 0.500000 0.500000
O O13 0.283987 0.646553 0.879313
O O14 0.068308 0.147618 0.871454
O O15 0.109974 0.691884 0.753265
O O16 0.832901 0.145680 0.912437
O O17 0.925730 0.649639 0.363176
#
# Coordination Sequence:
#
# PCOD9092140 Si02
#       8
#     2   2   2   2   2   2   2   2
#     4  11  25  40  69 101 137 172 228 272 334 391
#     4  11  22  39  65  99 133 174 218 275 342 387
#     4  11  23  36  67 100 134 171 223 275 333 395
#     4  12  26  46  67  94 134 189 223 267 334 411
#     4  11  22  45  66  93 137 179 216 273 336 397
#     4  11  23  41  68 100 134 170 226 279 324 390
#     4  10  19  40  66  96 131 170 216 275 333 384
#     4  11  20  40  68  99 136 169 219 280 328 389
#
# _framework density 23.704934000000002
#
# number of rings (size 3 to 8) (size 9 to 14) (size 15 to 20)
#    0.000    1.000    5.000    3.750    5.250    0.000 
#    0.000    3.125    0.000    0.000    0.000    0.000 
#    0.000    0.000    0.000    0.000    0.000    0.000 
#
# Total GULP energy -89212.658126 kJ/mol
# GULP energy per Si atom -5575.791133 kJ/mol
# Density = 2.365098 g / cm^3
# Si number density = 23.704934 Si / 1000 Ang^3
#
#
#
# Elastic Constant Matrix: (Units=GPa)
#
#
# Indices 1 2 3 4 5 6 
#
# 1 59.2432 14.2003 36.1251 -5.5529 18.6057 0.1625
# 2 14.2003 58.7766 14.8892 5.3391 11.1744 20.1974
# 3 36.1251 14.8892 142.6057 9.5679 34.5874 5.2108
# 4 -5.5529 5.3391 9.5679 37.1393 -4.2359 -2.2775
# 5 18.6057 11.1744 34.5874 -4.2359 47.1510 5.0865
# 6 0.1625 20.1974 5.2108 -2.2775 5.0865 23.6060
#
#
#
# Elastic Compliance Matrix: (Units=1/GPa)
#
#
# Indices 1 2 3 4 5 6 
#
# 1 0.023403 -0.007002 -0.004816 0.005756 -0.004432 0.008403
# 2 -0.007002 0.027909 0.000815 -0.007032 -0.002475 -0.024156
# 3 -0.004816 0.000815 0.009882 -0.004156 -0.005697 -0.002018
# 4 0.005756 -0.007032 -0.004156 0.030903 0.004254 0.008960
# 5 -0.004432 -0.002475 -0.005697 0.004254 0.028352 -0.002293
# 6 0.008403 -0.024156 -0.002018 0.008960 -0.002293 0.064776
#
#
# Mechanical properties :
#
#
# Convention : Reuss Voigt Hill
#
# Bulk Modulus (GPa) = 25.51868 43.45051 34.48460
# Shear Modulus (GPa) = 22.69707 34.60668 28.65187
#
# Velocity S-wave (km/s) = 3.09768 3.82500 3.48039
# Velocity P-wave (km/s) = 4.85620 6.15443 5.54345
#
# Compressibility (1/GPa) = 0.03918698
#
# Stress axis : x y z
#
# Youngs Moduli (GPa) = 42.72992 35.83101 101.19845
#
# Poissons Ratio (x) = 0.25089 0.48733
# Poissons Ratio (y) = 0.29919 -0.08243
# Poissons Ratio (z) = 0.20577 -0.02918
#
# Static dielectric constant tensor:
#      x y z
#    x 1.926320 -0.016920 -0.006690 
#    y -0.016920 1.927100 -0.016260 
#    z -0.006690 -0.016260 2.067900 
# 
# From -- ./inp_files/579326.got.cif
#   From: 2010.05.17/outbox.cif.g08.bks.cpg/sg2_290_cif.got.tgz:579326.got - 2010.06.03 11:33:40.
