data_PCOD9092333
_publ_section_title
;
Structure prediction by ZEFSAII (Michael W. Deem and Ramdas Pophale) SiO2 
 PCOD9092333
Probable space group: P -1
;
_chemical_formula_sum "Si O2"
_cell_formula_units_Z 16
_cell_length_a 14.282110
_cell_length_b 7.316732
_cell_length_c 9.275971
_cell_angle_alpha 128.885754
_cell_angle_beta 66.038470
_cell_angle_gamma 87.312131
_cell_volume 624.336629
_symmetry_space_group_name_H-M "P -1"
_symmetry_group_IT_number 2
_symmetry_cell_setting 'triclinic'
loop_
_space_group_symop_operation_xyz
x,y,z
-x,-y,-z
loop_
_atom_site_type_symbol
_atom_site_label
_atom_site_fract_x
_atom_site_fract_y
_atom_site_fract_z
Si Si1 0.399206 0.112989 0.907087
Si Si2 0.830162 0.459032 0.818749
Si Si3 0.133563 0.327259 0.824038
Si Si4 0.576838 0.350477 0.513393
Si Si5 0.057112 0.200818 0.222253
Si Si6 0.170430 0.806527 0.712173
Si Si7 0.166867 0.041688 0.384311
Si Si8 0.418593 0.773444 0.013003
O O1 0.512756 0.148799 0.872452
O O2 0.396189 0.945424 0.687681
O O3 0.288683 0.380777 0.105244
O O4 0.397162 0.956433 0.975507
O O5 0.881032 0.152952 0.614499
O O6 0.909578 0.591983 0.777573
O O7 0.814970 0.523282 0.031700
O O8 0.162529 0.050879 0.742973
O O9 0.166337 0.257567 0.603228
O O10 0.000000 0.500000 0.000000
O O11 0.500000 0.500000 0.500000
O O12 0.695862 0.376014 0.455521
O O13 0.500291 0.486172 0.765401
O O14 0.923693 0.277529 0.332533
O O15 0.107796 0.152529 0.325672
O O16 0.122602 0.931108 0.960065
O O17 0.295560 0.837021 0.176218
#
# Coordination Sequence:
#
# PCOD9092333 Si02
#       8
#     2   2   2   2   2   2   2   2
#     4  10  20  43  69 103 149 190 245 300 362 438
#     4  11  24  46  76 107 151 196 245 305 370 445
#     4  11  26  49  71 106 153 194 244 313 371 442
#     4  10  19  40  73 106 150 195 238 307 370 431
#     4  10  21  46  75 106 149 195 252 301 368 437
#     4  10  21  43  76 108 148 198 250 298 374 452
#     4  12  26  48  77 111 148 196 250 309 374 445
#     4  10  23  41  73 108 143 193 250 301 365 445
#
# _framework density 25.627199999999998
#
# number of rings (size 3 to 8) (size 9 to 14) (size 15 to 20)
#    0.000    1.500    3.750    1.500    1.750    3.500 
#    0.000   24.375    0.000    0.000    0.000    0.000 
#    0.000    0.000    0.000    0.000    0.000    0.000 
#
# Total GULP energy -89662.493121 kJ/mol
# GULP energy per Si atom -5603.905820 kJ/mol
# Density = 2.556887 g / cm^3
# Si number density = 25.627200 Si / 1000 Ang^3
#
#
#
# Elastic Constant Matrix: (Units=GPa)
#
#
# Indices 1 2 3 4 5 6 
#
# 1 176.3327 22.0829 69.7927 -4.9177 -14.3719 -19.5674
# 2 22.0829 63.3412 8.4204 -9.9909 -3.3696 -12.2815
# 3 69.7927 8.4204 131.4950 -5.9394 1.1788 -9.6435
# 4 -4.9177 -9.9909 -5.9394 28.0897 -12.1773 1.7639
# 5 -14.3719 -3.3696 1.1788 -12.1773 60.3813 6.5785
# 6 -19.5674 -12.2815 -9.6435 1.7639 6.5785 34.2210
#
#
#
# Elastic Compliance Matrix: (Units=1/GPa)
#
#
# Indices 1 2 3 4 5 6 
#
# 1 0.007822 -0.001553 -0.003860 0.000582 0.001699 0.002471
# 2 -0.001553 0.018417 0.000313 0.006636 0.001425 0.005194
# 3 -0.003860 0.000313 0.009746 0.001026 -0.000970 0.000785
# 4 0.000582 0.006636 0.001026 0.042291 0.009119 -0.000929
# 5 0.001699 0.001425 -0.000970 0.009119 0.019225 -0.002957
# 6 0.002471 0.005194 0.000785 -0.000929 -0.002957 0.033336
#
#
# Mechanical properties :
#
#
# Convention : Reuss Voigt Hill
#
# Bulk Modulus (GPa) = 38.78182 63.52901 51.15542
# Shear Modulus (GPa) = 33.41498 42.59657 38.00578
#
# Velocity S-wave (km/s) = 3.61486 4.08139 3.85518
# Velocity P-wave (km/s) = 5.70866 6.85958 6.31041
#
# Compressibility (1/GPa) = 0.02578528
#
# Stress axis : x y z
#
# Youngs Moduli (GPa) = 127.84014 54.29813 102.60363
#
# Poissons Ratio (x) = 0.08430 0.39606
# Poissons Ratio (y) = 0.19848 -0.03208
# Poissons Ratio (z) = 0.49347 -0.01697
#
# Static dielectric constant tensor:
#      x y z
#    x 2.020460 0.044600 0.023090 
#    y 0.044600 2.038030 0.000070 
#    z 0.023090 0.000070 2.080010 
# 
# From -- ./inp_files/299626.got.cif
#   From: 2010.05.17/outbox.cif.g08.bks.cpg/sg2_150_cif.got.tgz:299626.got - 2010.06.03 11:33:40.
