data_PCOD9092242
_publ_section_title
;
Structure prediction by ZEFSAII (Michael W. Deem and Ramdas Pophale) SiO2 
 PCOD9092242
Probable space group: P -1
;
_chemical_formula_sum "Si O2"
_cell_formula_units_Z 14
_cell_length_a 17.538037
_cell_length_b 8.414735
_cell_length_c 11.753856
_cell_angle_alpha 56.748369
_cell_angle_beta 32.577948
_cell_angle_gamma 40.930017
_cell_volume 592.404748
_symmetry_space_group_name_H-M "P -1"
_symmetry_group_IT_number 2
_symmetry_cell_setting 'triclinic'
loop_
_space_group_symop_operation_xyz
x,y,z
-x,-y,-z
loop_
_atom_site_type_symbol
_atom_site_label
_atom_site_fract_x
_atom_site_fract_y
_atom_site_fract_z
Si Si1 0.457855 0.784134 0.614973
Si Si2 0.260015 0.582308 0.872304
Si Si3 0.901649 0.379309 0.169024
Si Si4 0.529065 0.657528 0.824957
Si Si5 0.006704 0.567129 0.337289
Si Si6 0.038666 0.770480 0.606180
Si Si7 0.589750 0.003339 0.627609
O O1 0.339542 0.722147 0.727123
O O2 0.680008 0.573667 0.398780
O O3 0.417493 0.781187 0.799143
O O4 0.405345 0.009748 0.512790
O O5 0.107392 0.692613 0.919462
O O6 0.443097 0.292028 0.733025
O O7 0.160925 0.588939 0.106612
O O8 0.992846 0.188417 0.235014
O O9 0.000000 0.500000 0.000000
O O10 0.744056 0.458038 0.597904
O O11 0.509907 0.874966 0.826516
O O12 0.500000 0.500000 0.000000
O O13 0.000000 0.500000 0.500000
O O14 0.048819 0.345580 0.291204
O O15 0.802337 0.833479 0.465158
O O16 0.000000 0.000000 0.500000
#
# Coordination Sequence:
#
# PCOD9092242 Si02
#       7
#     2   2   2   2   2   2   2
#     4  10  23  42  69 100 134 178 228 280 341 403
#     4  11  24  44  74  99 135 182 225 282 343 398
#     4  10  19  40  68  95 129 171 230 274 324 403
#     4  10  23  40  64  96 133 175 224 275 335 404
#     4  11  26  43  64 103 141 172 226 282 343 403
#     4  10  23  41  63  94 131 174 225 278 328 404
#     4  10  23  45  68  97 134 179 231 276 336 404
#
# _framework density 23.632491999999999
#
# number of rings (size 3 to 8) (size 9 to 14) (size 15 to 20)
#    0.000    1.714    1.429    2.143    6.000    5.714 
#    2.571    0.000    0.000    0.000    0.000    0.000 
#    0.000    0.000    0.000    0.000    0.000    0.000 
#
# Total GULP energy -78201.368996 kJ/mol
# GULP energy per Si atom -5585.812071 kJ/mol
# Density = 2.357870 g / cm^3
# Si number density = 23.632492 Si / 1000 Ang^3
#
#
#
# Elastic Constant Matrix: (Units=GPa)
#
#
# Indices 1 2 3 4 5 6 
#
# 1 69.8121 26.2922 37.8748 -5.8360 -6.8364 -20.1720
# 2 26.2922 95.8440 26.2410 -20.2881 4.1026 -19.8930
# 3 37.8748 26.2410 145.0911 -25.4377 -3.8319 -11.7461
# 4 -5.8360 -20.2881 -25.4377 53.5181 -1.3246 0.0442
# 5 -6.8364 4.1026 -3.8319 -1.3246 35.8048 -15.6510
# 6 -20.1720 -19.8930 -11.7461 0.0442 -15.6510 37.7558
#
#
#
# Elastic Compliance Matrix: (Units=1/GPa)
#
#
# Indices 1 2 3 4 5 6 
#
# 1 0.022379 -0.002738 -0.004048 -0.000285 0.010000 0.013400
# 2 -0.002738 0.013437 -0.000433 0.004599 0.000556 0.005708
# 3 -0.004048 -0.000433 0.008710 0.003548 0.000584 0.000557
# 4 -0.000285 0.004599 0.003548 0.022143 0.002542 0.004403
# 5 0.010000 0.000556 0.000584 0.002542 0.039659 0.022255
# 6 0.013400 0.005708 0.000557 0.004403 0.022255 0.046047
#
#
# Mechanical properties :
#
#
# Convention : Reuss Voigt Hill
#
# Bulk Modulus (GPa) = 33.23364 54.61812 43.92588
# Shear Modulus (GPa) = 28.27397 40.10503 34.18950
#
# Velocity S-wave (km/s) = 3.46266 4.12397 3.80770
# Velocity P-wave (km/s) = 5.48451 6.77036 6.16107
#
# Compressibility (1/GPa) = 0.03008999
#
# Stress axis : x y z
#
# Youngs Moduli (GPa) = 44.68538 74.41867 114.81506
#
# Poissons Ratio (x) = 0.20375 0.46472
# Poissons Ratio (y) = 0.12234 0.04966
# Poissons Ratio (z) = 0.18087 0.03219
#
# Static dielectric constant tensor:
#      x y z
#    x 2.049880 0.022210 0.130880 
#    y 0.022210 1.982220 -0.118930 
#    z 0.130880 -0.118930 2.276770 
# 
# From -- ./inp_files/183061.got.cif
#   From: 2010.05.17/outbox.cif.g08.bks.cpg/sg2_92_cif.got.tgz:183061.got - 2010.06.03 11:33:40.
