data_PCOD9092958
_publ_section_title
;
Structure prediction by ZEFSAII (Michael W. Deem and Ramdas Pophale) SiO2 
 PCOD9092958
Probable space group: P -1
;
_chemical_formula_sum "Si O2"
_cell_formula_units_Z 11
_cell_length_a 12.805496
_cell_length_b 9.393198
_cell_length_c 8.860118
_cell_angle_alpha 68.283858
_cell_angle_beta 135.308103
_cell_angle_gamma 139.457328
_cell_volume 452.169068
_symmetry_space_group_name_H-M "P -1"
_symmetry_group_IT_number 2
_symmetry_cell_setting 'triclinic'
loop_
_space_group_symop_operation_xyz
x,y,z
-x,-y,-z
loop_
_atom_site_type_symbol
_atom_site_label
_atom_site_fract_x
_atom_site_fract_y
_atom_site_fract_z
Si Si1 0.317471 0.046463 0.553792
Si Si2 0.766048 0.734017 0.812940
Si Si3 0.929455 0.269267 0.011087
Si Si4 0.648503 0.849537 0.108349
Si Si5 0.220532 0.362002 0.811025
Si Si6 0.500000 0.000000 0.500000
O O1 0.352328 0.234892 0.426763
O O2 0.387094 0.126943 0.766634
O O3 0.467019 0.037753 0.625785
O O4 0.042256 0.796783 0.376365
O O5 0.675266 0.615129 0.929890
O O6 0.848289 0.652778 0.836204
O O7 0.000000 0.000000 0.000000
O O8 0.740750 0.105888 0.750638
O O9 0.000000 0.500000 0.000000
O O10 0.820525 0.105284 0.109461
O O11 0.765793 0.774127 0.231137
O O12 0.402823 0.638123 0.852381
#
# Coordination Sequence:
#
# PCOD9092958 Si02
#       6
#     2   2   2   2   2   1
#     4  11  23  43  76 105 140 185 235 294 349 419
#     4  10  19  46  73  94 143 186 233 287 344 415
#     4  12  27  48  69 102 146 190 234 293 346 425
#     4  11  24  43  74 109 136 183 239 291 357 410
#     4  10  21  43  72 106 140 174 238 297 338 414
#     4  12  26  46  68 104 140 194 234 274 368 414
#
# _framework density 24.327183999999999
#
# number of rings (size 3 to 8) (size 9 to 14) (size 15 to 20)
#    0.000    1.091    7.273    0.545    2.545    2.909 
#    3.273    1.818    0.000    0.000    0.000    0.000 
#    0.000    0.000    0.000    0.000    0.000    0.000 
#
# Total GULP energy -61278.709906 kJ/mol
# GULP energy per Si atom -5570.791810 kJ/mol
# Density = 2.427181 g / cm^3
# Si number density = 24.327184 Si / 1000 Ang^3
#
#
#
# Elastic Constant Matrix: (Units=GPa)
#
#
# Indices 1 2 3 4 5 6 
#
# 1 210.2784 60.0559 27.2861 7.4516 -0.2698 -12.0606
# 2 60.0559 131.2034 12.0417 7.3540 0.5355 -10.2897
# 3 27.2861 12.0417 72.0123 14.5067 4.8810 -0.3462
# 4 7.4516 7.3540 14.5067 24.7997 9.7110 11.6316
# 5 -0.2698 0.5355 4.8810 9.7110 51.8989 -0.5335
# 6 -12.0606 -10.2897 -0.3462 11.6316 -0.5335 22.4524
#
#
#
# Elastic Compliance Matrix: (Units=1/GPa)
#
#
# Indices 1 2 3 4 5 6 
#
# 1 0.005817 -0.002177 -0.001476 -0.001931 0.000585 0.003118
# 2 -0.002177 0.009363 0.000332 -0.005504 0.000952 0.006001
# 3 -0.001476 0.000332 0.016955 -0.012872 0.000868 0.006310
# 4 -0.001931 -0.005504 -0.012872 0.075551 -0.013323 -0.043214
# 5 0.000585 0.000952 0.000868 -0.013323 0.021757 0.008183
# 6 0.003118 0.006001 0.006310 -0.043214 0.008183 0.071643
#
#
# Mechanical properties :
#
#
# Convention : Reuss Voigt Hill
#
# Bulk Modulus (GPa) = 39.22503 68.02906 53.62705
# Shear Modulus (GPa) = 23.12429 40.77089 31.94759
#
# Velocity S-wave (km/s) = 3.08645 4.09827 3.62781
# Velocity P-wave (km/s) = 5.37220 7.10065 6.29602
#
# Compressibility (1/GPa) = 0.02549392
#
# Stress axis : x y z
#
# Youngs Moduli (GPa) = 171.91633 106.80497 58.98050
#
# Poissons Ratio (x) = 0.23248 0.08704
# Poissons Ratio (y) = 0.37421 -0.01960
# Poissons Ratio (z) = 0.25371 -0.03549
#
# Static dielectric constant tensor:
#      x y z
#    x 1.916210 0.055600 -0.041740 
#    y 0.055600 2.126860 -0.002680 
#    z -0.041740 -0.002680 1.970270 
# 
# From -- ./inp_files/151106.got.cif
#   From: 2010.05.17/outbox.cif.g08.bks.cpg/sg2_76_cif.got.tgz:151106.got - 2010.06.03 11:33:40.
