data_PCOD9092166
_publ_section_title
;
Structure prediction by ZEFSAII (Michael W. Deem and Ramdas Pophale) SiO2 
 PCOD9092166
Probable space group: P -1
;
_chemical_formula_sum "Si O2"
_cell_formula_units_Z 16
_cell_length_a 15.318890
_cell_length_b 15.983735
_cell_length_c 7.928407
_cell_angle_alpha 76.020401
_cell_angle_beta 76.899170
_cell_angle_gamma 21.446700
_cell_volume 688.774181
_symmetry_space_group_name_H-M "P -1"
_symmetry_group_IT_number 2
_symmetry_cell_setting 'triclinic'
loop_
_space_group_symop_operation_xyz
x,y,z
-x,-y,-z
loop_
_atom_site_type_symbol
_atom_site_label
_atom_site_fract_x
_atom_site_fract_y
_atom_site_fract_z
Si Si1 0.492645 0.000276 0.250395
Si Si2 0.766825 0.650092 0.057188
Si Si3 0.886275 0.693612 0.485310
Si Si4 0.461583 0.426723 0.716743
Si Si5 0.750052 0.052880 0.564992
Si Si6 0.032646 0.206868 0.716496
Si Si7 0.841127 0.218886 0.614812
Si Si8 0.056261 0.700799 0.910557
O O1 0.647528 0.781200 0.223656
O O2 0.656571 0.900746 0.363402
O O3 0.237653 0.194009 0.333476
O O4 0.433370 0.129014 0.082964
O O5 0.846101 0.483074 0.064859
O O6 0.000000 0.500000 0.000000
O O7 0.054166 0.621909 0.390958
O O8 0.000000 0.500000 0.500000
O O9 0.707470 0.256636 0.735080
O O10 0.308951 0.620014 0.561335
O O11 0.290933 0.552294 0.881510
O O12 0.520288 0.289053 0.648840
O O13 0.750384 0.002644 0.411509
O O14 0.888346 0.018135 0.460437
O O15 0.905435 0.864767 0.731853
O O16 0.854870 0.287666 0.704606
O O17 0.075741 0.170807 0.914717
#
# Coordination Sequence:
#
# PCOD9092166 Si02
#       8
#     2   2   2   2   2   2   2   2
#     4  10  24  39  63  91 116 171 216 247 326 378
#     4  11  24  41  62  88 129 164 209 267 312 376
#     4  11  23  42  62  90 129 162 210 268 308 378
#     4  10  19  40  67  89 123 162 207 258 307 383
#     4   9  22  40  63  88 122 166 203 252 316 372
#     4  10  23  42  60  91 129 160 206 257 314 366
#     4   8  20  39  65  91 122 162 204 254 321 367
#     4  11  24  40  60  94 124 162 209 258 313 371
#
# _framework density 23.229673999999999
#
# number of rings (size 3 to 8) (size 9 to 14) (size 15 to 20)
#    0.750    1.250    0.000    2.625    5.250    2.500 
#    6.750    0.625    0.000    0.000    0.000    0.000 
#    0.000    0.000    0.000    0.000    0.000    0.000 
#
# Total GULP energy -89158.348950 kJ/mol
# GULP energy per Si atom -5572.396809 kJ/mol
# Density = 2.317680 g / cm^3
# Si number density = 23.229674 Si / 1000 Ang^3
#
#
#
# Elastic Constant Matrix: (Units=GPa)
#
#
# Indices 1 2 3 4 5 6 
#
# 1 95.1294 9.6405 35.3941 6.4680 -7.6063 11.5502
# 2 9.6405 67.5591 22.0964 15.4092 0.9833 20.1594
# 3 35.3941 22.0964 101.6808 22.3174 5.2558 11.6448
# 4 6.4680 15.4092 22.3174 36.0969 3.3094 1.2696
# 5 -7.6063 0.9833 5.2558 3.3094 26.5876 1.8142
# 6 11.5502 20.1594 11.6448 1.2696 1.8142 27.4689
#
#
#
# Elastic Compliance Matrix: (Units=1/GPa)
#
#
# Indices 1 2 3 4 5 6 
#
# 1 0.013028 0.000961 -0.004399 -0.000313 0.004916 -0.004628
# 2 0.000961 0.021553 -0.001603 -0.008012 0.001835 -0.015293
# 3 -0.004399 -0.001603 0.013561 -0.006567 -0.002911 -0.002227
# 4 -0.000313 -0.008012 -0.006567 0.035290 -0.003392 0.007388
# 5 0.004916 0.001835 -0.002911 -0.003392 0.040267 -0.004683
# 6 -0.004628 -0.015293 -0.002227 0.007388 -0.004683 0.050486
#
#
# Mechanical properties :
#
#
# Convention : Reuss Voigt Hill
#
# Bulk Modulus (GPa) = 26.27502 44.29238 35.28370
# Shear Modulus (GPa) = 25.38649 31.17989 28.28319
#
# Velocity S-wave (km/s) = 3.30941 3.66764 3.49312
# Velocity P-wave (km/s) = 5.09298 6.08638 5.61170
#
# Compressibility (1/GPa) = 0.03805897
#
# Stress axis : x y z
#
# Youngs Moduli (GPa) = 76.76015 46.39671 73.74058
#
# Poissons Ratio (x) = -0.04457 0.32438
# Poissons Ratio (y) = -0.07373 0.11821
# Poissons Ratio (z) = 0.33767 0.07438
#
# Static dielectric constant tensor:
#      x y z
#    x 1.982290 -0.010190 0.011100 
#    y -0.010190 1.896860 0.024780 
#    z 0.011100 0.024780 1.952750 
# 
# From -- ./inp_files/336733.got.cif
#   From: 2010.05.17/outbox.cif.g08.bks.cpg/sg2_169_cif.got.tgz:336733.got - 2010.06.03 11:33:40.
