data_PCOD9092630
_publ_section_title
;
Structure prediction by ZEFSAII (Michael W. Deem and Ramdas Pophale) SiO2 
 PCOD9092630
Probable space group: P -1
;
_chemical_formula_sum "Si O2"
_cell_formula_units_Z 16
_cell_length_a 9.502503
_cell_length_b 7.844250
_cell_length_c 18.810218
_cell_angle_alpha 104.720540
_cell_angle_beta 44.057690
_cell_angle_gamma 73.120298
_cell_volume 670.424857
_symmetry_space_group_name_H-M "P -1"
_symmetry_group_IT_number 2
_symmetry_cell_setting 'triclinic'
loop_
_space_group_symop_operation_xyz
x,y,z
-x,-y,-z
loop_
_atom_site_type_symbol
_atom_site_label
_atom_site_fract_x
_atom_site_fract_y
_atom_site_fract_z
Si Si1 0.291864 0.987085 0.416369
Si Si2 0.479972 0.687164 0.870314
Si Si3 0.503259 0.407910 0.577147
Si Si4 0.917538 0.751986 0.889819
Si Si5 0.393333 0.944302 0.599413
Si Si6 0.238493 0.487523 0.887722
Si Si7 0.225836 0.512063 0.402714
Si Si8 0.766394 0.458811 0.878335
O O1 0.361420 0.817189 0.439246
O O2 0.478711 0.794914 0.263640
O O3 0.425582 0.091466 0.404629
O O4 0.969503 0.216255 0.534578
O O5 0.308326 0.608812 0.924889
O O6 0.561391 0.674430 0.757617
O O7 0.751089 0.494349 0.802175
O O8 0.300718 0.954850 0.997754
O O9 0.585794 0.270417 0.457177
O O10 0.623080 0.507644 0.583554
O O11 0.159864 0.610133 0.726770
O O12 0.764374 0.656168 0.933049
O O13 0.110781 0.645996 0.878693
O O14 0.500000 0.000000 0.500000
O O15 0.066025 0.189023 0.759789
O O16 0.000000 0.500000 0.000000
O O17 0.000000 0.500000 0.500000
O O18 0.500000 0.500000 0.000000
#
# Coordination Sequence:
#
# PCOD9092630 Si02
#       8
#     2   2   2   2   2   2   2   2
#     4  10  21  41  68  93 128 169 230 273 330 395
#     4  12  26  42  68  96 142 181 212 289 353 396
#     4  10  21  42  69  95 125 182 227 276 331 407
#     4  11  23  45  65  95 141 180 223 272 354 410
#     4  10  19  41  71  91 126 172 226 277 327 393
#     4  11  23  40  70  98 125 177 232 276 332 408
#     4  12  27  42  64 105 137 173 225 281 340 408
#     4  12  25  44  70 106 132 176 239 285 335 409
#
# _framework density 23.865463999999999
#
# number of rings (size 3 to 8) (size 9 to 14) (size 15 to 20)
#    0.000    1.000    6.250    3.375    3.500    1.000 
#    0.000    0.625    0.000    0.000    0.000    0.000 
#    0.000    0.000    0.000    0.000    0.000    0.000 
#
# Total GULP energy -89495.720472 kJ/mol
# GULP energy per Si atom -5593.482529 kJ/mol
# Density = 2.381115 g / cm^3
# Si number density = 23.865464 Si / 1000 Ang^3
#
#
#
# Elastic Constant Matrix: (Units=GPa)
#
#
# Indices 1 2 3 4 5 6 
#
# 1 140.5373 29.0479 35.0294 6.3463 0.2857 33.6439
# 2 29.0479 90.6491 32.3278 0.3315 8.7174 45.3432
# 3 35.0294 32.3278 105.4889 5.3039 0.4307 19.1509
# 4 6.3463 0.3315 5.3039 36.0487 9.1566 0.3038
# 5 0.2857 8.7174 0.4307 9.1566 28.8654 -0.2235
# 6 33.6439 45.3432 19.1509 0.3038 -0.2235 49.9106
#
#
#
# Elastic Compliance Matrix: (Units=1/GPa)
#
#
# Indices 1 2 3 4 5 6 
#
# 1 0.008953 0.000905 -0.002091 -0.001229 0.000012 -0.006047
# 2 0.000905 0.022769 -0.003749 0.002311 -0.007716 -0.019905
# 3 -0.002091 -0.003749 0.011310 -0.001650 0.001511 0.000492
# 4 -0.001229 0.002311 -0.001650 0.030840 -0.010451 -0.000872
# 5 0.000012 -0.007716 0.001511 -0.010451 0.040318 0.006666
# 6 -0.006047 -0.019905 0.000492 -0.000872 0.006666 0.042042
#
#
# Mechanical properties :
#
#
# Convention : Reuss Voigt Hill
#
# Bulk Modulus (GPa) = 30.15474 58.83173 44.49323
# Shear Modulus (GPa) = 28.22363 38.98293 33.60328
#
# Velocity S-wave (km/s) = 3.44265 4.04597 3.75644
# Velocity P-wave (km/s) = 5.33527 6.82140 6.12359
#
# Compressibility (1/GPa) = 0.03316228
#
# Stress axis : x y z
#
# Youngs Moduli (GPa) = 111.69720 43.91928 88.41540
#
# Poissons Ratio (x) = -0.03974 0.18485
# Poissons Ratio (y) = -0.10108 0.33148
# Poissons Ratio (z) = 0.23352 0.16466
#
# Static dielectric constant tensor:
#      x y z
#    x 1.941710 -0.154160 0.077180 
#    y -0.154160 2.544880 -0.065780 
#    z 0.077180 -0.065780 1.896780 
# 
# From -- ./inp_files/606777.got.cif
#   From: 2010.05.17/outbox.cif.g08.bks.cpg/sg2_304_cif.got.tgz:606777.got - 2010.06.03 11:33:40.
