data_PCOD9092024
_publ_section_title
;
Structure prediction by ZEFSAII (Michael W. Deem and Ramdas Pophale) SiO2 
 PCOD9092024
Probable space group: P -1
;
_chemical_formula_sum "Si O2"
_cell_formula_units_Z 16
_cell_length_a 12.290985
_cell_length_b 11.073879
_cell_length_c 20.416167
_cell_angle_alpha 33.966204
_cell_angle_beta 38.871784
_cell_angle_gamma 63.504069
_cell_volume 801.117564
_symmetry_space_group_name_H-M "P -1"
_symmetry_group_IT_number 2
_symmetry_cell_setting 'triclinic'
loop_
_space_group_symop_operation_xyz
x,y,z
-x,-y,-z
loop_
_atom_site_type_symbol
_atom_site_label
_atom_site_fract_x
_atom_site_fract_y
_atom_site_fract_z
Si Si1 0.887326 0.738369 0.889224
Si Si2 0.169064 0.806662 0.273143
Si Si3 0.170001 0.897935 0.997478
Si Si4 0.280607 0.763547 0.736556
Si Si5 0.302026 0.434316 0.666920
Si Si6 0.532680 0.462130 0.078152
Si Si7 0.583186 0.020917 0.286675
Si Si8 0.409211 0.809903 0.031590
O O1 0.096958 0.743362 0.790045
O O2 0.919377 0.011427 0.770048
O O3 0.745670 0.510886 0.112851
O O4 0.768711 0.645713 0.916257
O O5 0.287552 0.822598 0.144205
O O6 0.000000 0.500000 0.500000
O O7 0.348409 0.944350 0.183561
O O8 0.260340 0.935214 0.865016
O O9 0.237015 0.189600 0.854229
O O10 0.297977 0.823485 0.014218
O O11 0.919056 0.685693 0.213251
O O12 0.275135 0.853810 0.772122
O O13 0.500000 0.000000 0.500000
O O14 0.500000 0.500000 0.500000
O O15 0.396948 0.718923 0.523981
O O16 0.478635 0.175131 0.246242
O O17 0.409841 0.551079 0.139953
O O18 0.500000 0.500000 0.000000
#
# Coordination Sequence:
#
# PCOD9092024 Si02
#       8
#     2   2   2   2   2   2   2   2
#     4   9  22  40  63  93 124 163 208 255 319 364
#     4  10  23  40  62  89 127 163 211 255 302 375
#     4  10  20  38  59  85 127 155 200 254 312 366
#     4  10  22  40  64  92 124 160 208 262 310 373
#     4   9  21  37  57  88 117 155 199 251 300 372
#     4  10  19  40  65  87 125 161 201 259 305 365
#     4  10  21  36  60  90 121 158 204 251 314 365
#     4  10  22  40  62  89 119 168 205 253 315 366
#
# _framework density 19.972100000000001
#
# number of rings (size 3 to 8) (size 9 to 14) (size 15 to 20)
#    0.000    2.250    1.250    0.000    0.000   14.000 
#    0.000    1.875    0.000    0.000    0.000    0.000 
#    0.000    0.000    0.000    0.000    0.000    0.000 
#
# Total GULP energy -89126.365808 kJ/mol
# GULP energy per Si atom -5570.397863 kJ/mol
# Density = 1.992664 g / cm^3
# Si number density = 19.972100 Si / 1000 Ang^3
#
#
#
# Elastic Constant Matrix: (Units=GPa)
#
#
# Indices 1 2 3 4 5 6 
#
# 1 105.3544 30.1456 22.6929 3.8756 -6.1751 -15.5100
# 2 30.1456 83.2182 34.8331 -29.2434 -2.2608 -6.6456
# 3 22.6929 34.8331 104.4857 -20.7460 -18.6550 -9.3253
# 4 3.8756 -29.2434 -20.7460 38.7591 0.5100 6.3303
# 5 -6.1751 -2.2608 -18.6550 0.5100 14.4314 1.0971
# 6 -15.5100 -6.6456 -9.3253 6.3303 1.0971 25.6515
#
#
#
# Elastic Compliance Matrix: (Units=1/GPa)
#
#
# Indices 1 2 3 4 5 6 
#
# 1 0.013190 -0.006459 -0.001108 -0.008092 0.002895 0.007773
# 2 -0.006459 0.020748 -0.003648 0.014955 -0.004503 -0.003354
# 3 -0.001108 -0.003648 0.015568 0.005121 0.018748 0.001979
# 4 -0.008092 0.014955 0.005121 0.042166 0.004752 -0.009766
# 5 0.002895 -0.004503 0.018748 0.004752 0.093725 0.002218
# 6 0.007773 -0.003354 0.001979 -0.009766 0.002218 0.045849
#
#
# Mechanical properties :
#
#
# Convention : Reuss Voigt Hill
#
# Bulk Modulus (GPa) = 36.93142 52.04461 44.48801
# Shear Modulus (GPa) = 19.03293 29.46084 24.24688
#
# Velocity S-wave (km/s) = 3.09038 3.84487 3.48808
# Velocity P-wave (km/s) = 5.59156 6.76948 6.20852
#
# Compressibility (1/GPa) = 0.02707722
#
# Stress axis : x y z
#
# Youngs Moduli (GPa) = 75.81446 48.19664 64.23354
#
# Poissons Ratio (x) = 0.31129 0.07115
# Poissons Ratio (y) = 0.48967 0.23434
# Poissons Ratio (z) = 0.08397 0.17583
#
# Static dielectric constant tensor:
#      x y z
#    x 1.703130 0.010880 -0.009130 
#    y 0.010880 1.769430 -0.013710 
#    z -0.009130 -0.013710 1.714570 
# 
# From -- ./inp_files/93716.got.cif
#   From: 2010.05.17/outbox.cif.g08.bks.cpg/sg2_47_cif.got.tgz:93716.got - 2010.06.03 11:33:40.
