data_PCOD9092081
_publ_section_title
;
Structure prediction by ZEFSAII (Michael W. Deem and Ramdas Pophale) SiO2 
 PCOD9092081
Probable space group: P -1
;
_chemical_formula_sum "Si O2"
_cell_formula_units_Z 16
_cell_length_a 10.825829
_cell_length_b 15.951308
_cell_length_c 16.405953
_cell_angle_alpha 30.810957
_cell_angle_beta 46.156765
_cell_angle_gamma 26.544966
_cell_volume 612.081756
_symmetry_space_group_name_H-M "P -1"
_symmetry_group_IT_number 2
_symmetry_cell_setting 'triclinic'
loop_
_space_group_symop_operation_xyz
x,y,z
-x,-y,-z
loop_
_atom_site_type_symbol
_atom_site_label
_atom_site_fract_x
_atom_site_fract_y
_atom_site_fract_z
Si Si1 0.904527 0.885979 0.382884
Si Si2 0.118449 0.080452 0.340542
Si Si3 0.918349 0.571083 0.380823
Si Si4 0.480735 0.394076 0.875869
Si Si5 0.468732 0.795393 0.564559
Si Si6 0.658948 0.204942 0.696348
Si Si7 0.242679 0.056165 0.986430
Si Si8 0.381695 0.417271 0.089716
O O1 0.119559 0.582592 0.505241
O O2 0.058187 0.941433 0.263592
O O3 0.810731 0.942415 0.472112
O O4 0.611442 0.109548 0.277547
O O5 0.822869 0.413871 0.192330
O O6 0.385681 0.930050 0.401234
O O7 0.227128 0.962956 0.298127
O O8 0.000000 0.000000 0.500000
O O9 0.250687 0.369422 0.375207
O O10 0.000000 0.500000 0.500000
O O11 0.715027 0.842164 0.190330
O O12 0.506716 0.570554 0.723180
O O13 0.744757 0.112471 0.939193
O O14 0.431219 0.373148 0.007509
O O15 0.500000 0.500000 0.500000
O O16 0.547349 0.161449 0.851192
O O17 0.948465 0.343197 0.927731
O O18 0.500000 0.500000 0.000000
#
# Coordination Sequence:
#
# PCOD9092081 Si02
#       8
#     2   2   2   2   2   2   2   2
#     4  12  24  45  71  98 143 183 228 293 352 426
#     4  10  19  40  66 105 138 169 229 294 349 407
#     4  12  29  46  65 103 146 188 234 283 355 428
#     4  11  22  40  69 106 139 167 238 303 342 411
#     4  11  22  41  68  97 136 187 227 286 357 408
#     4  12  24  43  76 108 135 179 237 299 350 407
#     4  12  25  43  72 105 139 187 233 293 349 411
#     4  12  20  41  66 105 136 170 237 295 351 400
#
# _framework density 26.1403
#
# number of rings (size 3 to 8) (size 9 to 14) (size 15 to 20)
#    0.000    0.500    7.500    2.625    3.500    2.000 
#    0.000    0.625    0.000    3.750    0.000    0.000 
#    0.000    0.000    0.000    0.000    0.000    0.000 
#
# Total GULP energy -89318.559450 kJ/mol
# GULP energy per Si atom -5582.409966 kJ/mol
# Density = 2.608080 g / cm^3
# Si number density = 26.140300 Si / 1000 Ang^3
#
#
#
# Elastic Constant Matrix: (Units=GPa)
#
#
# Indices 1 2 3 4 5 6 
#
# 1 70.6394 3.8059 16.4436 6.2426 13.5023 9.7040
# 2 3.8059 122.8532 40.5476 27.3611 12.3337 42.7273
# 3 16.4436 40.5476 156.2627 29.1538 30.6505 21.3121
# 4 6.2426 27.3611 29.1538 48.5247 6.2655 16.3687
# 5 13.5023 12.3337 30.6505 6.2655 29.9824 1.8002
# 6 9.7040 42.7273 21.3121 16.3687 1.8002 40.0006
#
#
#
# Elastic Compliance Matrix: (Units=1/GPa)
#
#
# Indices 1 2 3 4 5 6 
#
# 1 0.016430 0.002518 0.000142 -0.000485 -0.008108 -0.006188
# 2 0.002518 0.014303 -0.000552 -0.002576 -0.005056 -0.014313
# 3 0.000142 -0.000552 0.009120 -0.003232 -0.008328 -0.002607
# 4 -0.000485 -0.002576 -0.003232 0.026191 -0.000525 -0.006103
# 5 -0.008108 -0.005056 -0.008328 -0.000525 0.047113 0.009899
# 6 -0.006188 -0.014313 -0.002607 -0.006103 0.009899 0.045231
#
#
# Mechanical properties :
#
#
# Convention : Reuss Voigt Hill
#
# Bulk Modulus (GPa) = 22.69079 52.37216 37.53148
# Shear Modulus (GPa) = 29.61011 42.96541 36.28776
#
# Velocity S-wave (km/s) = 3.36927 4.05859 3.72989
# Velocity P-wave (km/s) = 4.88213 6.48393 5.73919
#
# Compressibility (1/GPa) = 0.04407074
#
# Stress axis : x y z
#
# Youngs Moduli (GPa) = 60.86312 69.91330 109.65274
#
# Poissons Ratio (x) = -0.17606 -0.01561
# Poissons Ratio (y) = -0.15327 0.06053
# Poissons Ratio (z) = -0.00867 0.03859
#
# Static dielectric constant tensor:
#      x y z
#    x 2.123580 -0.161980 0.068890 
#    y -0.161980 2.171820 -0.026250 
#    z 0.068890 -0.026250 2.182330 
# 
# From -- ./inp_files/522269.got.cif
#   From: 2010.05.17/outbox.cif.g08.bks.cpg/sg2_262_cif.got.tgz:522269.got - 2010.06.03 11:33:40.
