data_PCOD9092837
_publ_section_title
;
Structure prediction by ZEFSAII (Michael W. Deem and Ramdas Pophale) SiO2 
 PCOD9092837
Probable space group: P -1
;
_chemical_formula_sum "Si O2"
_cell_formula_units_Z 16
_cell_length_a 6.701554
_cell_length_b 9.232609
_cell_length_c 19.214945
_cell_angle_alpha 93.497692
_cell_angle_beta 40.538985
_cell_angle_gamma 102.843353
_cell_volume 742.394255
_symmetry_space_group_name_H-M "P -1"
_symmetry_group_IT_number 2
_symmetry_cell_setting 'triclinic'
loop_
_space_group_symop_operation_xyz
x,y,z
-x,-y,-z
loop_
_atom_site_type_symbol
_atom_site_label
_atom_site_fract_x
_atom_site_fract_y
_atom_site_fract_z
Si Si1 0.656668 0.809813 0.197285
Si Si2 0.187104 0.166280 0.434110
Si Si3 0.830431 0.161388 0.185963
Si Si4 0.118897 0.317257 0.593158
Si Si5 0.913183 0.593449 0.620336
Si Si6 0.699836 0.604162 0.302332
Si Si7 0.183734 0.401830 0.192771
Si Si8 0.834838 0.622525 0.018077
O O1 0.793059 0.732172 0.222621
O O2 0.751574 0.732751 0.101288
O O3 0.266333 0.763771 0.304693
O O4 0.795405 0.989296 0.169680
O O5 0.491065 0.167193 0.307052
O O6 0.274543 0.249093 0.487308
O O7 0.977624 0.251478 0.446113
O O8 0.000000 0.000000 0.500000
O O9 0.084270 0.236643 0.180842
O O10 0.947277 0.274294 0.094271
O O11 0.260116 0.313142 0.631695
O O12 0.145733 0.489958 0.570662
O O13 0.639474 0.494412 0.639395
O O14 0.781704 0.609650 0.733146
O O15 0.913860 0.487310 0.249511
O O16 0.496637 0.514358 0.081247
O O17 0.000000 0.500000 0.000000
#
# Coordination Sequence:
#
# PCOD9092837 Si02
#       8
#     2   2   2   2   2   2   2   2
#     4  11  23  46  68 105 138 179 223 286 348 404
#     4  12  24  43  66  99 144 186 222 281 345 401
#     4  12  26  43  68 105 145 178 228 280 350 409
#     4  10  22  42  72  97 135 182 232 281 334 404
#     4  10  21  42  71  97 135 179 234 283 334 399
#     4  10  19  42  74  98 132 176 235 279 335 411
#     4  11  22  46  72 102 134 176 234 281 341 411
#     4  12  24  47  77  99 135 182 228 288 340 410
#
# _framework density 21.551888999999999
#
# number of rings (size 3 to 8) (size 9 to 14) (size 15 to 20)
#    0.000    1.000    6.250    2.625    0.000    1.500 
#    6.750    2.500    0.000    0.000    0.000    0.000 
#    0.000    0.000    0.000    0.000    0.000    0.000 
#
# Total GULP energy -89445.265341 kJ/mol
# GULP energy per Si atom -5590.329084 kJ/mol
# Density = 2.150284 g / cm^3
# Si number density = 21.551889 Si / 1000 Ang^3
#
#
#
# Elastic Constant Matrix: (Units=GPa)
#
#
# Indices 1 2 3 4 5 6 
#
# 1 102.4079 28.8695 41.7655 -6.4621 20.4411 8.7581
# 2 28.8695 139.9682 49.4426 -18.5534 8.1672 16.9478
# 3 41.7655 49.4426 127.6045 -12.4796 15.2081 10.5886
# 4 -6.4621 -18.5534 -12.4796 44.9340 -3.2269 8.3765
# 5 20.4411 8.1672 15.2081 -3.2269 36.6760 1.3678
# 6 8.7581 16.9478 10.5886 8.3765 1.3678 25.7296
#
#
#
# Elastic Compliance Matrix: (Units=1/GPa)
#
#
# Indices 1 2 3 4 5 6 
#
# 1 0.012509 -0.000867 -0.002834 0.000723 -0.005448 -0.002466
# 2 -0.000867 0.009537 -0.002459 0.004320 -0.000003 -0.006381
# 3 -0.002834 -0.002459 0.010284 0.001686 -0.001911 -0.002095
# 4 0.000723 0.004320 0.001686 0.027020 0.000784 -0.012624
# 5 -0.005448 -0.000003 -0.001911 0.000784 0.031137 0.000732
# 6 -0.002466 -0.006381 -0.002095 -0.012624 0.000732 0.048841
#
#
# Mechanical properties :
#
#
# Convention : Reuss Voigt Hill
#
# Bulk Modulus (GPa) = 49.97464 67.79286 58.88375
# Shear Modulus (GPa) = 31.58192 38.12813 34.85503
#
# Velocity S-wave (km/s) = 3.83219 4.21067 4.02588
# Velocity P-wave (km/s) = 6.54365 7.42722 6.99939
#
# Compressibility (1/GPa) = 0.02001015
#
# Stress axis : x y z
#
# Youngs Moduli (GPa) = 79.94300 104.84986 97.24183
#
# Poissons Ratio (x) = 0.09088 0.27556
# Poissons Ratio (y) = 0.06929 0.23916
# Poissons Ratio (z) = 0.22654 0.25787
#
# Static dielectric constant tensor:
#      x y z
#    x 1.816770 0.014380 -0.029550 
#    y 0.014380 1.787460 0.014420 
#    z -0.029550 0.014420 1.843560 
# 
# From -- ./inp_files/548084.got.cif
#   From: 2010.05.17/outbox.cif.g08.bks.cpg/sg2_275_cif.got.tgz:548084.got - 2010.06.03 11:33:40.
