data_PCOD9092807
_publ_section_title
;
Structure prediction by ZEFSAII (Michael W. Deem and Ramdas Pophale) SiO2 
 PCOD9092807
Probable space group: P -1
;
_chemical_formula_sum "Si O2"
_cell_formula_units_Z 14
_cell_length_a 11.601601
_cell_length_b 14.652163
_cell_length_c 9.906868
_cell_angle_alpha 153.645081
_cell_angle_beta 127.834616
_cell_angle_gamma 44.370237
_cell_volume 520.789024
_symmetry_space_group_name_H-M "P -1"
_symmetry_group_IT_number 2
_symmetry_cell_setting 'triclinic'
loop_
_space_group_symop_operation_xyz
x,y,z
-x,-y,-z
loop_
_atom_site_type_symbol
_atom_site_label
_atom_site_fract_x
_atom_site_fract_y
_atom_site_fract_z
Si Si1 0.389956 0.023191 0.583361
Si Si2 0.000149 0.197729 0.482793
Si Si3 0.859283 0.268602 0.915676
Si Si4 0.928082 0.658506 0.526736
Si Si5 0.713510 0.318307 0.599724
Si Si6 0.425819 0.407445 0.666268
Si Si7 0.380018 0.993646 0.073372
O O1 0.192871 0.134487 0.565391
O O2 0.500000 0.000000 0.500000
O O3 0.467853 0.762530 0.359010
O O4 0.447063 0.138198 0.897256
O O5 0.968405 0.261108 0.387211
O O6 0.843667 0.377587 0.695199
O O7 0.003165 0.957819 0.213406
O O8 0.899000 0.473755 0.170520
O O9 0.730282 0.392400 0.108537
O O10 0.000000 0.500000 0.500000
O O11 0.807420 0.192043 0.638669
O O12 0.761709 0.881536 0.749162
O O13 0.534692 0.489170 0.764234
O O14 0.662182 0.164850 0.262657
O O15 0.380811 0.223483 0.311856
#
# Coordination Sequence:
#
# PCOD9092807 Si02
#       7
#     2   2   2   2   2   2   2
#     4  10  19  42  71 102 138 197 242 279 358 445
#     4  12  25  42  77 111 141 190 244 305 365 426
#     4  11  23  43  73 104 144 197 243 289 360 444
#     4  11  25  48  70 102 147 192 244 303 370 433
#     4  12  23  39  69 116 149 182 242 307 364 421
#     4   9  21  40  70  99 148 198 232 288 359 439
#     4   9  21  40  70 101 142 196 236 291 363 427
#
# _framework density 26.882285
#
# number of rings (size 3 to 8) (size 9 to 14) (size 15 to 20)
#    0.857    0.571    2.857    2.143    0.000    2.857 
#    0.000    0.000    0.000   14.571    0.000    0.000 
#    0.000    0.000    0.000    0.000    0.000    0.000 
#
# Total GULP energy -78111.148933 kJ/mol
# GULP energy per Si atom -5579.367781 kJ/mol
# Density = 2.682110 g / cm^3
# Si number density = 26.882285 Si / 1000 Ang^3
#
#
#
# Elastic Constant Matrix: (Units=GPa)
#
#
# Indices 1 2 3 4 5 6 
#
# 1 180.3552 27.3830 16.8078 -9.5352 -30.6079 -17.9532
# 2 27.3830 85.5884 39.0315 0.6296 -13.6348 -7.4134
# 3 16.8078 39.0315 132.2598 -21.3325 0.8931 -2.0934
# 4 -9.5352 0.6296 -21.3325 38.6021 -0.0411 5.6559
# 5 -30.6079 -13.6348 0.8931 -0.0411 30.7024 -9.6087
# 6 -17.9532 -7.4134 -2.0934 5.6559 -9.6087 40.9041
#
#
#
# Elastic Compliance Matrix: (Units=1/GPa)
#
#
# Indices 1 2 3 4 5 6 
#
# 1 0.007840 -0.000151 -0.000818 0.000690 0.009498 0.005508
# 2 -0.000151 0.016034 -0.005334 -0.003995 0.008739 0.005172
# 3 -0.000818 -0.005334 0.010176 0.005889 -0.004295 -0.002628
# 4 0.000690 -0.003995 0.005889 0.030115 -0.002760 -0.004932
# 5 0.009498 0.008739 -0.004295 -0.002760 0.051693 0.018057
# 6 0.005508 0.005172 -0.002628 -0.004932 0.018057 0.032592
#
#
# Mechanical properties :
#
#
# Convention : Reuss Voigt Hill
#
# Bulk Modulus (GPa) = 46.62874 62.73867 54.68370
# Shear Modulus (GPa) = 29.72587 43.04045 36.38316
#
# Velocity S-wave (km/s) = 3.32893 4.00568 3.68288
# Velocity P-wave (km/s) = 5.67088 6.69200 6.20249
#
# Compressibility (1/GPa) = 0.02144600
#
# Stress axis : x y z
#
# Youngs Moduli (GPa) = 127.54692 62.36659 98.26782
#
# Poissons Ratio (x) = 0.00939 0.08034
# Poissons Ratio (y) = 0.01920 0.52419
# Poissons Ratio (z) = 0.10427 0.33268
#
# Static dielectric constant tensor:
#      x y z
#    x 2.155730 -0.057250 0.128210 
#    y -0.057250 2.106130 -0.023400 
#    z 0.128210 -0.023400 2.276960 
# 
# From -- ./inp_files/280291.got.cif
#   From: 2010.05.17/outbox.cif.g08.bks.cpg/sg2_141_cif.got.tgz:280291.got - 2010.06.03 11:33:40.
