data_PCOD9092970
_publ_section_title
;
Structure prediction by ZEFSAII (Michael W. Deem and Ramdas Pophale) SiO2 
 PCOD9092970
Probable space group: P -1
;
_chemical_formula_sum "Si O2"
_cell_formula_units_Z 16
_cell_length_a 15.384791
_cell_length_b 8.854630
_cell_length_c 10.424240
_cell_angle_alpha 105.706451
_cell_angle_beta 43.993120
_cell_angle_gamma 72.364217
_cell_volume 634.039502
_symmetry_space_group_name_H-M "P -1"
_symmetry_group_IT_number 2
_symmetry_cell_setting 'triclinic'
loop_
_space_group_symop_operation_xyz
x,y,z
-x,-y,-z
loop_
_atom_site_type_symbol
_atom_site_label
_atom_site_fract_x
_atom_site_fract_y
_atom_site_fract_z
Si Si1 0.993611 0.078930 0.378985
Si Si2 0.386570 0.664823 0.281452
Si Si3 0.603447 0.016934 0.015115
Si Si4 0.660954 0.440810 0.142891
Si Si5 0.156533 0.481633 0.233085
Si Si6 0.296161 0.084408 0.589347
Si Si7 0.805773 0.726865 0.514232
Si Si8 0.422521 0.883776 0.666610
O O1 0.819841 0.197273 0.500163
O O2 0.953403 0.297933 0.505138
O O3 0.000000 0.000000 0.500000
O O4 0.164553 0.829764 0.072892
O O5 0.506224 0.492384 0.235276
O O6 0.371312 0.861907 0.382300
O O7 0.500000 0.500000 0.000000
O O8 0.698462 0.760676 0.897717
O O9 0.707505 0.958253 0.758070
O O10 0.378557 0.214149 0.280251
O O11 0.648461 0.073806 0.105563
O O12 0.557237 0.622728 0.411181
O O13 0.743618 0.502162 0.975884
O O14 0.001537 0.523897 0.331914
O O15 0.150297 0.282091 0.684014
O O16 0.449815 0.078430 0.443007
O O17 0.268012 0.055815 0.759063
#
# Coordination Sequence:
#
# PCOD9092970 Si02
#       8
#     2   2   2   2   2   2   2   2
#     4  10  20  29  47  79 109 140 174 221 274 314
#     4  11  18  29  50  79 111 137 168 224 275 309
#     4  10  21  38  54  79 112 144 183 220 272 324
#     4  10  20  33  50  80 112 140 176 220 269 327
#     4  11  20  32  54  80 112 140 177 232 275 311
#     4   9  17  31  52  82 105 133 178 216 268 312
#     4  10  21  34  56  82 108 141 185 226 268 316
#     4   9  18  34  56  77 115 148 169 219 276 325
#
# _framework density 25.235021
#
# number of rings (size 3 to 8) (size 9 to 14) (size 15 to 20)
#    0.000    2.000    2.500    5.625    0.000    0.000 
#    0.000   13.750    0.000    0.750    0.000   11.375 
#    0.000    0.000    0.000    0.000    0.000    0.000 
#
# Total GULP energy -89230.652101 kJ/mol
# GULP energy per Si atom -5576.915756 kJ/mol
# Density = 2.517759 g / cm^3
# Si number density = 25.235021 Si / 1000 Ang^3
#
#
#
# Elastic Constant Matrix: (Units=GPa)
#
#
# Indices 1 2 3 4 5 6 
#
# 1 175.6765 51.8697 56.3600 10.6430 9.1773 -36.2183
# 2 51.8697 95.9478 19.2536 12.9672 -3.3618 -12.8912
# 3 56.3600 19.2536 104.7028 20.4251 22.4455 -13.3665
# 4 10.6430 12.9672 20.4251 34.9750 -10.5123 3.2993
# 5 9.1773 -3.3618 22.4455 -10.5123 69.9863 1.7960
# 6 -36.2183 -12.8912 -13.3665 3.2993 1.7960 43.0958
#
#
#
# Elastic Compliance Matrix: (Units=1/GPa)
#
#
# Indices 1 2 3 4 5 6 
#
# 1 0.008941 -0.003419 -0.003372 -0.000124 -0.000414 0.005472
# 2 -0.003419 0.012940 0.000350 -0.003997 0.000321 0.001398
# 3 -0.003372 0.000350 0.014829 -0.009789 -0.005841 0.002863
# 4 -0.000124 -0.003997 -0.009789 0.039280 0.009062 -0.007721
# 5 -0.000414 0.000321 -0.005841 0.009062 0.017682 -0.003494
# 6 0.005472 0.001398 0.002863 -0.007721 -0.003494 0.029846
#
#
# Mechanical properties :
#
#
# Convention : Reuss Voigt Hill
#
# Bulk Modulus (GPa) = 41.96894 70.14376 56.05635
# Shear Modulus (GPa) = 34.63952 46.20100 40.42026
#
# Velocity S-wave (km/s) = 3.70898 4.28346 4.00653
# Velocity P-wave (km/s) = 5.91688 7.23330 6.60795
#
# Compressibility (1/GPa) = 0.02382714
#
# Stress axis : x y z
#
# Youngs Moduli (GPa) = 111.84219 77.28065 67.43575
#
# Poissons Ratio (x) = 0.26425 0.22743
# Poissons Ratio (y) = 0.38243 -0.02363
# Poissons Ratio (z) = 0.37719 -0.02708
#
# Static dielectric constant tensor:
#      x y z
#    x 2.016730 0.011200 -0.002260 
#    y 0.011200 2.122140 -0.025510 
#    z -0.002260 -0.025510 2.043930 
# 
# From -- ./inp_files/451631.got.cif
#   From: 2010.05.17/outbox.cif.g08.bks.cpg/sg2_226_cif.got.tgz:451631.got - 2010.06.03 11:33:40.
