data_PCOD9092678
_publ_section_title
;
Structure prediction by ZEFSAII (Michael W. Deem and Ramdas Pophale) SiO2 
 PCOD9092678
Probable space group: P -1
;
_chemical_formula_sum "Si O2"
_cell_formula_units_Z 16
_cell_length_a 18.347576
_cell_length_b 16.296440
_cell_length_c 8.989609
_cell_angle_alpha 56.184872
_cell_angle_beta 35.907486
_cell_angle_gamma 28.786745
_cell_volume 637.452865
_symmetry_space_group_name_H-M "P -1"
_symmetry_group_IT_number 2
_symmetry_cell_setting 'triclinic'
loop_
_space_group_symop_operation_xyz
x,y,z
-x,-y,-z
loop_
_atom_site_type_symbol
_atom_site_label
_atom_site_fract_x
_atom_site_fract_y
_atom_site_fract_z
Si Si1 0.709763 0.470460 0.809423
Si Si2 0.399552 0.415388 0.680426
Si Si3 0.575031 0.186247 0.917923
Si Si4 0.133629 0.416373 0.023339
Si Si5 0.609514 0.941629 0.124835
Si Si6 0.150716 0.212959 0.786266
Si Si7 0.833722 0.202383 0.003310
Si Si8 0.158786 0.774218 0.369521
O O1 0.642607 0.629240 0.791334
O O2 0.889656 0.281207 0.812695
O O3 0.422415 0.625161 0.155873
O O4 0.802976 0.368255 0.597230
O O5 0.516989 0.293948 0.761912
O O6 0.356031 0.345386 0.725260
O O7 0.579375 0.366042 0.352309
O O8 0.116014 0.657644 0.917945
O O9 0.548157 0.091142 0.012082
O O10 0.870655 0.991437 0.680883
O O11 0.233236 0.237309 0.065485
O O12 0.000000 0.500000 0.000000
O O13 0.940913 0.608508 0.255623
O O14 0.365614 0.048516 0.475732
O O15 0.743695 0.870599 0.135960
O O16 0.820481 0.187313 0.864891
O O17 0.000000 0.000000 0.000000
#
# Coordination Sequence:
#
# PCOD9092678 Si02
#       8
#     2   2   2   2   2   2   2   2
#     4   9  22  40  59  86 123 155 199 244 297 352
#     4  10  21  39  59  87 123 156 195 245 305 344
#     4  12  23  37  59  92 122 155 197 242 307 352
#     4   8  18  39  60  83 114 153 203 243 287 350
#     4  10  20  38  61  82 119 152 202 249 282 357
#     4   8  20  40  54  86 111 149 206 241 286 349
#     4  10  19  42  63  86 123 153 200 253 287 355
#     4   9  21  42  58  85 122 150 205 242 290 362
#
# _framework density 25.099896000000001
#
# number of rings (size 3 to 8) (size 9 to 14) (size 15 to 20)
#    1.500    1.000    1.250    0.375    1.750    2.500 
#   11.250    0.000    0.000    0.000    0.000    0.000 
#    0.000    0.000    0.000    0.000    0.000    0.000 
#
# Total GULP energy -89089.728923 kJ/mol
# GULP energy per Si atom -5568.108058 kJ/mol
# Density = 2.504277 g / cm^3
# Si number density = 25.099896 Si / 1000 Ang^3
#
#
#
# Elastic Constant Matrix: (Units=GPa)
#
#
# Indices 1 2 3 4 5 6 
#
# 1 53.1751 3.0524 -15.0652 6.8550 4.2496 7.1390
# 2 3.0524 106.8655 3.5738 8.9249 13.7120 8.3141
# 3 -15.0652 3.5738 56.0598 9.9074 4.2204 -13.3566
# 4 6.8550 8.9249 9.9074 33.4596 2.4977 -0.2084
# 5 4.2496 13.7120 4.2204 2.4977 19.0703 6.2901
# 6 7.1390 8.3141 -13.3566 -0.2084 6.2901 31.7489
#
#
#
# Elastic Compliance Matrix: (Units=1/GPa)
#
#
# Indices 1 2 3 4 5 6 
#
# 1 0.022261 0.000470 0.007291 -0.006421 -0.005753 -0.000964
# 2 0.000470 0.010545 0.000042 -0.002417 -0.006884 -0.001501
# 3 0.007291 0.000042 0.024399 -0.007959 -0.009454 0.010435
# 4 -0.006421 -0.002417 -0.007959 0.034132 0.000861 -0.001218
# 5 -0.005753 -0.006884 -0.009454 0.000861 0.065198 -0.013792
# 6 -0.000964 -0.001501 0.010435 -0.001218 -0.013792 0.039222
#
#
# Mechanical properties :
#
#
# Convention : Reuss Voigt Hill
#
# Bulk Modulus (GPa) = 13.73442 22.13581 17.93511
# Shear Modulus (GPa) = 24.45922 31.82506 28.14214
#
# Velocity S-wave (km/s) = 3.12504 3.56467 3.35207
# Velocity P-wave (km/s) = 4.30174 5.07747 4.70562
#
# Compressibility (1/GPa) = 0.07280979
#
# Stress axis : x y z
#
# Youngs Moduli (GPa) = 44.92082 94.83447 40.98494
#
# Poissons Ratio (x) = -0.04455 -0.29881
# Poissons Ratio (y) = -0.02110 -0.00171
# Poissons Ratio (z) = -0.32751 -0.00395
#
# Static dielectric constant tensor:
#      x y z
#    x 2.085600 0.050640 -0.061210 
#    y 0.050640 2.092160 0.060360 
#    z -0.061210 0.060360 1.983330 
# 
# From -- ./inp_files/475530.got.cif
#   From: 2010.05.17/outbox.cif.g08.bks.cpg/sg2_238_cif.got.tgz:475530.got - 2010.06.03 11:33:40.
