data_PCOD9092917
_publ_section_title
;
Structure prediction by ZEFSAII (Michael W. Deem and Ramdas Pophale) SiO2 
 PCOD9092917
Probable space group: P -1
;
_chemical_formula_sum "Si O2"
_cell_formula_units_Z 16
_cell_length_a 22.164715
_cell_length_b 9.290412
_cell_length_c 15.249988
_cell_angle_alpha 104.781225
_cell_angle_beta 163.595190
_cell_angle_gamma 68.138135
_cell_volume 758.110450
_symmetry_space_group_name_H-M "P -1"
_symmetry_group_IT_number 2
_symmetry_cell_setting 'triclinic'
loop_
_space_group_symop_operation_xyz
x,y,z
-x,-y,-z
loop_
_atom_site_type_symbol
_atom_site_label
_atom_site_fract_x
_atom_site_fract_y
_atom_site_fract_z
Si Si1 0.728142 0.823740 0.761703
Si Si2 0.620915 0.892988 0.936528
Si Si3 0.248209 0.507178 0.175179
Si Si4 0.878873 0.536034 0.203234
Si Si5 0.114444 0.125429 0.201037
Si Si6 0.066054 0.088615 0.783516
Si Si7 0.922470 0.219871 0.319477
Si Si8 0.704501 0.358635 0.205368
O O1 0.710748 0.653911 0.733180
O O2 0.784654 0.839198 0.743077
O O3 0.500000 0.000000 0.500000
O O4 0.932982 0.826552 0.110975
O O5 0.342973 0.031957 0.571551
O O6 0.647372 0.705183 0.939864
O O7 0.731950 0.909405 0.000296
O O8 0.820311 0.879346 0.284754
O O9 0.500000 0.500000 0.500000
O O10 0.137782 0.487455 0.926499
O O11 0.079267 0.691697 0.006852
O O12 0.912765 0.377376 0.280391
O O13 0.104079 0.572173 0.535892
O O14 0.000000 0.000000 0.000000
O O15 0.821576 0.200826 0.408567
O O16 0.106299 0.900599 0.810314
O O17 0.704390 0.282714 0.097247
O O18 0.500000 0.500000 0.000000
#
# Coordination Sequence:
#
# PCOD9092917 Si02
#       8
#     2   2   2   2   2   2   2   2
#     4  12  23  48  70  96 134 175 225 279 339 394
#     4  10  19  44  65  95 134 169 217 271 328 397
#     4  12  26  46  69  98 133 177 227 277 340 400
#     4  10  21  42  65  93 133 173 217 268 328 394
#     4  12  27  44  70 101 134 176 225 283 337 402
#     4  10  21  41  66  93 132 168 218 268 329 400
#     4  10  22  39  69  97 126 183 213 263 341 390
#     4  10  20  41  62  93 134 166 217 269 323 394
#
# _framework density 21.105103
#
# number of rings (size 3 to 8) (size 9 to 14) (size 15 to 20)
#    0.000    1.500    3.750    4.875    3.500    2.000 
#    6.750    1.250    0.000    0.000    0.000    0.000 
#    0.000    0.000    0.000    0.000    0.000    0.000 
#
# Total GULP energy -89274.921986 kJ/mol
# GULP energy per Si atom -5579.682624 kJ/mol
# Density = 2.105707 g / cm^3
# Si number density = 21.105103 Si / 1000 Ang^3
#
#
#
# Elastic Constant Matrix: (Units=GPa)
#
#
# Indices 1 2 3 4 5 6 
#
# 1 62.5653 32.7957 25.5345 -14.2082 -2.5473 18.3587
# 2 32.7957 155.9131 46.8843 -28.3137 7.0177 11.6690
# 3 25.5345 46.8843 68.6840 -33.6482 16.3852 10.4105
# 4 -14.2082 -28.3137 -33.6482 34.6884 -10.1366 -1.4749
# 5 -2.5473 7.0177 16.3852 -10.1366 24.3978 -12.3267
# 6 18.3587 11.6690 10.4105 -1.4749 -12.3267 27.7650
#
#
#
# Elastic Compliance Matrix: (Units=1/GPa)
#
#
# Indices 1 2 3 4 5 6 
#
# 1 0.023167 -0.002210 -0.003312 0.004104 0.000582 -0.012672
# 2 -0.002210 0.008483 -0.004039 0.002405 0.001042 0.000001
# 3 -0.003312 -0.004039 0.041537 0.026711 -0.027291 -0.022384
# 4 0.004104 0.002405 0.026711 0.058163 0.000751 -0.010317
# 5 0.000582 0.001042 -0.027291 0.000751 0.082717 0.046174
# 6 -0.012672 0.000001 -0.022384 -0.010317 0.046174 0.072740
#
#
# Mechanical properties :
#
#
# Convention : Reuss Voigt Hill
#
# Bulk Modulus (GPa) = 18.49617 55.28794 36.89206
# Shear Modulus (GPa) = 15.43444 29.50011 22.46727
#
# Velocity S-wave (km/s) = 2.70721 3.74273 3.26627
# Velocity P-wave (km/s) = 4.30754 6.70304 5.63408
#
# Compressibility (1/GPa) = 0.05406525
#
# Stress axis : x y z
#
# Youngs Moduli (GPa) = 43.16420 117.88024 24.07492
#
# Poissons Ratio (x) = 0.26048 0.07974
# Poissons Ratio (y) = 0.09538 0.09725
# Poissons Ratio (z) = 0.14296 0.47618
#
# Static dielectric constant tensor:
#      x y z
#    x 1.771950 -0.048600 -0.036440 
#    y -0.048600 1.800610 -0.022370 
#    z -0.036440 -0.022370 1.829620 
# 
# From -- ./inp_files/540529.got.cif
#   From: 2010.05.17/outbox.cif.g08.bks.cpg/sg2_271_cif.got.tgz:540529.got - 2010.06.03 11:33:40.
