data_PCOD9092768
_publ_section_title
;
Structure prediction by ZEFSAII (Michael W. Deem and Ramdas Pophale) SiO2 
 PCOD9092768
Probable space group: P -1
;
_chemical_formula_sum "Si O2"
_cell_formula_units_Z 16
_cell_length_a 11.898585
_cell_length_b 8.863426
_cell_length_c 14.346126
_cell_angle_alpha 57.853958
_cell_angle_beta 76.016268
_cell_angle_gamma 39.514048
_cell_volume 774.013454
_symmetry_space_group_name_H-M "P -1"
_symmetry_group_IT_number 2
_symmetry_cell_setting 'triclinic'
loop_
_space_group_symop_operation_xyz
x,y,z
-x,-y,-z
loop_
_atom_site_type_symbol
_atom_site_label
_atom_site_fract_x
_atom_site_fract_y
_atom_site_fract_z
Si Si1 0.624437 0.654967 0.180456
Si Si2 0.104278 0.169576 0.867080
Si Si3 0.154478 0.469142 0.480680
Si Si4 0.003682 0.640859 0.838428
Si Si5 0.963221 0.059745 0.379331
Si Si6 0.401560 0.048776 0.741990
Si Si7 0.262368 0.495583 0.266197
Si Si8 0.727383 0.117438 0.885214
O O1 0.746886 0.349303 0.302625
O O2 0.563645 0.856240 0.211171
O O3 0.459563 0.771972 0.116491
O O4 0.778286 0.577132 0.115313
O O5 0.264012 0.062831 0.805738
O O6 0.001062 0.458939 0.844693
O O7 0.948219 0.257425 0.811334
O O8 0.199583 0.944544 0.004430
O O9 0.286593 0.280783 0.605109
O O10 0.266799 0.356591 0.398943
O O11 0.000000 0.500000 0.500000
O O12 0.046127 0.785895 0.406429
O O13 0.948671 0.864201 0.703483
O O14 0.878524 0.823406 0.892803
O O15 0.000000 0.000000 0.500000
O O16 0.589428 0.745157 0.761169
O O17 0.303321 0.652264 0.229739
#
# Coordination Sequence:
#
# PCOD9092768 Si02
#       8
#     2   2   2   2   2   2   2   2
#     4   9  22  40  65  93 128 165 216 267 314 374
#     4  11  24  44  67  91 132 176 213 268 318 375
#     4  12  23  43  71  91 134 171 207 268 328 385
#     4   9  21  41  66  92 127 161 224 267 317 370
#     4  10  19  42  68  92 126 167 210 266 323 369
#     4  11  24  44  64  98 128 170 218 261 323 385
#     4  12  26  42  63  98 134 168 219 257 325 392
#     4  12  24  41  66  97 129 173 218 265 318 382
#
# _framework density 20.671475000000001
#
# number of rings (size 3 to 8) (size 9 to 14) (size 15 to 20)
#    0.750    0.500    3.750    1.875    1.750    4.500 
#    0.000    1.250    0.000    0.000    0.000    0.000 
#    0.000    0.000    0.000    0.000    0.000    0.000 
#
# Total GULP energy -89359.000162 kJ/mol
# GULP energy per Si atom -5584.937510 kJ/mol
# Density = 2.062443 g / cm^3
# Si number density = 20.671475 Si / 1000 Ang^3
#
#
#
# Elastic Constant Matrix: (Units=GPa)
#
#
# Indices 1 2 3 4 5 6 
#
# 1 57.8897 -4.7174 -1.8480 -7.4865 3.6378 -3.5883
# 2 -4.7174 81.7975 0.4922 7.6772 -5.1592 -16.3136
# 3 -1.8480 0.4922 77.3510 7.3512 -5.2072 -11.1320
# 4 -7.4865 7.6772 7.3512 25.3036 1.8766 -5.9656
# 5 3.6378 -5.1592 -5.2072 1.8766 28.1708 -3.4228
# 6 -3.5883 -16.3136 -11.1320 -5.9656 -3.4228 14.1881
#
#
#
# Elastic Compliance Matrix: (Units=1/GPa)
#
#
# Indices 1 2 3 4 5 6 
#
# 1 0.019297 0.002787 0.001441 0.007360 -0.000731 0.012134
# 2 0.002787 0.018089 0.004242 -0.000180 0.006961 0.026435
# 3 0.001441 0.004242 0.016180 -0.001594 0.005960 0.018704
# 4 0.007360 -0.000180 -0.001594 0.047005 -0.002018 0.019682
# 5 -0.000731 0.006961 0.005960 -0.002018 0.040711 0.021468
# 6 0.012134 0.026435 0.018704 0.019682 0.021468 0.132076
#
#
# Mechanical properties :
#
#
# Convention : Reuss Voigt Hill
#
# Bulk Modulus (GPa) = 14.18328 22.76574 18.47451
# Shear Modulus (GPa) = 17.86221 28.40659 23.13440
#
# Velocity S-wave (km/s) = 2.94275 3.71103 3.34899
# Velocity P-wave (km/s) = 4.29215 5.42212 4.88988
#
# Compressibility (1/GPa) = 0.07050553
#
# Stress axis : x y z
#
# Youngs Moduli (GPa) = 51.82071 55.28343 61.80470
#
# Poissons Ratio (x) = -0.15409 -0.08905
# Poissons Ratio (y) = -0.14444 -0.26215
# Poissons Ratio (z) = -0.07467 -0.23449
#
# Static dielectric constant tensor:
#      x y z
#    x 1.704740 -0.002980 -0.017970 
#    y -0.002980 1.740040 0.002590 
#    z -0.017970 0.002590 1.765400 
# 
# From -- ./inp_files/515204.got.cif
#   From: 2010.05.17/outbox.cif.g08.bks.cpg/sg2_258_cif.got.tgz:515204.got - 2010.06.03 11:33:40.
