data_PCOD9092534
_publ_section_title
;
Structure prediction by ZEFSAII (Michael W. Deem and Ramdas Pophale) SiO2 
 PCOD9092534
Probable space group: P -1
;
_chemical_formula_sum "Si O2"
_cell_formula_units_Z 16
_cell_length_a 14.229061
_cell_length_b 21.639867
_cell_length_c 5.363127
_cell_angle_alpha 91.997918
_cell_angle_beta 89.699148
_cell_angle_gamma 21.967765
_cell_volume 614.256003
_symmetry_space_group_name_H-M "P -1"
_symmetry_group_IT_number 2
_symmetry_cell_setting 'triclinic'
loop_
_space_group_symop_operation_xyz
x,y,z
-x,-y,-z
loop_
_atom_site_type_symbol
_atom_site_label
_atom_site_fract_x
_atom_site_fract_y
_atom_site_fract_z
Si Si1 0.054206 0.041467 0.099975
Si Si2 0.421700 0.719722 0.121894
Si Si3 0.270971 0.134535 0.329765
Si Si4 0.580329 0.414601 0.738682
Si Si5 0.078221 0.135302 0.472807
Si Si6 0.350623 0.183134 0.964507
Si Si7 0.117310 0.486121 0.156855
Si Si8 0.459577 0.830259 0.698572
O O1 0.023721 0.126887 0.233920
O O2 0.233496 0.888658 0.255148
O O3 0.774374 0.187762 0.070415
O O4 0.222605 0.938479 0.830452
O O5 0.487814 0.616934 0.258518
O O6 0.672644 0.600790 0.003618
O O7 0.057591 0.221298 0.457551
O O8 0.500000 0.000000 0.500000
O O9 0.398556 0.009365 0.112039
O O10 0.210281 0.233412 0.200000
O O11 0.500000 0.500000 0.500000
O O12 0.882575 0.233770 0.696384
O O13 0.500000 0.500000 0.000000
O O14 0.357621 0.942609 0.523458
O O15 0.137868 0.318469 0.774493
O O16 0.452485 0.185214 0.062064
O O17 0.281613 0.364897 0.379552
O O18 0.000000 0.500000 0.000000
#
# Coordination Sequence:
#
# PCOD9092534 Si02
#       8
#     2   2   2   2   2   2   2   2
#     4  10  21  43  72 102 137 184 245 311 366 439
#     4  10  22  45  72 104 143 191 248 302 381 442
#     4  11  23  38  64 100 132 192 240 287 348 443
#     4  12  29  49  72 108 153 199 246 308 381 452
#     4  12  24  42  72  99 143 184 250 308 370 436
#     4  10  21  40  65  94 145 184 238 289 362 426
#     4   9  21  41  70  99 139 184 228 305 366 437
#     4  10  19  41  67  99 132 181 237 297 363 429
#
# _framework density 26.047772999999999
#
# number of rings (size 3 to 8) (size 9 to 14) (size 15 to 20)
#    0.000    1.500    3.750    0.750    1.750    1.500 
#    4.500    3.125    0.000    0.000    0.000    0.000 
#    0.000    0.000    0.000    0.000    0.000    0.000 
#
# Total GULP energy -89269.499982 kJ/mol
# GULP energy per Si atom -5579.343749 kJ/mol
# Density = 2.598849 g / cm^3
# Si number density = 26.047773 Si / 1000 Ang^3
#
#
#
# Elastic Constant Matrix: (Units=GPa)
#
#
# Indices 1 2 3 4 5 6 
#
# 1 135.2091 17.6789 17.1152 6.9426 -33.9582 -23.6500
# 2 17.6789 127.5802 24.9270 -21.2231 -16.9246 -15.7005
# 3 17.1152 24.9270 72.1158 -8.5381 -8.4959 2.0467
# 4 6.9426 -21.2231 -8.5381 35.3315 6.2800 -11.5566
# 5 -33.9582 -16.9246 -8.4959 6.2800 35.3710 -3.6475
# 6 -23.6500 -15.7005 2.0467 -11.5566 -3.6475 40.9603
#
#
#
# Elastic Compliance Matrix: (Units=1/GPa)
#
#
# Indices 1 2 3 4 5 6 
#
# 1 0.012372 0.001181 -0.002260 -0.001864 0.013092 0.008349
# 2 0.001181 0.011070 -0.002843 0.007281 0.005238 0.007588
# 3 -0.002260 -0.002843 0.015620 0.001681 -0.000358 -0.002733
# 4 -0.001864 0.007281 0.001681 0.037996 -0.003405 0.012048
# 5 0.013092 0.005238 -0.000358 -0.003405 0.045170 0.012646
# 6 0.008349 0.007588 -0.002733 0.012048 0.012646 0.036805
#
#
# Mechanical properties :
#
#
# Convention : Reuss Voigt Hill
#
# Bulk Modulus (GPa) = 32.03195 50.48303 41.25749
# Shear Modulus (GPa) = 28.20388 40.67816 34.44102
#
# Velocity S-wave (km/s) = 3.29412 3.95609 3.64019
# Velocity P-wave (km/s) = 5.17614 6.34748 5.79150
#
# Compressibility (1/GPa) = 0.03121883
#
# Stress axis : x y z
#
# Youngs Moduli (GPa) = 80.83007 90.33498 64.02088
#
# Poissons Ratio (x) = -0.10672 0.14467
# Poissons Ratio (y) = -0.09549 0.18201
# Poissons Ratio (z) = 0.18266 0.25682
#
# Static dielectric constant tensor:
#      x y z
#    x 2.163040 0.112290 -0.060300 
#    y 0.112290 2.248500 -0.024300 
#    z -0.060300 -0.024300 2.135730 
# 
# From -- ./inp_files/101057.got.cif
#   From: 2010.05.17/outbox.cif.g08.bks.cpg/sg2_51_cif.got.tgz:101057.got - 2010.06.03 11:33:40.
