data_PCOD9092715
_publ_section_title
;
Structure prediction by ZEFSAII (Michael W. Deem and Ramdas Pophale) SiO2 
 PCOD9092715
Probable space group: P -1
;
_chemical_formula_sum "Si O2"
_cell_formula_units_Z 16
_cell_length_a 9.033128
_cell_length_b 15.577702
_cell_length_c 11.921317
_cell_angle_alpha 118.784970
_cell_angle_beta 141.706688
_cell_angle_gamma 45.162689
_cell_volume 727.219291
_symmetry_space_group_name_H-M "P -1"
_symmetry_group_IT_number 2
_symmetry_cell_setting 'triclinic'
loop_
_space_group_symop_operation_xyz
x,y,z
-x,-y,-z
loop_
_atom_site_type_symbol
_atom_site_label
_atom_site_fract_x
_atom_site_fract_y
_atom_site_fract_z
Si Si1 0.847702 0.679971 0.704760
Si Si2 0.623656 0.130610 0.640638
Si Si3 0.927735 0.251473 0.923806
Si Si4 0.224095 0.530741 0.426327
Si Si5 0.720581 0.493306 0.311265
Si Si6 0.714101 0.801349 0.281541
Si Si7 0.446754 0.125076 0.007020
Si Si8 0.022791 0.922922 0.574003
O O1 0.608900 0.764773 0.520454
O O2 0.784919 0.585645 0.652393
O O3 0.169668 0.598417 0.783547
O O4 0.868273 0.755385 0.860767
O O5 0.874420 0.149143 0.830742
O O6 0.456000 0.151182 0.670624
O O7 0.784736 0.008951 0.584747
O O8 0.597590 0.378582 0.815712
O O9 0.101144 0.232601 0.900333
O O10 0.500000 0.500000 0.500000
O O11 0.288603 0.555300 0.605309
O O12 0.897929 0.655282 0.284083
O O13 0.000000 0.500000 0.500000
O O14 0.505570 0.870022 0.092950
O O15 0.953044 0.830638 0.437552
O O16 0.660491 0.139007 0.217927
O O17 0.500000 0.000000 0.000000
O O18 0.000000 0.000000 0.500000
#
# Coordination Sequence:
#
# PCOD9092715 Si02
#       8
#     2   2   2   2   2   2   2   2
#     4  11  24  43  73 104 138 186 225 276 363 410
#     4  12  24  46  73 106 141 182 232 294 344 413
#     4  12  23  42  75  99 139 184 230 281 346 419
#     4  11  23  42  68 101 143 181 229 286 339 416
#     4  10  19  42  65  96 137 176 221 275 344 409
#     4  12  27  46  70 103 142 181 237 294 344 409
#     4  12  26  47  68 101 135 185 237 285 344 413
#     4  12  26  47  76  98 140 189 237 284 353 416
#
# _framework density 22.001615999999999
#
# number of rings (size 3 to 8) (size 9 to 14) (size 15 to 20)
#    0.000    0.500    6.250    3.000    3.500    1.500 
#    2.250    1.250    0.000    0.000    0.000    0.000 
#    0.000    0.000    0.000    0.000    0.000    0.000 
#
# Total GULP energy -89412.215270 kJ/mol
# GULP energy per Si atom -5588.263454 kJ/mol
# Density = 2.195154 g / cm^3
# Si number density = 22.001616 Si / 1000 Ang^3
#
#
#
# Elastic Constant Matrix: (Units=GPa)
#
#
# Indices 1 2 3 4 5 6 
#
# 1 139.0056 19.5194 41.4327 -11.1061 -10.9095 -8.8820
# 2 19.5194 50.8331 29.9335 -0.1656 -2.7936 -6.9164
# 3 41.4327 29.9335 118.1150 7.2532 -10.6385 12.2994
# 4 -11.1061 -0.1656 7.2532 27.7545 -4.8656 4.9010
# 5 -10.9095 -2.7936 -10.6385 -4.8656 37.5512 -5.1278
# 6 -8.8820 -6.9164 12.2994 4.9010 -5.1278 37.1476
#
#
#
# Elastic Compliance Matrix: (Units=1/GPa)
#
#
# Indices 1 2 3 4 5 6 
#
# 1 0.009040 -0.001021 -0.003244 0.004415 0.002589 0.002821
# 2 -0.001021 0.024890 -0.006606 0.000411 0.000640 0.006611
# 3 -0.003244 -0.006606 0.012129 -0.003400 0.000816 -0.005460
# 4 0.004415 0.000411 -0.003400 0.040009 0.005220 -0.002300
# 5 0.002589 0.000640 0.000816 0.005220 0.028851 0.003762
# 6 0.002821 0.006611 -0.005460 -0.002300 0.003762 0.031456
#
#
# Mechanical properties :
#
#
# Convention : Reuss Voigt Hill
#
# Bulk Modulus (GPa) = 41.12113 54.41389 47.76751
# Shear Modulus (GPa) = 28.37306 34.96186 31.66746
#
# Velocity S-wave (km/s) = 3.59498 3.99062 3.79796
# Velocity P-wave (km/s) = 5.99687 6.78372 6.40240
#
# Compressibility (1/GPa) = 0.02431840
#
# Stress axis : x y z
#
# Youngs Moduli (GPa) = 110.61471 40.17656 82.44467
#
# Poissons Ratio (x) = 0.04101 0.26747
# Poissons Ratio (y) = 0.11290 0.54462
# Poissons Ratio (z) = 0.35886 0.26540
#
# Static dielectric constant tensor:
#      x y z
#    x 1.834900 -0.036830 -0.001930 
#    y -0.036830 1.864160 -0.032720 
#    z -0.001930 -0.032720 1.794180 
# 
# From -- ./inp_files/274248.got.cif
#   From: 2010.05.17/outbox.cif.g08.bks.cpg/sg2_138_cif.got.tgz:274248.got - 2010.06.03 11:33:40.
