data_PCOD9092968
_publ_section_title
;
Structure prediction by ZEFSAII (Michael W. Deem and Ramdas Pophale) SiO2 
 PCOD9092968
Probable space group: P -1
;
_chemical_formula_sum "Si O2"
_cell_formula_units_Z 14
_cell_length_a 12.203405
_cell_length_b 23.925280
_cell_length_c 5.487854
_cell_angle_alpha 73.907584
_cell_angle_beta 98.425867
_cell_angle_gamma 41.497532
_cell_volume 847.664891
_symmetry_space_group_name_H-M "P -1"
_symmetry_group_IT_number 2
_symmetry_cell_setting 'triclinic'
loop_
_space_group_symop_operation_xyz
x,y,z
-x,-y,-z
loop_
_atom_site_type_symbol
_atom_site_label
_atom_site_fract_x
_atom_site_fract_y
_atom_site_fract_z
Si Si1 0.368792 0.093275 0.650633
Si Si2 0.227128 0.875548 0.241449
Si Si3 0.061595 0.703615 0.619197
Si Si4 0.230391 0.921436 0.687312
Si Si5 0.882261 0.207315 0.731975
Si Si6 0.268970 0.615626 0.299451
Si Si7 0.721351 0.977876 0.611953
O O1 0.516030 0.071717 0.581316
O O2 0.173347 0.206379 0.567739
O O3 0.287718 0.080831 0.447613
O O4 0.500000 0.000000 0.000000
O O5 0.320046 0.860853 0.534100
O O6 0.216876 0.810613 0.333527
O O7 0.319040 0.856016 0.040031
O O8 0.000000 0.000000 0.000000
O O9 0.085972 0.763241 0.520109
O O10 0.169420 0.633570 0.493774
O O11 0.160488 0.644521 0.979587
O O12 0.245707 0.984330 0.611940
O O13 0.000000 0.000000 0.500000
O O14 0.764158 0.300563 0.768681
O O15 0.095601 0.100711 0.048061
O O16 0.500000 0.500000 0.500000
#
# Coordination Sequence:
#
# PCOD9092968 Si02
#       7
#     2   2   2   2   2   2   2
#     4  11  21  31  49  72 106 149 180 200 244 311
#     4  10  20  29  47  71  97 138 166 204 254 299
#     4  10  21  33  52  71 105 135 170 212 254 307
#     4  10  21  30  47  67 101 137 174 204 246 288
#     4  10  20  31  53  71 106 139 167 210 257 307
#     4  10  21  35  53  73 101 135 172 221 267 307
#     4  11  21  33  46  73 108 149 174 206 244 309
#
# _framework density 16.51596
#
# number of rings (size 3 to 8) (size 9 to 14) (size 15 to 20)
#    0.857    0.857    5.714    0.429   10.000    0.000 
#    0.000    0.000    0.000    0.000    0.000    0.000 
#    0.000    6.857    0.000    0.000    0.000    0.000 
#
# Total GULP energy -77952.566018 kJ/mol
# GULP energy per Si atom -5568.040430 kJ/mol
# Density = 1.647837 g / cm^3
# Si number density = 16.515960 Si / 1000 Ang^3
#
#
#
# Elastic Constant Matrix: (Units=GPa)
#
#
# Indices 1 2 3 4 5 6 
#
# 1 61.9882 11.3932 -1.6380 -4.5053 -6.2633 -7.3637
# 2 11.3932 89.2678 37.4036 1.3117 1.5755 -23.9329
# 3 -1.6380 37.4036 68.9728 10.1057 -0.3479 -14.3664
# 4 -4.5053 1.3117 10.1057 33.4593 -6.5630 4.4719
# 5 -6.2633 1.5755 -0.3479 -6.5630 12.0276 4.0872
# 6 -7.3637 -23.9329 -14.3664 4.4719 4.0872 22.9095
#
#
#
# Elastic Compliance Matrix: (Units=1/GPa)
#
#
# Indices 1 2 3 4 5 6 
#
# 1 0.018391 -0.003176 0.001705 0.004402 0.012233 0.000621
# 2 -0.003176 0.019502 -0.006183 -0.004397 -0.013133 0.018676
# 3 0.001705 -0.006183 0.021175 -0.008372 -0.005660 0.010011
# 4 0.004402 -0.004397 -0.008372 0.042853 0.033763 -0.022816
# 5 0.012233 -0.013133 -0.005660 0.033763 0.123768 -0.042008
# 6 0.000621 0.018676 0.010011 -0.022816 -0.042008 0.081586
#
#
# Mechanical properties :
#
#
# Convention : Reuss Voigt Hill
#
# Bulk Modulus (GPa) = 22.85190 34.94961 28.90075
# Shear Modulus (GPa) = 14.82936 25.21728 20.02332
#
# Velocity S-wave (km/s) = 2.99972 3.91172 3.48568
# Velocity P-wave (km/s) = 5.08567 6.45052 5.80832
#
# Compressibility (1/GPa) = 0.04376003
#
# Stress axis : x y z
#
# Youngs Moduli (GPa) = 54.37550 51.27728 47.22460
#
# Poissons Ratio (x) = 0.16284 -0.08051
# Poissons Ratio (y) = 0.17268 0.29200
# Poissons Ratio (z) = -0.09271 0.31706
#
# Static dielectric constant tensor:
#      x y z
#    x 1.561380 -0.001540 -0.010700 
#    y -0.001540 1.608040 0.048230 
#    z -0.010700 0.048230 1.568030 
# 
# From -- ./inp_files/79380.got.cif
#   From: 2010.05.17/outbox.cif.g08.bks.cpg/sg2_40_cif.got.tgz:79380.got - 2010.06.03 11:33:40.
