data_PCOD9092076
_publ_section_title
;
Structure prediction by ZEFSAII (Michael W. Deem and Ramdas Pophale) SiO2 
 PCOD9092076
Probable space group: P -1
;
_chemical_formula_sum "Si O2"
_cell_formula_units_Z 14
_cell_length_a 15.692544
_cell_length_b 11.786801
_cell_length_c 8.298613
_cell_angle_alpha 43.304383
_cell_angle_beta 34.820895
_cell_angle_gamma 52.735629
_cell_volume 601.025306
_symmetry_space_group_name_H-M "P -1"
_symmetry_group_IT_number 2
_symmetry_cell_setting 'triclinic'
loop_
_space_group_symop_operation_xyz
x,y,z
-x,-y,-z
loop_
_atom_site_type_symbol
_atom_site_label
_atom_site_fract_x
_atom_site_fract_y
_atom_site_fract_z
Si Si1 0.790588 0.114545 0.067575
Si Si2 0.503067 0.965071 0.838734
Si Si3 0.604873 0.616675 0.111840
Si Si4 0.227867 0.141878 0.153110
Si Si5 0.931181 0.644946 0.059251
Si Si6 0.670320 0.468489 0.824952
Si Si7 0.045093 0.867493 0.888544
O O1 0.913281 0.168711 0.954873
O O2 0.644331 0.040627 0.454206
O O3 0.732662 0.280062 0.897732
O O4 0.885142 0.959153 0.010570
O O5 0.510297 0.767694 0.018863
O O6 0.500000 0.000000 0.000000
O O7 0.355510 0.066946 0.914414
O O8 0.500000 0.500000 0.500000
O O9 0.712418 0.714694 0.968030
O O10 0.677018 0.513479 0.959249
O O11 0.167248 0.992444 0.506370
O O12 0.097471 0.210716 0.173361
O O13 0.778107 0.587979 0.436496
O O14 0.000000 0.500000 0.000000
O O15 0.043925 0.701309 0.962223
O O16 0.500000 0.500000 0.000000
#
# Coordination Sequence:
#
# PCOD9092076 Si02
#       7
#     2   2   2   2   2   2   2
#     4  11  23  44  71 101 138 186 239 283 354 425
#     4  10  19  40  65  99 128 174 236 278 334 414
#     4  11  23  40  72 105 138 179 229 300 353 410
#     4  11  24  45  71 100 138 189 242 280 351 424
#     4  12  28  46  67 107 148 186 233 296 359 412
#     4  12  27  46  69 105 144 182 238 303 358 406
#     4  11  25  44  72  99 141 188 238 285 352 432
#
# _framework density 23.293530000000001
#
# number of rings (size 3 to 8) (size 9 to 14) (size 15 to 20)
#    0.000    0.857    2.857    5.571    4.000    2.857 
#    0.000    2.857    0.000    0.000    0.000    0.000 
#    0.000    0.000    0.000    0.000    0.000    0.000 
#
# Total GULP energy -78278.189575 kJ/mol
# GULP energy per Si atom -5591.299255 kJ/mol
# Density = 2.324051 g / cm^3
# Si number density = 23.293530 Si / 1000 Ang^3
#
#
#
# Elastic Constant Matrix: (Units=GPa)
#
#
# Indices 1 2 3 4 5 6 
#
# 1 59.5108 5.1607 -8.0269 -5.2400 -3.9918 -0.3963
# 2 5.1607 79.7440 -13.9554 1.9926 -4.5666 -0.5064
# 3 -8.0269 -13.9554 81.5146 -1.7296 -12.7231 9.4506
# 4 -5.2400 1.9926 -1.7296 40.0149 -4.3142 2.9645
# 5 -3.9918 -4.5666 -12.7231 -4.3142 24.3422 -2.0265
# 6 -0.3963 -0.5064 9.4506 2.9645 -2.0265 46.3611
#
#
#
# Elastic Compliance Matrix: (Units=1/GPa)
#
#
# Indices 1 2 3 4 5 6 
#
# 1 0.017753 -0.000528 0.002481 0.002981 0.004608 -0.000349
# 2 -0.000528 0.013296 0.002851 -0.000174 0.003846 -0.000261
# 3 0.002481 0.002851 0.014721 0.001963 0.008760 -0.002691
# 4 0.002981 -0.000174 0.001963 0.026253 0.005986 -0.001794
# 5 0.004608 0.003846 0.008760 0.005986 0.048199 0.000020
# 6 -0.000349 -0.000261 -0.002691 -0.001794 0.000020 0.022228
#
#
# Mechanical properties :
#
#
# Convention : Reuss Voigt Hill
#
# Bulk Modulus (GPa) = 18.05721 20.79181 19.42451
# Shear Modulus (GPa) = 33.04660 37.98305 35.51483
#
# Velocity S-wave (km/s) = 3.77065 4.04248 3.90893
# Velocity P-wave (km/s) = 5.16972 5.54385 5.36005
#
# Compressibility (1/GPa) = 0.05537955
#
# Stress axis : x y z
#
# Youngs Moduli (GPa) = 56.32747 75.20983 67.92965
#
# Poissons Ratio (x) = 0.03968 -0.16853
# Poissons Ratio (y) = 0.02972 -0.19368
# Poissons Ratio (z) = -0.13974 -0.21444
#
# Static dielectric constant tensor:
#      x y z
#    x 1.918660 -0.026110 -0.019360 
#    y -0.026110 1.945320 0.019400 
#    z -0.019360 0.019400 1.818220 
# 
# From -- ./inp_files/332671.got.cif
#   From: 2010.05.17/outbox.cif.g08.bks.cpg/sg2_167_cif.got.tgz:332671.got - 2010.06.03 11:33:40.
