data_PCOD9092813
_publ_section_title
;
Structure prediction by ZEFSAII (Michael W. Deem and Ramdas Pophale) SiO2 
 PCOD9092813
Probable space group: P -1
;
_chemical_formula_sum "Si O2"
_cell_formula_units_Z 16
_cell_length_a 7.952289
_cell_length_b 9.047156
_cell_length_c 17.066056
_cell_angle_alpha 147.278695
_cell_angle_beta 94.018645
_cell_angle_gamma 91.973949
_cell_volume 652.065682
_symmetry_space_group_name_H-M "P -1"
_symmetry_group_IT_number 2
_symmetry_cell_setting 'triclinic'
loop_
_space_group_symop_operation_xyz
x,y,z
-x,-y,-z
loop_
_atom_site_type_symbol
_atom_site_label
_atom_site_fract_x
_atom_site_fract_y
_atom_site_fract_z
Si Si1 0.871132 0.774220 0.443719
Si Si2 0.747455 0.809427 0.618378
Si Si3 0.199511 0.564387 0.850450
Si Si4 0.583155 0.188956 0.299134
Si Si5 0.634671 0.797124 0.847248
Si Si6 0.300787 0.369310 0.933035
Si Si7 0.842080 0.676380 0.933120
Si Si8 0.963153 0.749402 0.739230
O O1 0.783741 0.901352 0.570932
O O2 0.754066 0.618363 0.301223
O O3 0.959497 0.531181 0.377886
O O4 0.000000 0.000000 0.500000
O O5 0.678437 0.477585 0.464803
O O6 0.591049 0.915964 0.704430
O O7 0.914378 0.850561 0.696898
O O8 0.227843 0.441276 0.880692
O O9 0.995831 0.573050 0.845984
O O10 0.307028 0.873420 0.990285
O O11 0.528996 0.235970 0.228796
O O12 0.699312 0.957322 0.204152
O O13 0.779059 0.699558 0.753568
O O14 0.668610 0.660107 0.870012
O O15 0.201228 0.462254 0.045921
O O16 0.500000 0.500000 0.000000
O O17 0.922400 0.998706 0.097924
#
# Coordination Sequence:
#
# PCOD9092813 Si02
#       8
#     2   2   2   2   2   2   2   2
#     4  12  25  38  62  96 130 164 210 273 324 373
#     4  10  24  43  66  89 125 179 221 256 311 387
#     4  11  23  43  62 100 132 157 217 267 328 379
#     4  10  23  44  67  90 131 173 222 254 318 397
#     4  10  19  42  71  93 122 161 216 274 310 378
#     4  12  26  40  61  98 134 170 202 263 334 390
#     4  11  22  41  73  94 125 167 216 273 321 371
#     4  10  20  41  66  95 120 163 221 264 314 379
#
# _framework density 24.537405
#
# number of rings (size 3 to 8) (size 9 to 14) (size 15 to 20)
#    0.000    1.250    3.750    2.250    3.500    2.500 
#    0.000    0.625    0.000    0.000    0.000    0.000 
#    0.000    0.000    0.000    0.000    0.000    0.000 
#
# Total GULP energy -89588.839700 kJ/mol
# GULP energy per Si atom -5599.302481 kJ/mol
# Density = 2.448156 g / cm^3
# Si number density = 24.537405 Si / 1000 Ang^3
#
#
#
# Elastic Constant Matrix: (Units=GPa)
#
#
# Indices 1 2 3 4 5 6 
#
# 1 71.5333 25.9442 17.5408 -13.7499 -2.0077 3.2766
# 2 25.9442 112.3395 22.0500 -47.6595 -4.0126 2.6485
# 3 17.5408 22.0500 87.4619 -29.6345 3.4640 -5.1177
# 4 -13.7499 -47.6595 -29.6345 53.6900 3.0566 1.4988
# 5 -2.0077 -4.0126 3.4640 3.0566 27.2246 -13.7568
# 6 3.2766 2.6485 -5.1177 1.4988 -13.7568 45.6059
#
#
#
# Elastic Compliance Matrix: (Units=1/GPa)
#
#
# Indices 1 2 3 4 5 6 
#
# 1 0.015777 -0.003177 -0.002498 -0.000156 0.000486 -0.001078
# 2 -0.003177 0.015034 0.001297 0.013285 -0.000175 -0.000989
# 3 -0.002498 0.001297 0.014714 0.008755 -0.002485 0.000718
# 4 -0.000156 0.013285 0.008755 0.035518 -0.004286 -0.002238
# 5 0.000486 -0.000175 -0.002485 -0.004286 0.044193 0.013168
# 6 -0.001078 -0.000989 0.000718 -0.002238 0.013168 0.026188
#
#
# Mechanical properties :
#
#
# Convention : Reuss Voigt Hill
#
# Bulk Modulus (GPa) = 27.19594 44.71162 35.95378
# Shear Modulus (GPa) = 28.99627 39.02408 34.01017
#
# Velocity S-wave (km/s) = 3.44134 3.99230 3.72701
# Velocity P-wave (km/s) = 5.18632 6.28591 5.76240
#
# Compressibility (1/GPa) = 0.03677019
#
# Stress axis : x y z
#
# Youngs Moduli (GPa) = 63.38212 66.51639 67.96043
#
# Poissons Ratio (x) = 0.21130 0.16980
# Poissons Ratio (y) = 0.20135 -0.08818
# Poissons Ratio (z) = 0.15836 -0.08630
#
# Static dielectric constant tensor:
#      x y z
#    x 1.971610 0.050550 -0.011340 
#    y 0.050550 1.970520 -0.005270 
#    z -0.011340 -0.005270 1.940910 
# 
# From -- ./inp_files/182578.got.cif
#   From: 2010.05.17/outbox.cif.g08.bks.cpg/sg2_92_cif.got.tgz:182578.got - 2010.06.03 11:33:40.
