data_PCOD9092783
_publ_section_title
;
Structure prediction by ZEFSAII (Michael W. Deem and Ramdas Pophale) SiO2 
 PCOD9092783
Probable space group: P -1
;
_chemical_formula_sum "Si O2"
_cell_formula_units_Z 14
_cell_length_a 7.126137
_cell_length_b 7.924113
_cell_length_c 11.722385
_cell_angle_alpha 106.777902
_cell_angle_beta 78.386438
_cell_angle_gamma 98.389826
_cell_volume 618.063992
_symmetry_space_group_name_H-M "P -1"
_symmetry_group_IT_number 2
_symmetry_cell_setting 'triclinic'
loop_
_space_group_symop_operation_xyz
x,y,z
-x,-y,-z
loop_
_atom_site_type_symbol
_atom_site_label
_atom_site_fract_x
_atom_site_fract_y
_atom_site_fract_z
Si Si1 0.229158 0.005177 0.469822
Si Si2 0.589379 0.163970 0.368103
Si Si3 0.923997 0.452834 0.374136
Si Si4 0.129507 0.724225 0.249497
Si Si5 0.983124 0.286861 0.979236
Si Si6 0.412912 0.860853 0.890047
Si Si7 0.239945 0.350865 0.156564
O O1 0.306081 0.944258 0.569439
O O2 0.252873 0.857347 0.341229
O O3 0.370271 0.169605 0.439284
O O4 0.000000 0.000000 0.500000
O O5 0.714180 0.352284 0.381493
O O6 0.597556 0.075199 0.225823
O O7 0.953774 0.627515 0.326068
O O8 0.000000 0.500000 0.500000
O O9 0.072782 0.329955 0.269464
O O10 0.046179 0.798375 0.158537
O O11 0.254278 0.561498 0.172137
O O12 0.792559 0.225394 0.060643
O O13 0.000000 0.500000 0.000000
O O14 0.160798 0.252791 0.031936
O O15 0.564108 0.713541 0.839137
O O16 0.500000 0.000000 0.000000
#
# Coordination Sequence:
#
# PCOD9092783 Si02
#       7
#     2   2   2   2   2   2   2
#     4  11  25  41  64  92 134 166 206 270 320 377
#     4  11  23  43  62  95 129 166 217 259 318 385
#     4  10  19  42  69  86 128 165 214 262 307 373
#     4   9  20  40  64  91 125 167 210 259 315 372
#     4  10  20  41  62  92 127 161 211 260 308 374
#     4  12  25  40  66  94 127 170 211 256 318 384
#     4   9  22  40  66  88 128 165 209 265 304 369
#
# _framework density 22.651375999999999
#
# number of rings (size 3 to 8) (size 9 to 14) (size 15 to 20)
#    0.857    0.857    2.857    0.857    2.000    4.000 
#    0.000   16.429    0.000    0.000    0.000    0.000 
#    0.000    0.000    0.000    0.000    0.000    0.000 
#
# Total GULP energy -78157.530057 kJ/mol
# GULP energy per Si atom -5582.680718 kJ/mol
# Density = 2.259982 g / cm^3
# Si number density = 22.651376 Si / 1000 Ang^3
#
#
#
# Elastic Constant Matrix: (Units=GPa)
#
#
# Indices 1 2 3 4 5 6 
#
# 1 81.6427 22.3949 29.4054 -14.6677 8.1022 14.8158
# 2 22.3949 45.1651 18.6034 -7.6901 -4.1492 25.4669
# 3 29.4054 18.6034 175.4131 -19.0744 36.2720 -0.4762
# 4 -14.6677 -7.6901 -19.0744 37.1795 7.9654 -7.7588
# 5 8.1022 -4.1492 36.2720 7.9654 34.0298 -7.5136
# 6 14.8158 25.4669 -0.4762 -7.7588 -7.5136 30.4862
#
#
#
# Elastic Compliance Matrix: (Units=1/GPa)
#
#
# Indices 1 2 3 4 5 6 
#
# 1 0.016140 -0.005796 -0.000127 0.005840 -0.006468 -0.003112
# 2 -0.005796 0.048344 -0.006146 -0.004637 0.006699 -0.037193
# 3 -0.000127 -0.006146 0.009529 0.006933 -0.011559 0.004260
# 4 0.005840 -0.004637 0.006933 0.036673 -0.016515 0.006407
# 5 -0.006468 0.006699 -0.011559 -0.016515 0.049091 0.005263
# 6 -0.003112 -0.037193 0.004260 0.006407 0.005263 0.068378
#
#
# Mechanical properties :
#
#
# Convention : Reuss Voigt Hill
#
# Bulk Modulus (GPa) = 20.04954 49.22535 34.63745
# Shear Modulus (GPa) = 18.59305 35.79359 27.19332
#
# Velocity S-wave (km/s) = 2.86813 3.97948 3.46860
# Velocity P-wave (km/s) = 4.45408 6.54934 5.60057
#
# Compressibility (1/GPa) = 0.04987645
#
# Stress axis : x y z
#
# Youngs Moduli (GPa) = 61.95865 20.68513 104.93749
#
# Poissons Ratio (x) = 0.11988 0.01331
# Poissons Ratio (y) = 0.35909 0.64493
# Poissons Ratio (z) = 0.00786 0.12713
#
# Static dielectric constant tensor:
#      x y z
#    x 1.829540 -0.024390 -0.019890 
#    y -0.024390 1.872690 0.027040 
#    z -0.019890 0.027040 1.885920 
# 
# From -- ./inp_files/360861.got.cif
#   From: 2010.05.17/outbox.cif.g08.bks.cpg/sg2_181_cif.got.tgz:360861.got - 2010.06.03 11:33:40.
