data_PCOD9092573
_publ_section_title
;
Structure prediction by ZEFSAII (Michael W. Deem and Ramdas Pophale) SiO2 
 PCOD9092573
Probable space group: P -1
;
_chemical_formula_sum "Si O2"
_cell_formula_units_Z 16
_cell_length_a 11.585548
_cell_length_b 16.065687
_cell_length_c 8.938940
_cell_angle_alpha 113.428860
_cell_angle_beta 61.572320
_cell_angle_gamma 151.471142
_cell_volume 697.972534
_symmetry_space_group_name_H-M "P -1"
_symmetry_group_IT_number 2
_symmetry_cell_setting 'triclinic'
loop_
_space_group_symop_operation_xyz
x,y,z
-x,-y,-z
loop_
_atom_site_type_symbol
_atom_site_label
_atom_site_fract_x
_atom_site_fract_y
_atom_site_fract_z
Si Si1 0.250620 0.388780 0.156079
Si Si2 0.381197 0.769686 0.179211
Si Si3 0.623891 0.460327 0.503054
Si Si4 0.018636 0.619633 0.861769
Si Si5 0.292249 0.683200 0.505187
Si Si6 0.896618 0.231856 0.774618
Si Si7 0.935592 0.864430 0.376955
Si Si8 0.072803 0.955674 0.018735
O O1 0.292427 0.425786 0.331466
O O2 0.174635 0.438652 0.164284
O O3 0.024503 0.187654 0.115998
O O4 0.500000 0.500000 0.000000
O O5 0.138744 0.564901 0.135768
O O6 0.426805 0.789187 0.343892
O O7 0.314923 0.833287 0.222715
O O8 0.628334 0.877172 0.023359
O O9 0.609390 0.351521 0.508847
O O10 0.345556 0.323262 0.526649
O O11 0.836757 0.584589 0.335459
O O12 0.260280 0.736198 0.696153
O O13 0.089353 0.723440 0.032496
O O14 0.000000 0.500000 0.500000
O O15 0.886141 0.116706 0.687175
O O16 0.000000 0.000000 0.500000
O O17 0.934326 0.872946 0.204262
O O18 0.000000 0.000000 0.000000
#
# Coordination Sequence:
#
# PCOD9092573 Si02
#       8
#     2   2   2   2   2   2   2   2
#     4  12  22  44  72  97 132 184 238 283 330 406
#     4  11  23  43  72 107 140 177 226 288 352 406
#     4  12  23  46  75  98 134 182 235 283 335 414
#     4  11  21  42  70 102 140 175 231 284 335 414
#     4  10  19  41  69 102 132 169 229 281 339 399
#     4  12  25  45  69 105 136 187 231 274 350 422
#     4  12  30  49  64 101 146 183 226 287 353 407
#     4  12  27  47  71 102 140 186 232 288 346 400
#
# _framework density 22.923538000000001
#
# number of rings (size 3 to 8) (size 9 to 14) (size 15 to 20)
#    0.000    0.500    7.500    2.250    3.500    0.500 
#    2.250    1.250    0.000    0.000    0.000    0.000 
#    0.000    0.000    0.000    0.000    0.000    0.000 
#
# Total GULP energy -89562.644999 kJ/mol
# GULP energy per Si atom -5597.665312 kJ/mol
# Density = 2.287136 g / cm^3
# Si number density = 22.923538 Si / 1000 Ang^3
#
#
#
# Elastic Constant Matrix: (Units=GPa)
#
#
# Indices 1 2 3 4 5 6 
#
# 1 133.4809 7.3357 12.9479 7.0295 -28.0980 -16.3364
# 2 7.3357 50.1786 16.9650 9.3756 -5.0634 -7.9513
# 3 12.9479 16.9650 126.2357 12.6066 -8.2234 -7.2298
# 4 7.0295 9.3756 12.6066 41.8504 -3.4813 -10.2251
# 5 -28.0980 -5.0634 -8.2234 -3.4813 36.3424 -1.0953
# 6 -16.3364 -7.9513 -7.2298 -10.2251 -1.0953 21.5211
#
#
#
# Elastic Compliance Matrix: (Units=1/GPa)
#
#
# Indices 1 2 3 4 5 6 
#
# 1 0.010265 0.000615 -0.000189 0.001060 0.008349 0.008885
# 2 0.000615 0.022479 -0.002234 -0.002503 0.003073 0.006989
# 3 -0.000189 -0.002234 0.008562 -0.001642 0.001359 0.001197
# 4 0.001060 -0.002503 -0.001642 0.028184 0.003187 0.012881
# 5 0.008349 0.003073 0.001359 0.003187 0.035351 0.011243
# 6 0.008885 0.006989 0.001197 0.012881 0.011243 0.062887
#
#
# Mechanical properties :
#
#
# Convention : Reuss Voigt Hill
#
# Bulk Modulus (GPa) = 26.53032 42.71025 34.62028
# Shear Modulus (GPa) = 27.18761 38.11922 32.65342
#
# Velocity S-wave (km/s) = 3.44759 4.08227 3.77828
# Velocity P-wave (km/s) = 5.23893 6.39469 5.84544
#
# Compressibility (1/GPa) = 0.03769272
#
# Stress axis : x y z
#
# Youngs Moduli (GPa) = 97.41667 44.48523 116.79148
#
# Poissons Ratio (x) = -0.02738 0.02204
# Poissons Ratio (y) = -0.05995 0.26088
# Poissons Ratio (z) = 0.01839 0.09937
#
# Static dielectric constant tensor:
#      x y z
#    x 1.902380 -0.049160 -0.013750 
#    y -0.049160 1.913560 -0.014090 
#    z -0.013750 -0.014090 1.877540 
# 
# From -- ./inp_files/262335.got.cif
#   From: 2010.05.17/outbox.cif.g08.bks.cpg/sg2_132_cif.got.tgz:262335.got - 2010.06.03 11:33:40.
