data_PCOD9092983
_publ_section_title
;
Structure prediction by ZEFSAII (Michael W. Deem and Ramdas Pophale) SiO2 
 PCOD9092983
Probable space group: P -1
;
_chemical_formula_sum "Si O2"
_cell_formula_units_Z 16
_cell_length_a 17.342683
_cell_length_b 5.114295
_cell_length_c 10.230261
_cell_angle_alpha 118.016187
_cell_angle_beta 95.689964
_cell_angle_gamma 73.414081
_cell_volume 767.063608
_symmetry_space_group_name_H-M "P -1"
_symmetry_group_IT_number 2
_symmetry_cell_setting 'triclinic'
loop_
_space_group_symop_operation_xyz
x,y,z
-x,-y,-z
loop_
_atom_site_type_symbol
_atom_site_label
_atom_site_fract_x
_atom_site_fract_y
_atom_site_fract_z
Si Si1 0.830400 0.787540 0.680791
Si Si2 0.324417 0.068568 0.608793
Si Si3 0.158922 0.426326 0.666951
Si Si4 0.501831 0.148384 0.392634
Si Si5 0.090117 0.067055 0.883309
Si Si6 0.995595 0.349889 0.606208
Si Si7 0.903105 0.264495 0.912928
Si Si8 0.671737 0.634072 0.603254
O O1 0.833048 0.721465 0.510663
O O2 0.910395 0.544055 0.694155
O O3 0.747405 0.727250 0.699328
O O4 0.843617 0.119754 0.786301
O O5 0.242329 0.253939 0.708807
O O6 0.329532 0.267411 0.526707
O O7 0.409334 0.013916 0.685788
O O8 0.317980 0.732242 0.481448
O O9 0.076009 0.377945 0.698021
O O10 0.143336 0.792912 0.739133
O O11 0.500000 0.500000 0.500000
O O12 0.416543 0.177872 0.315104
O O13 0.500000 0.000000 0.500000
O O14 0.995314 0.155954 0.849557
O O15 0.117656 0.372438 0.983704
O O16 0.095007 0.898059 0.984560
O O17 0.000000 0.500000 0.500000
O O18 0.000000 0.000000 0.500000
#
# Coordination Sequence:
#
# PCOD9092983 Si02
#       8
#     2   2   2   2   2   2   2   2
#     4  10  20  35  53  78 100 132 169 213 248 294
#     4   9  17  28  45  71 100 127 160 201 248 295
#     4  10  20  35  53  78 100 132 169 213 248 294
#     4   8  14  26  42  64  98 130 152 192 249 296
#     4  10  22  38  52  70  99 136 171 205 248 300
#     4  10  20  30  44  70 100 124 153 200 249 280
#     4  10  22  38  52  70  99 136 171 205 248 300
#     4   9  17  28  45  71 100 127 160 201 248 295
#
# _framework density 20.858768000000001
#
# number of rings (size 3 to 8) (size 9 to 14) (size 15 to 20)
#    0.000    2.500    1.250    0.750    0.000    8.000 
#    0.000    0.000    0.000    0.000    0.000    1.750 
#    0.000    0.000    0.000    0.000    0.000    0.000 
#
# Total GULP energy -89292.053079 kJ/mol
# GULP energy per Si atom -5580.753317 kJ/mol
# Density = 2.081129 g / cm^3
# Si number density = 20.858768 Si / 1000 Ang^3
#
#
#
# Elastic Constant Matrix: (Units=GPa)
#
#
# Indices 1 2 3 4 5 6 
#
# 1 180.6641 29.1907 36.1393 23.1680 10.8082 -42.5424
# 2 29.1907 90.0787 28.0070 33.4592 3.2673 5.1845
# 3 36.1393 28.0070 99.3350 22.7821 24.6221 -1.2916
# 4 23.1680 33.4592 22.7821 35.9128 9.2847 -1.9211
# 5 10.8082 3.2673 24.6221 9.2847 17.2509 10.6583
# 6 -42.5424 5.1845 -1.2916 -1.9211 10.6583 42.9982
#
#
#
# Elastic Compliance Matrix: (Units=1/GPa)
#
#
# Indices 1 2 3 4 5 6 
#
# 1 0.010787 -0.005601 0.002419 0.003109 -0.021214 0.016818
# 2 -0.005601 0.023944 -0.008116 -0.023429 0.034448 -0.018258
# 3 0.002419 -0.008116 0.020811 0.004083 -0.040693 0.014266
# 4 0.003109 -0.023429 0.004083 0.058413 -0.047365 0.020374
# 5 -0.021214 0.034448 -0.040693 -0.047365 0.195907 -0.077042
# 6 0.016818 -0.018258 0.014266 0.020374 -0.077042 0.062534
#
#
# Mechanical properties :
#
#
# Convention : Reuss Voigt Hill
#
# Bulk Modulus (GPa) = 30.35378 61.86132 46.10755
# Shear Modulus (GPa) = 12.31609 37.68177 24.99893
#
# Velocity S-wave (km/s) = 2.43256 4.25493 3.46567
# Velocity P-wave (km/s) = 4.74061 7.33899 6.17795
#
# Compressibility (1/GPa) = 0.03294483
#
# Stress axis : x y z
#
# Youngs Moduli (GPa) = 92.70481 41.76476 48.05167
#
# Poissons Ratio (x) = 0.23392 -0.11622
# Poissons Ratio (y) = 0.51924 0.38998
# Poissons Ratio (z) = -0.22421 0.33896
#
# Static dielectric constant tensor:
#      x y z
#    x 1.926680 0.094100 -0.079480 
#    y 0.094100 2.123000 -0.177170 
#    z -0.079480 -0.177170 1.820040 
# 
# From -- ./inp_files/536231.got.cif
#   From: 2010.05.17/outbox.cif.g08.bks.cpg/sg2_269_cif.got.tgz:536231.got - 2010.06.03 11:33:40.
