data_PCOD9092840
_publ_section_title
;
Structure prediction by ZEFSAII (Michael W. Deem and Ramdas Pophale) SiO2 
 PCOD9092840
Probable space group: P -1
;
_chemical_formula_sum "Si O2"
_cell_formula_units_Z 14
_cell_length_a 12.108627
_cell_length_b 15.384187
_cell_length_c 9.410365
_cell_angle_alpha 131.660019
_cell_angle_beta 127.893012
_cell_angle_gamma 27.390733
_cell_volume 601.042835
_symmetry_space_group_name_H-M "P -1"
_symmetry_group_IT_number 2
_symmetry_cell_setting 'triclinic'
loop_
_space_group_symop_operation_xyz
x,y,z
-x,-y,-z
loop_
_atom_site_type_symbol
_atom_site_label
_atom_site_fract_x
_atom_site_fract_y
_atom_site_fract_z
Si Si1 0.971129 0.146126 0.199753
Si Si2 0.972858 0.228759 0.984814
Si Si3 0.704611 0.975324 0.442696
Si Si4 0.869462 0.484036 0.797487
Si Si5 0.432457 0.512220 0.281410
Si Si6 0.670755 0.816682 0.822180
Si Si7 0.751398 0.120939 0.377247
O O1 0.948212 0.242587 0.148865
O O2 0.717356 0.316510 0.266544
O O3 0.205120 0.017751 0.340352
O O4 0.000000 0.000000 0.000000
O O5 0.080307 0.280855 0.084412
O O6 0.723650 0.369212 0.859880
O O7 0.176116 0.998962 0.838250
O O8 0.915683 0.739398 0.334823
O O9 0.444273 0.095986 0.332947
O O10 0.702164 0.061199 0.397569
O O11 0.697605 0.514983 0.786062
O O12 0.721381 0.652954 0.743698
O O13 0.000000 0.500000 0.000000
O O14 0.607272 0.339859 0.503482
O O15 0.500000 0.000000 0.000000
O O16 0.000000 0.000000 0.500000
#
# Coordination Sequence:
#
# PCOD9092840 Si02
#       7
#     2   2   2   2   2   2   2
#     4  12  30  46  69 109 162 196 241 306 390 444
#     4  11  23  48  73 111 146 199 244 311 375 438
#     4  12  26  46  72 115 149 195 250 308 369 448
#     4  12  23  45  77 118 139 191 260 304 369 437
#     4  11  24  46  78 109 148 196 252 314 368 443
#     4  12  24  44  79 106 152 193 250 319 358 438
#     4  10  19  42  77 107 143 182 259 311 359 423
#
# _framework density 23.292850000000001
#
# number of rings (size 3 to 8) (size 9 to 14) (size 15 to 20)
#    0.000    0.571    7.143    2.143    4.000    2.286 
#    0.000    0.714    0.000    0.000    0.000    0.000 
#    0.000    0.000    0.000    0.000    0.000    0.000 
#
# Total GULP energy -78171.235116 kJ/mol
# GULP energy per Si atom -5583.659651 kJ/mol
# Density = 2.323983 g / cm^3
# Si number density = 23.292850 Si / 1000 Ang^3
#
#
#
# Elastic Constant Matrix: (Units=GPa)
#
#
# Indices 1 2 3 4 5 6 
#
# 1 75.0732 22.4803 18.9870 10.6462 -0.5006 27.3163
# 2 22.4803 120.1126 43.9392 -12.9327 5.6183 21.0807
# 3 18.9870 43.9392 140.0918 -30.3324 10.8095 3.7272
# 4 10.6462 -12.9327 -30.3324 60.6579 3.2466 9.3165
# 5 -0.5006 5.6183 10.8095 3.2466 30.6577 1.3611
# 6 27.3163 21.0807 3.7272 9.3165 1.3611 31.7137
#
#
#
# Elastic Compliance Matrix: (Units=1/GPa)
#
#
# Indices 1 2 3 4 5 6 
#
# 1 0.020586 -0.000255 -0.003071 -0.002805 0.002495 -0.016484
# 2 -0.000255 0.010911 -0.002632 0.002234 -0.000986 -0.007338
# 3 -0.003071 -0.002632 0.009607 0.004656 -0.003539 0.002050
# 4 -0.002805 0.002234 0.004656 0.020856 -0.004058 -0.005569
# 5 0.002495 -0.000986 -0.003539 -0.004058 0.034578 -0.001369
# 6 -0.016484 -0.007338 0.002050 -0.005569 -0.001369 0.052062
#
#
# Mechanical properties :
#
#
# Convention : Reuss Voigt Hill
#
# Bulk Modulus (GPa) = 34.26310 56.23228 45.24769
# Shear Modulus (GPa) = 29.36947 41.26393 35.31670
#
# Velocity S-wave (km/s) = 3.55474 4.21352 3.89807
# Velocity P-wave (km/s) = 5.62049 6.91849 6.30299
#
# Compressibility (1/GPa) = 0.02918592
#
# Stress axis : x y z
#
# Youngs Moduli (GPa) = 48.57723 91.65255 104.09302
#
# Poissons Ratio (x) = 0.02336 0.31971
# Poissons Ratio (y) = 0.01238 0.27402
# Poissons Ratio (z) = 0.14920 0.24127
#
# Static dielectric constant tensor:
#      x y z
#    x 1.642620 -0.198530 -0.047950 
#    y -0.198530 1.656240 0.049780 
#    z -0.047950 0.049780 1.825380 
# 
# From -- ./inp_files/270965.got.cif
#   From: 2010.05.17/outbox.cif.g08.bks.cpg/sg2_136_cif.got.tgz:270965.got - 2010.06.03 11:33:40.
