data_PCOD9092049
_publ_section_title
;
Structure prediction by ZEFSAII (Michael W. Deem and Ramdas Pophale) SiO2 
 PCOD9092049
Probable space group: P -1
;
_chemical_formula_sum "Si O2"
_cell_formula_units_Z 16
_cell_length_a 7.130488
_cell_length_b 14.486094
_cell_length_c 11.058720
_cell_angle_alpha 146.560372
_cell_angle_beta 84.052359
_cell_angle_gamma 105.677908
_cell_volume 589.840766
_symmetry_space_group_name_H-M "P -1"
_symmetry_group_IT_number 2
_symmetry_cell_setting 'triclinic'
loop_
_space_group_symop_operation_xyz
x,y,z
-x,-y,-z
loop_
_atom_site_type_symbol
_atom_site_label
_atom_site_fract_x
_atom_site_fract_y
_atom_site_fract_z
Si Si1 0.344902 0.258951 0.810299
Si Si2 0.485365 0.108092 0.438787
Si Si3 0.398841 0.529558 0.310863
Si Si4 0.503194 0.867440 0.963409
Si Si5 0.111615 0.246191 0.172295
Si Si6 0.213762 0.497707 0.636606
Si Si7 0.982030 0.990115 0.687612
Si Si8 0.098160 0.398869 0.793608
O O1 0.504394 0.176455 0.651580
O O2 0.146714 0.117052 0.726396
O O3 0.270862 0.363503 0.824606
O O4 0.424966 0.393908 0.060809
O O5 0.585921 0.286088 0.548448
O O6 0.533043 0.956957 0.193642
O O7 0.243468 0.043563 0.376209
O O8 0.194118 0.419401 0.269461
O O9 0.586811 0.557300 0.416086
O O10 0.695857 0.809742 0.871881
O O11 0.302680 0.693447 0.786311
O O12 0.500000 0.000000 0.000000
O O13 0.063162 0.335503 0.393566
O O14 0.986938 0.080485 0.917640
O O15 0.144423 0.511751 0.791830
O O16 0.016156 0.800632 0.467676
O O17 0.000000 0.500000 0.000000
#
# Coordination Sequence:
#
# PCOD9092049 Si02
#       8
#     2   2   2   2   2   2   2   2
#     4  10  22  39  66  87 129 166 207 251 316 377
#     4  11  20  37  65  94 122 160 208 258 316 363
#     4  10  19  40  65  92 116 170 206 254 309 376
#     4  11  24  39  63  93 123 163 215 267 306 368
#     4  10  23  44  65  88 127 166 214 249 317 374
#     4  11  22  41  66  87 124 171 206 255 313 374
#     4  10  23  43  65  93 125 172 203 259 311 376
#     4  11  24  39  63  96 130 162 206 258 313 369
#
# _framework density 27.125965000000001
#
# number of rings (size 3 to 8) (size 9 to 14) (size 15 to 20)
#    0.000    1.500    2.500    4.875    3.500    1.500 
#    0.000    2.500    0.000    0.000    0.000    0.000 
#    0.000    0.000    0.000    0.000    0.000    0.000 
#
# Total GULP energy -89574.443176 kJ/mol
# GULP energy per Si atom -5598.402698 kJ/mol
# Density = 2.706423 g / cm^3
# Si number density = 27.125965 Si / 1000 Ang^3
#
#
#
# Elastic Constant Matrix: (Units=GPa)
#
#
# Indices 1 2 3 4 5 6 
#
# 1 39.9431 17.9467 21.6209 -0.8424 -13.6027 -7.8849
# 2 17.9467 130.1683 35.2208 -1.1197 -9.4564 12.5210
# 3 21.6209 35.2208 185.3181 -42.7096 -14.4387 -0.6562
# 4 -0.8424 -1.1197 -42.7096 70.9281 3.4602 1.8052
# 5 -13.6027 -9.4564 -14.4387 3.4602 49.0330 -1.4021
# 6 -7.8849 12.5210 -0.6562 1.8052 -1.4021 30.4812
#
#
#
# Elastic Compliance Matrix: (Units=1/GPa)
#
#
# Indices 1 2 3 4 5 6 
#
# 1 0.033356 -0.004292 -0.002891 -0.002080 0.008031 0.010822
# 2 -0.004292 0.009115 -0.001387 -0.000622 0.000064 -0.004845
# 3 -0.002891 -0.001387 0.007003 0.004133 0.000694 -0.000240
# 4 -0.002080 -0.000622 0.004133 0.016617 -0.000687 -0.001209
# 5 0.008031 0.000064 0.000694 -0.000687 0.022978 0.003164
# 6 0.010822 -0.004845 -0.000240 -0.001209 0.003164 0.037809
#
#
# Mechanical properties :
#
#
# Convention : Reuss Voigt Hill
#
# Bulk Modulus (GPa) = 30.92807 56.11184 43.51995
# Shear Modulus (GPa) = 32.30053 48.79788 40.54921
#
# Velocity S-wave (km/s) = 3.45448 4.24599 3.87052
# Velocity P-wave (km/s) = 5.22854 6.69092 6.00442
#
# Compressibility (1/GPa) = 0.03233309
#
# Stress axis : x y z
#
# Youngs Moduli (GPa) = 29.97918 109.71226 142.80108
#
# Poissons Ratio (x) = 0.47090 0.41287
# Poissons Ratio (y) = 0.12867 0.19808
# Poissons Ratio (z) = 0.08668 0.15218
#
# Static dielectric constant tensor:
#      x y z
#    x 2.163630 0.006170 0.009920 
#    y 0.006170 2.131710 -0.023990 
#    z 0.009920 -0.023990 2.161270 
# 
# From -- ./inp_files/400014.got.cif
#   From: 2010.05.17/outbox.cif.g08.bks.cpg/sg2_201_cif.got.tgz:400014.got - 2010.06.03 11:33:40.
