data_PCOD9092231
_publ_section_title
;
Structure prediction by ZEFSAII (Michael W. Deem and Ramdas Pophale) SiO2 
 PCOD9092231
Probable space group: P -1
;
_chemical_formula_sum "Si O2"
_cell_formula_units_Z 14
_cell_length_a 13.573621
_cell_length_b 11.491942
_cell_length_c 10.684249
_cell_angle_alpha 37.075491
_cell_angle_beta 68.089058
_cell_angle_gamma 41.606564
_cell_volume 553.608396
_symmetry_space_group_name_H-M "P -1"
_symmetry_group_IT_number 2
_symmetry_cell_setting 'triclinic'
loop_
_space_group_symop_operation_xyz
x,y,z
-x,-y,-z
loop_
_atom_site_type_symbol
_atom_site_label
_atom_site_fract_x
_atom_site_fract_y
_atom_site_fract_z
Si Si1 0.375157 0.093070 0.086134
Si Si2 0.299375 0.331389 0.537301
Si Si3 0.740294 0.236226 0.952314
Si Si4 0.876648 0.843972 0.974238
Si Si5 0.033831 0.245092 0.505942
Si Si6 0.853282 0.286997 0.186776
Si Si7 0.507621 0.782925 0.750428
O O1 0.514238 0.855157 0.338282
O O2 0.266174 0.066052 0.117012
O O3 0.230245 0.464265 0.877698
O O4 0.500000 0.000000 0.000000
O O5 0.167892 0.495123 0.574637
O O6 0.347360 0.053573 0.691902
O O7 0.213294 0.609079 0.242599
O O8 0.775077 0.075377 0.944911
O O9 0.857794 0.973976 0.232728
O O10 0.538943 0.565660 0.821732
O O11 0.030708 0.469304 0.269864
O O12 0.978488 0.856243 0.835655
O O13 0.094803 0.012293 0.566879
O O14 0.688326 0.519290 0.969466
O O15 0.500000 0.000000 0.500000
#
# Coordination Sequence:
#
# PCOD9092231 Si02
#       7
#     2   2   2   2   2   2   2
#     4  11  24  46  67  93 133 173 221 271 325 388
#     4  10  19  40  68  89 127 179 213 261 328 378
#     4  10  21  39  63 100 130 171 215 266 329 388
#     4  12  24  40  68 101 132 169 223 268 319 391
#     4  11  22  41  68  96 133 172 213 270 325 392
#     4  10  23  43  67  95 128 176 219 264 327 384
#     4   8  18  35  66  90 127 172 205 257 326 383
#
# _framework density 25.288634999999999
#
# number of rings (size 3 to 8) (size 9 to 14) (size 15 to 20)
#    0.000    1.714    2.857    1.286    4.000    1.143 
#    0.000    5.000    0.000    0.000    0.000    0.000 
#    0.000    0.000    0.000    0.000    0.000    0.000 
#
# Total GULP energy -78270.244666 kJ/mol
# GULP energy per Si atom -5590.731762 kJ/mol
# Density = 2.523108 g / cm^3
# Si number density = 25.288635 Si / 1000 Ang^3
#
#
#
# Elastic Constant Matrix: (Units=GPa)
#
#
# Indices 1 2 3 4 5 6 
#
# 1 114.1946 45.1663 35.5273 -24.9140 0.2218 17.0743
# 2 45.1663 127.4091 22.3143 -35.6251 -26.4191 25.2128
# 3 35.5273 22.3143 113.7325 -16.6993 8.7508 21.2575
# 4 -24.9140 -35.6251 -16.6993 48.9185 14.9743 -21.7843
# 5 0.2218 -26.4191 8.7508 14.9743 38.5518 -7.4152
# 6 17.0743 25.2128 21.2575 -21.7843 -7.4152 41.7691
#
#
#
# Elastic Compliance Matrix: (Units=1/GPa)
#
#
# Indices 1 2 3 4 5 6 
#
# 1 0.011586 -0.003356 -0.002107 0.003609 -0.003358 -0.000352
# 2 -0.003356 0.012056 -0.000832 0.003717 0.006569 -0.002377
# 3 -0.002107 -0.000832 0.010971 0.001563 -0.004463 -0.004197
# 4 0.003609 0.003717 0.001563 0.033147 -0.008538 0.011257
# 5 -0.003358 0.006569 -0.004463 -0.008538 0.035069 0.001451
# 6 -0.000352 -0.002377 -0.004197 0.011257 0.001451 0.033785
#
#
# Mechanical properties :
#
#
# Convention : Reuss Voigt Hill
#
# Bulk Modulus (GPa) = 45.40599 62.37244 53.88921
# Shear Modulus (GPa) = 31.93945 42.66976 37.30461
#
# Velocity S-wave (km/s) = 3.55772 4.11214 3.84494
# Velocity P-wave (km/s) = 5.90513 6.87489 6.40838
#
# Compressibility (1/GPa) = 0.02202352
#
# Stress axis : x y z
#
# Youngs Moduli (GPa) = 86.30938 82.94574 91.14612
#
# Poissons Ratio (x) = 0.27835 0.19203
# Poissons Ratio (y) = 0.28964 0.07588
# Poissons Ratio (z) = 0.18184 0.06905
#
# Static dielectric constant tensor:
#      x y z
#    x 2.029940 0.007100 0.006220 
#    y 0.007100 2.078850 0.002320 
#    z 0.006220 0.002320 2.017600 
# 
# From -- ./inp_files/398244.got.cif
#   From: 2010.05.17/outbox.cif.g08.bks.cpg/sg2_200_cif.got.tgz:398244.got - 2010.06.03 11:33:40.
