data_PCOD9092004
_publ_section_title
;
Structure prediction by ZEFSAII (Michael W. Deem and Ramdas Pophale) SiO2 
 PCOD9092004
Probable space group: P -1
;
_chemical_formula_sum "Si O2"
_cell_formula_units_Z 16
_cell_length_a 12.380403
_cell_length_b 5.304690
_cell_length_c 19.158591
_cell_angle_alpha 63.518959
_cell_angle_beta 141.187910
_cell_angle_gamma 108.040791
_cell_volume 704.275256
_symmetry_space_group_name_H-M "P -1"
_symmetry_group_IT_number 2
_symmetry_cell_setting 'triclinic'
loop_
_space_group_symop_operation_xyz
x,y,z
-x,-y,-z
loop_
_atom_site_type_symbol
_atom_site_label
_atom_site_fract_x
_atom_site_fract_y
_atom_site_fract_z
Si Si1 0.754511 0.079729 0.566207
Si Si2 0.952379 0.146230 0.176847
Si Si3 0.132676 0.260941 0.970788
Si Si4 0.215835 0.997702 0.194823
Si Si5 0.257853 0.783611 0.809743
Si Si6 0.387966 0.369600 0.355912
Si Si7 0.638773 0.797720 0.034647
Si Si8 0.995740 0.834625 0.446040
O O1 0.593854 0.308703 0.462490
O O2 0.848452 0.101946 0.536572
O O3 0.675947 0.785093 0.586820
O O4 0.899465 0.093635 0.698631
O O5 0.970267 0.434975 0.108518
O O6 0.906763 0.263533 0.218107
O O7 0.769777 0.032974 0.082039
O O8 0.987215 0.070047 0.886296
O O9 0.296349 0.299491 0.998688
O O10 0.199983 0.133712 0.093168
O O11 0.324366 0.696626 0.283984
O O12 0.305347 0.199298 0.270260
O O13 0.437395 0.874962 0.920818
O O14 0.315903 0.461990 0.857639
O O15 0.183338 0.032018 0.692907
O O16 0.000000 0.500000 0.500000
O O17 0.000000 0.000000 0.500000
#
# Coordination Sequence:
#
# PCOD9092004 Si02
#       8
#     2   2   2   2   2   2   2   2
#     4  10  24  45  72  98 134 176 235 276 335 402
#     4  10  19  40  64  96 123 178 216 274 331 394
#     4  10  23  37  63  95 132 172 215 268 338 403
#     4  11  25  43  65  99 138 172 223 273 341 397
#     4   9  22  39  61  98 124 170 226 275 326 401
#     4  11  25  45  69 102 132 183 227 284 326 398
#     4  10  20  38  67  91 130 169 222 275 332 387
#     4  11  27  47  70  99 137 181 220 279 344 405
#
# _framework density 22.718392000000001
#
# number of rings (size 3 to 8) (size 9 to 14) (size 15 to 20)
#    0.000    1.750    1.250    1.125    5.250    7.000 
#    4.500    0.000    0.000    0.000    0.000    0.000 
#    0.000    0.000    0.000    0.000    0.000    0.000 
#
# Total GULP energy -89172.657236 kJ/mol
# GULP energy per Si atom -5573.291077 kJ/mol
# Density = 2.266668 g / cm^3
# Si number density = 22.718392 Si / 1000 Ang^3
#
#
#
# Elastic Constant Matrix: (Units=GPa)
#
#
# Indices 1 2 3 4 5 6 
#
# 1 116.2730 27.7000 60.3105 -11.3328 10.2056 11.1168
# 2 27.7000 99.3846 42.0834 -23.3697 2.3418 -8.7721
# 3 60.3105 42.0834 157.5496 -38.0408 16.8831 -0.4385
# 4 -11.3328 -23.3697 -38.0408 37.2735 7.3218 1.0292
# 5 10.2056 2.3418 16.8831 7.3218 33.8047 -2.6715
# 6 11.1168 -8.7721 -0.4385 1.0292 -2.6715 25.0009
#
#
#
# Elastic Compliance Matrix: (Units=1/GPa)
#
#
# Indices 1 2 3 4 5 6 
#
# 1 0.011927 -0.002487 -0.004182 -0.001738 -0.001464 -0.006334
# 2 -0.002487 0.013169 -0.000880 0.006598 -0.000727 0.005362
# 3 -0.004182 -0.000880 0.011700 0.011471 -0.006962 0.000540
# 4 -0.001738 0.006598 0.011471 0.045188 -0.015466 -0.000224
# 5 -0.001464 -0.000727 -0.006962 -0.015466 0.037288 0.004895
# 6 -0.006334 0.005362 0.000540 -0.000224 0.004895 0.045238
#
#
# Mechanical properties :
#
#
# Convention : Reuss Voigt Hill
#
# Bulk Modulus (GPa) = 46.08423 70.37723 58.23073
# Shear Modulus (GPa) = 26.76095 35.42335 31.09215
#
# Velocity S-wave (km/s) = 3.43584 3.95300 3.70346
# Velocity P-wave (km/s) = 6.00575 7.20280 6.63134
#
# Compressibility (1/GPa) = 0.02169939
#
# Stress axis : x y z
#
# Youngs Moduli (GPa) = 83.84615 75.93363 85.46906
#
# Poissons Ratio (x) = 0.18883 0.35741
# Poissons Ratio (y) = 0.20850 0.07520
# Poissons Ratio (z) = 0.35063 0.06681
#
# Static dielectric constant tensor:
#      x y z
#    x 2.049100 -0.092360 -0.005080 
#    y -0.092360 1.921530 0.021340 
#    z -0.005080 0.021340 1.880130 
# 
# From -- ./inp_files/611138.got.cif
#   From: 2010.05.17/outbox.cif.g08.bks.cpg/sg2_306_cif.got.tgz:611138.got - 2010.06.03 11:33:40.
