data_PCOD9092759
_publ_section_title
;
Structure prediction by ZEFSAII (Michael W. Deem and Ramdas Pophale) SiO2 
 PCOD9092759
Probable space group: P -1
;
_chemical_formula_sum "Si O2"
_cell_formula_units_Z 12
_cell_length_a 9.662806
_cell_length_b 10.812275
_cell_length_c 7.551107
_cell_angle_alpha 107.722300
_cell_angle_beta 133.755980
_cell_angle_gamma 96.141018
_cell_volume 481.535257
_symmetry_space_group_name_H-M "P -1"
_symmetry_group_IT_number 2
_symmetry_cell_setting 'triclinic'
loop_
_space_group_symop_operation_xyz
x,y,z
-x,-y,-z
loop_
_atom_site_type_symbol
_atom_site_label
_atom_site_fract_x
_atom_site_fract_y
_atom_site_fract_z
Si Si1 0.310617 0.093351 0.687309
Si Si2 0.894896 0.103820 0.893713
Si Si3 0.020324 0.560549 0.345821
Si Si4 0.873821 0.129104 0.288237
Si Si5 0.267937 0.400631 0.334351
Si Si6 0.540174 0.387010 0.867622
O O1 0.510727 0.250805 0.901040
O O2 0.099479 0.121084 0.505793
O O3 0.298851 0.016704 0.830126
O O4 0.282675 0.986556 0.450201
O O5 0.831067 0.140177 0.046306
O O6 0.070128 0.253708 0.020732
O O7 0.000000 0.000000 0.000000
O O8 0.098997 0.730935 0.515568
O O9 0.171425 0.508232 0.354364
O O10 0.000000 0.500000 0.500000
O O11 0.773255 0.473945 0.021249
O O12 0.500000 0.500000 0.500000
O O13 0.343481 0.331566 0.533058
O O14 0.500000 0.500000 0.000000
#
# Coordination Sequence:
#
# PCOD9092759 Si02
#       6
#     2   2   2   2   2   2
#     4  10  21  39  68 108 140 185 230 291 360 418
#     4  10  19  42  67  99 143 183 230 288 355 417
#     4  12  23  46  73 102 141 185 243 290 350 430
#     4  10  20  39  72  98 139 190 226 290 353 417
#     4  12  27  45  71 105 141 187 235 301 354 412
#     4  12  22  44  74 102 137 186 234 287 357 420
#
# _framework density 24.920292
#
# number of rings (size 3 to 8) (size 9 to 14) (size 15 to 20)
#    0.000    1.000    8.333    0.000    2.333    2.000 
#    0.000    3.333    0.000    0.000    0.000    0.000 
#    0.000    0.000    0.000    0.000    0.000    0.000 
#
# Total GULP energy -67137.110022 kJ/mol
# GULP energy per Si atom -5594.759169 kJ/mol
# Density = 2.486357 g / cm^3
# Si number density = 24.920292 Si / 1000 Ang^3
#
#
#
# Elastic Constant Matrix: (Units=GPa)
#
#
# Indices 1 2 3 4 5 6 
#
# 1 153.7317 70.4832 47.9805 20.5677 22.9521 -13.7161
# 2 70.4832 96.7836 35.4403 45.5301 14.3434 9.1295
# 3 47.9805 35.4403 97.7991 21.1594 7.1197 -6.3190
# 4 20.5677 45.5301 21.1594 58.7073 -1.6672 8.8442
# 5 22.9521 14.3434 7.1197 -1.6672 25.0143 -7.1958
# 6 -13.7161 9.1295 -6.3190 8.8442 -7.1958 53.8919
#
#
#
# Elastic Compliance Matrix: (Units=1/GPa)
#
#
# Indices 1 2 3 4 5 6 
#
# 1 0.011860 -0.008760 -0.002818 0.003069 -0.003949 0.003141
# 2 -0.008760 0.027232 -0.001548 -0.016935 -0.009866 -0.005562
# 3 -0.002818 -0.001548 0.012836 -0.002662 0.000073 0.001497
# 4 0.003069 -0.016935 -0.002662 0.030379 0.009571 -0.000370
# 5 -0.003949 -0.009866 0.000073 0.009571 0.051599 0.005994
# 6 0.003141 -0.005562 0.001497 -0.000370 0.005994 0.021334
#
#
# Mechanical properties :
#
#
# Convention : Reuss Voigt Hill
#
# Bulk Modulus (GPa) = 38.94561 72.90249 55.92405
# Shear Modulus (GPa) = 26.30891 40.48339 33.39615
#
# Velocity S-wave (km/s) = 3.25271 4.03490 3.66473
# Velocity P-wave (km/s) = 5.45608 7.14318 6.35586
#
# Compressibility (1/GPa) = 0.02567683
#
# Stress axis : x y z
#
# Youngs Moduli (GPa) = 84.31896 36.72114 77.90811
#
# Poissons Ratio (x) = 0.32168 0.21951
# Poissons Ratio (y) = 0.73863 0.12059
# Poissons Ratio (z) = 0.23757 0.05684
#
# Static dielectric constant tensor:
#      x y z
#    x 1.994170 0.065280 -0.024700 
#    y 0.065280 2.031550 -0.085790 
#    z -0.024700 -0.085790 1.946710 
# 
# From -- ./inp_files/157580.got.cif
#   From: 2010.05.17/outbox.cif.g08.bks.cpg/sg2_79_cif.got.tgz:157580.got - 2010.06.03 11:33:40.
