data_PCOD9092219
_publ_section_title
;
Structure prediction by ZEFSAII (Michael W. Deem and Ramdas Pophale) SiO2 
 PCOD9092219
Probable space group: P -1
;
_chemical_formula_sum "Si O2"
_cell_formula_units_Z 16
_cell_length_a 9.601471
_cell_length_b 14.315080
_cell_length_c 14.711505
_cell_angle_alpha 142.905023
_cell_angle_beta 37.583688
_cell_angle_gamma 141.638092
_cell_volume 677.362541
_symmetry_space_group_name_H-M "P -1"
_symmetry_group_IT_number 2
_symmetry_cell_setting 'triclinic'
loop_
_space_group_symop_operation_xyz
x,y,z
-x,-y,-z
loop_
_atom_site_type_symbol
_atom_site_label
_atom_site_fract_x
_atom_site_fract_y
_atom_site_fract_z
Si Si1 0.264562 0.157502 0.499028
Si Si2 0.955643 0.694451 0.889615
Si Si3 0.846133 0.738499 0.684713
Si Si4 0.332356 0.573310 0.590690
Si Si5 0.059371 0.680133 0.151754
Si Si6 0.711336 0.123761 0.315691
Si Si7 0.577899 0.752861 0.024715
Si Si8 0.205970 0.950076 0.121403
O O1 0.473370 0.227825 0.367118
O O2 0.435893 0.122984 0.459255
O O3 0.188522 0.313401 0.674031
O O4 0.000000 0.000000 0.500000
O O5 0.073989 0.564743 0.760990
O O6 0.111867 0.758125 0.764043
O O7 0.675137 0.647103 0.961445
O O8 0.047525 0.840249 0.031884
O O9 0.750221 0.547633 0.549284
O O10 0.687375 0.747262 0.862845
O O11 0.133682 0.806308 0.619492
O O12 0.830991 0.875176 0.726971
O O13 0.500000 0.500000 0.500000
O O14 0.127621 0.827041 0.153601
O O15 0.289565 0.715666 0.128120
O O16 0.000000 0.500000 0.000000
O O17 0.693007 0.940095 0.154051
O O18 0.500000 0.000000 0.000000
#
# Coordination Sequence:
#
# PCOD9092219 Si02
#       8
#     2   2   2   2   2   2   2   2
#     4  11  25  43  63  91 136 184 211 254 340 415
#     4  10  21  38  67  97 126 163 223 273 324 377
#     4  11  21  38  70  99 128 163 227 282 322 375
#     4  11  26  41  67 101 132 166 222 287 322 371
#     4  12  27  42  65  96 137 176 215 264 331 397
#     4  10  19  40  67  99 128 170 219 272 331 386
#     4  11  19  40  67  98 129 171 216 272 328 389
#     4  12  22  39  69  97 123 168 227 270 315 390
#
# _framework density 23.621027999999999
#
# number of rings (size 3 to 8) (size 9 to 14) (size 15 to 20)
#    0.000    1.000    5.000    2.250    5.250    5.500 
#    0.000    1.250    5.500    0.000    0.000    0.000 
#    0.000    0.000    0.000    0.000    0.000    0.000 
#
# Total GULP energy -89285.458591 kJ/mol
# GULP energy per Si atom -5580.341162 kJ/mol
# Density = 2.356727 g / cm^3
# Si number density = 23.621028 Si / 1000 Ang^3
#
#
#
# Elastic Constant Matrix: (Units=GPa)
#
#
# Indices 1 2 3 4 5 6 
#
# 1 158.1102 43.5617 38.8628 -9.2662 -28.0457 31.4510
# 2 43.5617 95.4409 17.0853 4.3337 0.9875 3.3980
# 3 38.8628 17.0853 93.7702 14.9839 -18.9936 15.1472
# 4 -9.2662 4.3337 14.9839 27.6709 10.8999 2.8884
# 5 -28.0457 0.9875 -18.9936 10.8999 42.8667 4.9302
# 6 31.4510 3.3980 15.1472 2.8884 4.9302 37.5584
#
#
#
# Elastic Compliance Matrix: (Units=1/GPa)
#
#
# Indices 1 2 3 4 5 6 
#
# 1 0.011438 -0.004860 -0.001369 0.003510 0.007224 -0.009804
# 2 -0.004860 0.012957 -0.001673 -0.001489 -0.004330 0.004256
# 3 -0.001369 -0.001673 0.016600 -0.012672 0.010386 -0.005786
# 4 0.003510 -0.001489 -0.012672 0.050756 -0.016251 0.000536
# 5 0.007224 -0.004330 0.010386 -0.016251 0.038457 -0.013644
# 6 -0.009804 0.004256 -0.005786 0.000536 -0.013644 0.038533
#
#
# Mechanical properties :
#
#
# Convention : Reuss Voigt Hill
#
# Bulk Modulus (GPa) = 39.69894 60.70457 50.20176
# Shear Modulus (GPa) = 25.91466 38.13994 32.02730
#
# Velocity S-wave (km/s) = 3.31585 4.02264 3.68622
# Velocity P-wave (km/s) = 5.61274 6.87973 6.27828
#
# Compressibility (1/GPa) = 0.02518959
#
# Stress axis : x y z
#
# Youngs Moduli (GPa) = 87.43157 77.18122 60.24181
#
# Poissons Ratio (x) = 0.37513 0.08246
# Poissons Ratio (y) = 0.42496 0.10078
# Poissons Ratio (z) = 0.11967 0.12912
#
# Static dielectric constant tensor:
#      x y z
#    x 2.069720 -0.249120 0.033610 
#    y -0.249120 2.516070 -0.220260 
#    z 0.033610 -0.220260 2.044660 
# 
# From -- ./inp_files/260236.got.cif
#   From: 2010.05.17/outbox.cif.g08.bks.cpg/sg2_131_cif.got.tgz:260236.got - 2010.06.03 11:33:40.
