data_PCOD9092013
_publ_section_title
;
Structure prediction by ZEFSAII (Michael W. Deem and Ramdas Pophale) SiO2 
 PCOD9092013
Probable space group: P -1
;
_chemical_formula_sum "Si O2"
_cell_formula_units_Z 14
_cell_length_a 12.345368
_cell_length_b 7.257618
_cell_length_c 7.379662
_cell_angle_alpha 60.876941
_cell_angle_beta 83.406580
_cell_angle_gamma 68.533892
_cell_volume 535.913750
_symmetry_space_group_name_H-M "P -1"
_symmetry_group_IT_number 2
_symmetry_cell_setting 'triclinic'
loop_
_space_group_symop_operation_xyz
x,y,z
-x,-y,-z
loop_
_atom_site_type_symbol
_atom_site_label
_atom_site_fract_x
_atom_site_fract_y
_atom_site_fract_z
Si Si1 0.787162 0.167849 0.122264
Si Si2 0.641399 0.979808 0.780770
Si Si3 0.313713 0.417828 0.321513
Si Si4 0.968409 0.762344 0.407396
Si Si5 0.438968 0.609345 0.775103
Si Si6 0.832497 0.119885 0.519768
Si Si7 0.631842 0.764249 0.238858
O O1 0.664740 0.169585 0.235899
O O2 0.832876 0.244774 0.266412
O O3 0.886369 0.925339 0.191513
O O4 0.754123 0.348201 0.881623
O O5 0.677894 0.770896 0.737789
O O6 0.708063 0.142529 0.619805
O O7 0.500894 0.076880 0.761425
O O8 0.676824 0.901703 0.016817
O O9 0.448633 0.388146 0.352950
O O10 0.084524 0.819602 0.386900
O O11 0.000000 0.500000 0.500000
O O12 0.894496 0.862227 0.558135
O O13 0.389286 0.436920 0.772467
O O14 0.500000 0.500000 0.000000
O O15 0.718019 0.653316 0.441919
#
# Coordination Sequence:
#
# PCOD9092013 Si02
#       7
#     2   2   2   2   2   2   2
#     4   9  19  40  71 106 150 191 245 326 383 428
#     4  11  23  44  66 113 158 203 252 302 368 451
#     4  11  22  41  70 106 162 202 243 311 369 452
#     4   9  20  46  81 115 137 189 266 323 388 452
#     4  10  19  40  65 105 154 198 243 301 365 441
#     4   9  21  44  75 110 153 186 250 332 383 427
#     4  11  23  40  69 109 161 213 251 282 373 466
#
# _framework density 26.123607
#
# number of rings (size 3 to 8) (size 9 to 14) (size 15 to 20)
#    0.857    1.143    2.857    1.714    0.000    0.000 
#    7.714    3.571    0.000    1.714    0.000    2.000 
#    0.000    0.000    0.000    0.000    0.000    0.000 
#
# Total GULP energy -78210.058702 kJ/mol
# GULP energy per Si atom -5586.432764 kJ/mol
# Density = 2.606415 g / cm^3
# Si number density = 26.123607 Si / 1000 Ang^3
#
#
#
# Elastic Constant Matrix: (Units=GPa)
#
#
# Indices 1 2 3 4 5 6 
#
# 1 97.7772 46.1189 44.8753 -6.3772 18.9954 -3.1802
# 2 46.1189 140.1103 49.2161 -15.3154 19.9324 6.0003
# 3 44.8753 49.2161 205.4588 -3.3353 47.1229 3.4102
# 4 -6.3772 -15.3154 -3.3353 41.8684 -7.1974 3.1202
# 5 18.9954 19.9324 47.1229 -7.1974 48.2675 -2.2924
# 6 -3.1802 6.0003 3.4102 3.1202 -2.2924 32.9418
#
#
#
# Elastic Compliance Matrix: (Units=1/GPa)
#
#
# Indices 1 2 3 4 5 6 
#
# 1 0.013082 -0.003536 -0.001570 0.000078 -0.002052 0.001919
# 2 -0.003536 0.009237 -0.001124 0.002742 -0.001023 -0.002238
# 3 -0.001570 -0.001124 0.006798 -0.001027 -0.005753 -0.000954
# 4 0.000078 0.002742 -0.001027 0.025617 0.003537 -0.002566
# 5 -0.002052 -0.001023 -0.005753 0.003537 0.028197 0.002211
# 6 0.001919 -0.002238 -0.000954 -0.002566 0.002211 0.031445
#
#
# Mechanical properties :
#
#
# Convention : Reuss Voigt Hill
#
# Bulk Modulus (GPa) = 60.03675 80.41854 70.22765
# Shear Modulus (GPa) = 37.76734 44.82460 41.29597
#
# Velocity S-wave (km/s) = 3.80638 4.14679 3.98023
# Velocity P-wave (km/s) = 6.50767 7.33339 6.93283
#
# Compressibility (1/GPa) = 0.01665646
#
# Stress axis : x y z
#
# Youngs Moduli (GPa) = 76.43991 108.25822 147.10183
#
# Poissons Ratio (x) = 0.38283 0.23097
# Poissons Ratio (y) = 0.27031 0.16535
# Poissons Ratio (z) = 0.12002 0.12169
#
# Static dielectric constant tensor:
#      x y z
#    x 2.154960 -0.070240 -0.082580 
#    y -0.070240 2.136550 0.059450 
#    z -0.082580 0.059450 2.179650 
# 
# From -- ./inp_files/444021.got.cif
#   From: 2010.05.17/outbox.cif.g08.bks.cpg/sg2_223_cif.got.tgz:444021.got - 2010.06.03 11:33:40.
