data_PCOD9092690
_publ_section_title
;
Structure prediction by ZEFSAII (Michael W. Deem and Ramdas Pophale) SiO2 
 PCOD9092690
Probable space group: P -1
;
_chemical_formula_sum "Si O2"
_cell_formula_units_Z 16
_cell_length_a 11.711544
_cell_length_b 7.822251
_cell_length_c 16.501738
_cell_angle_alpha 111.110759
_cell_angle_beta 55.771913
_cell_angle_gamma 144.390849
_cell_volume 712.794972
_symmetry_space_group_name_H-M "P -1"
_symmetry_group_IT_number 2
_symmetry_cell_setting 'triclinic'
loop_
_space_group_symop_operation_xyz
x,y,z
-x,-y,-z
loop_
_atom_site_type_symbol
_atom_site_label
_atom_site_fract_x
_atom_site_fract_y
_atom_site_fract_z
Si Si1 0.652145 0.481992 0.273364
Si Si2 0.238664 0.007582 0.887415
Si Si3 0.594941 0.392377 0.936169
Si Si4 0.222784 0.375417 0.571703
Si Si5 0.896941 0.120924 0.246790
Si Si6 0.668735 0.024888 0.468513
Si Si7 0.839600 0.070784 0.558284
Si Si8 0.252641 0.467341 0.932793
O O1 0.766963 0.552005 0.326117
O O2 0.383550 0.205521 0.347419
O O3 0.689152 0.417457 0.162224
O O4 0.766177 0.796486 0.262548
O O5 0.435395 0.141569 0.888565
O O6 0.261591 0.252711 0.903000
O O7 0.222478 0.907641 0.787161
O O8 0.002224 0.740556 0.982182
O O9 0.850255 0.656884 0.845671
O O10 0.500000 0.500000 0.000000
O O11 0.598830 0.314259 0.011898
O O12 0.483319 0.664337 0.488511
O O13 0.130190 0.073050 0.538968
O O14 0.055592 0.315504 0.570728
O O15 0.863117 0.194964 0.355004
O O16 0.769791 0.158226 0.539952
O O17 0.500000 0.000000 0.500000
#
# Coordination Sequence:
#
# PCOD9092690 Si02
#       8
#     2   2   2   2   2   2   2   2
#     4  10  16  29  49  72 104 135 167 211 264 312
#     4   8  15  26  39  62 101 134 161 205 249 304
#     4   9  16  27  41  69 105 134 164 208 260 311
#     4  10  20  35  53  75 104 135 176 224 264 307
#     4  10  18  29  47  73 101 139 175 202 260 315
#     4  11  22  38  54  74 108 144 179 217 253 309
#     4  10  20  35  53  76 102 137 178 222 262 309
#     4   8  15  24  40  67 100 129 163 201 250 319
#
# _framework density 22.446847999999999
#
# number of rings (size 3 to 8) (size 9 to 14) (size 15 to 20)
#    0.000    2.500    2.500    3.000    0.000    5.500 
#    0.000    0.000    0.000    0.000    0.000   14.000 
#    0.000   28.000    0.000    0.000    0.000    0.000 
#
# Total GULP energy -89181.872678 kJ/mol
# GULP energy per Si atom -5573.867042 kJ/mol
# Density = 2.239576 g / cm^3
# Si number density = 22.446848 Si / 1000 Ang^3
#
#
#
# Elastic Constant Matrix: (Units=GPa)
#
#
# Indices 1 2 3 4 5 6 
#
# 1 94.5589 43.8626 61.1258 9.1111 25.0928 45.7588
# 2 43.8626 67.3807 33.0823 3.1297 11.7959 26.7246
# 3 61.1258 33.0823 163.6803 11.3702 32.2707 32.7607
# 4 9.1111 3.1297 11.3702 2.1401 14.8480 4.5846
# 5 25.0928 11.7959 32.2707 14.8480 26.6422 17.0075
# 6 45.7588 26.7246 32.7607 4.5846 17.0075 53.4587
#
#
#
# Elastic Compliance Matrix: (Units=1/GPa)
#
#
# Indices 1 2 3 4 5 6 
#
# 1 0.024632 -0.008015 -0.003686 -0.001004 -0.006553 -0.012648
# 2 -0.008015 0.021798 -0.000990 -0.001519 0.002572 -0.004118
# 3 -0.003686 -0.000990 0.008789 -0.005863 -0.003365 -0.000163
# 4 -0.001004 -0.001519 -0.005863 -0.144252 0.097738 -0.013512
# 5 -0.006553 0.002572 -0.003365 0.097738 -0.008223 0.000620
# 6 -0.012648 -0.004118 -0.000163 -0.013512 0.000620 0.032653
#
#
# Mechanical properties :
#
#
# Convention : Reuss Voigt Hill
#
# Bulk Modulus (GPa) = 33.51363 66.86237 50.18800
# Shear Modulus (GPa) = -170.78965 28.95147 -70.91909
#
# Velocity S-wave (km/s) = -8.73221 3.59525 -5.62697
# Velocity P-wave (km/s) = 9.31160 6.86193 4.45084
#
# Compressibility (1/GPa) = 0.02983860
#
# Stress axis : x y z
#
# Youngs Moduli (GPa) = 40.59777 45.87571 113.77464
#
# Poissons Ratio (x) = 0.36768 0.41932
# Poissons Ratio (y) = 0.32538 0.11263
# Poissons Ratio (z) = 0.14963 0.04542
#
# Static dielectric constant tensor:
#      x y z
#    x 1.876960 -0.049760 0.045200 
#    y -0.049760 1.890100 0.051850 
#    z 0.045200 0.051850 1.841920 
# 
# From -- ./inp_files/277534.got.cif
#   From: 2010.05.17/outbox.cif.g08.bks.cpg/sg2_139_cif.got.tgz:277534.got - 2010.06.03 11:33:40.
