data_PCOD9092724
_publ_section_title
;
Structure prediction by ZEFSAII (Michael W. Deem and Ramdas Pophale) SiO2 
 PCOD9092724
Probable space group: P -1
;
_chemical_formula_sum "Si O2"
_cell_formula_units_Z 12
_cell_length_a 7.831574
_cell_length_b 7.850224
_cell_length_c 11.844929
_cell_angle_alpha 107.645900
_cell_angle_beta 71.344901
_cell_angle_gamma 131.373612
_cell_volume 513.432715
_symmetry_space_group_name_H-M "P -1"
_symmetry_group_IT_number 2
_symmetry_cell_setting 'triclinic'
loop_
_space_group_symop_operation_xyz
x,y,z
-x,-y,-z
loop_
_atom_site_type_symbol
_atom_site_label
_atom_site_fract_x
_atom_site_fract_y
_atom_site_fract_z
Si Si1 0.141415 0.771336 0.239697
Si Si2 0.882677 0.020788 0.150708
Si Si3 0.318262 0.114212 0.065078
Si Si4 0.250946 0.466360 0.871861
Si Si5 0.442560 0.971336 0.637349
Si Si6 0.662356 0.502294 0.377606
O O1 0.962676 0.562019 0.148463
O O2 0.936265 0.723623 0.355635
O O3 0.269107 0.976963 0.162996
O O4 0.339179 0.827826 0.292908
O O5 0.771558 0.037377 0.286597
O O6 0.158405 0.192449 0.124019
O O7 0.829322 0.774538 0.114600
O O8 0.765633 0.024460 0.062921
O O9 0.586802 0.323149 0.039094
O O10 0.411762 0.515174 0.739775
O O11 0.368785 0.726292 0.638294
O O12 0.500000 0.000000 0.500000
O O13 0.500000 0.500000 0.500000
#
# Coordination Sequence:
#
# PCOD9092724 Si02
#       6
#     2   2   2   2   2   2
#     4   9  21  40  61  91 120 161 208 243 311 368
#     4  10  23  37  65  97 124 160 207 255 301 362
#     4  10  19  42  66  89 126 166 206 244 307 374
#     4   9  19  40  62  88 119 165 209 240 303 370
#     4  12  25  41  60  94 128 156 206 267 307 351
#     4  10  22  40  62  86 120 167 206 243 306 374
#
# _framework density 23.372101000000001
#
# number of rings (size 3 to 8) (size 9 to 14) (size 15 to 20)
#    1.000    1.000    1.667    1.500    0.000    4.667 
#    0.000    1.667    0.000    0.000    0.000    0.000 
#    0.000    0.000    0.000    0.000    0.000    0.000 
#
# Total GULP energy -66816.726366 kJ/mol
# GULP energy per Si atom -5568.060531 kJ/mol
# Density = 2.331890 g / cm^3
# Si number density = 23.372101 Si / 1000 Ang^3
#
#
#
# Elastic Constant Matrix: (Units=GPa)
#
#
# Indices 1 2 3 4 5 6 
#
# 1 88.1311 21.8097 35.9986 6.5332 2.5277 25.0041
# 2 21.8097 78.0980 13.5967 -7.3444 3.5206 4.4118
# 3 35.9986 13.5967 106.6521 -25.1083 -1.4403 4.6278
# 4 6.5332 -7.3444 -25.1083 34.3341 4.1590 8.8105
# 5 2.5277 3.5206 -1.4403 4.1590 47.0267 -4.1574
# 6 25.0041 4.4118 4.6278 8.8105 -4.1574 30.4346
#
#
#
# Elastic Compliance Matrix: (Units=1/GPa)
#
#
# Indices 1 2 3 4 5 6 
#
# 1 0.019218 -0.003962 -0.006899 -0.006133 -0.001519 -0.012597
# 2 -0.003962 0.014312 0.000567 0.004480 -0.001271 -0.000376
# 3 -0.006899 0.000567 0.014486 0.012108 -0.000313 -0.000165
# 4 -0.006133 0.004480 0.012108 0.043361 -0.004407 -0.010606
# 5 -0.001519 -0.001271 -0.000313 -0.004407 0.022335 0.005807
# 6 -0.012597 -0.000376 -0.000165 -0.010606 0.005807 0.047150
#
#
# Mechanical properties :
#
#
# Convention : Reuss Voigt Hill
#
# Bulk Modulus (GPa) = 36.46132 46.18791 41.32461
# Shear Modulus (GPa) = 26.23392 35.79083 31.01238
#
# Velocity S-wave (km/s) = 3.35393 3.91749 3.64661
# Velocity P-wave (km/s) = 5.53468 6.34564 5.95398
#
# Compressibility (1/GPa) = 0.02742632
#
# Stress axis : x y z
#
# Youngs Moduli (GPa) = 52.03567 69.87080 69.03169
#
# Poissons Ratio (x) = 0.27685 0.47626
# Poissons Ratio (y) = 0.20618 -0.03912
# Poissons Ratio (z) = 0.35901 -0.03960
#
# Static dielectric constant tensor:
#      x y z
#    x 1.947220 0.046280 -0.001200 
#    y 0.046280 2.001680 0.021300 
#    z -0.001200 0.021300 1.901390 
# 
# From -- ./inp_files/267077.got.cif
#   From: 2010.05.17/outbox.cif.g08.bks.cpg/sg2_134_cif.got.tgz:267077.got - 2010.06.03 11:33:40.
