data_PCOD9092216
_publ_section_title
;
Structure prediction by ZEFSAII (Michael W. Deem and Ramdas Pophale) SiO2 
 PCOD9092216
Probable space group: P -1
;
_chemical_formula_sum "Si O2"
_cell_formula_units_Z 16
_cell_length_a 17.000244
_cell_length_b 10.978956
_cell_length_c 19.667514
_cell_angle_alpha 45.247901
_cell_angle_beta 158.432813
_cell_angle_gamma 146.377381
_cell_volume 701.111550
_symmetry_space_group_name_H-M "P -1"
_symmetry_group_IT_number 2
_symmetry_cell_setting 'triclinic'
loop_
_space_group_symop_operation_xyz
x,y,z
-x,-y,-z
loop_
_atom_site_type_symbol
_atom_site_label
_atom_site_fract_x
_atom_site_fract_y
_atom_site_fract_z
Si Si1 0.770440 0.919886 0.249956
Si Si2 0.851865 0.340346 0.766254
Si Si3 0.741804 0.359721 0.900897
Si Si4 0.117891 0.383050 0.823200
Si Si5 0.735708 0.162286 0.477912
Si Si6 0.661472 0.611633 0.514111
Si Si7 0.707474 0.544225 0.287465
Si Si8 0.345045 0.865239 0.825254
O O1 0.731239 0.695421 0.308093
O O2 0.804244 0.048895 0.294765
O O3 0.498463 0.849844 0.017427
O O4 0.046831 0.118488 0.347825
O O5 0.750839 0.475494 0.611666
O O6 0.960758 0.301081 0.802557
O O7 0.572225 0.103337 0.671458
O O8 0.118437 0.516535 0.963150
O O9 0.525186 0.386014 0.690577
O O10 0.585126 0.089055 0.883833
O O11 0.000000 0.500000 0.000000
O O12 0.172959 0.612747 0.754155
O O13 0.898203 0.189694 0.666592
O O14 0.430397 0.458501 0.053007
O O15 0.659337 0.322428 0.356319
O O16 0.984251 0.276744 0.575247
O O17 0.500000 0.500000 0.500000
#
# Coordination Sequence:
#
# PCOD9092216 Si02
#       8
#     2   2   2   2   2   2   2   2
#     4  10  19  40  67  97 137 167 218 285 335 404
#     4  12  25  46  65 104 141 178 230 284 341 413
#     4  12  25  39  66  98 137 177 218 281 347 409
#     4  11  24  45  72  98 141 181 230 286 338 401
#     4  11  26  44  69  98 139 187 240 271 336 409
#     4  12  23  40  67  98 136 176 217 274 353 407
#     4  10  24  43  69 100 134 183 237 284 334 400
#     4  10  20  40  67 101 134 170 222 280 345 405
#
# _framework density 22.820905
#
# number of rings (size 3 to 8) (size 9 to 14) (size 15 to 20)
#    0.000    1.000    3.750    3.000    1.750    6.000 
#    0.000    0.000    0.000    0.000    0.000    0.000 
#    0.000    0.000    0.000    0.000    0.000    0.000 
#
# Total GULP energy -89482.429762 kJ/mol
# GULP energy per Si atom -5592.651860 kJ/mol
# Density = 2.276896 g / cm^3
# Si number density = 22.820905 Si / 1000 Ang^3
#
#
#
# Elastic Constant Matrix: (Units=GPa)
#
#
# Indices 1 2 3 4 5 6 
#
# 1 39.3050 -5.1320 12.5621 -2.2234 5.3972 13.9186
# 2 -5.1320 88.3102 33.0600 -10.2228 7.2532 3.1012
# 3 12.5621 33.0600 106.0232 -16.7178 0.9590 -9.6122
# 4 -2.2234 -10.2228 -16.7178 36.0000 -2.1402 10.8964
# 5 5.3972 7.2532 0.9590 -2.1402 31.3376 1.3569
# 6 13.9186 3.1012 -9.6122 10.8964 1.3569 36.3303
#
#
#
# Elastic Compliance Matrix: (Units=1/GPa)
#
#
# Indices 1 2 3 4 5 6 
#
# 1 0.035951 0.006490 -0.006909 0.005826 -0.006320 -0.017667
# 2 0.006490 0.014631 -0.005261 0.003732 -0.003824 -0.006104
# 3 -0.006909 -0.005261 0.012768 0.002404 0.001935 0.005681
# 4 0.005826 0.003732 0.002404 0.034049 0.000911 -0.012161
# 5 -0.006320 -0.003824 0.001935 0.000911 0.033812 0.001723
# 6 -0.017667 -0.006104 0.005681 -0.012161 0.001723 0.039901
#
#
# Mechanical properties :
#
#
# Convention : Reuss Voigt Hill
#
# Bulk Modulus (GPa) = 19.23516 34.95759 27.09638
# Shear Modulus (GPa) = 25.02471 33.61015 29.31743
#
# Velocity S-wave (km/s) = 3.31504 3.84184 3.58812
# Velocity P-wave (km/s) = 4.80622 5.91871 5.39124
#
# Compressibility (1/GPa) = 0.05198813
#
# Stress axis : x y z
#
# Youngs Moduli (GPa) = 27.81562 68.34801 78.32272
#
# Poissons Ratio (x) = -0.44355 0.54113
# Poissons Ratio (y) = -0.18051 0.41209
# Poissons Ratio (z) = 0.19218 0.35961
#
# Static dielectric constant tensor:
#      x y z
#    x 1.883150 -0.005640 0.018530 
#    y -0.005640 1.850500 0.046250 
#    z 0.018530 0.046250 1.918210 
# 
# From -- ./inp_files/600076.got.cif
#   From: 2010.05.17/outbox.cif.g08.bks.cpg/sg2_301_cif.got.tgz:600076.got - 2010.06.03 11:33:40.
