data_PCOD9092131
_publ_section_title
;
Structure prediction by ZEFSAII (Michael W. Deem and Ramdas Pophale) SiO2 
 PCOD9092131
Probable space group: P -1
;
_chemical_formula_sum "Si O2"
_cell_formula_units_Z 16
_cell_length_a 12.208110
_cell_length_b 19.584392
_cell_length_c 7.257902
_cell_angle_alpha 105.000534
_cell_angle_beta 78.570761
_cell_angle_gamma 156.032919
_cell_volume 677.610184
_symmetry_space_group_name_H-M "P -1"
_symmetry_group_IT_number 2
_symmetry_cell_setting 'triclinic'
loop_
_space_group_symop_operation_xyz
x,y,z
-x,-y,-z
loop_
_atom_site_type_symbol
_atom_site_label
_atom_site_fract_x
_atom_site_fract_y
_atom_site_fract_z
Si Si1 0.811031 0.022032 0.961254
Si Si2 0.296337 0.973193 0.406297
Si Si3 0.588465 0.100719 0.871703
Si Si4 0.712026 0.683625 0.502893
Si Si5 0.407599 0.367170 0.916759
Si Si6 0.516791 0.719078 0.709462
Si Si7 0.837527 0.500309 0.998998
Si Si8 0.714958 0.333181 0.585470
O O1 0.981803 0.169294 0.493465
O O2 0.652078 0.981230 0.125602
O O3 0.760858 0.029015 0.782377
O O4 0.688419 0.873700 0.878947
O O5 0.560037 0.168861 0.522130
O O6 0.343329 0.916572 0.322017
O O7 0.854219 0.297506 0.977829
O O8 0.500000 0.000000 0.000000
O O9 0.500000 0.500000 0.500000
O O10 0.656082 0.676465 0.307519
O O11 0.652091 0.720717 0.658395
O O12 0.870694 0.800508 0.996832
O O13 0.500000 0.500000 0.000000
O O14 0.642150 0.450612 0.961726
O O15 0.236595 0.553930 0.800968
O O16 0.471921 0.724239 0.523210
O O17 0.764679 0.393930 0.813361
O O18 0.000000 0.500000 0.500000
#
# Coordination Sequence:
#
# PCOD9092131 Si02
#       8
#     2   2   2   2   2   2   2   2
#     4   9  21  37  65  93 131 176 220 274 338 396
#     4   9  20  38  67  92 133 179 218 270 347 399
#     4  10  19  40  66  94 130 184 220 271 342 403
#     4  11  22  41  66  95 138 177 217 279 342 400
#     4  11  22  39  63 102 127 171 231 275 332 399
#     4  11  24  43  67  98 137 177 219 275 345 394
#     4  12  24  41  71  97 133 175 230 276 331 408
#     4  11  24  43  68 103 133 175 225 284 334 402
#
# _framework density 23.612393000000001
#
# number of rings (size 3 to 8) (size 9 to 14) (size 15 to 20)
#    0.000    1.500    1.250    6.000    1.750    4.000 
#    2.250    0.000    2.750    3.000    0.000    0.000 
#    0.000    0.000    0.000    0.000    0.000    0.000 
#
# Total GULP energy -89560.427968 kJ/mol
# GULP energy per Si atom -5597.526748 kJ/mol
# Density = 2.355865 g / cm^3
# Si number density = 23.612393 Si / 1000 Ang^3
#
#
#
# Elastic Constant Matrix: (Units=GPa)
#
#
# Indices 1 2 3 4 5 6 
#
# 1 140.0327 50.3833 53.3788 4.0553 -31.0660 -3.0299
# 2 50.3833 142.1402 26.1329 6.8789 -13.0536 8.9652
# 3 53.3788 26.1329 103.5847 2.0086 -6.5413 -3.0795
# 4 4.0553 6.8789 2.0086 33.5872 -0.6346 -10.8700
# 5 -31.0660 -13.0536 -6.5413 -0.6346 46.8177 5.2365
# 6 -3.0299 8.9652 -3.0795 -10.8700 5.2365 35.1374
#
#
#
# Elastic Compliance Matrix: (Units=1/GPa)
#
#
# Indices 1 2 3 4 5 6 
#
# 1 0.011222 -0.002543 -0.004747 -0.000377 0.006049 0.000182
# 2 -0.002543 0.008503 -0.000830 -0.002454 0.000910 -0.003356
# 3 -0.004747 -0.000830 0.012225 0.000386 -0.001809 0.001263
# 4 -0.000377 -0.002454 0.000386 0.033950 -0.001693 0.011383
# 5 0.006049 0.000910 -0.001809 -0.001693 0.025826 -0.004242
# 6 0.000182 -0.003356 0.001263 0.011383 -0.004242 0.033596
#
#
# Mechanical properties :
#
#
# Convention : Reuss Voigt Hill
#
# Bulk Modulus (GPa) = 63.64524 71.72749 67.68637
# Shear Modulus (GPa) = 34.06041 40.16598 37.11319
#
# Velocity S-wave (km/s) = 3.80212 4.12886 3.96885
# Velocity P-wave (km/s) = 6.80349 7.29198 7.05197
#
# Compressibility (1/GPa) = 0.01571209
#
# Stress axis : x y z
#
# Youngs Moduli (GPa) = 89.10802 117.60291 81.79875
#
# Poissons Ratio (x) = 0.29906 0.38828
# Poissons Ratio (y) = 0.22660 0.06786
# Poissons Ratio (z) = 0.42298 0.09756
#
# Static dielectric constant tensor:
#      x y z
#    x 1.862520 -0.030830 -0.020220 
#    y -0.030830 1.847540 -0.065070 
#    z -0.020220 -0.065070 1.891220 
# 
# From -- ./inp_files/100660.got.cif
#   From: 2010.05.17/outbox.cif.g08.bks.cpg/sg2_51_cif.got.tgz:100660.got - 2010.06.03 11:33:40.
