data_PCOD9092197
_publ_section_title
;
Structure prediction by ZEFSAII (Michael W. Deem and Ramdas Pophale) SiO2 
 PCOD9092197
Probable space group: P -1
;
_chemical_formula_sum "Si O2"
_cell_formula_units_Z 14
_cell_length_a 13.922134
_cell_length_b 10.481515
_cell_length_c 10.544160
_cell_angle_alpha 120.514545
_cell_angle_beta 27.954749
_cell_angle_gamma 126.101753
_cell_volume 582.447681
_symmetry_space_group_name_H-M "P -1"
_symmetry_group_IT_number 2
_symmetry_cell_setting 'triclinic'
loop_
_space_group_symop_operation_xyz
x,y,z
-x,-y,-z
loop_
_atom_site_type_symbol
_atom_site_label
_atom_site_fract_x
_atom_site_fract_y
_atom_site_fract_z
Si Si1 0.428484 0.553905 0.912480
Si Si2 0.911675 0.769422 0.248310
Si Si3 0.703113 0.954403 0.194272
Si Si4 0.270213 0.743544 0.988132
Si Si5 0.594173 0.694962 0.383866
Si Si6 0.766020 0.718917 0.810460
Si Si7 0.822246 0.026686 0.627404
O O1 0.302905 0.635266 0.008514
O O2 0.276823 0.438306 0.136623
O O3 0.501213 0.439669 0.676748
O O4 0.632505 0.670632 0.811125
O O5 0.028885 0.706023 0.189819
O O6 0.751538 0.649633 0.276387
O O7 0.772104 0.874453 0.519711
O O8 0.105759 0.892775 0.002486
O O9 0.741047 0.851527 0.215070
O O10 0.500000 0.000000 0.500000
O O11 0.661626 0.832154 0.063934
O O12 0.328434 0.916525 0.073752
O O13 0.414580 0.733506 0.694937
O O14 0.023599 0.818356 0.549742
O O15 0.000000 0.000000 0.500000
#
# Coordination Sequence:
#
# PCOD9092197 Si02
#       7
#     2   2   2   2   2   2   2
#     4  10  23  42  61  92 123 173 213 246 307 372
#     4  10  22  41  62  95 128 160 204 268 310 364
#     4  10  19  40  67  95 120 162 213 253 320 371
#     4  11  23  39  62  95 122 169 206 249 320 370
#     4  11  23  40  63  92 131 162 207 259 308 371
#     4   9  21  43  66  84 131 163 205 271 294 365
#     4   9  21  40  61  93 124 156 207 258 314 364
#
# _framework density 24.036494999999999
#
# number of rings (size 3 to 8) (size 9 to 14) (size 15 to 20)
#    0.000    2.000    1.429    0.857    4.000    2.857 
#    2.571    0.000    0.000    0.000    0.000    0.000 
#    0.000    0.000    0.000    0.000    0.000    0.000 
#
# Total GULP energy -78208.322806 kJ/mol
# GULP energy per Si atom -5586.308772 kJ/mol
# Density = 2.398179 g / cm^3
# Si number density = 24.036495 Si / 1000 Ang^3
#
#
#
# Elastic Constant Matrix: (Units=GPa)
#
#
# Indices 1 2 3 4 5 6 
#
# 1 146.4072 36.4185 38.4090 8.6790 11.5586 1.2478
# 2 36.4185 57.3739 28.3666 -3.5148 10.3965 -3.6471
# 3 38.4090 28.3666 132.8044 25.0664 16.4146 -1.3392
# 4 8.6790 -3.5148 25.0664 40.4006 -5.4150 19.3067
# 5 11.5586 10.3965 16.4146 -5.4150 26.1937 2.5052
# 6 1.2478 -3.6471 -1.3392 19.3067 2.5052 53.6430
#
#
#
# Elastic Compliance Matrix: (Units=1/GPa)
#
#
# Indices 1 2 3 4 5 6 
#
# 1 0.008497 -0.004776 -0.000807 -0.002132 -0.001819 0.000310
# 2 -0.004776 0.023483 -0.004201 0.005273 -0.003477 -0.000133
# 3 -0.000807 -0.004201 0.011642 -0.010448 -0.007829 0.004150
# 4 -0.002132 0.005273 -0.010448 0.041671 0.015499 -0.015574
# 5 -0.001819 -0.003477 -0.007829 0.015499 0.049261 -0.008268
# 6 0.000310 -0.000133 0.004150 -0.015574 -0.008268 0.024721
#
#
# Mechanical properties :
#
#
# Convention : Reuss Voigt Hill
#
# Bulk Modulus (GPa) = 41.57406 60.33043 50.95225
# Shear Modulus (GPa) = 26.75763 39.60687 33.18225
#
# Velocity S-wave (km/s) = 3.34010 4.06369 3.71953
# Velocity P-wave (km/s) = 5.67528 6.86820 6.30004
#
# Compressibility (1/GPa) = 0.02405346
#
# Stress axis : x y z
#
# Youngs Moduli (GPa) = 117.68359 42.58368 85.89464
#
# Poissons Ratio (x) = 0.20338 0.06933
# Poissons Ratio (y) = 0.56207 0.36088
# Poissons Ratio (z) = 0.09499 0.17891
#
# Static dielectric constant tensor:
#      x y z
#    x 1.917360 -0.026150 0.019790 
#    y -0.026150 1.980270 -0.042100 
#    z 0.019790 -0.042100 1.959100 
# 
# From -- ./inp_files/259789.got.cif
#   From: 2010.05.17/outbox.cif.g08.bks.cpg/sg2_130_cif.got.tgz:259789.got - 2010.06.03 11:33:40.
