data_PCOD9092835
_publ_section_title
;
Structure prediction by ZEFSAII (Michael W. Deem and Ramdas Pophale) SiO2 
 PCOD9092835
Probable space group: P -1
;
_chemical_formula_sum "Si O2"
_cell_formula_units_Z 16
_cell_length_a 8.703940
_cell_length_b 14.439330
_cell_length_c 15.001270
_cell_angle_alpha 136.975454
_cell_angle_beta 40.542257
_cell_angle_gamma 113.350515
_cell_volume 780.441383
_symmetry_space_group_name_H-M "P -1"
_symmetry_group_IT_number 2
_symmetry_cell_setting 'triclinic'
loop_
_space_group_symop_operation_xyz
x,y,z
-x,-y,-z
loop_
_atom_site_type_symbol
_atom_site_label
_atom_site_fract_x
_atom_site_fract_y
_atom_site_fract_z
Si Si1 0.219390 0.824147 0.363459
Si Si2 0.409828 0.538888 0.168497
Si Si3 0.032947 0.406827 0.331372
Si Si4 0.710070 0.905017 0.410189
Si Si5 0.522472 0.567451 0.444653
Si Si6 0.784689 0.350096 0.020874
Si Si7 0.522780 0.151592 0.920195
Si Si8 0.674271 0.840256 0.572777
O O1 0.328931 0.713113 0.318662
O O2 0.396547 0.816194 0.193488
O O3 0.976948 0.796813 0.412291
O O4 0.144251 0.987210 0.547994
O O5 0.171134 0.489167 0.262006
O O6 0.638057 0.458445 0.080245
O O7 0.500000 0.500000 0.000000
O O8 0.000000 0.500000 0.500000
O O9 0.762727 0.391410 0.433312
O O10 0.232348 0.244553 0.128985
O O11 0.580419 0.885175 0.545054
O O12 0.500000 0.000000 0.500000
O O13 0.915746 0.746707 0.183383
O O14 0.500000 0.500000 0.500000
O O15 0.708662 0.451526 0.212611
O O16 0.604730 0.702076 0.524721
O O17 0.659541 0.225806 0.980941
O O18 0.575940 0.980960 0.778265
#
# Coordination Sequence:
#
# PCOD9092835 Si02
#       8
#     2   2   2   2   2   2   2   2
#     4  11  20  41  71 104 138 180 236 289 360 421
#     4  11  20  38  74 107 128 185 242 291 352 419
#     4  11  22  41  67  99 141 187 237 284 343 422
#     4  11  24  41  70 107 142 177 234 304 357 419
#     4  12  28  45  64  99 145 191 239 294 349 421
#     4  11  22  45  68 100 144 181 237 293 355 414
#     4  10  19  42  74  94 135 190 228 287 351 417
#     4  11  23  44  68 100 144 186 231 294 359 422
#
# _framework density 20.501221000000001
#
# number of rings (size 3 to 8) (size 9 to 14) (size 15 to 20)
#    0.000    1.000    7.500    1.500    1.750    3.000 
#    2.250    1.875    0.000    0.000    0.000    0.000 
#    0.000    0.000    0.000    0.000    0.000    0.000 
#
# Total GULP energy -89160.900877 kJ/mol
# GULP energy per Si atom -5572.556305 kJ/mol
# Density = 2.045456 g / cm^3
# Si number density = 20.501221 Si / 1000 Ang^3
#
#
#
# Elastic Constant Matrix: (Units=GPa)
#
#
# Indices 1 2 3 4 5 6 
#
# 1 72.5341 27.0624 19.2243 5.8881 -3.9184 -1.1948
# 2 27.0624 126.2408 43.8140 24.4993 15.8955 6.2914
# 3 19.2243 43.8140 127.6942 21.6699 0.1562 8.2146
# 4 5.8881 24.4993 21.6699 32.1987 0.5064 -1.5550
# 5 -3.9184 15.8955 0.1562 0.5064 31.0187 -1.1008
# 6 -1.1948 6.2914 8.2146 -1.5550 -1.1008 33.9666
#
#
#
# Elastic Compliance Matrix: (Units=1/GPa)
#
#
# Indices 1 2 3 4 5 6 
#
# 1 0.015672 -0.003620 -0.001374 0.000835 0.003889 0.001718
# 2 -0.003620 0.011683 -0.002157 -0.006786 -0.006404 -0.002288
# 3 -0.001374 -0.002157 0.009728 -0.004774 0.000883 -0.002191
# 4 0.000835 -0.006786 -0.004774 0.039442 0.003117 0.004348
# 5 0.003889 -0.006404 0.000883 0.003117 0.036042 0.002420
# 6 0.001718 -0.002288 -0.002191 0.004348 0.002420 0.030732
#
#
# Mechanical properties :
#
#
# Convention : Reuss Voigt Hill
#
# Bulk Modulus (GPa) = 43.89722 56.29674 50.09698
# Shear Modulus (GPa) = 30.26693 35.19470 32.73082
#
# Velocity S-wave (km/s) = 3.84650 4.14782 4.00000
# Velocity P-wave (km/s) = 6.41762 7.10345 6.76923
#
# Compressibility (1/GPa) = 0.02278048
#
# Stress axis : x y z
#
# Youngs Moduli (GPa) = 63.80753 85.59189 102.79182
#
# Poissons Ratio (x) = 0.30985 0.14128
# Poissons Ratio (y) = 0.23099 0.22174
# Poissons Ratio (z) = 0.08770 0.18464
#
# Static dielectric constant tensor:
#      x y z
#    x 1.688580 0.032080 -0.007090 
#    y 0.032080 1.716700 0.039970 
#    z -0.007090 0.039970 1.755310 
# 
# From -- ./inp_files/504327.got.cif
#   From: 2010.05.17/outbox.cif.g08.bks.cpg/sg2_253_cif.got.tgz:504327.got - 2010.06.03 11:33:40.
