data_PCOD9092060
_publ_section_title
;
Structure prediction by ZEFSAII (Michael W. Deem and Ramdas Pophale) SiO2 
 PCOD9092060
Probable space group: P -1
;
_chemical_formula_sum "Si O2"
_cell_formula_units_Z 10
_cell_length_a 9.161878
_cell_length_b 15.157721
_cell_length_c 11.874526
_cell_angle_alpha 151.363139
_cell_angle_beta 37.782679
_cell_angle_gamma 137.219750
_cell_volume 479.620913
_symmetry_space_group_name_H-M "P -1"
_symmetry_group_IT_number 2
_symmetry_cell_setting 'triclinic'
loop_
_space_group_symop_operation_xyz
x,y,z
-x,-y,-z
loop_
_atom_site_type_symbol
_atom_site_label
_atom_site_fract_x
_atom_site_fract_y
_atom_site_fract_z
Si Si1 0.231563 0.417446 0.816598
Si Si2 0.336508 0.445346 0.429075
Si Si3 0.368839 0.028200 0.229581
Si Si4 0.137179 0.028353 0.064466
Si Si5 0.987199 0.253263 0.982237
O O1 0.475953 0.549039 0.781627
O O2 0.268037 0.221461 0.516619
O O3 0.201440 0.372637 0.917538
O O4 0.000000 0.500000 0.000000
O O5 0.500000 0.500000 0.500000
O O6 0.183756 0.245027 0.310989
O O7 0.166078 0.603871 0.704242
O O8 0.159400 0.855568 0.155513
O O9 0.500000 0.000000 0.000000
O O10 0.590722 0.023774 0.173407
O O11 0.996373 0.904125 0.110411
O O12 0.000000 0.000000 0.000000
#
# Coordination Sequence:
#
# PCOD9092060 Si02
#       5
#     2   2   2   2   2
#     4  12  22  36  69 105 127 166 219 279 325 377
#     4  12  21  42  68  99 130 167 222 272 321 390
#     4  10  19  40  65  94 132 165 216 268 318 387
#     4  11  24  43  67  92 135 181 212 265 334 384
#     4  11  23  40  68  98 129 169 220 273 323 387
#
# _framework density 20.849799999999998
#
# number of rings (size 3 to 8) (size 9 to 14) (size 15 to 20)
#    0.000    0.800    8.000    1.800    0.000    0.800 
#    0.000    2.000    0.000    0.000    0.000    0.000 
#    0.000    0.000    0.000    0.000    0.000    0.000 
#
# Total GULP energy -55789.545274 kJ/mol
# GULP energy per Si atom -5578.954527 kJ/mol
# Density = 2.080234 g / cm^3
# Si number density = 20.849800 Si / 1000 Ang^3
#
#
#
# Elastic Constant Matrix: (Units=GPa)
#
#
# Indices 1 2 3 4 5 6 
#
# 1 116.2715 44.5408 24.5218 7.7124 1.9561 -13.3217
# 2 44.5408 153.4120 31.6746 -0.7126 3.1690 -37.3989
# 3 24.5218 31.6746 122.5052 19.7692 -15.5447 -3.8457
# 4 7.7124 -0.7126 19.7692 45.3651 -3.4111 3.6937
# 5 1.9561 3.1690 -15.5447 -3.4111 15.0369 1.3039
# 6 -13.3217 -37.3989 -3.8457 3.6937 1.3039 18.2774
#
#
#
# Elastic Compliance Matrix: (Units=1/GPa)
#
#
# Indices 1 2 3 4 5 6 
#
# 1 0.010218 -0.001331 -0.001739 -0.001679 -0.003657 0.004958
# 2 -0.001331 0.015338 -0.003820 -0.001099 -0.009906 0.030539
# 3 -0.001739 -0.003820 0.011412 -0.003217 0.012700 -0.006939
# 4 -0.001679 -0.001099 -0.003217 0.024747 0.003553 -0.009405
# 5 -0.003657 -0.009906 0.012700 0.003553 0.085349 -0.027069
# 6 0.004958 0.030539 -0.006939 -0.009405 -0.027069 0.123187
#
#
# Mechanical properties :
#
#
# Convention : Reuss Voigt Hill
#
# Bulk Modulus (GPa) = 43.12638 65.96256 54.54447
# Shear Modulus (GPa) = 17.13742 35.16598 26.15170
#
# Velocity S-wave (km/s) = 2.87007 4.11132 3.54544
# Velocity P-wave (km/s) = 5.63137 7.36498 6.55573
#
# Compressibility (1/GPa) = 0.02318766
#
# Stress axis : x y z
#
# Youngs Moduli (GPa) = 97.86499 65.19720 87.63050
#
# Poissons Ratio (x) = 0.08680 0.15235
# Poissons Ratio (y) = 0.13030 0.33476
# Poissons Ratio (z) = 0.17014 0.24906
#
# Static dielectric constant tensor:
#      x y z
#    x 1.783970 0.004320 -0.026770 
#    y 0.004320 1.885970 -0.017760 
#    z -0.026770 -0.017760 1.754280 
# 
# From -- ./inp_files/266981.got.cif
#   From: 2010.05.17/outbox.cif.g08.bks.cpg/sg2_134_cif.got.tgz:266981.got - 2010.06.03 11:33:40.
