data_PCOD9092285
_publ_section_title
;
Structure prediction by ZEFSAII (Michael W. Deem and Ramdas Pophale) SiO2 
 PCOD9092285
Probable space group: P -1
;
_chemical_formula_sum "Si O2"
_cell_formula_units_Z 16
_cell_length_a 12.998228
_cell_length_b 10.195162
_cell_length_c 14.414973
_cell_angle_alpha 112.243564
_cell_angle_beta 134.522702
_cell_angle_gamma 35.652028
_cell_volume 704.796846
_symmetry_space_group_name_H-M "P -1"
_symmetry_group_IT_number 2
_symmetry_cell_setting 'triclinic'
loop_
_space_group_symop_operation_xyz
x,y,z
-x,-y,-z
loop_
_atom_site_type_symbol
_atom_site_label
_atom_site_fract_x
_atom_site_fract_y
_atom_site_fract_z
Si Si1 0.930419 0.657174 0.181151
Si Si2 0.433710 0.139396 0.690096
Si Si3 0.444241 0.292399 0.323637
Si Si4 0.414052 0.626827 0.880622
Si Si5 0.974361 0.599413 0.652290
Si Si6 0.473082 0.212470 0.116808
Si Si7 0.155532 0.963379 0.337516
Si Si8 0.272696 0.831771 0.167785
O O1 0.156685 0.555984 0.246689
O O2 0.046162 0.452643 0.273877
O O3 0.736281 0.914217 0.184491
O O4 0.758484 0.710820 0.013168
O O5 0.243124 0.294956 0.522272
O O6 0.666553 0.056631 0.794829
O O7 0.253712 0.338109 0.714347
O O8 0.515531 0.911310 0.697960
O O9 0.482021 0.290393 0.238814
O O10 0.643926 0.200952 0.495562
O O11 0.556575 0.655064 0.951375
O O12 0.500010 0.443167 0.809427
O O13 0.108734 0.897039 0.763575
O O14 0.500000 0.500000 0.000000
O O15 0.923139 0.808211 0.670587
O O16 0.266322 0.821143 0.271637
O O17 0.000000 0.000000 0.000000
#
# Coordination Sequence:
#
# PCOD9092285 Si02
#       8
#     2   2   2   2   2   2   2   2
#     4  11  23  42  69  96 137 171 222 279 332 390
#     4  10  21  37  69 102 131 171 220 271 336 378
#     4  11  24  44  69  98 137 172 227 280 327 395
#     4  12  26  47  68  94 136 174 218 279 333 402
#     4  10  19  40  69  98 133 171 217 280 323 386
#     4  11  27  44  65  98 132 181 222 268 344 399
#     4  11  24  43  68 102 131 181 224 271 336 386
#     4  12  25  39  66 102 134 173 220 271 327 393
#
# _framework density 22.701575999999999
#
# number of rings (size 3 to 8) (size 9 to 14) (size 15 to 20)
#    0.000    1.000    3.750    2.625    1.750    4.500 
#    0.000    1.250    0.000    0.000    0.000    0.000 
#    0.000    0.000    0.000    0.000    0.000    0.000 
#
# Total GULP energy -89625.516874 kJ/mol
# GULP energy per Si atom -5601.594805 kJ/mol
# Density = 2.264991 g / cm^3
# Si number density = 22.701576 Si / 1000 Ang^3
#
#
#
# Elastic Constant Matrix: (Units=GPa)
#
#
# Indices 1 2 3 4 5 6 
#
# 1 73.6611 14.5667 50.6348 -0.4435 -3.5852 -16.9548
# 2 14.5667 71.8280 23.3130 4.7750 -10.4383 -28.7774
# 3 50.6348 23.3130 113.1124 5.0248 -0.5788 -28.5115
# 4 -0.4435 4.7750 5.0248 25.8674 -7.1263 -6.7745
# 5 -3.5852 -10.4383 -0.5788 -7.1263 41.4441 5.4142
# 6 -16.9548 -28.7774 -28.5115 -6.7745 5.4142 36.9844
#
#
#
# Elastic Compliance Matrix: (Units=1/GPa)
#
#
# Indices 1 2 3 4 5 6 
#
# 1 0.020157 -0.000114 -0.008370 0.003275 0.001764 0.003041
# 2 -0.000114 0.020677 -0.000340 0.001240 0.003381 0.015507
# 3 -0.008370 -0.000340 0.014495 -0.001544 -0.001794 0.007053
# 4 0.003275 0.001240 -0.001544 0.042804 0.006875 0.008110
# 5 0.001764 0.003381 -0.001794 0.006875 0.026361 -0.000544
# 6 0.003041 0.015507 0.007053 0.008110 -0.000544 0.047500
#
#
# Mechanical properties :
#
#
# Convention : Reuss Voigt Hill
#
# Bulk Modulus (GPa) = 26.53809 48.40338 37.47074
# Shear Modulus (GPa) = 24.72779 32.19831 28.46305
#
# Velocity S-wave (km/s) = 3.30397 3.77016 3.54473
# Velocity P-wave (km/s) = 5.12545 6.34980 5.77019
#
# Compressibility (1/GPa) = 0.03768168
#
# Stress axis : x y z
#
# Youngs Moduli (GPa) = 49.61004 48.36280 68.99138
#
# Poissons Ratio (x) = 0.00553 0.57744
# Poissons Ratio (y) = 0.00567 0.02343
# Poissons Ratio (z) = 0.41522 0.01642
#
# Static dielectric constant tensor:
#      x y z
#    x 1.840670 0.018160 -0.001830 
#    y 0.018160 1.854480 0.002030 
#    z -0.001830 0.002030 1.809980 
# 
# From -- ./inp_files/519748.got.cif
#   From: 2010.05.17/outbox.cif.g08.bks.cpg/sg2_260_cif.got.tgz:519748.got - 2010.06.03 11:33:40.
