data_PCOD9092079
_publ_section_title
;
Structure prediction by ZEFSAII (Michael W. Deem and Ramdas Pophale) SiO2 
 PCOD9092079
Probable space group: P -1
;
_chemical_formula_sum "Si O2"
_cell_formula_units_Z 16
_cell_length_a 19.873250
_cell_length_b 10.601476
_cell_length_c 8.600561
_cell_angle_alpha 128.922686
_cell_angle_beta 140.539810
_cell_angle_gamma 33.863698
_cell_volume 641.279257
_symmetry_space_group_name_H-M "P -1"
_symmetry_group_IT_number 2
_symmetry_cell_setting 'triclinic'
loop_
_space_group_symop_operation_xyz
x,y,z
-x,-y,-z
loop_
_atom_site_type_symbol
_atom_site_label
_atom_site_fract_x
_atom_site_fract_y
_atom_site_fract_z
Si Si1 0.807424 0.093762 0.346472
Si Si2 0.384754 0.609898 0.238636
Si Si3 0.558347 0.568281 0.283549
Si Si4 0.301762 0.135444 0.967492
Si Si5 0.084479 0.931009 0.811495
Si Si6 0.149606 0.319690 0.528462
Si Si7 0.613999 0.713160 0.214900
Si Si8 0.964653 0.403383 0.993820
O O1 0.694414 0.328285 0.418935
O O2 0.964001 0.916714 0.576548
O O3 0.737937 0.991615 0.118127
O O4 0.827968 0.156762 0.263916
O O5 0.500000 0.500000 0.500000
O O6 0.429617 0.716451 0.293607
O O7 0.418902 0.405464 0.047807
O O8 0.204457 0.799188 0.061907
O O9 0.612121 0.661130 0.351188
O O10 0.500000 0.500000 0.000000
O O11 0.263452 0.141537 0.724214
O O12 0.190538 0.385511 0.036401
O O13 0.475185 0.983302 0.166444
O O14 0.981685 0.200368 0.817604
O O15 0.231972 0.382141 0.643113
O O16 0.095605 0.272889 0.252882
O O17 0.000000 0.500000 0.500000
O O18 0.000000 0.500000 0.000000
#
# Coordination Sequence:
#
# PCOD9092079 Si02
#       8
#     2   2   2   2   2   2   2   2
#     4  11  21  40  74 100 132 186 240 280 346 428
#     4  11  24  42  69 108 145 173 229 304 357 405
#     4  10  19  40  66 102 133 180 235 282 340 424
#     4  11  22  45  67  96 136 188 230 284 346 422
#     4  11  24  40  69 106 137 182 232 290 354 408
#     4  10  26  44  67  94 136 184 233 284 352 422
#     4  11  22  44  74  94 132 194 240 275 352 430
#     4  11  25  42  64  97 144 178 229 290 342 412
#
# _framework density 24.950126999999998
#
# number of rings (size 3 to 8) (size 9 to 14) (size 15 to 20)
#    0.000    1.250    6.250    0.375    7.000    0.000 
#    4.500    1.875    0.000    0.000    0.000    0.000 
#    0.000    0.000    0.000    0.000    0.000    0.000 
#
# Total GULP energy -89326.806870 kJ/mol
# GULP energy per Si atom -5582.925429 kJ/mol
# Density = 2.489334 g / cm^3
# Si number density = 24.950127 Si / 1000 Ang^3
#
#
#
# Elastic Constant Matrix: (Units=GPa)
#
#
# Indices 1 2 3 4 5 6 
#
# 1 83.0024 -5.5969 23.2091 -12.7600 14.2429 -12.3280
# 2 -5.5969 113.7060 22.7164 -24.8780 5.3527 -15.7335
# 3 23.2091 22.7164 95.0695 -22.5619 1.1392 -8.2640
# 4 -12.7600 -24.8780 -22.5619 38.5778 -1.8948 2.6481
# 5 14.2429 5.3527 1.1392 -1.8948 39.5158 -14.8083
# 6 -12.3280 -15.7335 -8.2640 2.6481 -14.8083 22.1372
#
#
#
# Elastic Compliance Matrix: (Units=1/GPa)
#
#
# Indices 1 2 3 4 5 6 
#
# 1 0.015483 0.003638 -0.002713 0.005215 -0.002880 0.007645
# 2 0.003638 0.012264 -0.001082 0.007838 0.001277 0.010255
# 3 -0.002713 -0.001082 0.013127 0.005958 0.002331 0.003467
# 4 0.005215 0.007838 0.005958 0.035749 0.001345 0.007322
# 5 -0.002880 0.001277 0.002331 0.001345 0.034930 0.023379
# 6 0.007645 0.010255 0.003467 0.007322 0.023379 0.072776
#
#
# Mechanical properties :
#
#
# Convention : Reuss Voigt Hill
#
# Bulk Modulus (GPa) = 24.65440 41.38167 33.01803
# Shear Modulus (GPa) = 25.23192 36.80947 31.02069
#
# Velocity S-wave (km/s) = 3.18354 3.84516 3.52988
# Velocity P-wave (km/s) = 4.83902 6.02789 5.46587
#
# Compressibility (1/GPa) = 0.04056072
#
# Stress axis : x y z
#
# Youngs Moduli (GPa) = 64.58654 81.54162 76.17909
#
# Poissons Ratio (x) = -0.29669 0.20664
# Poissons Ratio (y) = -0.23500 0.08246
# Poissons Ratio (z) = 0.17520 0.08826
#
# Static dielectric constant tensor:
#      x y z
#    x 2.010460 0.018520 0.050250 
#    y 0.018520 2.063480 -0.015950 
#    z 0.050250 -0.015950 2.047480 
# 
# From -- ./inp_files/346393.got.cif
#   From: 2010.05.17/outbox.cif.g08.bks.cpg/sg2_174_cif.got.tgz:346393.got - 2010.06.03 11:33:40.
