data_PCOD9092691
_publ_section_title
;
Structure prediction by ZEFSAII (Michael W. Deem and Ramdas Pophale) SiO2 
 PCOD9092691
Probable space group: P -1
;
_chemical_formula_sum "Si O2"
_cell_formula_units_Z 16
_cell_length_a 11.868967
_cell_length_b 9.259166
_cell_length_c 15.450108
_cell_angle_alpha 66.927939
_cell_angle_beta 138.082747
_cell_angle_gamma 132.542849
_cell_volume 814.102368
_symmetry_space_group_name_H-M "P -1"
_symmetry_group_IT_number 2
_symmetry_cell_setting 'triclinic'
loop_
_space_group_symop_operation_xyz
x,y,z
-x,-y,-z
loop_
_atom_site_type_symbol
_atom_site_label
_atom_site_fract_x
_atom_site_fract_y
_atom_site_fract_z
Si Si1 0.860417 0.759835 0.482534
Si Si2 0.764323 0.474588 0.133177
Si Si3 0.415363 0.447897 0.366339
Si Si4 0.680901 0.972143 0.613736
Si Si5 0.047880 0.113858 0.912676
Si Si6 0.708438 0.902458 0.094107
Si Si7 0.004316 0.681181 0.762718
Si Si8 0.092621 0.281899 0.668438
O O1 0.602146 0.636567 0.372045
O O2 0.898397 0.677986 0.437237
O O3 0.932786 0.716867 0.622256
O O4 0.000000 0.000000 0.500000
O O5 0.772955 0.644948 0.046722
O O6 0.941178 0.464866 0.193864
O O7 0.820687 0.547415 0.248688
O O8 0.532899 0.259762 0.039426
O O9 0.500000 0.500000 0.500000
O O10 0.399600 0.254338 0.379475
O O11 0.183554 0.396592 0.255759
O O12 0.500000 0.000000 0.500000
O O13 0.832615 0.069684 0.762080
O O14 0.848594 0.096311 0.601362
O O15 0.130180 0.036461 0.907906
O O16 0.000000 0.000000 0.000000
O O17 0.767189 0.794621 0.218479
O O18 0.781380 0.105399 0.131730
#
# Coordination Sequence:
#
# PCOD9092691 Si02
#       8
#     2   2   2   2   2   2   2   2
#     4  11  22  39  63  92 124 161 211 253 311 387
#     4  10  23  38  67  91 122 168 212 260 313 375
#     4  10  21  36  64  84 123 171 199 247 326 378
#     4  10  21  40  65  93 125 166 205 264 321 374
#     4  10  22  42  64  90 128 161 220 262 312 383
#     4  10  19  42  64  83 128 170 210 250 319 375
#     4  11  21  42  61  95 126 170 207 253 322 382
#     4  10  20  40  62  91 127 159 212 261 312 377
#
# _framework density 19.653548000000001
#
# number of rings (size 3 to 8) (size 9 to 14) (size 15 to 20)
#    0.000    2.000    3.750    2.625    7.000    2.500 
#    2.250    0.625    0.000    0.000    0.000    0.000 
#    0.000    0.000    0.000    0.000    0.000    0.000 
#
# Total GULP energy -89199.227066 kJ/mol
# GULP energy per Si atom -5574.951692 kJ/mol
# Density = 1.960882 g / cm^3
# Si number density = 19.653548 Si / 1000 Ang^3
#
#
#
# Elastic Constant Matrix: (Units=GPa)
#
#
# Indices 1 2 3 4 5 6 
#
# 1 107.4260 58.5890 44.1790 2.2410 0.4997 3.7569
# 2 58.5890 80.3241 32.6663 27.8328 -5.8467 -5.5498
# 3 44.1790 32.6663 52.6654 13.4992 -0.5651 12.7059
# 4 2.2410 27.8328 13.4992 32.8565 2.7387 -1.2716
# 5 0.4997 -5.8467 -0.5651 2.7387 32.1506 -2.2108
# 6 3.7569 -5.5498 12.7059 -1.2716 -2.2108 39.2836
#
#
#
# Elastic Compliance Matrix: (Units=1/GPa)
#
#
# Indices 1 2 3 4 5 6 
#
# 1 0.027563 -0.022966 -0.015032 0.024308 -0.006983 -0.000625
# 2 -0.022966 0.042855 0.000017 -0.035418 0.011701 0.007757
# 3 -0.015032 0.000017 0.038252 -0.015263 0.001429 -0.011346
# 4 0.024308 -0.035418 -0.015263 0.066079 -0.012783 -0.000972
# 5 -0.006983 0.011701 0.001429 -0.012783 0.034688 0.003397
# 6 -0.000625 0.007757 -0.011346 -0.000972 0.003397 0.030441
#
#
# Mechanical properties :
#
#
# Convention : Reuss Voigt Hill
#
# Bulk Modulus (GPa) = 30.57410 56.80935 43.69172
# Shear Modulus (GPa) = 15.30261 27.85688 21.57975
#
# Velocity S-wave (km/s) = 2.79340 3.76892 3.31721
# Velocity P-wave (km/s) = 5.09847 6.92155 6.07874
#
# Compressibility (1/GPa) = 0.03270743
#
# Stress axis : x y z
#
# Youngs Moduli (GPa) = 36.28008 23.33469 26.14265
#
# Poissons Ratio (x) = 0.53591 0.39297
# Poissons Ratio (y) = 0.83322 -0.00044
# Poissons Ratio (z) = 0.54535 -0.00039
#
# Static dielectric constant tensor:
#      x y z
#    x 1.708410 -0.002570 0.023340 
#    y -0.002570 1.668820 0.031230 
#    z 0.023340 0.031230 1.727430 
# 
# From -- ./inp_files/515441.got.cif
#   From: 2010.05.17/outbox.cif.g08.bks.cpg/sg2_258_cif.got.tgz:515441.got - 2010.06.03 11:33:40.
