data_PCOD9092905
_publ_section_title
;
Structure prediction by ZEFSAII (Michael W. Deem and Ramdas Pophale) SiO2 
 PCOD9092905
Probable space group: P -1
;
_chemical_formula_sum "Si O2"
_cell_formula_units_Z 16
_cell_length_a 9.166634
_cell_length_b 8.840703
_cell_length_c 14.639146
_cell_angle_alpha 41.737943
_cell_angle_beta 108.915696
_cell_angle_gamma 98.274612
_cell_volume 738.032862
_symmetry_space_group_name_H-M "P -1"
_symmetry_group_IT_number 2
_symmetry_cell_setting 'triclinic'
loop_
_space_group_symop_operation_xyz
x,y,z
-x,-y,-z
loop_
_atom_site_type_symbol
_atom_site_label
_atom_site_fract_x
_atom_site_fract_y
_atom_site_fract_z
Si Si1 0.413500 0.578515 0.573935
Si Si2 0.883056 0.031219 0.375631
Si Si3 0.630742 0.935795 0.630964
Si Si4 0.065728 0.240266 0.160996
Si Si5 0.863847 0.072126 0.866762
Si Si6 0.256780 0.432741 0.425713
Si Si7 0.562356 0.242032 0.164688
Si Si8 0.491548 0.919880 0.136208
O O1 0.345282 0.512655 0.494533
O O2 0.593776 0.622892 0.585705
O O3 0.424951 0.343593 0.735341
O O4 0.308375 0.817999 0.466940
O O5 0.820701 0.787845 0.469222
O O6 0.725291 0.220264 0.262751
O O7 0.000000 0.000000 0.500000
O O8 0.957375 0.110427 0.261860
O O9 0.785364 0.749960 0.746181
O O10 0.549547 0.864242 0.739188
O O11 0.500000 0.000000 0.500000
O O12 0.109369 0.086539 0.147519
O O13 0.000000 0.500000 0.000000
O O14 0.862083 0.343446 0.726646
O O15 0.687889 0.063950 0.872415
O O16 0.000000 0.000000 0.000000
O O17 0.573309 0.072285 0.155764
O O18 0.500000 0.500000 0.000000
O O19 0.500000 0.000000 0.000000
#
# Coordination Sequence:
#
# PCOD9092905 Si02
#       8
#     2   2   2   2   2   2   2   2
#     4  10  19  43  74  96 134 179 246 299 348 411
#     4  12  27  45  72 109 147 192 244 301 365 428
#     4  12  24  45  74 104 137 195 249 290 361 433
#     4  12  28  48  68 106 156 196 234 297 376 434
#     4  11  26  45  71 103 142 191 235 296 371 432
#     4  10  20  44  72  95 136 183 240 300 348 416
#     4  12  25  46  71 103 145 188 243 305 351 432
#     4  11  25  45  73 106 138 185 244 301 361 427
#
# _framework density 21.679252000000002
#
# number of rings (size 3 to 8) (size 9 to 14) (size 15 to 20)
#    0.000    0.750    5.000    2.250    5.250    1.500 
#    2.250    0.000    0.000    0.000    0.000    0.000 
#    0.000    0.000    0.000    0.000    0.000    0.000 
#
# Total GULP energy -89203.603765 kJ/mol
# GULP energy per Si atom -5575.225235 kJ/mol
# Density = 2.162991 g / cm^3
# Si number density = 21.679252 Si / 1000 Ang^3
#
#
#
# Elastic Constant Matrix: (Units=GPa)
#
#
# Indices 1 2 3 4 5 6 
#
# 1 48.2186 16.2382 45.2230 -0.8232 12.4671 5.5225
# 2 16.2382 69.2733 52.8660 -8.7603 4.7603 16.3865
# 3 45.2230 52.8660 236.8365 -17.3070 20.6605 4.7288
# 4 -0.8232 -8.7603 -17.3070 36.6798 3.6899 9.2823
# 5 12.4671 4.7603 20.6605 3.6899 39.2641 12.5750
# 6 5.5225 16.3865 4.7288 9.2823 12.5750 27.7725
#
#
#
# Elastic Compliance Matrix: (Units=1/GPa)
#
#
# Indices 1 2 3 4 5 6 
#
# 1 0.027104 -0.003125 -0.004070 -0.001553 -0.006073 0.000416
# 2 -0.003125 0.022838 -0.004082 0.007217 0.005099 -0.016879
# 3 -0.004070 -0.004082 0.006173 0.001380 -0.002499 0.002837
# 4 -0.001553 0.007217 0.001380 0.033507 0.000783 -0.015738
# 5 -0.006073 0.005099 -0.002499 0.000783 0.033386 -0.016754
# 6 0.000416 -0.016879 0.002837 -0.015738 -0.016754 0.058246
#
#
# Mechanical properties :
#
#
# Convention : Reuss Voigt Hill
#
# Bulk Modulus (GPa) = 29.79522 64.77586 47.28554
# Shear Modulus (GPa) = 23.25645 36.74337 29.99991
#
# Velocity S-wave (km/s) = 3.27884 4.12134 3.72399
# Velocity P-wave (km/s) = 5.30169 7.25199 6.35213
#
# Compressibility (1/GPa) = 0.03356243
#
# Stress axis : x y z
#
# Youngs Moduli (GPa) = 36.89438 43.78676 162.00263
#
# Poissons Ratio (x) = 0.13683 0.65934
# Poissons Ratio (y) = 0.11529 0.66122
# Poissons Ratio (z) = 0.15016 0.17872
#
# Static dielectric constant tensor:
#      x y z
#    x 1.856520 -0.058360 -0.016670 
#    y -0.058360 1.863620 -0.020720 
#    z -0.016670 -0.020720 1.637120 
# 
# From -- ./inp_files/494323.got.cif
#   From: 2010.05.17/outbox.cif.g08.bks.cpg/sg2_248_cif.got.tgz:494323.got - 2010.06.03 11:33:40.
