data_PCOD9092299
_publ_section_title
;
Structure prediction by ZEFSAII (Michael W. Deem and Ramdas Pophale) SiO2 
 PCOD9092299
Probable space group: P -1
;
_chemical_formula_sum "Si O2"
_cell_formula_units_Z 16
_cell_length_a 18.923482
_cell_length_b 9.444809
_cell_length_c 9.966322
_cell_angle_alpha 42.898520
_cell_angle_beta 140.649078
_cell_angle_gamma 139.781906
_cell_volume 683.951665
_symmetry_space_group_name_H-M "P -1"
_symmetry_group_IT_number 2
_symmetry_cell_setting 'triclinic'
loop_
_space_group_symop_operation_xyz
x,y,z
-x,-y,-z
loop_
_atom_site_type_symbol
_atom_site_label
_atom_site_fract_x
_atom_site_fract_y
_atom_site_fract_z
Si Si1 0.221159 0.415838 0.640222
Si Si2 0.241035 0.088395 0.666597
Si Si3 0.845103 0.737617 0.802436
Si Si4 0.054542 0.603900 0.152486
Si Si5 0.294263 0.304932 0.102680
Si Si6 0.342658 0.792128 0.162287
Si Si7 0.660331 0.092370 0.629657
Si Si8 0.496207 0.294269 0.732971
O O1 0.245766 0.269917 0.660935
O O2 0.327152 0.688290 0.592236
O O3 0.226068 0.311396 0.862354
O O4 0.091545 0.427324 0.410880
O O5 0.137309 0.071823 0.417715
O O6 0.364594 0.176134 0.694341
O O7 0.245129 0.875561 0.899889
O O8 0.795074 0.782838 0.837898
O O9 0.737129 0.489593 0.756460
O O10 0.964448 0.692633 0.027406
O O11 0.191046 0.818579 0.182788
O O12 0.000000 0.500000 0.000000
O O13 0.393280 0.571113 0.093273
O O14 0.372823 0.158355 0.304733
O O15 0.392783 0.901518 0.305781
O O16 0.458747 0.857196 0.187659
O O17 0.500000 0.500000 0.500000
#
# Coordination Sequence:
#
# PCOD9092299 Si02
#       8
#     2   2   2   2   2   2   2   2
#     4  10  22  40  64  92 132 163 204 266 311 366
#     4  12  21  41  68  93 123 169 218 254 312 380
#     4  11  22  43  64  93 134 163 208 272 302 370
#     4  10  19  40  70  90 126 172 208 257 309 375
#     4  11  24  41  64  93 132 162 206 270 320 368
#     4  11  21  39  66  93 124 165 216 251 312 380
#     4  10  21  41  63  93 131 161 210 257 320 366
#     4  11  23  44  66  91 128 168 208 265 315 372
#
# _framework density 23.393466
#
# number of rings (size 3 to 8) (size 9 to 14) (size 15 to 20)
#    0.750    0.500    7.500    0.375    0.000    3.500 
#    4.500    3.125    0.000    0.000    0.000    0.000 
#    0.000    0.000    0.000    0.000    0.000    0.000 
#
# Total GULP energy -89393.895780 kJ/mol
# GULP energy per Si atom -5587.118486 kJ/mol
# Density = 2.334022 g / cm^3
# Si number density = 23.393466 Si / 1000 Ang^3
#
#
#
# Elastic Constant Matrix: (Units=GPa)
#
#
# Indices 1 2 3 4 5 6 
#
# 1 109.2821 19.6351 34.4738 -3.3390 9.5309 -45.8384
# 2 19.6351 38.6721 17.3015 -9.0660 -10.8509 -25.2776
# 3 34.4738 17.3015 160.8156 -20.3315 -9.1443 -29.4270
# 4 -3.3390 -9.0660 -20.3315 29.3581 -5.1762 4.7318
# 5 9.5309 -10.8509 -9.1443 -5.1762 46.0918 1.3238
# 6 -45.8384 -25.2776 -29.4270 4.7318 1.3238 38.6673
#
#
#
# Elastic Compliance Matrix: (Units=1/GPa)
#
#
# Indices 1 2 3 4 5 6 
#
# 1 0.020366 0.007822 -0.000104 -0.000658 -0.003308 0.029371
# 2 0.007822 0.059675 0.003640 0.016406 0.013601 0.048580
# 3 -0.000104 0.003640 0.008183 0.006071 0.002964 0.007639
# 4 -0.000658 0.016406 0.006071 0.043558 0.009839 0.008899
# 5 -0.003308 0.013601 0.002964 0.009839 0.027128 0.005093
# 6 0.029371 0.048580 0.007639 0.008899 0.005093 0.096988
#
#
# Mechanical properties :
#
#
# Convention : Reuss Voigt Hill
#
# Bulk Modulus (GPa) = 9.01395 50.17674 29.59534
# Shear Modulus (GPa) = 18.50736 38.64739 28.57738
#
# Velocity S-wave (km/s) = 2.81576 4.06896 3.49893
# Velocity P-wave (km/s) = 3.79907 6.60082 5.38534
#
# Compressibility (1/GPa) = 0.11093913
#
# Stress axis : x y z
#
# Youngs Moduli (GPa) = 49.10084 16.75756 122.20575
#
# Poissons Ratio (x) = -0.13107 0.01273
# Poissons Ratio (y) = -0.38405 -0.44484
# Poissons Ratio (z) = 0.00511 -0.06100
#
# Static dielectric constant tensor:
#      x y z
#    x 1.935890 -0.000400 0.067730 
#    y -0.000400 1.940660 -0.010660 
#    z 0.067730 -0.010660 1.929160 
# 
# From -- ./inp_files/328520.got.cif
#   From: 2010.05.17/outbox.cif.g08.bks.cpg/sg2_165_cif.got.tgz:328520.got - 2010.06.03 11:33:40.
