data_PCOD9092359
_publ_section_title
;
Structure prediction by ZEFSAII (Michael W. Deem and Ramdas Pophale) SiO2 
 PCOD9092359
Probable space group: P -1
;
_chemical_formula_sum "Si O2"
_cell_formula_units_Z 16
_cell_length_a 7.858724
_cell_length_b 15.725433
_cell_length_c 7.610351
_cell_angle_alpha 82.289080
_cell_angle_beta 95.453146
_cell_angle_gamma 49.818567
_cell_volume 691.262529
_symmetry_space_group_name_H-M "P -1"
_symmetry_group_IT_number 2
_symmetry_cell_setting 'triclinic'
loop_
_space_group_symop_operation_xyz
x,y,z
-x,-y,-z
loop_
_atom_site_type_symbol
_atom_site_label
_atom_site_fract_x
_atom_site_fract_y
_atom_site_fract_z
Si Si1 0.490461 0.890497 0.101824
Si Si2 0.483839 0.344201 0.344440
Si Si3 0.019388 0.867540 0.965882
Si Si4 0.681384 0.518379 0.030419
Si Si5 0.459953 0.710044 0.250241
Si Si6 0.670009 0.115695 0.255704
Si Si7 0.288206 0.079342 0.591397
Si Si8 0.937502 0.289420 0.266926
O O1 0.522871 0.788713 0.228155
O O2 0.642940 0.908010 0.214243
O O3 0.514936 0.862497 0.905301
O O4 0.227828 0.009312 0.065072
O O5 0.453934 0.361715 0.543565
O O6 0.547850 0.223843 0.341422
O O7 0.706337 0.325100 0.315415
O O8 0.291205 0.446426 0.166373
O O9 0.159406 0.885390 0.847082
O O10 0.006565 0.783394 0.882403
O O11 0.183344 0.799736 0.169519
O O12 0.566850 0.626298 0.116664
O O13 0.896271 0.400867 0.175872
O O14 0.500000 0.500000 0.000000
O O15 0.795749 0.991296 0.385546
O O16 0.124483 0.203047 0.452270
O O17 0.500000 0.000000 0.500000
#
# Coordination Sequence:
#
# PCOD9092359 Si02
#       8
#     2   2   2   2   2   2   2   2
#     4  11  22  39  59  91 131 163 197 253 313 367
#     4  10  21  36  66  92 118 162 203 257 307 356
#     4  10  20  38  61  94 124 156 198 263 307 359
#     4  10  19  41  59  89 127 154 203 262 302 355
#     4  11  20  37  65  93 120 156 210 251 307 363
#     4  10  21  39  60  89 126 159 204 255 309 356
#     4  12  24  38  58  89 127 167 206 243 303 383
#     4  10  22  38  58  88 127 161 198 256 306 354
#
# _framework density 23.146055
#
# number of rings (size 3 to 8) (size 9 to 14) (size 15 to 20)
#    0.000    1.500    6.250    2.625    3.500    3.000 
#    0.000    0.625    0.000    1.500    0.000    0.000 
#    0.000    0.000    0.000    0.000    0.000    0.000 
#
# Total GULP energy -89465.060110 kJ/mol
# GULP energy per Si atom -5591.566257 kJ/mol
# Density = 2.309337 g / cm^3
# Si number density = 23.146055 Si / 1000 Ang^3
#
#
#
# Elastic Constant Matrix: (Units=GPa)
#
#
# Indices 1 2 3 4 5 6 
#
# 1 44.6683 24.4159 16.2172 -9.2088 -2.4743 16.7468
# 2 24.4159 76.7424 28.5309 -30.6195 -5.6077 18.3271
# 3 16.2172 28.5309 131.4127 -24.3986 -9.6078 6.5410
# 4 -9.2088 -30.6195 -24.3986 45.9127 1.4633 1.1063
# 5 -2.4743 -5.6077 -9.6078 1.4633 25.5556 -0.5382
# 6 16.7468 18.3271 6.5410 1.1063 -0.5382 20.8581
#
#
#
# Elastic Compliance Matrix: (Units=1/GPa)
#
#
# Indices 1 2 3 4 5 6 
#
# 1 0.035049 -0.002100 -0.001449 0.005439 0.001527 -0.026090
# 2 -0.002100 0.026410 -0.000923 0.017111 0.003801 -0.022040
# 3 -0.001449 -0.000923 0.008942 0.003780 0.002782 -0.000958
# 4 0.005439 0.017111 0.003780 0.036733 0.003126 -0.022455
# 5 0.001527 0.003801 0.002782 0.003126 0.040883 -0.004549
# 6 -0.026090 -0.022040 -0.000958 -0.022455 -0.004549 0.089630
#
#
# Mechanical properties :
#
#
# Convention : Reuss Voigt Hill
#
# Bulk Modulus (GPa) = 16.27153 43.46126 29.86640
# Shear Modulus (GPa) = 18.72125 30.70924 24.71524
#
# Velocity S-wave (km/s) = 2.84708 3.64642 3.27126
# Velocity P-wave (km/s) = 4.22528 6.04535 5.21533
#
# Compressibility (1/GPa) = 0.06145703
#
# Stress axis : x y z
#
# Youngs Moduli (GPa) = 28.53187 37.86426 111.83481
#
# Poissons Ratio (x) = 0.07950 0.16208
# Poissons Ratio (y) = 0.05990 0.10321
# Poissons Ratio (z) = 0.04135 0.03494
#
# Static dielectric constant tensor:
#      x y z
#    x 1.917190 -0.001370 0.015280 
#    y -0.001370 1.858220 -0.039760 
#    z 0.015280 -0.039760 1.929890 
# 
# From -- ./inp_files/206996.got.cif
#   From: 2010.05.17/outbox.cif.g08.bks.cpg/sg2_104_cif.got.tgz:206996.got - 2010.06.03 11:33:40.
