data_PCOD9092066
_publ_section_title
;
Structure prediction by ZEFSAII (Michael W. Deem and Ramdas Pophale) SiO2 
 PCOD9092066
Probable space group: P -1
;
_chemical_formula_sum "Si O2"
_cell_formula_units_Z 12
_cell_length_a 9.100189
_cell_length_b 13.925073
_cell_length_c 9.381116
_cell_angle_alpha 110.486858
_cell_angle_beta 47.161832
_cell_angle_gamma 138.316467
_cell_volume 548.508156
_symmetry_space_group_name_H-M "P -1"
_symmetry_group_IT_number 2
_symmetry_cell_setting 'triclinic'
loop_
_space_group_symop_operation_xyz
x,y,z
-x,-y,-z
loop_
_atom_site_type_symbol
_atom_site_label
_atom_site_fract_x
_atom_site_fract_y
_atom_site_fract_z
Si Si1 0.142534 0.847221 0.671598
Si Si2 0.776943 0.897125 0.287454
Si Si3 0.843766 0.350652 0.940318
Si Si4 0.845942 0.158959 0.014928
Si Si5 0.180260 0.659352 0.386660
Si Si6 0.656598 0.894998 0.668828
O O1 0.063009 0.725659 0.554723
O O2 0.500000 0.000000 0.500000
O O3 0.062742 0.785628 0.853064
O O4 0.050025 0.929451 0.750317
O O5 0.530710 0.788595 0.269644
O O6 0.578318 0.826270 0.526053
O O7 0.019726 0.899714 0.137607
O O8 0.962406 0.287520 0.893917
O O9 0.856411 0.362223 0.769553
O O10 0.509141 0.224841 0.157768
O O11 0.000000 0.500000 0.000000
O O12 0.485488 0.043902 0.193584
O O13 0.000000 0.500000 0.500000
O O14 0.000000 0.000000 0.500000
#
# Coordination Sequence:
#
# PCOD9092066 Si02
#       6
#     2   2   2   2   2   2
#     4  10  19  40  65  95 140 177 227 285 339 411
#     4  11  23  43  68 101 142 187 230 293 348 415
#     4  10  22  45  70  99 143 185 237 288 352 429
#     4  10  22  42  67  97 142 180 236 281 352 413
#     4  11  22  43  73 101 137 193 239 290 351 421
#     4  10  23  42  66 101 143 178 235 290 348 412
#
# _framework density 21.877524000000001
#
# number of rings (size 3 to 8) (size 9 to 14) (size 15 to 20)
#    1.000    0.667    3.333    2.500    0.000    6.000 
#    0.000    8.333    0.000    0.000    0.000    0.000 
#    0.000    0.000    0.000    0.000    0.000    0.000 
#
# Total GULP energy -66908.311261 kJ/mol
# GULP energy per Si atom -5575.692605 kJ/mol
# Density = 2.182773 g / cm^3
# Si number density = 21.877524 Si / 1000 Ang^3
#
#
#
# Elastic Constant Matrix: (Units=GPa)
#
#
# Indices 1 2 3 4 5 6 
#
# 1 170.4996 79.6119 95.3902 18.6694 -2.3879 -23.1530
# 2 79.6119 121.8864 70.6478 25.3234 6.9185 -21.2059
# 3 95.3902 70.6478 173.4032 21.5456 20.5416 -18.3468
# 4 18.6694 25.3234 21.5456 31.7464 -0.7202 1.1442
# 5 -2.3879 6.9185 20.5416 -0.7202 78.2974 2.1661
# 6 -23.1530 -21.2059 -18.3468 1.1442 2.1661 25.5161
#
#
#
# Elastic Compliance Matrix: (Units=1/GPa)
#
#
# Indices 1 2 3 4 5 6 
#
# 1 0.010413 -0.003996 -0.003907 -0.000364 0.001604 0.003199
# 2 -0.003996 0.015251 -0.001897 -0.008852 -0.001280 0.008190
# 3 -0.003907 -0.001897 0.009561 -0.002811 -0.002544 0.002095
# 4 -0.000364 -0.008852 -0.002811 0.041156 0.002212 -0.011742
# 5 0.001604 -0.001280 -0.002544 0.002212 0.013696 -0.002699
# 6 0.003199 0.008190 0.002095 -0.011742 -0.002699 0.051163
#
#
# Mechanical properties :
#
#
# Convention : Reuss Voigt Hill
#
# Bulk Modulus (GPa) = 63.99809 106.34323 85.17066
# Shear Modulus (GPa) = 30.11164 41.78794 35.94979
#
# Velocity S-wave (km/s) = 3.71398 4.37519 4.05807
# Velocity P-wave (km/s) = 6.90709 8.61609 7.80849
#
# Compressibility (1/GPa) = 0.01562547
#
# Stress axis : x y z
#
# Youngs Moduli (GPa) = 96.02931 65.57052 104.58817
#
# Poissons Ratio (x) = 0.26203 0.40860
# Poissons Ratio (y) = 0.38375 0.19842
# Poissons Ratio (z) = 0.37516 0.12440
#
# Static dielectric constant tensor:
#      x y z
#    x 1.918180 0.033510 -0.002500 
#    y 0.033510 1.853610 0.009630 
#    z -0.002500 0.009630 1.839220 
# 
# From -- ./inp_files/279757.got.cif
#   From: 2010.05.17/outbox.cif.g08.bks.cpg/sg2_140_cif.got.tgz:279757.got - 2010.06.03 11:33:40.
