data_PCOD9092320
_publ_section_title
;
Structure prediction by ZEFSAII (Michael W. Deem and Ramdas Pophale) SiO2 
 PCOD9092320
Probable space group: P -1
;
_chemical_formula_sum "Si O2"
_cell_formula_units_Z 12
_cell_length_a 7.565310
_cell_length_b 9.274043
_cell_length_c 13.589556
_cell_angle_alpha 40.322895
_cell_angle_beta 66.735319
_cell_angle_gamma 91.879509
_cell_volume 468.935883
_symmetry_space_group_name_H-M "P -1"
_symmetry_group_IT_number 2
_symmetry_cell_setting 'triclinic'
loop_
_space_group_symop_operation_xyz
x,y,z
-x,-y,-z
loop_
_atom_site_type_symbol
_atom_site_label
_atom_site_fract_x
_atom_site_fract_y
_atom_site_fract_z
Si Si1 0.382041 0.681815 0.820710
Si Si2 0.125155 0.217341 0.975029
Si Si3 0.203720 0.008744 0.580547
Si Si4 0.831991 0.466066 0.856626
Si Si5 0.600069 0.299753 0.788714
Si Si6 0.251873 0.359533 0.573743
O O1 0.219401 0.374528 0.977154
O O2 0.276784 0.840609 0.717201
O O3 0.619526 0.828129 0.632295
O O4 0.373659 0.690502 0.935646
O O5 0.365239 0.296716 0.831548
O O6 0.990718 0.344851 0.893965
O O7 0.952202 0.893652 0.189007
O O8 0.973118 0.772122 0.702807
O O9 0.223600 0.211611 0.552465
O O10 0.756624 0.451860 0.769926
O O11 0.733649 0.384479 0.610459
O O12 0.500000 0.000000 0.000000
O O13 0.500000 0.500000 0.500000
#
# Coordination Sequence:
#
# PCOD9092320 Si02
#       6
#     2   2   2   2   2   2
#     4  10  19  40  72 107 137 175 232 285 347 414
#     4  11  23  48  73  99 139 187 230 282 354 412
#     4  10  20  40  71 110 136 179 236 281 349 417
#     4  11  23  44  77 103 144 177 227 299 347 411
#     4  12  30  48  66 108 141 184 241 285 347 416
#     4  12  25  45  73 101 140 191 235 280 350 420
#
# _framework density 25.589852
#
# number of rings (size 3 to 8) (size 9 to 14) (size 15 to 20)
#    0.000    1.000    5.000    2.000    0.000    6.000 
#    0.000    0.000    0.000    0.000    0.000    0.000 
#    0.000    0.000    0.000    0.000    0.000    0.000 
#
# Total GULP energy -67038.904793 kJ/mol
# GULP energy per Si atom -5586.575399 kJ/mol
# Density = 2.553161 g / cm^3
# Si number density = 25.589852 Si / 1000 Ang^3
#
#
#
# Elastic Constant Matrix: (Units=GPa)
#
#
# Indices 1 2 3 4 5 6 
#
# 1 78.4967 21.0735 49.7065 22.4425 5.7174 14.3305
# 2 21.0735 74.9430 23.6766 4.7784 2.1939 26.4141
# 3 49.7065 23.6766 150.0889 -3.6457 -2.8854 28.2358
# 4 22.4425 4.7784 -3.6457 37.7123 4.4662 0.8375
# 5 5.7174 2.1939 -2.8854 4.4662 39.6588 2.4383
# 6 14.3305 26.4141 28.2358 0.8375 2.4383 45.4028
#
#
#
# Elastic Compliance Matrix: (Units=1/GPa)
#
#
# Indices 1 2 3 4 5 6 
#
# 1 0.022011 -0.002867 -0.007100 -0.013172 -0.002016 -0.000513
# 2 -0.002867 0.017430 -0.000079 -0.000311 0.000043 -0.009182
# 3 -0.007100 -0.000079 0.009943 0.005118 0.001425 -0.004068
# 4 -0.013172 -0.000311 0.005118 0.035077 -0.001699 0.000600
# 5 -0.002016 0.000043 0.001425 -0.001699 0.025899 -0.001634
# 6 -0.000513 -0.009182 -0.004068 0.000600 -0.001634 0.030136
#
#
# Mechanical properties :
#
#
# Convention : Reuss Voigt Hill
#
# Bulk Modulus (GPa) = 34.13813 54.71578 44.42695
# Shear Modulus (GPa) = 29.35114 38.49289 33.92202
#
# Velocity S-wave (km/s) = 3.39039 3.88264 3.64483
# Velocity P-wave (km/s) = 5.35684 6.44423 5.92553
#
# Compressibility (1/GPa) = 0.02929276
#
# Stress axis : x y z
#
# Youngs Moduli (GPa) = 45.43182 57.37343 100.56887
#
# Poissons Ratio (x) = 0.16447 0.71399
# Poissons Ratio (y) = 0.13024 0.00799
# Poissons Ratio (z) = 0.32255 0.00456
#
# Static dielectric constant tensor:
#      x y z
#    x 2.078810 -0.043540 0.012370 
#    y -0.043540 2.113810 -0.118200 
#    z 0.012370 -0.118200 2.203910 
# 
# From -- ./inp_files/373374.got.cif
#   From: 2010.05.17/outbox.cif.g08.bks.cpg/sg2_187_cif.got.tgz:373374.got - 2010.06.03 11:33:40.
