data_PCOD9092479
_publ_section_title
;
Structure prediction by ZEFSAII (Michael W. Deem and Ramdas Pophale) SiO2 
 PCOD9092479
Probable space group: P -1
;
_chemical_formula_sum "Si O2"
_cell_formula_units_Z 14
_cell_length_a 9.137457
_cell_length_b 9.278634
_cell_length_c 8.214710
_cell_angle_alpha 57.835260
_cell_angle_beta 111.593964
_cell_angle_gamma 113.242567
_cell_volume 530.440386
_symmetry_space_group_name_H-M "P -1"
_symmetry_group_IT_number 2
_symmetry_cell_setting 'triclinic'
loop_
_space_group_symop_operation_xyz
x,y,z
-x,-y,-z
loop_
_atom_site_type_symbol
_atom_site_label
_atom_site_fract_x
_atom_site_fract_y
_atom_site_fract_z
Si Si1 0.250068 0.112371 0.964413
Si Si2 0.011616 0.318585 0.334243
Si Si3 0.244860 0.965826 0.707232
Si Si4 0.143396 0.366035 0.992050
Si Si5 0.398051 0.653780 0.061757
Si Si6 0.567755 0.120377 0.606895
Si Si7 0.674787 0.469399 0.550453
O O1 0.321210 0.976649 0.184076
O O2 0.136661 0.203058 0.970067
O O3 0.409506 0.272923 0.892496
O O4 0.188565 0.016911 0.828326
O O5 0.168689 0.368470 0.483664
O O6 0.892331 0.124969 0.424048
O O7 0.931831 0.484301 0.208543
O O8 0.063712 0.314364 0.167678
O O9 0.395883 0.122562 0.620668
O O10 0.333343 0.807763 0.861685
O O11 0.329171 0.470407 0.051652
O O12 0.307040 0.630242 0.212534
O O13 0.660045 0.323139 0.493657
O O14 0.500000 0.000000 0.500000
O O15 0.500000 0.500000 0.500000
#
# Coordination Sequence:
#
# PCOD9092479 Si02
#       7
#     2   2   2   2   2   2   2
#     4  11  19  35  66  96 120 154 214 254 300 349
#     4   9  21  40  58  89 126 159 203 248 310 356
#     4  10  19  41  66  89 124 158 200 265 298 347
#     4   9  19  32  60  92 124 152 198 261 299 352
#     4   9  17  36  60  91 119 159 206 246 294 356
#     4  11  24  40  61  94 127 162 204 251 304 363
#     4  11  22  41  64  83 125 170 198 242 311 375
#
# _framework density 26.393163999999999
#
# number of rings (size 3 to 8) (size 9 to 14) (size 15 to 20)
#    0.000    2.000    2.857    2.143    4.000    0.571 
#    0.000    1.429    0.000    0.000    0.000    0.000 
#    0.000    0.000    0.000    0.000    0.000    0.000 
#
# Total GULP energy -78315.506817 kJ/mol
# GULP energy per Si atom -5593.964773 kJ/mol
# Density = 2.633309 g / cm^3
# Si number density = 26.393164 Si / 1000 Ang^3
#
#
#
# Elastic Constant Matrix: (Units=GPa)
#
#
# Indices 1 2 3 4 5 6 
#
# 1 83.5318 56.7369 16.0404 9.7170 9.7405 -9.1670
# 2 56.7369 186.2637 38.3844 34.1682 19.4717 -18.7609
# 3 16.0404 38.3844 47.8939 10.2108 12.9935 0.8026
# 4 9.7170 34.1682 10.2108 35.5327 2.9075 -6.6826
# 5 9.7405 19.4717 12.9935 2.9075 35.1730 11.7950
# 6 -9.1670 -18.7609 0.8026 -6.6826 11.7950 47.2535
#
#
#
# Elastic Compliance Matrix: (Units=1/GPa)
#
#
# Indices 1 2 3 4 5 6 
#
# 1 0.015432 -0.004088 -0.001477 0.000701 -0.002209 0.002046
# 2 -0.004088 0.009052 -0.003934 -0.005696 -0.002888 0.002783
# 3 -0.001477 -0.003934 0.027078 -0.003240 -0.006789 -0.001072
# 4 0.000701 -0.005696 -0.003240 0.034853 0.000346 0.002772
# 5 -0.002209 -0.002888 -0.006789 0.000346 0.036663 -0.010562
# 6 0.002046 0.002783 -0.001072 0.002772 -0.010562 0.025711
#
#
# Mechanical properties :
#
#
# Convention : Reuss Voigt Hill
#
# Bulk Modulus (GPa) = 30.70839 60.00144 45.35491
# Shear Modulus (GPa) = 27.98914 37.36036 32.67475
#
# Velocity S-wave (km/s) = 3.26002 3.76644 3.52234
# Velocity P-wave (km/s) = 5.08237 6.45738 5.81069
#
# Compressibility (1/GPa) = 0.03256440
#
# Stress axis : x y z
#
# Youngs Moduli (GPa) = 64.79893 110.47568 36.93095
#
# Poissons Ratio (x) = 0.45162 0.05453
# Poissons Ratio (y) = 0.26489 0.14529
# Poissons Ratio (z) = 0.09568 0.43463
#
# Static dielectric constant tensor:
#      x y z
#    x 2.179160 0.074080 -0.010120 
#    y 0.074080 2.059720 0.020740 
#    z -0.010120 0.020740 2.124880 
# 
# From -- ./inp_files/157705.got.cif
#   From: 2010.05.17/outbox.cif.g08.bks.cpg/sg2_79_cif.got.tgz:157705.got - 2010.06.03 11:33:40.
