data_PCOD9092666
_publ_section_title
;
Structure prediction by ZEFSAII (Michael W. Deem and Ramdas Pophale) SiO2 
 PCOD9092666
Probable space group: P -1
;
_chemical_formula_sum "Si O2"
_cell_formula_units_Z 16
_cell_length_a 9.538618
_cell_length_b 13.050334
_cell_length_c 12.325737
_cell_angle_alpha 125.707823
_cell_angle_beta 57.306147
_cell_angle_gamma 143.631013
_cell_volume 730.898556
_symmetry_space_group_name_H-M "P -1"
_symmetry_group_IT_number 2
_symmetry_cell_setting 'triclinic'
loop_
_space_group_symop_operation_xyz
x,y,z
-x,-y,-z
loop_
_atom_site_type_symbol
_atom_site_label
_atom_site_fract_x
_atom_site_fract_y
_atom_site_fract_z
Si Si1 0.883724 0.280472 0.489618
Si Si2 0.830947 0.186730 0.210421
Si Si3 0.897221 0.267306 0.716780
Si Si4 0.462030 0.782831 0.029080
Si Si5 0.386050 0.417645 0.112977
Si Si6 0.622609 0.381451 0.595856
Si Si7 0.348551 0.674895 0.768992
Si Si8 0.244108 0.077893 0.399012
O O1 0.790230 0.170668 0.348228
O O2 0.829851 0.195638 0.576708
O O3 0.772369 0.360186 0.588334
O O4 0.170055 0.443506 0.456088
O O5 0.768316 0.286113 0.240851
O O6 0.664760 0.992262 0.105677
O O7 0.105597 0.297642 0.150144
O O8 0.751144 0.304623 0.851152
O O9 0.172495 0.459724 0.720565
O O10 0.816057 0.100039 0.712754
O O11 0.562194 0.696331 0.943605
O O12 0.372985 0.749990 0.923242
O O13 0.500000 0.500000 0.000000
O O14 0.488144 0.572775 0.253120
O O15 0.430688 0.205286 0.496239
O O16 0.611997 0.787294 0.680602
O O17 0.000000 0.000000 0.500000
#
# Coordination Sequence:
#
# PCOD9092666 Si02
#       8
#     2   2   2   2   2   2   2   2
#     4  10  19  41  77  98 130 183 240 296 350 417
#     4  11  23  45  74 101 143 190 237 296 362 412
#     4  12  25  44  76 104 135 190 242 286 364 425
#     4  12  26  44  72 108 141 197 236 281 368 432
#     4  11  25  41  69 107 144 185 238 300 350 424
#     4  10  20  42  66  98 139 178 227 293 364 393
#     4  12  25  50  70 101 155 186 235 298 345 444
#     4  12  28  44  69 105 138 189 236 294 358 424
#
# _framework density 21.890864000000001
#
# number of rings (size 3 to 8) (size 9 to 14) (size 15 to 20)
#    0.000    0.750    3.750    4.125    1.750    6.500 
#    0.000    0.000    0.000    0.000    0.000    0.000 
#    0.000    0.000    0.000    0.000    0.000    0.000 
#
# Total GULP energy -89449.060160 kJ/mol
# GULP energy per Si atom -5590.566260 kJ/mol
# Density = 2.184104 g / cm^3
# Si number density = 21.890864 Si / 1000 Ang^3
#
#
#
# Elastic Constant Matrix: (Units=GPa)
#
#
# Indices 1 2 3 4 5 6 
#
# 1 65.2564 23.7523 43.3566 -7.7501 7.9378 14.2593
# 2 23.7523 95.9243 38.6645 7.4557 14.7207 21.6733
# 3 43.3566 38.6645 135.6820 2.7992 11.0687 9.8127
# 4 -7.7501 7.4557 2.7992 41.6772 1.6183 0.6331
# 5 7.9378 14.7207 11.0687 1.6183 45.6124 3.8390
# 6 14.2593 21.6733 9.8127 0.6331 3.8390 21.1538
#
#
#
# Elastic Compliance Matrix: (Units=1/GPa)
#
#
# Indices 1 2 3 4 5 6 
#
# 1 0.023152 -0.000669 -0.006335 0.005087 -0.001457 -0.011870
# 2 -0.000669 0.015433 -0.002926 -0.002371 -0.002942 -0.013399
# 3 -0.006335 -0.002926 0.010107 -0.001352 -0.000587 0.002727
# 4 0.005087 -0.002371 -0.001352 0.025494 -0.000610 -0.001025
# 5 -0.001457 -0.002942 -0.000587 -0.000610 0.023286 0.000062
# 6 -0.011870 -0.013399 0.002727 -0.001025 0.000062 0.067756
#
#
# Mechanical properties :
#
#
# Convention : Reuss Voigt Hill
#
# Bulk Modulus (GPa) = 34.68442 56.48994 45.58718
# Shear Modulus (GPa) = 25.68056 34.42797 30.05427
#
# Velocity S-wave (km/s) = 3.42880 3.97004 3.70930
# Velocity P-wave (km/s) = 5.61731 6.84662 6.26221
#
# Compressibility (1/GPa) = 0.02883139
#
# Stress axis : x y z
#
# Youngs Moduli (GPa) = 43.19307 64.79525 98.94209
#
# Poissons Ratio (x) = 0.04336 0.62680
# Poissons Ratio (y) = 0.02890 0.28951
# Poissons Ratio (z) = 0.27363 0.18960
#
# Static dielectric constant tensor:
#      x y z
#    x 1.815650 -0.000290 -0.007500 
#    y -0.000290 1.805400 -0.011280 
#    z -0.007500 -0.011280 1.802640 
# 
# From -- ./inp_files/390919.got.cif
#   From: 2010.05.17/outbox.cif.g08.bks.cpg/sg2_196_cif.got.tgz:390919.got - 2010.06.03 11:33:40.
