data_PCOD9092842
_publ_section_title
;
Structure prediction by ZEFSAII (Michael W. Deem and Ramdas Pophale) SiO2 
 PCOD9092842
Probable space group: P -1
;
_chemical_formula_sum "Si O2"
_cell_formula_units_Z 16
_cell_length_a 13.580935
_cell_length_b 14.064288
_cell_length_c 9.113734
_cell_angle_alpha 79.022734
_cell_angle_beta 40.529364
_cell_angle_gamma 107.307192
_cell_volume 800.402538
_symmetry_space_group_name_H-M "P -1"
_symmetry_group_IT_number 2
_symmetry_cell_setting 'triclinic'
loop_
_space_group_symop_operation_xyz
x,y,z
-x,-y,-z
loop_
_atom_site_type_symbol
_atom_site_label
_atom_site_fract_x
_atom_site_fract_y
_atom_site_fract_z
Si Si1 0.724713 0.649516 0.690794
Si Si2 0.188855 0.522416 0.706536
Si Si3 0.307738 0.844377 0.730827
Si Si4 0.785284 0.885392 0.686572
Si Si5 0.942306 0.945268 0.918343
Si Si6 0.461345 0.177315 0.750072
Si Si7 0.138081 0.282471 0.809580
Si Si8 0.007744 0.594155 0.349807
O O1 0.747031 0.754544 0.735943
O O2 0.745184 0.687061 0.484507
O O3 0.900518 0.644208 0.522532
O O4 0.500000 0.500000 0.000000
O O5 0.411505 0.666272 0.451060
O O6 0.189619 0.409907 0.778238
O O7 0.137857 0.499981 0.596732
O O8 0.000000 0.500000 0.000000
O O9 0.376206 0.822961 0.508900
O O10 0.500000 0.000000 0.500000
O O11 0.103206 0.816766 0.938921
O O12 0.225074 0.729448 0.982758
O O13 0.604447 0.855561 0.995414
O O14 0.000000 0.000000 0.500000
O O15 0.843604 0.956491 0.444277
O O16 0.756132 0.926334 0.064058
O O17 0.844821 0.795577 0.073567
O O18 0.000000 0.000000 0.000000
O O19 0.000000 0.500000 0.500000
#
# Coordination Sequence:
#
# PCOD9092842 Si02
#       8
#     2   2   2   2   2   2   2   2
#     4  10  20  40  63  86 125 167 205 247 323 383
#     4  10  19  43  61  86 129 162 198 253 323 369
#     4  10  21  40  65  88 127 172 210 245 328 380
#     4  10  22  38  60  91 127 161 199 258 324 366
#     4  11  22  40  63  93 125 156 215 259 298 383
#     4  11  22  40  65  88 124 173 199 258 324 372
#     4  10  21  38  64  88 121 165 204 262 307 371
#     4  10  23  41  67  94 122 162 217 270 299 373
#
# _framework density 19.989941999999999
#
# number of rings (size 3 to 8) (size 9 to 14) (size 15 to 20)
#    0.000    2.000    3.750    2.250    5.250    1.500 
#   11.250    0.625    0.000    0.000    0.000    0.000 
#    0.000    0.000    0.000    0.000    0.000    0.000 
#
# Total GULP energy -89089.982534 kJ/mol
# GULP energy per Si atom -5568.123908 kJ/mol
# Density = 1.994444 g / cm^3
# Si number density = 19.989942 Si / 1000 Ang^3
#
#
#
# Elastic Constant Matrix: (Units=GPa)
#
#
# Indices 1 2 3 4 5 6 
#
# 1 27.6141 11.8437 21.2375 4.9458 15.5922 -4.2668
# 2 11.8437 119.3261 46.7133 -0.1909 10.8450 11.8391
# 3 21.2375 46.7133 152.1691 8.8318 10.3480 3.9279
# 4 4.9458 -0.1909 8.8318 39.0787 9.7380 -3.6863
# 5 15.5922 10.8450 10.3480 9.7380 23.5148 -11.3755
# 6 -4.2668 11.8391 3.9279 -3.6863 -11.3755 27.4085
#
#
#
# Elastic Compliance Matrix: (Units=1/GPa)
#
#
# Indices 1 2 3 4 5 6 
#
# 1 0.064674 0.001027 -0.006221 0.003971 -0.046193 -0.008121
# 2 0.001027 0.010969 -0.002818 0.002099 -0.009074 -0.007658
# 3 -0.006221 -0.002818 0.008243 -0.001710 0.002431 -0.000154
# 4 0.003971 0.002099 -0.001710 0.029292 -0.016384 -0.002904
# 5 -0.046193 -0.009074 0.002431 -0.016384 0.100396 0.035844
# 6 -0.008121 -0.007658 -0.000154 -0.002904 0.035844 0.053037
#
#
# Mechanical properties :
#
#
# Convention : Reuss Voigt Hill
#
# Bulk Modulus (GPa) = 14.73578 50.96648 32.85113
# Shear Modulus (GPa) = 16.37964 32.62139 24.50051
#
# Velocity S-wave (km/s) = 2.86561 4.04405 3.50472
# Velocity P-wave (km/s) = 4.28212 6.88166 5.73122
#
# Compressibility (1/GPa) = 0.06786205
#
# Stress axis : x y z
#
# Youngs Moduli (GPa) = 15.46212 91.16198 121.31872
#
# Poissons Ratio (x) = -0.09358 0.75471
# Poissons Ratio (y) = -0.01587 0.34185
# Poissons Ratio (z) = 0.09619 0.25688
#
# Static dielectric constant tensor:
#      x y z
#    x 1.821870 0.013860 0.092380 
#    y 0.013860 1.767360 0.015350 
#    z 0.092380 0.015350 1.824170 
# 
# From -- ./inp_files/315026.got.cif
#   From: 2010.05.17/outbox.cif.g08.bks.cpg/sg2_158_cif.got.tgz:315026.got - 2010.06.03 11:33:40.
