data_PCOD9092380
_publ_section_title
;
Structure prediction by ZEFSAII (Michael W. Deem and Ramdas Pophale) SiO2 
 PCOD9092380
Probable space group: P -1
;
_chemical_formula_sum "Si O2"
_cell_formula_units_Z 16
_cell_length_a 9.904322
_cell_length_b 11.261147
_cell_length_c 16.611110
_cell_angle_alpha 32.772448
_cell_angle_beta 58.523699
_cell_angle_gamma 73.690136
_cell_volume 803.520123
_symmetry_space_group_name_H-M "P -1"
_symmetry_group_IT_number 2
_symmetry_cell_setting 'triclinic'
loop_
_space_group_symop_operation_xyz
x,y,z
-x,-y,-z
loop_
_atom_site_type_symbol
_atom_site_label
_atom_site_fract_x
_atom_site_fract_y
_atom_site_fract_z
Si Si1 0.435811 0.925242 0.763612
Si Si2 0.680462 0.478801 0.843895
Si Si3 0.026557 0.673147 0.207968
Si Si4 0.901023 0.811425 0.726100
Si Si5 0.885434 0.631630 0.001786
Si Si6 0.558138 0.263973 0.296584
Si Si7 0.178132 0.780112 0.554010
Si Si8 0.888407 0.987062 0.161593
O O1 0.372640 0.756430 0.802755
O O2 0.307605 0.068489 0.725610
O O3 0.624317 0.085444 0.591351
O O4 0.425970 0.761518 0.938471
O O5 0.819135 0.423381 0.776993
O O6 0.776656 0.644317 0.794015
O O7 0.582748 0.618268 0.744727
O O8 0.878370 0.474614 0.320995
O O9 0.096146 0.880427 0.003741
O O10 0.955890 0.774144 0.247848
O O11 0.841481 0.756552 0.866449
O O12 0.082124 0.785781 0.664700
O O13 0.907276 0.070270 0.558650
O O14 0.994683 0.822473 0.921645
O O15 0.710252 0.448323 0.193016
O O16 0.000000 0.500000 0.000000
O O17 0.500000 0.000000 0.500000
#
# Coordination Sequence:
#
# PCOD9092380 Si02
#       8
#     2   2   2   2   2   2   2   2
#     4  11  20  36  60  89 120 152 194 242 295 348
#     4  10  19  41  62  84 119 159 196 234 296 361
#     4   9  21  41  63  79 112 164 203 235 282 360
#     4  10  20  35  58  86 116 156 193 239 293 360
#     4  12  22  37  57  85 123 155 190 240 305 345
#     4  12  25  34  59  97 125 144 186 256 304 340
#     4  10  20  32  61  86 111 148 203 242 284 342
#     4  10  22  40  59  84 116 159 201 237 291 350
#
# _framework density 19.912382999999998
#
# number of rings (size 3 to 8) (size 9 to 14) (size 15 to 20)
#    0.000    1.500    3.750    2.625    3.500    0.500 
#    0.000    1.250    0.000    0.000    0.000    0.000 
#    0.000    0.000    0.000    0.000    0.000    0.000 
#
# Total GULP energy -89219.733714 kJ/mol
# GULP energy per Si atom -5576.233357 kJ/mol
# Density = 1.986706 g / cm^3
# Si number density = 19.912383 Si / 1000 Ang^3
#
#
#
# Elastic Constant Matrix: (Units=GPa)
#
#
# Indices 1 2 3 4 5 6 
#
# 1 99.4681 34.2603 26.4266 10.1247 -3.2509 -29.5197
# 2 34.2603 107.7136 6.7690 -7.5133 -4.3186 -27.3718
# 3 26.4266 6.7690 75.9287 12.1275 -6.9532 -14.7884
# 4 10.1247 -7.5133 12.1275 13.2779 -6.9353 2.8393
# 5 -3.2509 -4.3186 -6.9532 -6.9353 39.9475 0.8084
# 6 -29.5197 -27.3718 -14.7884 2.8393 0.8084 22.2419
#
#
#
# Elastic Compliance Matrix: (Units=1/GPa)
#
#
# Indices 1 2 3 4 5 6 
#
# 1 0.023213 -0.000633 0.003777 -0.031279 -0.003694 0.036669
# 2 -0.000633 0.014101 0.001803 0.004304 0.002188 0.017084
# 3 0.003777 0.001803 0.020540 -0.026327 -0.000985 0.024285
# 4 -0.031279 0.004304 -0.026327 0.152605 0.021329 -0.073977
# 5 -0.003694 0.002188 -0.000985 0.021329 0.028634 -0.006628
# 6 0.036669 0.017084 0.024285 -0.073977 -0.006628 0.140481
#
#
# Mechanical properties :
#
#
# Convention : Reuss Voigt Hill
#
# Bulk Modulus (GPa) = 14.76047 46.44693 30.60370
# Shear Modulus (GPa) = 12.74654 29.47044 21.10849
#
# Velocity S-wave (km/s) = 2.53283 3.85126 3.25940
# Velocity P-wave (km/s) = 3.99780 6.56906 5.43760
#
# Compressibility (1/GPa) = 0.06774853
#
# Stress axis : x y z
#
# Youngs Moduli (GPa) = 43.07848 70.91723 48.68621
#
# Poissons Ratio (x) = 0.04486 -0.18387
# Poissons Ratio (y) = 0.02725 -0.08779
# Poissons Ratio (z) = -0.16269 -0.12788
#
# Static dielectric constant tensor:
#      x y z
#    x 1.759250 -0.031810 0.009470 
#    y -0.031810 1.722250 0.010140 
#    z 0.009470 0.010140 1.778450 
# 
# From -- ./inp_files/558830.got.cif
#   From: 2010.05.17/outbox.cif.g08.bks.cpg/sg2_280_cif.got.tgz:558830.got - 2010.06.03 11:33:40.
