data_PCOD9092981
_publ_section_title
;
Structure prediction by ZEFSAII (Michael W. Deem and Ramdas Pophale) SiO2 
 PCOD9092981
Probable space group: P -1
;
_chemical_formula_sum "Si O2"
_cell_formula_units_Z 14
_cell_length_a 4.961429
_cell_length_b 25.208927
_cell_length_c 7.973064
_cell_angle_alpha 36.242980
_cell_angle_beta 86.914299
_cell_angle_gamma 72.773591
_cell_volume 532.030694
_symmetry_space_group_name_H-M "P -1"
_symmetry_group_IT_number 2
_symmetry_cell_setting 'triclinic'
loop_
_space_group_symop_operation_xyz
x,y,z
-x,-y,-z
loop_
_atom_site_type_symbol
_atom_site_label
_atom_site_fract_x
_atom_site_fract_y
_atom_site_fract_z
Si Si1 0.810125 0.359145 0.460189
Si Si2 0.303290 0.661793 0.838102
Si Si3 0.421252 0.249691 0.851999
Si Si4 0.631306 0.792711 0.497504
Si Si5 0.476566 0.929789 0.480932
Si Si6 0.924862 0.414019 0.652119
Si Si7 0.871411 0.034943 0.102763
O O1 0.014041 0.240199 0.429876
O O2 0.763577 0.434505 0.423356
O O3 0.679956 0.395715 0.189087
O O4 0.683647 0.281553 0.724880
O O5 0.832370 0.702275 0.403729
O O6 0.563915 0.696644 0.757801
O O7 0.256535 0.613677 0.131648
O O8 0.227641 0.317451 0.842070
O O9 0.511188 0.137552 0.189040
O O10 0.513035 0.860395 0.494998
O O11 0.413039 0.861451 0.184000
O O12 0.744272 0.961860 0.374340
O O13 0.157168 0.023936 0.229184
O O14 0.000000 0.500000 0.500000
O O15 0.000000 0.000000 0.000000
#
# Coordination Sequence:
#
# PCOD9092981 Si02
#       7
#     2   2   2   2   2   2   2
#     4  10  23  42  62  96 124 171 205 255 314 371
#     4  12  23  40  68  90 129 171 205 257 311 379
#     4  10  21  41  63  89 130 164 207 255 312 374
#     4  11  20  36  58  94 127 165 216 253 310 367
#     4  11  18  34  59  90 125 170 209 256 321 352
#     4  10  25  44  68  98 124 160 211 259 314 380
#     4  10  20  29  55  93 130 158 213 272 294 366
#
# _framework density 26.314274000000001
#
# number of rings (size 3 to 8) (size 9 to 14) (size 15 to 20)
#    0.857    0.571    1.429    6.857    0.000    1.143 
#    0.000    0.714    0.000   17.143    0.000    0.000 
#    0.000    0.000    0.000    0.000    0.000    0.000 
#
# Total GULP energy -78414.632088 kJ/mol
# GULP energy per Si atom -5601.045149 kJ/mol
# Density = 2.625438 g / cm^3
# Si number density = 26.314274 Si / 1000 Ang^3
#
#
#
# Elastic Constant Matrix: (Units=GPa)
#
#
# Indices 1 2 3 4 5 6 
#
# 1 97.7031 21.3994 26.7474 2.6525 -18.5002 -1.7836
# 2 21.3994 133.9831 34.9519 15.3854 2.8530 13.3711
# 3 26.7474 34.9519 93.5727 19.9852 -3.5888 1.3051
# 4 2.6525 15.3854 19.9852 35.1554 -2.1401 6.7192
# 5 -18.5002 2.8530 -3.5888 -2.1401 55.6829 1.0331
# 6 -1.7836 13.3711 1.3051 6.7192 1.0331 48.8011
#
#
#
# Elastic Compliance Matrix: (Units=1/GPa)
#
#
# Indices 1 2 3 4 5 6 
#
# 1 0.012125 -0.001453 -0.003126 0.001621 0.003952 0.000618
# 2 -0.001453 0.008801 -0.002456 -0.002014 -0.001130 -0.002098
# 3 -0.003126 -0.002456 0.013933 -0.006845 -0.000299 0.001135
# 4 0.001621 -0.002014 -0.006845 0.033939 0.001578 -0.003912
# 5 0.003952 -0.001130 -0.000299 0.001578 0.019374 -0.000165
# 6 0.000618 -0.002098 0.001135 -0.003912 -0.000165 0.021600
#
#
# Mechanical properties :
#
#
# Convention : Reuss Voigt Hill
#
# Bulk Modulus (GPa) = 48.10549 54.60625 51.35587
# Shear Modulus (GPa) = 38.23443 44.07187 41.15315
#
# Velocity S-wave (km/s) = 3.81595 4.09691 3.95892
# Velocity P-wave (km/s) = 6.14297 6.57085 6.36051
#
# Compressibility (1/GPa) = 0.02078765
#
# Stress axis : x y z
#
# Youngs Moduli (GPa) = 82.47553 113.62270 71.77434
#
# Poissons Ratio (x) = 0.16508 0.22439
# Poissons Ratio (y) = 0.11983 0.17629
# Poissons Ratio (z) = 0.25785 0.27907
#
# Static dielectric constant tensor:
#      x y z
#    x 1.980760 0.010090 0.080790 
#    y 0.010090 2.169730 0.002310 
#    z 0.080790 0.002310 1.994360 
# 
# From -- ./inp_files/143034.got.cif
#   From: 2010.05.17/outbox.cif.g08.bks.cpg/sg2_72_cif.got.tgz:143034.got - 2010.06.03 11:33:40.
