data_PCOD9092880
_publ_section_title
;
Structure prediction by ZEFSAII (Michael W. Deem and Ramdas Pophale) SiO2 
 PCOD9092880
Probable space group: P -1
;
_chemical_formula_sum "Si O2"
_cell_formula_units_Z 16
_cell_length_a 8.847300
_cell_length_b 10.363314
_cell_length_c 11.613808
_cell_angle_alpha 65.314261
_cell_angle_beta 127.574394
_cell_angle_gamma 122.280801
_cell_volume 706.758019
_symmetry_space_group_name_H-M "P -1"
_symmetry_group_IT_number 2
_symmetry_cell_setting 'triclinic'
loop_
_space_group_symop_operation_xyz
x,y,z
-x,-y,-z
loop_
_atom_site_type_symbol
_atom_site_label
_atom_site_fract_x
_atom_site_fract_y
_atom_site_fract_z
Si Si1 0.375791 0.196226 0.120995
Si Si2 0.081257 0.322037 0.054335
Si Si3 0.464860 0.339017 0.348105
Si Si4 0.939184 0.191343 0.447719
Si Si5 0.209686 0.572633 0.842714
Si Si6 0.646655 0.850281 0.411859
Si Si7 0.371441 0.909128 0.083241
Si Si8 0.862235 0.591755 0.360137
O O1 0.481882 0.238227 0.282542
O O2 0.545372 0.325170 0.072150
O O3 0.338682 0.032847 0.109220
O O4 0.171622 0.228720 0.040899
O O5 0.847962 0.215018 0.011815
O O6 0.113659 0.481614 0.947251
O O7 0.241735 0.347922 0.223831
O O8 0.476584 0.254974 0.501284
O O9 0.643475 0.506870 0.353964
O O10 0.888626 0.314004 0.300351
O O11 0.145379 0.179563 0.498181
O O12 0.007361 0.241261 0.592481
O O13 0.742417 0.032748 0.413578
O O14 0.175526 0.442276 0.778104
O O15 0.502293 0.828985 0.242394
O O16 0.500000 0.000000 0.000000
O O17 0.000000 0.500000 0.500000
#
# Coordination Sequence:
#
# PCOD9092880 Si02
#       8
#     2   2   2   2   2   2   2   2
#     4   9  21  44  69  98 138 173 224 279 333 406
#     4  10  24  42  69 100 133 177 224 284 332 404
#     4   9  23  42  67 100 131 169 227 271 344 391
#     4  10  23  41  67  94 137 183 215 282 335 403
#     4  10  19  43  69  99 134 174 227 278 342 395
#     4  11  25  44  66  95 139 180 225 272 335 405
#     4  12  27  45  66 100 139 183 231 274 339 404
#     4   9  20  38  64 100 130 168 223 279 332 401
#
# _framework density 22.638584000000002
#
# number of rings (size 3 to 8) (size 9 to 14) (size 15 to 20)
#    0.750    1.250    1.250    0.750    7.000    3.000 
#    0.000    1.250    0.000    0.000    0.000    0.000 
#    0.000    0.000    0.000    0.000    0.000    0.000 
#
# Total GULP energy -89337.880090 kJ/mol
# GULP energy per Si atom -5583.617506 kJ/mol
# Density = 2.258706 g / cm^3
# Si number density = 22.638584 Si / 1000 Ang^3
#
#
#
# Elastic Constant Matrix: (Units=GPa)
#
#
# Indices 1 2 3 4 5 6 
#
# 1 53.5690 20.2911 35.4036 -2.0886 9.9800 25.2270
# 2 20.2911 43.8270 33.7859 10.8335 10.0336 9.5716
# 3 35.4036 33.7859 126.2507 -13.1688 5.2033 28.5537
# 4 -2.0886 10.8335 -13.1688 32.9477 10.6183 6.7794
# 5 9.9800 10.0336 5.2033 10.6183 38.6403 2.0427
# 6 25.2270 9.5716 28.5537 6.7794 2.0427 42.8325
#
#
#
# Elastic Compliance Matrix: (Units=1/GPa)
#
#
# Indices 1 2 3 4 5 6 
#
# 1 0.034777 -0.013083 -0.000262 0.012930 -0.008096 -0.019045
# 2 -0.013083 0.040975 -0.011612 -0.020757 -0.000501 0.009599
# 3 -0.000262 -0.011612 0.014353 0.011842 -0.001649 -0.008615
# 4 0.012930 -0.020757 0.011842 0.050503 -0.012456 -0.018271
# 5 -0.008096 -0.000501 -0.001649 -0.012456 0.031405 0.006453
# 6 -0.019045 0.009599 -0.008615 -0.018271 0.006453 0.040746
#
#
# Mechanical properties :
#
#
# Convention : Reuss Voigt Hill
#
# Bulk Modulus (GPa) = 24.88026 44.73421 34.80724
# Shear Modulus (GPa) = 18.11140 31.82851 24.96995
#
# Velocity S-wave (km/s) = 2.83154 3.75366 3.32472
# Velocity P-wave (km/s) = 4.65878 6.21206 5.49062
#
# Compressibility (1/GPa) = 0.04019251
#
# Stress axis : x y z
#
# Youngs Moduli (GPa) = 28.75450 24.40521 69.67052
#
# Poissons Ratio (x) = 0.31929 0.01822
# Poissons Ratio (y) = 0.37619 0.80902
# Poissons Ratio (z) = 0.00752 0.28339
#
# Static dielectric constant tensor:
#      x y z
#    x 1.899410 -0.070570 0.004130 
#    y -0.070570 1.839530 0.011750 
#    z 0.004130 0.011750 1.818280 
# 
# From -- ./inp_files/389585.got.cif
#   From: 2010.05.17/outbox.cif.g08.bks.cpg/sg2_195_cif.got.tgz:389585.got - 2010.06.03 11:33:40.
