data_PCOD9092616
_publ_section_title
;
Structure prediction by ZEFSAII (Michael W. Deem and Ramdas Pophale) SiO2 
 PCOD9092616
Probable space group: P -1
;
_chemical_formula_sum "Si O2"
_cell_formula_units_Z 16
_cell_length_a 12.683052
_cell_length_b 21.285206
_cell_length_c 18.678185
_cell_angle_alpha 19.776506
_cell_angle_beta 28.054855
_cell_angle_gamma 39.257797
_cell_volume 750.814369
_symmetry_space_group_name_H-M "P -1"
_symmetry_group_IT_number 2
_symmetry_cell_setting 'triclinic'
loop_
_space_group_symop_operation_xyz
x,y,z
-x,-y,-z
loop_
_atom_site_type_symbol
_atom_site_label
_atom_site_fract_x
_atom_site_fract_y
_atom_site_fract_z
Si Si1 0.865444 0.300689 0.838383
Si Si2 0.102421 0.583000 0.578774
Si Si3 0.427558 0.108545 0.621693
Si Si4 0.972598 0.195502 0.162935
Si Si5 0.325243 0.449813 0.225927
Si Si6 0.781938 0.068863 0.775704
Si Si7 0.432440 0.445261 0.683722
Si Si8 0.293412 0.202228 0.757436
O O1 0.664250 0.355394 0.944525
O O2 0.000000 0.500000 0.500000
O O3 0.070201 0.267677 0.799950
O O4 0.749612 0.105308 0.069646
O O5 0.373383 0.657484 0.307000
O O6 0.934647 0.618665 0.581174
O O7 0.104825 0.697643 0.528882
O O8 0.013944 0.351859 0.904019
O O9 0.698361 0.125966 0.423668
O O10 0.369400 0.281619 0.427553
O O11 0.394548 0.147836 0.682271
O O12 0.072109 0.023620 0.264289
O O13 0.156370 0.313144 0.988883
O O14 0.500000 0.500000 0.000000
O O15 0.798100 0.981097 0.937955
O O16 0.500000 0.000000 0.000000
O O17 0.500000 0.500000 0.500000
O O18 0.509370 0.629000 0.494578
#
# Coordination Sequence:
#
# PCOD9092616 Si02
#       8
#     2   2   2   2   2   2   2   2
#     4  12  27  49  72 102 145 192 240 291 353 434
#     4  11  21  39  72  99 136 179 241 286 338 413
#     4  12  29  45  68 109 152 182 234 293 370 425
#     4  11  23  46  66 105 146 176 230 301 349 418
#     4  12  25  44  71 109 140 189 233 294 361 413
#     4  12  23  41  74 101 129 187 244 284 346 423
#     4  10  19  41  70  97 130 181 238 285 337 407
#     4  12  24  46  73 103 138 190 240 296 345 426
#
# _framework density 21.310195
#
# number of rings (size 3 to 8) (size 9 to 14) (size 15 to 20)
#    0.000    0.500    7.500    1.875    3.500    1.000 
#    0.000    0.625    0.000    0.000    0.000    0.000 
#    0.000    0.000    0.000    0.000    0.000    0.000 
#
# Total GULP energy -89414.199665 kJ/mol
# GULP energy per Si atom -5588.387479 kJ/mol
# Density = 2.126169 g / cm^3
# Si number density = 21.310195 Si / 1000 Ang^3
#
#
#
# Elastic Constant Matrix: (Units=GPa)
#
#
# Indices 1 2 3 4 5 6 
#
# 1 111.2690 49.3067 37.7119 3.1268 -19.1896 5.5829
# 2 49.3067 145.8960 32.3197 -5.6882 -6.4560 9.1384
# 3 37.7119 32.3197 54.6452 -3.5837 -9.8967 4.9992
# 4 3.1268 -5.6882 -3.5837 36.8727 5.6114 -12.6561
# 5 -19.1896 -6.4560 -9.8967 5.6114 34.9091 -3.2496
# 6 5.5829 9.1384 4.9992 -12.6561 -3.2496 54.1490
#
#
#
# Elastic Compliance Matrix: (Units=1/GPa)
#
#
# Indices 1 2 3 4 5 6 
#
# 1 0.013706 -0.002952 -0.006868 -0.003378 0.005516 -0.000740
# 2 -0.002952 0.008577 -0.003109 0.001231 -0.001175 -0.000639
# 3 -0.006868 -0.003109 0.025512 0.002030 0.002510 -0.000498
# 4 -0.003378 0.001231 0.002030 0.030972 -0.005393 0.006869
# 5 0.005516 -0.001175 0.002510 -0.005393 0.033050 0.000121
# 6 -0.000740 -0.000639 -0.000498 0.006869 0.000121 0.020310
#
#
# Mechanical properties :
#
#
# Convention : Reuss Voigt Hill
#
# Bulk Modulus (GPa) = 45.58650 61.16519 53.37585
# Shear Modulus (GPa) = 30.24845 38.01763 34.13304
#
# Velocity S-wave (km/s) = 3.77163 4.22834 4.00650
# Velocity P-wave (km/s) = 6.35651 7.25280 6.81939
#
# Compressibility (1/GPa) = 0.02193632
#
# Stress axis : x y z
#
# Youngs Moduli (GPa) = 72.95844 116.59655 39.19774
#
# Poissons Ratio (x) = 0.34420 0.26922
# Poissons Ratio (y) = 0.21538 0.12187
# Poissons Ratio (z) = 0.50109 0.36250
#
# Static dielectric constant tensor:
#      x y z
#    x 1.785310 0.000520 -0.020370 
#    y 0.000520 1.867540 -0.037720 
#    z -0.020370 -0.037720 1.811390 
# 
# From -- ./inp_files/570672.got.cif
#   From: 2010.05.17/outbox.cif.g08.bks.cpg/sg2_286_cif.got.tgz:570672.got - 2010.06.03 11:33:40.
