data_PCOD9092027
_publ_section_title
;
Structure prediction by ZEFSAII (Michael W. Deem and Ramdas Pophale) SiO2 
 PCOD9092027
Probable space group: P -1
;
_chemical_formula_sum "Si O2"
_cell_formula_units_Z 16
_cell_length_a 7.604477
_cell_length_b 11.974302
_cell_length_c 15.301384
_cell_angle_alpha 34.083919
_cell_angle_beta 90.610014
_cell_angle_gamma 68.528434
_cell_volume 580.366851
_symmetry_space_group_name_H-M "P -1"
_symmetry_group_IT_number 2
_symmetry_cell_setting 'triclinic'
loop_
_space_group_symop_operation_xyz
x,y,z
-x,-y,-z
loop_
_atom_site_type_symbol
_atom_site_label
_atom_site_fract_x
_atom_site_fract_y
_atom_site_fract_z
Si Si1 0.937675 0.408245 0.704217
Si Si2 0.464144 0.645468 0.622856
Si Si3 0.143560 0.478577 0.890669
Si Si4 0.049572 0.136224 0.189187
Si Si5 0.606530 0.127353 0.885180
Si Si6 0.822590 0.469710 0.480824
Si Si7 0.389055 0.771131 0.873533
Si Si8 0.702767 0.978961 0.470720
O O1 0.696739 0.600909 0.633824
O O2 0.847083 0.345557 0.657551
O O3 0.000000 0.500000 0.500000
O O4 0.069607 0.529952 0.613865
O O5 0.542341 0.361180 0.794957
O O6 0.271844 0.848671 0.415451
O O7 0.344398 0.781998 0.627370
O O8 0.060285 0.660373 0.860427
O O9 0.963317 0.707024 0.672726
O O10 0.096564 0.279220 0.030962
O O11 0.426731 0.285108 0.019748
O O12 0.866320 0.107558 0.173562
O O13 0.455373 0.290315 0.691352
O O14 0.500000 0.000000 0.000000
O O15 0.880761 0.868596 0.063161
O O16 0.353809 0.943988 0.680125
O O17 0.500000 0.500000 0.000000
O O18 0.500000 0.000000 0.500000
#
# Coordination Sequence:
#
# PCOD9092027 Si02
#       8
#     2   2   2   2   2   2   2   2
#     4   8  18  38  64  89 127 163 206 264 328 386
#     4  11  22  37  65 101 124 167 227 264 318 402
#     4   9  19  40  65  83 124 176 217 270 329 373
#     4   9  19  37  61  88 126 166 218 264 319 380
#     4  10  19  40  65  87 132 165 204 273 329 381
#     4   7  17  37  66  85 118 168 201 252 336 390
#     4  10  20  39  66  86 127 186 216 267 331 376
#     4  11  23  42  67  94 137 178 222 270 327 386
#
# _framework density 27.568770000000001
#
# number of rings (size 3 to 8) (size 9 to 14) (size 15 to 20)
#    0.750    1.750    0.000    3.375    0.000    5.000 
#    9.000   11.250   41.250    0.000    0.000    0.000 
#    0.000    0.000    0.000    0.000    0.000    0.000 
#
# Total GULP energy -89123.480950 kJ/mol
# GULP energy per Si atom -5570.217559 kJ/mol
# Density = 2.750602 g / cm^3
# Si number density = 27.568770 Si / 1000 Ang^3
#
#
#
# Elastic Constant Matrix: (Units=GPa)
#
#
# Indices 1 2 3 4 5 6 
#
# 1 168.0835 26.2569 84.3395 12.2709 26.1675 -18.0682
# 2 26.2569 115.0506 67.7429 0.9297 11.8621 -0.4300
# 3 84.3395 67.7429 184.2437 10.0639 28.2507 -6.2427
# 4 12.2709 0.9297 10.0639 33.4290 11.0149 3.7732
# 5 26.1675 11.8621 28.2507 11.0149 68.5446 -7.7891
# 6 -18.0682 -0.4300 -6.2427 3.7732 -7.7891 17.2564
#
#
#
# Elastic Compliance Matrix: (Units=1/GPa)
#
#
# Indices 1 2 3 4 5 6 
#
# 1 0.008957 0.000213 -0.003650 -0.002986 -0.000508 0.008487
# 2 0.000213 0.011188 -0.004235 0.001285 -0.000662 -0.001610
# 3 -0.003650 -0.004235 0.008886 -0.000542 -0.001598 -0.001316
# 4 -0.002986 0.001285 -0.000542 0.034633 -0.005965 -0.013555
# 5 -0.000508 -0.000662 -0.001598 -0.005965 0.017429 0.008045
# 6 0.008487 -0.001610 -0.001316 -0.013555 0.008045 0.072915
#
#
# Mechanical properties :
#
#
# Convention : Reuss Voigt Hill
#
# Bulk Modulus (GPa) = 73.05702 91.56183 82.30943
# Shear Modulus (GPa) = 28.75002 43.11521 35.93261
#
# Velocity S-wave (km/s) = 3.23282 3.95893 3.61415
# Velocity P-wave (km/s) = 6.36335 7.36082 6.88019
#
# Compressibility (1/GPa) = 0.01368794
#
# Stress axis : x y z
#
# Youngs Moduli (GPa) = 111.64601 89.37842 112.54244
#
# Poissons Ratio (x) = -0.01906 0.41078
# Poissons Ratio (y) = -0.02380 0.47658
# Poissons Ratio (z) = 0.40751 0.37848
#
# Static dielectric constant tensor:
#      x y z
#    x 2.201170 0.132660 -0.065740 
#    y 0.132660 1.836630 -0.273690 
#    z -0.065740 -0.273690 2.179530 
# 
# From -- ./inp_files/561121.got.cif
#   From: 2010.05.17/outbox.cif.g08.bks.cpg/sg2_281_cif.got.tgz:561121.got - 2010.06.03 11:33:40.
