data_PCOD9092900
_publ_section_title
;
Structure prediction by ZEFSAII (Michael W. Deem and Ramdas Pophale) SiO2 
 PCOD9092900
Probable space group: P -1
;
_chemical_formula_sum "Si O2"
_cell_formula_units_Z 12
_cell_length_a 8.018149
_cell_length_b 12.104746
_cell_length_c 11.041873
_cell_angle_alpha 105.638565
_cell_angle_beta 58.060582
_cell_angle_gamma 141.146734
_cell_volume 549.731765
_symmetry_space_group_name_H-M "P -1"
_symmetry_group_IT_number 2
_symmetry_cell_setting 'triclinic'
loop_
_space_group_symop_operation_xyz
x,y,z
-x,-y,-z
loop_
_atom_site_type_symbol
_atom_site_label
_atom_site_fract_x
_atom_site_fract_y
_atom_site_fract_z
Si Si1 0.170230 0.574991 0.825270
Si Si2 0.133196 0.854475 0.577214
Si Si3 0.866533 0.973042 0.731004
Si Si4 0.958094 0.267355 0.682217
Si Si5 0.675418 0.001670 0.034967
Si Si6 0.142079 0.352459 0.128352
O O1 0.516834 0.783766 0.765077
O O2 0.177174 0.452174 0.727845
O O3 0.968424 0.566539 0.815274
O O4 0.000000 0.500000 0.000000
O O5 0.009142 0.727674 0.472149
O O6 0.084611 0.967840 0.608256
O O7 0.940024 0.733377 0.734341
O O8 0.500000 0.000000 0.500000
O O9 0.975234 0.144923 0.689112
O O10 0.830811 0.970632 0.889680
O O11 0.606797 0.154360 0.812595
O O12 0.932330 0.190546 0.062254
O O13 0.500000 0.000000 0.000000
O O14 0.500000 0.500000 0.000000
#
# Coordination Sequence:
#
# PCOD9092900 Si02
#       6
#     2   2   2   2   2   2
#     4  12  22  43  73 103 141 185 246 298 343 434
#     4  12  26  45  68 103 151 189 228 303 373 417
#     4  11  23  44  74 102 140 191 244 292 349 437
#     4  11  23  43  74 103 137 191 243 288 360 427
#     4  10  19  43  73  99 133 187 243 281 345 430
#     4  12  26  44  70 112 148 183 239 301 361 424
#
# _framework density 21.828825999999999
#
# number of rings (size 3 to 8) (size 9 to 14) (size 15 to 20)
#    0.000    0.667    6.667    2.500    0.000    3.333 
#    0.000    1.667    0.000    0.000    0.000    0.000 
#    0.000    0.000    0.000    0.000    0.000    0.000 
#
# Total GULP energy -67161.791334 kJ/mol
# GULP energy per Si atom -5596.815944 kJ/mol
# Density = 2.177914 g / cm^3
# Si number density = 21.828826 Si / 1000 Ang^3
#
#
#
# Elastic Constant Matrix: (Units=GPa)
#
#
# Indices 1 2 3 4 5 6 
#
# 1 67.4948 40.2631 37.6438 7.4832 -0.8228 -4.9158
# 2 40.2631 128.8272 46.6103 24.9480 8.6195 -5.2622
# 3 37.6438 46.6103 131.6504 24.1740 18.2940 5.8932
# 4 7.4832 24.9480 24.1740 43.7988 2.3317 -4.4456
# 5 -0.8228 8.6195 18.2940 2.3317 40.4007 1.6773
# 6 -4.9158 -5.2622 5.8932 -4.4456 1.6773 26.7438
#
#
#
# Elastic Compliance Matrix: (Units=1/GPa)
#
#
# Indices 1 2 3 4 5 6 
#
# 1 0.020937 -0.005186 -0.005307 0.002539 0.003615 0.004193
# 2 -0.005186 0.010871 -0.001382 -0.004371 -0.001583 0.000863
# 3 -0.005307 -0.001382 0.011281 -0.004725 -0.004473 -0.004238
# 4 0.002539 -0.004371 -0.004725 0.027956 0.001294 0.005214
# 5 0.003615 -0.001583 -0.004473 0.001294 0.027120 -0.000147
# 6 0.004193 0.000863 -0.004238 0.005214 -0.000147 0.040142
#
#
# Mechanical properties :
#
#
# Convention : Reuss Voigt Hill
#
# Bulk Modulus (GPa) = 51.70626 64.11188 57.90907
# Shear Modulus (GPa) = 29.67286 35.75234 32.71260
#
# Velocity S-wave (km/s) = 3.69093 4.05143 3.87537
# Velocity P-wave (km/s) = 6.47321 7.16376 6.82722
#
# Compressibility (1/GPa) = 0.01934002
#
# Stress axis : x y z
#
# Youngs Moduli (GPa) = 47.76159 91.98972 88.64086
#
# Poissons Ratio (x) = 0.47705 0.47042
# Poissons Ratio (y) = 0.24768 0.12250
# Poissons Ratio (z) = 0.25347 0.12712
#
# Static dielectric constant tensor:
#      x y z
#    x 1.809850 -0.034760 0.004210 
#    y -0.034760 1.779110 0.008920 
#    z 0.004210 0.008920 1.836670 
# 
# From -- ./inp_files/330481.got.cif
#   From: 2010.05.17/outbox.cif.g08.bks.cpg/sg2_166_cif.got.tgz:330481.got - 2010.06.03 11:33:40.
