data_PCOD9092486
_publ_section_title
;
Structure prediction by ZEFSAII (Michael W. Deem and Ramdas Pophale) SiO2 
 PCOD9092486
Probable space group: P -1
;
_chemical_formula_sum "Si O2"
_cell_formula_units_Z 16
_cell_length_a 14.111495
_cell_length_b 11.890479
_cell_length_c 14.515284
_cell_angle_alpha 148.646457
_cell_angle_beta 36.538344
_cell_angle_gamma 141.616882
_cell_volume 715.934963
_symmetry_space_group_name_H-M "P -1"
_symmetry_group_IT_number 2
_symmetry_cell_setting 'triclinic'
loop_
_space_group_symop_operation_xyz
x,y,z
-x,-y,-z
loop_
_atom_site_type_symbol
_atom_site_label
_atom_site_fract_x
_atom_site_fract_y
_atom_site_fract_z
Si Si1 0.807679 0.406117 0.052671
Si Si2 0.649413 0.550640 0.110403
Si Si3 0.605323 0.959955 0.550101
Si Si4 0.706075 0.697827 0.822863
Si Si5 0.271441 0.088041 0.856675
Si Si6 0.240362 0.207358 0.532534
Si Si7 0.831117 0.298023 0.476361
Si Si8 0.849776 0.940635 0.698849
O O1 0.781653 0.475187 0.016365
O O2 0.716932 0.539441 0.282438
O O3 0.000000 0.500000 0.000000
O O4 0.762541 0.138085 0.911562
O O5 0.593868 0.727117 0.342375
O O6 0.489413 0.333653 0.062022
O O7 0.711881 0.693351 0.068359
O O8 0.638843 0.913153 0.596829
O O9 0.448676 0.042134 0.703832
O O10 0.768367 0.141823 0.504975
O O11 0.702769 0.439758 0.661208
O O12 0.812569 0.796139 0.718888
O O13 0.781398 0.854736 0.961387
O O14 0.166371 0.866537 0.726361
O O15 0.230045 0.205702 0.430229
O O16 0.049022 0.062507 0.612233
O O17 0.000000 0.500000 0.500000
#
# Coordination Sequence:
#
# PCOD9092486 Si02
#       8
#     2   2   2   2   2   2   2   2
#     4   9  20  39  62  87 118 162 211 258 306 365
#     4  10  20  40  64  90 125 166 211 256 305 380
#     4  10  19  41  66  91 121 170 211 250 318 380
#     4  12  24  38  62  96 129 162 212 255 313 374
#     4  11  23  41  65  93 130 167 206 252 318 383
#     4   9  20  40  64  83 117 167 210 255 314 365
#     4  11  23  41  64  94 129 161 207 265 313 368
#     4  10  22  39  58  90 124 159 213 260 303 370
#
# _framework density 22.348399000000001
#
# number of rings (size 3 to 8) (size 9 to 14) (size 15 to 20)
#    0.000    1.750    2.500    1.875    1.750    3.000 
#    0.000    5.000    0.000    0.000    0.000    0.000 
#    0.000    0.000    0.000    0.000    0.000    0.000 
#
# Total GULP energy -89384.539741 kJ/mol
# GULP energy per Si atom -5586.533734 kJ/mol
# Density = 2.229753 g / cm^3
# Si number density = 22.348399 Si / 1000 Ang^3
#
#
#
# Elastic Constant Matrix: (Units=GPa)
#
#
# Indices 1 2 3 4 5 6 
#
# 1 112.2947 12.0014 19.8571 -14.2801 -3.5267 -4.4035
# 2 12.0014 19.1581 20.9841 -3.5719 15.1378 8.1497
# 3 19.8571 20.9841 59.2355 9.4514 13.0964 -14.2985
# 4 -14.2801 -3.5719 9.4514 14.1670 -11.6597 3.7065
# 5 -3.5267 15.1378 13.0964 -11.6597 40.1404 -4.8375
# 6 -4.4035 8.1497 -14.2985 3.7065 -4.8375 35.5657
#
#
#
# Elastic Compliance Matrix: (Units=1/GPa)
#
#
# Indices 1 2 3 4 5 6 
#
# 1 0.009686 -0.065430 0.028228 -0.022728 0.013541 0.031751
# 2 -0.065430 -0.301087 0.265860 -0.439961 -0.082344 0.202425
# 3 0.028228 0.265860 -0.166642 0.256517 0.013098 -0.149372
# 4 -0.022728 -0.439961 0.256517 -0.271069 0.029620 0.233406
# 5 0.013541 -0.082344 0.013098 0.029620 0.065296 0.031605
# 6 0.031751 0.202425 -0.149372 0.233406 0.031605 -0.094414
#
#
# Mechanical properties :
#
#
# Convention : Reuss Voigt Hill
#
# Bulk Modulus (GPa) = -1374.96845 32.93041 -671.01902
# Shear Modulus (GPa) = -4.11256 27.16435 11.52590
#
# Velocity S-wave (km/s) = -1.35801 3.49018 2.27345
# Velocity P-wave (km/s) = 24.88046 5.56855 17.14684
#
# Compressibility (1/GPa) = -0.00072729
#
# Stress axis : x y z
#
# Youngs Moduli (GPa) = 103.23682 -3.32130 -6.00088
#
# Poissons Ratio (x) = -0.21731 0.16939
# Poissons Ratio (y) = 6.75482 1.59539
# Poissons Ratio (z) = -2.91420 0.88300
#
# Static dielectric constant tensor:
#      x y z
#    x 1.895360 0.043600 -0.054800 
#    y 0.043600 1.787000 -0.036240 
#    z -0.054800 -0.036240 1.885100 
# 
# From -- ./inp_files/187061.got.cif
#   From: 2010.05.17/outbox.cif.g08.bks.cpg/sg2_94_cif.got.tgz:187061.got - 2010.06.03 11:33:40.
