data_PCOD9092145
_publ_section_title
;
Structure prediction by ZEFSAII (Michael W. Deem and Ramdas Pophale) SiO2 
 PCOD9092145
Probable space group: P -1
;
_chemical_formula_sum "Si O2"
_cell_formula_units_Z 14
_cell_length_a 7.459581
_cell_length_b 13.963793
_cell_length_c 12.880290
_cell_angle_alpha 131.293006
_cell_angle_beta 32.968531
_cell_angle_gamma 130.033558
_cell_volume 535.228250
_symmetry_space_group_name_H-M "P -1"
_symmetry_group_IT_number 2
_symmetry_cell_setting 'triclinic'
loop_
_space_group_symop_operation_xyz
x,y,z
-x,-y,-z
loop_
_atom_site_type_symbol
_atom_site_label
_atom_site_fract_x
_atom_site_fract_y
_atom_site_fract_z
Si Si1 0.542119 0.607727 0.326963
Si Si2 0.558482 0.159310 0.104742
Si Si3 0.259678 0.600525 0.668168
Si Si4 0.278745 0.154414 0.700847
Si Si5 0.777370 0.418885 0.920667
Si Si6 0.285050 0.187371 0.049176
Si Si7 0.432575 0.985152 0.700836
O O1 0.248384 0.595970 0.546064
O O2 0.463760 0.712057 0.356463
O O3 0.904215 0.642952 0.240677
O O4 0.623022 0.486902 0.139279
O O5 0.566403 0.253078 0.268975
O O6 0.336569 0.209969 0.162178
O O7 0.941601 0.201891 0.914866
O O8 0.500000 0.000000 0.000000
O O9 0.500000 0.500000 0.500000
O O10 0.926923 0.527374 0.840201
O O11 0.326088 0.069024 0.716308
O O12 0.281148 0.071377 0.534591
O O13 0.456376 0.302193 0.971378
O O14 0.491246 0.077269 0.836962
O O15 0.892461 0.123673 0.184062
#
# Coordination Sequence:
#
# PCOD9092145 Si02
#       7
#     2   2   2   2   2   2   2
#     4  10  20  38  70  96 132 164 218 283 331 377
#     4  12  23  39  72 102 129 167 240 281 320 396
#     4  10  22  38  64 107 137 164 212 292 338 382
#     4  11  22  44  63  93 136 176 216 278 330 399
#     4  10  19  40  66  99 127 168 223 281 326 388
#     4  11  22  43  66  93 130 180 218 278 334 396
#     4  10  26  42  61  92 144 178 209 273 352 395
#
# _framework density 26.157064999999999
#
# number of rings (size 3 to 8) (size 9 to 14) (size 15 to 20)
#    0.000    1.429    4.286    1.714    2.000    2.857 
#    5.143    1.429    0.000    0.000    0.000    0.000 
#    0.000    0.000    0.000    0.000    0.000    0.000 
#
# Total GULP energy -78050.492511 kJ/mol
# GULP energy per Si atom -5575.035179 kJ/mol
# Density = 2.609753 g / cm^3
# Si number density = 26.157065 Si / 1000 Ang^3
#
#
#
# Elastic Constant Matrix: (Units=GPa)
#
#
# Indices 1 2 3 4 5 6 
#
# 1 64.2827 34.3578 29.0413 -5.3674 7.8812 -14.5152
# 2 34.3578 159.6745 38.5941 -9.3363 14.2681 -12.8670
# 3 29.0413 38.5941 124.5069 4.4928 33.3170 4.8089
# 4 -5.3674 -9.3363 4.4928 30.3612 -4.3910 1.8145
# 5 7.8812 14.2681 33.3170 -4.3910 40.2684 9.5765
# 6 -14.5152 -12.8670 4.8089 1.8145 9.5765 26.3595
#
#
#
# Elastic Compliance Matrix: (Units=1/GPa)
#
#
# Indices 1 2 3 4 5 6 
#
# 1 0.022148 -0.002306 -0.004329 0.002709 -0.002645 0.012635
# 2 -0.002306 0.007643 -0.001624 0.001780 -0.001473 0.003169
# 3 -0.004329 -0.001624 0.012055 -0.004164 -0.008532 -0.001989
# 4 0.002709 0.001780 -0.004164 0.035634 0.006579 -0.001723
# 5 -0.002645 -0.001473 -0.008532 0.006579 0.037111 -0.014554
# 6 0.012635 0.003169 -0.001989 -0.001723 -0.014554 0.052210
#
#
# Mechanical properties :
#
#
# Convention : Reuss Voigt Hill
#
# Bulk Modulus (GPa) = 39.48277 61.38340 50.43309
# Shear Modulus (GPa) = 26.07402 35.82921 30.95162
#
# Velocity S-wave (km/s) = 3.16068 3.70506 3.44364
# Velocity P-wave (km/s) = 5.33358 6.46695 5.92742
#
# Compressibility (1/GPa) = 0.02532750
#
# Stress axis : x y z
#
# Youngs Moduli (GPa) = 45.15035 130.84660 82.95335
#
# Poissons Ratio (x) = 0.30179 0.35911
# Poissons Ratio (y) = 0.10414 0.13468
# Poissons Ratio (z) = 0.19546 0.21244
#
# Static dielectric constant tensor:
#      x y z
#    x 2.153920 -0.019500 -0.050050 
#    y -0.019500 2.240120 -0.002770 
#    z -0.050050 -0.002770 2.083810 
# 
# From -- ./inp_files/505530.got.cif
#   From: 2010.05.17/outbox.cif.g08.bks.cpg/sg2_253_cif.got.tgz:505530.got - 2010.06.03 11:33:40.
