data_PCOD9092751
_publ_section_title
;
Structure prediction by ZEFSAII (Michael W. Deem and Ramdas Pophale) SiO2 
 PCOD9092751
Probable space group: P -1
;
_chemical_formula_sum "Si O2"
_cell_formula_units_Z 16
_cell_length_a 15.329233
_cell_length_b 12.399175
_cell_length_c 9.417450
_cell_angle_alpha 130.966092
_cell_angle_beta 69.277578
_cell_angle_gamma 71.342567
_cell_volume 788.809063
_symmetry_space_group_name_H-M "P -1"
_symmetry_group_IT_number 2
_symmetry_cell_setting 'triclinic'
loop_
_space_group_symop_operation_xyz
x,y,z
-x,-y,-z
loop_
_atom_site_type_symbol
_atom_site_label
_atom_site_fract_x
_atom_site_fract_y
_atom_site_fract_z
Si Si1 0.409406 0.035655 0.709370
Si Si2 0.109553 0.667666 0.805097
Si Si3 0.787261 0.471500 0.695974
Si Si4 0.708432 0.073371 0.760788
Si Si5 0.624708 0.844421 0.672522
Si Si6 0.042863 0.022675 0.344078
Si Si7 0.222466 0.997256 0.675447
Si Si8 0.424655 0.514948 0.190973
O O1 0.338053 0.973195 0.648492
O O2 0.500000 0.000000 0.500000
O O3 0.532647 0.885806 0.631939
O O4 0.265304 0.303176 0.066478
O O5 0.153282 0.633225 0.585876
O O6 0.237839 0.419461 0.589799
O O7 0.950881 0.776190 0.996255
O O8 0.088682 0.841085 0.052599
O O9 0.632234 0.572422 0.892233
O O10 0.903127 0.275235 0.575658
O O11 0.682580 0.936925 0.689645
O O12 0.826858 0.017647 0.738256
O O13 0.760902 0.024445 0.523798
O O14 0.548404 0.345970 0.093616
O O15 0.500000 0.000000 0.000000
O O16 0.000000 0.000000 0.500000
O O17 0.276785 0.784489 0.532142
O O18 0.500000 0.500000 0.000000
#
# Coordination Sequence:
#
# PCOD9092751 Si02
#       8
#     2   2   2   2   2   2   2   2
#     4  12  25  44  74 100 134 190 232 278 348 415
#     4  12  27  47  69 101 148 180 227 296 352 413
#     4  12  25  48  69  99 145 180 228 290 348 413
#     4  11  23  44  68 103 138 181 234 292 340 411
#     4  12  26  49  68 101 145 181 233 295 351 411
#     4  12  26  44  73 106 135 184 231 282 350 412
#     4  11  24  41  70 104 136 183 234 282 349 416
#     4  10  19  42  67  92 136 176 227 281 334 406
#
# _framework density 20.283740999999999
#
# number of rings (size 3 to 8) (size 9 to 14) (size 15 to 20)
#    0.000    0.500    6.250    1.875    5.250    2.000 
#    0.000    1.250    0.000    0.000    0.000    0.000 
#    0.000    0.000    0.000    0.000    0.000    0.000 
#
# Total GULP energy -89388.642738 kJ/mol
# GULP energy per Si atom -5586.790171 kJ/mol
# Density = 2.023757 g / cm^3
# Si number density = 20.283741 Si / 1000 Ang^3
#
#
#
# Elastic Constant Matrix: (Units=GPa)
#
#
# Indices 1 2 3 4 5 6 
#
# 1 129.5753 27.9555 15.1888 -1.1688 -15.8753 -12.6303
# 2 27.9555 94.8572 32.4947 12.1642 -14.6625 -20.3190
# 3 15.1888 32.4947 85.6931 11.9468 -12.9004 -10.9356
# 4 -1.1688 12.1642 11.9468 37.8962 -9.7159 -4.1003
# 5 -15.8753 -14.6625 -12.9004 -9.7159 35.5380 8.5447
# 6 -12.6303 -20.3190 -10.9356 -4.1003 8.5447 36.8921
#
#
#
# Elastic Compliance Matrix: (Units=1/GPa)
#
#
# Indices 1 2 3 4 5 6 
#
# 1 0.008713 -0.001898 -0.000458 0.001975 0.003173 0.001286
# 2 -0.001898 0.014094 -0.003740 -0.002397 0.001668 0.005352
# 3 -0.000458 -0.003740 0.014019 -0.002500 0.002392 0.001107
# 4 0.001975 -0.002397 -0.002500 0.029853 0.007077 0.000294
# 5 0.003173 0.001668 0.002392 0.007077 0.034105 -0.004399
# 6 0.001286 0.005352 0.001107 0.000294 -0.004399 0.031874
#
#
# Mechanical properties :
#
#
# Convention : Reuss Voigt Hill
#
# Bulk Modulus (GPa) = 40.59495 51.26707 45.93101
# Shear Modulus (GPa) = 32.66693 37.69770 35.18232
#
# Velocity S-wave (km/s) = 4.01746 4.31573 4.16926
# Velocity P-wave (km/s) = 6.44802 7.08265 6.77277
#
# Compressibility (1/GPa) = 0.02463361
#
# Stress axis : x y z
#
# Youngs Moduli (GPa) = 114.77482 70.95120 71.33303
#
# Poissons Ratio (x) = 0.13467 0.03267
# Poissons Ratio (y) = 0.21785 0.26678
# Poissons Ratio (z) = 0.05257 0.26535
#
# Static dielectric constant tensor:
#      x y z
#    x 1.724590 0.052290 0.026850 
#    y 0.052290 1.771940 0.010710 
#    z 0.026850 0.010710 1.778610 
# 
# From -- ./inp_files/206960.got.cif
#   From: 2010.05.17/outbox.cif.g08.bks.cpg/sg2_104_cif.got.tgz:206960.got - 2010.06.03 11:33:40.
