data_PCOD9092974
_publ_section_title
;
Structure prediction by ZEFSAII (Michael W. Deem and Ramdas Pophale) SiO2 
 PCOD9092974
Probable space group: P -1
;
_chemical_formula_sum "Si O2"
_cell_formula_units_Z 14
_cell_length_a 8.314987
_cell_length_b 19.974292
_cell_length_c 16.316803
_cell_angle_alpha 160.736755
_cell_angle_beta 50.399241
_cell_angle_gamma 115.797860
_cell_volume 520.412887
_symmetry_space_group_name_H-M "P -1"
_symmetry_group_IT_number 2
_symmetry_cell_setting 'triclinic'
loop_
_space_group_symop_operation_xyz
x,y,z
-x,-y,-z
loop_
_atom_site_type_symbol
_atom_site_label
_atom_site_fract_x
_atom_site_fract_y
_atom_site_fract_z
Si Si1 0.605025 0.712380 0.736234
Si Si2 0.326297 0.390505 0.873292
Si Si3 0.036897 0.757791 0.165781
Si Si4 0.816182 0.845380 0.158370
Si Si5 0.653930 0.518189 0.849002
Si Si6 0.025355 0.275746 0.287767
Si Si7 0.579689 0.347768 0.430119
O O1 0.493894 0.617526 0.725884
O O2 0.440328 0.804946 0.811984
O O3 0.669964 0.883996 0.957774
O O4 0.906615 0.426623 0.285024
O O5 0.394042 0.533596 0.957124
O O6 0.140787 0.316422 0.824107
O O7 0.637816 0.112257 0.470978
O O8 0.214157 0.555846 0.187132
O O9 0.926213 0.847582 0.212147
O O10 0.350972 0.481725 0.729705
O O11 0.000000 0.000000 0.500000
O O12 0.609038 0.786867 0.164900
O O13 0.834515 0.369781 0.538607
O O14 0.892311 0.187099 0.172341
O O15 0.000000 0.500000 0.500000
#
# Coordination Sequence:
#
# PCOD9092974 Si02
#       7
#     2   2   2   2   2   2   2
#     4   8  16  31  50  78  99 135 189 222 265 326
#     4  10  20  34  55  81 111 148 181 225 278 328
#     4  10  20  29  49  82 114 143 179 224 280 332
#     4   9  18  34  58  78 103 145 186 225 279 322
#     4   9  18  33  56  80 110 139 190 225 268 340
#     4   9  17  30  55  79 100 140 185 223 275 320
#     4   9  17  29  49  78 105 137 183 225 264 326
#
# _framework density 26.901716
#
# number of rings (size 3 to 8) (size 9 to 14) (size 15 to 20)
#    0.000    2.857    0.000    2.571    6.000    0.000 
#    0.000    0.714    9.429    7.714    0.000   43.000 
#    0.000    0.143    0.000    0.000    0.000    0.000 
#
# Total GULP energy -78098.029982 kJ/mol
# GULP energy per Si atom -5578.430713 kJ/mol
# Density = 2.684049 g / cm^3
# Si number density = 26.901716 Si / 1000 Ang^3
#
#
#
# Elastic Constant Matrix: (Units=GPa)
#
#
# Indices 1 2 3 4 5 6 
#
# 1 213.9592 48.0629 43.4718 7.4574 26.1532 29.5811
# 2 48.0629 145.1370 59.4027 -11.4230 13.6056 22.2243
# 3 43.4718 59.4027 88.4394 16.1306 8.1888 9.9206
# 4 7.4574 -11.4230 16.1306 31.7793 3.7453 5.5763
# 5 26.1532 13.6056 8.1888 3.7453 31.8057 3.3387
# 6 29.5811 22.2243 9.9206 5.5763 3.3387 64.6879
#
#
#
# Elastic Compliance Matrix: (Units=1/GPa)
#
#
# Indices 1 2 3 4 5 6 
#
# 1 0.005960 -0.000363 -0.002152 0.000405 -0.004019 -0.002098
# 2 -0.000363 0.012539 -0.009432 0.010391 -0.003503 -0.003410
# 3 -0.002152 -0.009432 0.020853 -0.014066 0.001867 0.002143
# 4 0.000405 0.010391 -0.014066 0.043819 -0.005784 -0.005077
# 5 -0.004019 -0.003503 0.001867 -0.005784 0.036299 0.001380
# 6 -0.002098 -0.003410 0.002143 -0.005077 0.001380 0.017628
#
#
# Mechanical properties :
#
#
# Convention : Reuss Voigt Hill
#
# Bulk Modulus (GPa) = 64.69564 83.26782 73.98173
# Shear Modulus (GPa) = 30.09420 45.42779 37.76100
#
# Velocity S-wave (km/s) = 3.34828 4.11379 3.75062
# Velocity P-wave (km/s) = 6.24893 7.32012 6.80563
#
# Compressibility (1/GPa) = 0.01545699
#
# Stress axis : x y z
#
# Youngs Moduli (GPa) = 167.79183 79.75036 47.95520
#
# Poissons Ratio (x) = 0.02893 0.10321
# Poissons Ratio (y) = 0.06088 0.45233
# Poissons Ratio (z) = 0.36113 0.75223
#
# Static dielectric constant tensor:
#      x y z
#    x 2.226730 -0.018070 0.020640 
#    y -0.018070 2.189420 -0.016910 
#    z 0.020640 -0.016910 2.104280 
# 
# From -- ./inp_files/562416.got.cif
#   From: 2010.05.17/outbox.cif.g08.bks.cpg/sg2_282_cif.got.tgz:562416.got - 2010.06.03 11:33:40.
