data_PCOD9092506
_publ_section_title
;
Structure prediction by ZEFSAII (Michael W. Deem and Ramdas Pophale) SiO2 
 PCOD9092506
Probable space group: P -1
;
_chemical_formula_sum "Si O2"
_cell_formula_units_Z 14
_cell_length_a 11.817787
_cell_length_b 9.821925
_cell_length_c 9.148527
_cell_angle_alpha 43.040440
_cell_angle_beta 76.264026
_cell_angle_gamma 59.451847
_cell_volume 607.724316
_symmetry_space_group_name_H-M "P -1"
_symmetry_group_IT_number 2
_symmetry_cell_setting 'triclinic'
loop_
_space_group_symop_operation_xyz
x,y,z
-x,-y,-z
loop_
_atom_site_type_symbol
_atom_site_label
_atom_site_fract_x
_atom_site_fract_y
_atom_site_fract_z
Si Si1 0.434987 0.961285 0.905064
Si Si2 0.214970 0.880245 0.166413
Si Si3 0.200874 0.956615 0.453238
Si Si4 0.103182 0.636918 0.799482
Si Si5 0.768073 0.577141 0.578098
Si Si6 0.377243 0.184981 0.299203
Si Si7 0.009355 0.395779 0.831432
O O1 0.329940 0.203030 0.664341
O O2 0.558689 0.803968 0.881757
O O3 0.500000 0.000000 0.000000
O O4 0.344506 0.851306 0.064296
O O5 0.233254 0.903267 0.314809
O O6 0.197085 0.662309 0.317655
O O7 0.085902 0.128484 0.970714
O O8 0.206140 0.730770 0.696180
O O9 0.287065 0.064821 0.399978
O O10 0.045013 0.154856 0.362632
O O11 0.122896 0.449741 0.817546
O O12 0.077861 0.573189 0.018689
O O13 0.691343 0.602100 0.735694
O O14 0.907256 0.555403 0.612077
O O15 0.500000 0.000000 0.500000
#
# Coordination Sequence:
#
# PCOD9092506 Si02
#       7
#     2   2   2   2   2   2   2
#     4  11  25  47  72  97 138 188 236 286 347 411
#     4  11  25  42  67 106 140 185 231 276 352 428
#     4  10  19  41  67 100 136 181 237 278 345 419
#     4   9  20  36  71 101 134 187 226 282 351 414
#     4  11  25  45  69 104 143 177 231 299 346 407
#     4  10  22  44  70  97 135 181 235 289 336 408
#     4  10  21  42  67 106 145 176 228 288 357 415
#
# _framework density 23.036760000000001
#
# number of rings (size 3 to 8) (size 9 to 14) (size 15 to 20)
#    0.000    1.714    2.857    0.429    2.000    4.000 
#    2.571    0.000    0.000    0.000    0.000    0.000 
#    0.000    0.000    0.000    0.000    0.000    0.000 
#
# Total GULP energy -78175.418104 kJ/mol
# GULP energy per Si atom -5583.958436 kJ/mol
# Density = 2.298433 g / cm^3
# Si number density = 23.036760 Si / 1000 Ang^3
#
#
#
# Elastic Constant Matrix: (Units=GPa)
#
#
# Indices 1 2 3 4 5 6 
#
# 1 82.9331 12.2056 26.3841 1.5530 5.4268 11.3637
# 2 12.2056 102.8801 15.9448 2.7098 -5.1397 11.1320
# 3 26.3841 15.9448 63.5399 -0.6736 7.2237 -2.9267
# 4 1.5530 2.7098 -0.6736 32.3194 -1.0843 -9.3056
# 5 5.4268 -5.1397 7.2237 -1.0843 44.6417 8.1600
# 6 11.3637 11.1320 -2.9267 -9.3056 8.1600 28.0423
#
#
#
# Elastic Compliance Matrix: (Units=1/GPa)
#
#
# Indices 1 2 3 4 5 6 
#
# 1 0.015397 0.000286 -0.006971 -0.003300 0.000743 -0.008392
# 2 0.000286 0.011205 -0.003615 -0.002877 0.003008 -0.006771
# 3 -0.006971 -0.003615 0.020485 0.003459 -0.004414 0.008830
# 4 -0.003300 -0.002877 0.003459 0.035771 -0.002440 0.015421
# 5 0.000743 0.003008 -0.004414 -0.002440 0.025155 -0.010085
# 6 -0.008392 -0.006771 0.008830 0.015421 -0.010085 0.050723
#
#
# Mechanical properties :
#
#
# Convention : Reuss Voigt Hill
#
# Bulk Modulus (GPa) = 37.75482 39.82470 38.78976
# Shear Modulus (GPa) = 26.57248 33.98860 30.28054
#
# Velocity S-wave (km/s) = 3.39998 3.84527 3.62946
# Velocity P-wave (km/s) = 5.64249 6.08603 5.86845
#
# Compressibility (1/GPa) = 0.02648668
#
# Stress axis : x y z
#
# Youngs Moduli (GPa) = 64.94952 89.24463 48.81619
#
# Poissons Ratio (x) = -0.02551 0.34029
# Poissons Ratio (y) = -0.01856 0.17647
# Poissons Ratio (z) = 0.45276 0.32261
#
# Static dielectric constant tensor:
#      x y z
#    x 1.891590 -0.048600 0.002070 
#    y -0.048600 1.900960 -0.011270 
#    z 0.002070 -0.011270 1.892310 
# 
# From -- ./inp_files/190521.got.cif
#   From: 2010.05.17/outbox.cif.g08.bks.cpg/sg2_96_cif.got.tgz:190521.got - 2010.06.03 11:33:40.
