data_PCOD9092926
_publ_section_title
;
Structure prediction by ZEFSAII (Michael W. Deem and Ramdas Pophale) SiO2 
 PCOD9092926
Probable space group: P -1
;
_chemical_formula_sum "Si O2"
_cell_formula_units_Z 16
_cell_length_a 11.303616
_cell_length_b 10.479423
_cell_length_c 8.580925
_cell_angle_alpha 69.631607
_cell_angle_beta 137.013377
_cell_angle_gamma 102.834504
_cell_volume 648.875894
_symmetry_space_group_name_H-M "P -1"
_symmetry_group_IT_number 2
_symmetry_cell_setting 'triclinic'
loop_
_space_group_symop_operation_xyz
x,y,z
-x,-y,-z
loop_
_atom_site_type_symbol
_atom_site_label
_atom_site_fract_x
_atom_site_fract_y
_atom_site_fract_z
Si Si1 0.315693 0.738236 0.856976
Si Si2 0.463322 0.788567 0.482551
Si Si3 0.031316 0.158126 0.332584
Si Si4 0.137885 0.112231 0.780840
Si Si5 0.927767 0.374307 0.574255
Si Si6 0.478170 0.960711 0.726907
Si Si7 0.118567 0.644130 0.111846
Si Si8 0.377726 0.493783 0.234549
O O1 0.147591 0.788173 0.774642
O O2 0.244845 0.668509 0.662184
O O3 0.407702 0.874105 0.838687
O O4 0.414202 0.615498 0.098461
O O5 0.419742 0.885720 0.545620
O O6 0.285345 0.739279 0.257129
O O7 0.580122 0.659554 0.714360
O O8 0.560285 0.878991 0.409123
O O9 0.163745 0.152727 0.606433
O O10 0.999732 0.006557 0.306484
O O11 0.036297 0.261314 0.150662
O O12 0.058916 0.242885 0.739180
O O13 0.314249 0.056139 0.050734
O O14 0.902309 0.410749 0.712637
O O15 0.000000 0.500000 0.500000
O O16 0.186197 0.530044 0.102401
O O17 0.500000 0.500000 0.500000
#
# Coordination Sequence:
#
# PCOD9092926 Si02
#       8
#     2   2   2   2   2   2   2   2
#     4  10  22  42  69  92 134 171 214 272 325 379
#     4  10  21  39  65 103 133 164 217 268 333 379
#     4   9  20  43  65  93 130 170 215 263 320 390
#     4  10  22  40  64  94 131 169 215 260 321 385
#     4  11  25  43  65  95 126 172 222 265 321 392
#     4  11  22  39  67 103 133 167 214 276 317 393
#     4  10  19  44  68  89 128 174 213 273 318 383
#     4   9  21  40  64  95 129 172 209 266 330 381
#
# _framework density 24.658024999999999
#
# number of rings (size 3 to 8) (size 9 to 14) (size 15 to 20)
#    0.000    2.000    2.500    0.000    1.750    3.500 
#    2.250    8.125    0.000    0.000    0.000    0.000 
#    0.000    0.000    0.000    0.000    0.000    0.000 
#
# Total GULP energy -89509.810762 kJ/mol
# GULP energy per Si atom -5594.363173 kJ/mol
# Density = 2.460190 g / cm^3
# Si number density = 24.658025 Si / 1000 Ang^3
#
#
#
# Elastic Constant Matrix: (Units=GPa)
#
#
# Indices 1 2 3 4 5 6 
#
# 1 47.7654 25.9856 10.9959 -19.1352 -20.8509 12.1655
# 2 25.9856 113.0281 28.1258 -28.6664 -5.4849 14.8548
# 3 10.9959 28.1258 125.0918 -21.4701 -7.4643 12.3362
# 4 -19.1352 -28.6664 -21.4701 61.8172 4.2844 -9.5391
# 5 -20.8509 -5.4849 -7.4643 4.2844 35.3048 -18.3008
# 6 12.1655 14.8548 12.3362 -9.5391 -18.3008 31.3872
#
#
#
# Elastic Compliance Matrix: (Units=1/GPa)
#
#
# Indices 1 2 3 4 5 6 
#
# 1 0.035163 -0.005719 0.000385 0.007435 0.020765 0.003293
# 2 -0.005719 0.011588 -0.001463 0.002713 -0.004564 -0.004529
# 3 0.000385 -0.001463 0.008892 0.002189 0.000615 -0.001928
# 4 0.007435 0.002713 0.002189 0.020798 0.004905 0.004155
# 5 0.020765 -0.004564 0.000615 0.004905 0.053040 0.026286
# 6 0.003293 -0.004529 -0.001928 0.004155 0.026286 0.050074
#
#
# Mechanical properties :
#
#
# Convention : Reuss Voigt Hill
#
# Bulk Modulus (GPa) = 23.78192 46.23332 35.00762
# Shear Modulus (GPa) = 24.13546 40.42036 32.27791
#
# Velocity S-wave (km/s) = 3.13198 4.05314 3.62197
# Velocity P-wave (km/s) = 4.76914 6.37922 5.63202
#
# Compressibility (1/GPa) = 0.04204875
#
# Stress axis : x y z
#
# Youngs Moduli (GPa) = 28.43934 86.29592 112.46448
#
# Poissons Ratio (x) = 0.49356 -0.04335
# Poissons Ratio (y) = 0.16266 0.16451
# Poissons Ratio (z) = -0.01096 0.12623
#
# Static dielectric constant tensor:
#      x y z
#    x 2.020440 0.017830 0.000380 
#    y 0.017830 2.018380 -0.019670 
#    z 0.000380 -0.019670 1.946520 
# 
# From -- ./inp_files/262171.got.cif
#   From: 2010.05.17/outbox.cif.g08.bks.cpg/sg2_132_cif.got.tgz:262171.got - 2010.06.03 11:33:40.
