data_PCOD9092815
_publ_section_title
;
Structure prediction by ZEFSAII (Michael W. Deem and Ramdas Pophale) SiO2 
 PCOD9092815
Probable space group: P -1
;
_chemical_formula_sum "Si O2"
_cell_formula_units_Z 16
_cell_length_a 5.199655
_cell_length_b 10.902971
_cell_length_c 11.750934
_cell_angle_alpha 81.627200
_cell_angle_beta 71.533020
_cell_angle_gamma 100.302821
_cell_volume 606.909912
_symmetry_space_group_name_H-M "P -1"
_symmetry_group_IT_number 2
_symmetry_cell_setting 'triclinic'
loop_
_space_group_symop_operation_xyz
x,y,z
-x,-y,-z
loop_
_atom_site_type_symbol
_atom_site_label
_atom_site_fract_x
_atom_site_fract_y
_atom_site_fract_z
Si Si1 0.757380 0.059278 0.671091
Si Si2 0.253937 0.793513 0.039523
Si Si3 0.082990 0.539199 0.248475
Si Si4 0.303021 0.123183 0.862526
Si Si5 0.860059 0.135913 0.406157
Si Si6 0.218368 0.698941 0.803067
Si Si7 0.273320 0.296745 0.638844
Si Si8 0.671995 0.622173 0.621229
O O1 0.484736 0.031227 0.793675
O O2 0.674880 0.078539 0.548854
O O3 0.987347 0.186259 0.665165
O O4 0.938915 0.953903 0.649984
O O5 0.562729 0.855961 0.033684
O O6 0.197179 0.664636 0.141153
O O7 0.025981 0.879047 0.080802
O O8 0.207491 0.744976 0.924930
O O9 0.033092 0.416718 0.188949
O O10 0.802516 0.572883 0.329240
O O11 0.233457 0.506565 0.345548
O O12 0.391677 0.235743 0.738589
O O13 0.052048 0.265203 0.413196
O O14 0.732495 0.182937 0.306598
O O15 0.475166 0.637878 0.750658
O O16 0.428775 0.336190 0.492407
#
# Coordination Sequence:
#
# PCOD9092815 Si02
#       8
#     2   2   2   2   2   2   2   2
#     4  10  19  42  71  96 131 164 215 270 328 385
#     4  11  26  42  67  92 132 173 226 258 314 380
#     4  10  22  39  61  97 126 172 214 264 322 383
#     4  11  22  43  67  96 124 173 213 271 314 379
#     4   9  22  40  66 101 126 167 213 267 329 386
#     4  11  24  41  60  93 133 174 214 269 314 384
#     4  10  21  39  65 100 130 165 215 266 329 389
#     4  10  22  38  63  95 134 169 208 269 326 386
#
# _framework density 26.363057000000001
#
# number of rings (size 3 to 8) (size 9 to 14) (size 15 to 20)
#    0.000    1.750    2.500    1.500    7.000    2.000 
#    0.000    5.000    0.000    0.000    0.000    0.000 
#    0.000    0.000    0.000    0.000    0.000    0.000 
#
# Total GULP energy -89369.106547 kJ/mol
# GULP energy per Si atom -5585.569159 kJ/mol
# Density = 2.630305 g / cm^3
# Si number density = 26.363057 Si / 1000 Ang^3
#
#
#
# Elastic Constant Matrix: (Units=GPa)
#
#
# Indices 1 2 3 4 5 6 
#
# 1 111.6189 26.6975 30.7272 0.5138 24.8840 -13.5330
# 2 26.6975 105.7320 32.4359 -7.0635 14.8157 -4.9837
# 3 30.7272 32.4359 109.4755 19.7369 26.8809 -10.9666
# 4 0.5138 -7.0635 19.7369 33.6800 -3.4546 -2.6174
# 5 24.8840 14.8157 26.8809 -3.4546 42.9747 -3.1179
# 6 -13.5330 -4.9837 -10.9666 -2.6174 -3.1179 44.3260
#
#
#
# Elastic Compliance Matrix: (Units=1/GPa)
#
#
# Indices 1 2 3 4 5 6 
#
# 1 0.011081 -0.001651 -0.001109 -0.000177 -0.004982 0.002562
# 2 -0.001651 0.011335 -0.003615 0.004497 -0.000320 0.000119
# 3 -0.001109 -0.003615 0.014363 -0.009823 -0.007763 0.001682
# 4 -0.000177 0.004497 -0.009823 0.037248 0.007747 0.000766
# 5 -0.004982 -0.000320 -0.007763 0.007747 0.031686 -0.000791
# 6 0.002562 0.000119 0.001682 0.000766 -0.000791 0.023761
#
#
# Mechanical properties :
#
#
# Convention : Reuss Voigt Hill
#
# Bulk Modulus (GPa) = 41.61777 56.28305 48.95041
# Shear Modulus (GPa) = 33.28152 39.99387 36.63770
#
# Velocity S-wave (km/s) = 3.55692 3.89915 3.73196
# Velocity P-wave (km/s) = 5.71748 6.45497 6.09739
#
# Compressibility (1/GPa) = 0.02402820
#
# Stress axis : x y z
#
# Youngs Moduli (GPa) = 90.24134 88.22490 69.62529
#
# Poissons Ratio (x) = 0.14563 0.07724
# Poissons Ratio (y) = 0.14896 0.25171
# Poissons Ratio (z) = 0.10011 0.31895
#
# Static dielectric constant tensor:
#      x y z
#    x 2.091980 0.082380 -0.021850 
#    y 0.082380 2.133410 -0.025540 
#    z -0.021850 -0.025540 2.026410 
# 
# From -- ./inp_files/80847.got.cif
#   From: 2010.05.17/outbox.cif.g08.bks.cpg/sg2_41_cif.got.tgz:80847.got - 2010.06.03 11:33:40.
