data_PCOD9092785
_publ_section_title
;
Structure prediction by ZEFSAII (Michael W. Deem and Ramdas Pophale) SiO2 
 PCOD9092785
Probable space group: P -1
;
_chemical_formula_sum "Si O2"
_cell_formula_units_Z 16
_cell_length_a 10.293497
_cell_length_b 9.148994
_cell_length_c 23.284893
_cell_angle_alpha 134.651780
_cell_angle_beta 24.314157
_cell_angle_gamma 132.685264
_cell_volume 637.016528
_symmetry_space_group_name_H-M "P -1"
_symmetry_group_IT_number 2
_symmetry_cell_setting 'triclinic'
loop_
_space_group_symop_operation_xyz
x,y,z
-x,-y,-z
loop_
_atom_site_type_symbol
_atom_site_label
_atom_site_fract_x
_atom_site_fract_y
_atom_site_fract_z
Si Si1 0.824473 0.201348 0.207529
Si Si2 0.882941 0.784657 0.628137
Si Si3 0.392821 0.740541 0.506200
Si Si4 0.016747 0.545079 0.324358
Si Si5 0.640283 0.351595 0.041832
Si Si6 0.437410 0.010085 0.933382
Si Si7 0.275971 0.506938 0.774174
Si Si8 0.726197 0.956531 0.536090
O O1 0.796667 0.308589 0.187410
O O2 0.503406 0.069677 0.324157
O O3 0.923884 0.390273 0.264987
O O4 0.102281 0.058434 0.058422
O O5 0.672075 0.967992 0.776593
O O6 0.634221 0.577147 0.671271
O O7 0.122658 0.794676 0.587455
O O8 0.066722 0.831353 0.507175
O O9 0.686810 0.688025 0.335439
O O10 0.496524 0.905180 0.559172
O O11 0.240016 0.539679 0.547339
O O12 0.948392 0.774122 0.400353
O O13 0.368502 0.504269 0.191270
O O14 0.999471 0.458823 0.918280
O O15 0.570980 0.200797 0.972788
O O16 0.600091 0.195727 0.068675
#
# Coordination Sequence:
#
# PCOD9092785 Si02
#       8
#     2   2   2   2   2   2   2   2
#     4  10  22  40  65  95 126 160 208 260 308 365
#     4  12  27  40  61  96 130 165 205 254 314 376
#     4  11  21  45  65  90 122 163 215 261 302 365
#     4  10  19  42  69  92 117 162 217 260 301 358
#     4  10  23  41  69  90 124 165 208 261 307 360
#     4  10  23  43  63  96 122 160 218 257 300 365
#     4  12  25  42  61  94 132 168 200 248 322 378
#     4  11  22  41  70  93 119 163 215 265 301 351
#
# _framework density 25.117087000000001
#
# number of rings (size 3 to 8) (size 9 to 14) (size 15 to 20)
#    0.000    1.250    3.750    2.250    5.250    2.500 
#    0.000    0.000    0.000    0.000    0.000    0.000 
#    0.000    0.000    0.000    0.000    0.000    0.000 
#
# Total GULP energy -89664.275473 kJ/mol
# GULP energy per Si atom -5604.017217 kJ/mol
# Density = 2.505992 g / cm^3
# Si number density = 25.117087 Si / 1000 Ang^3
#
#
#
# Elastic Constant Matrix: (Units=GPa)
#
#
# Indices 1 2 3 4 5 6 
#
# 1 73.2891 27.2659 15.3383 -2.8659 -21.0505 -7.7467
# 2 27.2659 84.2304 36.3983 -21.8749 -11.8970 -11.8979
# 3 15.3383 36.3983 123.5231 -8.2299 -19.0776 -17.6359
# 4 -2.8659 -21.8749 -8.2299 46.5475 -3.2031 -0.7635
# 5 -21.0505 -11.8970 -19.0776 -3.2031 37.9341 4.1742
# 6 -7.7467 -11.8979 -17.6359 -0.7635 4.1742 39.3922
#
#
#
# Elastic Compliance Matrix: (Units=1/GPa)
#
#
# Indices 1 2 3 4 5 6 
#
# 1 0.017878 -0.004774 0.000694 -0.000406 0.008577 0.001468
# 2 -0.004774 0.017422 -0.003431 0.007429 0.001411 0.002782
# 3 0.000694 -0.003431 0.010152 0.000561 0.004108 0.003221
# 4 -0.000406 0.007429 0.000561 0.025382 0.004260 0.002456
# 5 0.008577 0.001411 0.004108 0.004260 0.033941 0.000438
# 6 0.001468 0.002782 0.003221 0.002456 0.000438 0.027958
#
#
# Mechanical properties :
#
#
# Convention : Reuss Voigt Hill
#
# Bulk Modulus (GPa) = 32.86156 48.78308 40.82232
# Shear Modulus (GPa) = 31.66607 38.24410 34.95508
#
# Velocity S-wave (km/s) = 3.55454 3.90633 3.73458
# Velocity P-wave (km/s) = 5.47340 6.30954 5.90628
#
# Compressibility (1/GPa) = 0.03043069
#
# Stress axis : x y z
#
# Youngs Moduli (GPa) = 55.93412 57.39990 98.50201
#
# Poissons Ratio (x) = 0.27401 -0.06835
# Poissons Ratio (y) = 0.26701 0.33794
# Poissons Ratio (z) = -0.03881 0.19693
#
# Static dielectric constant tensor:
#      x y z
#    x 1.997760 0.063470 -0.011500 
#    y 0.063470 1.993280 0.006300 
#    z -0.011500 0.006300 1.943170 
# 
# From -- ./inp_files/177698.got.cif
#   From: 2010.05.17/outbox.cif.g08.bks.cpg/sg2_89_cif.got.tgz:177698.got - 2010.06.03 11:33:40.
