data_PCOD9092425
_publ_section_title
;
Structure prediction by ZEFSAII (Michael W. Deem and Ramdas Pophale) SiO2 
 PCOD9092425
Probable space group: P -1
;
_chemical_formula_sum "Si O2"
_cell_formula_units_Z 13
_cell_length_a 8.477940
_cell_length_b 5.169211
_cell_length_c 14.020571
_cell_angle_alpha 63.957718
_cell_angle_beta 122.639803
_cell_angle_gamma 116.144951
_cell_volume 447.683691
_symmetry_space_group_name_H-M "P -1"
_symmetry_group_IT_number 2
_symmetry_cell_setting 'triclinic'
loop_
_space_group_symop_operation_xyz
x,y,z
-x,-y,-z
loop_
_atom_site_type_symbol
_atom_site_label
_atom_site_fract_x
_atom_site_fract_y
_atom_site_fract_z
Si Si1 0.500000 0.500000 0.500000
Si Si2 0.511156 0.339727 0.753113
Si Si3 0.062274 0.846906 0.248789
Si Si4 0.849055 0.213787 0.311952
Si Si5 0.643960 0.789518 0.087587
Si Si6 0.811646 0.117540 0.519525
Si Si7 0.774818 0.942349 0.911667
O O1 0.513055 0.502537 0.626829
O O2 0.632232 0.840009 0.485272
O O3 0.438235 0.436952 0.815247
O O4 0.355453 0.010265 0.743850
O O5 0.709374 0.247686 0.851425
O O6 0.948944 0.507286 0.236743
O O7 0.865933 0.959612 0.167273
O O8 0.190280 0.769487 0.391487
O O9 0.218320 0.076105 0.197785
O O10 0.001981 0.015438 0.393674
O O11 0.841290 0.321853 0.403082
O O12 0.670712 0.717520 0.996704
O O13 0.500000 0.000000 0.000000
O O14 0.000000 0.000000 0.000000
#
# Coordination Sequence:
#
# PCOD9092425 Si02
#       7
#     1   2   2   2   2   2   2
#     4  10  22  38  66  94 126 166 200 264 322 382
#     4  10  19  41  64  91 130 167 211 260 322 382
#     4  11  20  39  66  93 125 168 212 263 316 376
#     4  10  21  37  63  95 128 167 211 258 318 386
#     4   9  19  39  67  86 126 172 212 263 311 369
#     4  10  21  40  61  95 133 167 205 259 324 385
#     4   9  20  38  63  89 128 165 216 268 300 372
#
# _framework density 29.038357000000001
#
# number of rings (size 3 to 8) (size 9 to 14) (size 15 to 20)
#    0.000    2.154    1.538    1.385    0.000    0.000 
#    5.538   11.538   13.538    0.000    0.000    0.000 
#    0.000    0.000    0.000    0.000    0.000    0.000 
#
# Total GULP energy -72391.766006 kJ/mol
# GULP energy per Si atom -5568.597385 kJ/mol
# Density = 2.897226 g / cm^3
# Si number density = 29.038357 Si / 1000 Ang^3
#
#
#
# Elastic Constant Matrix: (Units=GPa)
#
#
# Indices 1 2 3 4 5 6 
#
# 1 126.4000 20.2145 64.0242 -18.8813 -25.4815 39.5354
# 2 20.2145 101.8740 26.1895 -5.5287 -8.7906 16.3193
# 3 64.0242 26.1895 211.0651 -8.5144 -25.1211 11.8301
# 4 -18.8813 -5.5287 -8.5144 51.1391 0.6894 -13.9884
# 5 -25.4815 -8.7906 -25.1211 0.6894 69.2715 -13.3381
# 6 39.5354 16.3193 11.8301 -13.9884 -13.3381 36.0600
#
#
#
# Elastic Compliance Matrix: (Units=1/GPa)
#
#
# Indices 1 2 3 4 5 6 
#
# 1 0.014356 0.000435 -0.003423 0.000949 0.001404 -0.013926
# 2 0.000435 0.010841 -0.001188 -0.000245 0.000137 -0.005037
# 3 -0.003423 -0.001188 0.005928 0.000393 0.001310 0.002983
# 4 0.000949 -0.000245 0.000393 0.022166 0.001822 0.008213
# 5 0.001404 0.000137 0.001310 0.001822 0.016335 0.004718
# 6 -0.013926 -0.005037 0.002983 0.008213 0.004718 0.049232
#
#
# Mechanical properties :
#
#
# Convention : Reuss Voigt Hill
#
# Bulk Modulus (GPa) = 43.91229 73.35505 58.63367
# Shear Modulus (GPa) = 37.09139 53.22151 45.15645
#
# Velocity S-wave (km/s) = 3.57784 4.28577 3.94771
# Velocity P-wave (km/s) = 5.67653 7.05738 6.40428
#
# Compressibility (1/GPa) = 0.02277267
#
# Stress axis : x y z
#
# Youngs Moduli (GPa) = 69.65602 92.24483 168.68463
#
# Poissons Ratio (x) = -0.04011 0.57737
# Poissons Ratio (y) = -0.03029 0.20044
# Poissons Ratio (z) = 0.23842 0.10961
#
# Static dielectric constant tensor:
#      x y z
#    x 24.680460 -6.835910 1.775610 
#    y -6.835910 4.209960 -0.414470 
#    z 1.775610 -0.414470 2.596670 
# 
# From -- ./inp_files/110676.got.cif
#   From: 2010.05.17/outbox.cif.g08.bks.cpg/sg2_56_cif.got.tgz:110676.got - 2010.06.03 11:33:40.
