data_PCOD9092253
_publ_section_title
;
Structure prediction by ZEFSAII (Michael W. Deem and Ramdas Pophale) SiO2 
 PCOD9092253
Probable space group: P -1
;
_chemical_formula_sum "Si O2"
_cell_formula_units_Z 10
_cell_length_a 9.959995
_cell_length_b 8.973228
_cell_length_c 9.337790
_cell_angle_alpha 48.350810
_cell_angle_beta 137.461712
_cell_angle_gamma 116.176739
_cell_volume 419.654323
_symmetry_space_group_name_H-M "P -1"
_symmetry_group_IT_number 2
_symmetry_cell_setting 'triclinic'
loop_
_space_group_symop_operation_xyz
x,y,z
-x,-y,-z
loop_
_atom_site_type_symbol
_atom_site_label
_atom_site_fract_x
_atom_site_fract_y
_atom_site_fract_z
Si Si1 0.908311 0.127658 0.070710
Si Si2 0.297457 0.446481 0.296711
Si Si3 0.703239 0.851572 0.269568
Si Si4 0.432277 0.520357 0.771586
Si Si5 0.714952 0.056987 0.676213
O O1 0.858691 0.360203 0.922225
O O2 0.747336 0.064573 0.866589
O O3 0.876914 0.980007 0.270645
O O4 0.114270 0.082955 0.178160
O O5 0.500000 0.500000 0.500000
O O6 0.255025 0.247223 0.477515
O O7 0.374011 0.440276 0.198058
O O8 0.665736 0.667802 0.251737
O O9 0.500000 0.000000 0.000000
O O10 0.275246 0.714464 0.510466
O O11 0.500000 0.500000 0.000000
O O12 0.500000 0.000000 0.500000
#
# Coordination Sequence:
#
# PCOD9092253 Si02
#       5
#     2   2   2   2   2
#     4  11  22  43  74  97 134 194 227 275 365 407
#     4  10  19  40  68  98 131 182 232 270 344 423
#     4  11  19  38  73  98 132 185 230 277 344 421
#     4  11  22  40  68 102 141 177 228 291 343 400
#     4  11  24  44  66 104 145 174 233 299 338 409
#
# _framework density 23.829135000000001
#
# number of rings (size 3 to 8) (size 9 to 14) (size 15 to 20)
#    0.000    1.200    8.000    1.200    0.000    0.800 
#    3.600    2.000    0.000    0.000    0.000    0.000 
#    0.000    0.000    0.000    0.000    0.000    0.000 
#
# Total GULP energy -55984.451639 kJ/mol
# GULP energy per Si atom -5598.445164 kJ/mol
# Density = 2.377490 g / cm^3
# Si number density = 23.829135 Si / 1000 Ang^3
#
#
#
# Elastic Constant Matrix: (Units=GPa)
#
#
# Indices 1 2 3 4 5 6 
#
# 1 134.3239 40.7356 65.9602 -9.1029 -25.3470 -17.5663
# 2 40.7356 120.2515 47.1858 -8.9629 -1.8483 1.3149
# 3 65.9602 47.1858 119.4216 -20.6449 -21.3248 -15.9302
# 4 -9.1029 -8.9629 -20.6449 52.6610 -8.6724 0.0248
# 5 -25.3470 -1.8483 -21.3248 -8.6724 64.3202 -5.9169
# 6 -17.5663 1.3149 -15.9302 0.0248 -5.9169 44.1431
#
#
#
# Elastic Compliance Matrix: (Units=1/GPa)
#
#
# Indices 1 2 3 4 5 6 
#
# 1 0.011296 -0.002105 -0.004262 0.000475 0.003361 0.003470
# 2 -0.002105 0.010489 -0.003803 -0.000414 -0.002103 -0.002804
# 3 -0.004262 -0.003803 0.014343 0.004897 0.004006 0.004127
# 4 0.000475 -0.000414 0.004897 0.021738 0.004971 0.002623
# 5 0.003361 -0.002103 0.004006 0.004971 0.019310 0.005431
# 6 0.003470 -0.002804 0.004127 0.002623 0.005431 0.026334
#
#
# Mechanical properties :
#
#
# Convention : Reuss Voigt Hill
#
# Bulk Modulus (GPa) = 63.34044 75.75114 69.54579
# Shear Modulus (GPa) = 38.72595 46.89923 42.81259
#
# Velocity S-wave (km/s) = 4.03569 4.44119 4.24329
# Velocity P-wave (km/s) = 6.95374 7.62609 7.29766
#
# Compressibility (1/GPa) = 0.01578770
#
# Stress axis : x y z
#
# Youngs Moduli (GPa) = 88.52375 95.34149 69.72085
#
# Poissons Ratio (x) = 0.20070 0.29717
# Poissons Ratio (y) = 0.18635 0.26513
# Poissons Ratio (z) = 0.37732 0.36256
#
# Static dielectric constant tensor:
#      x y z
#    x 1.945220 0.019490 -0.030640 
#    y 0.019490 1.974950 0.029590 
#    z -0.030640 0.029590 1.946510 
# 
# From -- ./inp_files/144274.got.cif
#   From: 2010.05.17/outbox.cif.g08.bks.cpg/sg2_73_cif.got.tgz:144274.got - 2010.06.03 11:33:40.
