data_PCOD9092173
_publ_section_title
;
Structure prediction by ZEFSAII (Michael W. Deem and Ramdas Pophale) SiO2 
 PCOD9092173
Probable space group: P -1
;
_chemical_formula_sum "Si O2"
_cell_formula_units_Z 12
_cell_length_a 8.877158
_cell_length_b 19.341872
_cell_length_c 6.660092
_cell_angle_alpha 131.873697
_cell_angle_beta 67.805286
_cell_angle_gamma 142.458796
_cell_volume 489.065859
_symmetry_space_group_name_H-M "P -1"
_symmetry_group_IT_number 2
_symmetry_cell_setting 'triclinic'
loop_
_space_group_symop_operation_xyz
x,y,z
-x,-y,-z
loop_
_atom_site_type_symbol
_atom_site_label
_atom_site_fract_x
_atom_site_fract_y
_atom_site_fract_z
Si Si1 0.071061 0.451153 0.215879
Si Si2 0.482940 0.692631 0.160435
Si Si3 0.729867 0.917721 0.769609
Si Si4 0.839394 0.685900 0.872458
Si Si5 0.700628 0.754502 0.785453
Si Si6 0.370252 0.881977 0.163235
O O1 0.225066 0.556682 0.152046
O O2 0.000000 0.500000 0.500000
O O3 0.232062 0.446040 0.256870
O O4 0.818045 0.278200 0.948812
O O5 0.465995 0.680669 0.905970
O O6 0.684554 0.695834 0.090149
O O7 0.608038 0.844112 0.471385
O O8 0.679592 0.794334 0.661592
O O9 0.576394 0.922696 0.994122
O O10 0.035636 0.077265 0.930906
O O11 0.151690 0.835162 0.043121
O O12 0.765009 0.676345 0.659737
O O13 0.500000 0.000000 0.500000
#
# Coordination Sequence:
#
# PCOD9092173 Si02
#       6
#     2   2   2   2   2   2
#     4  10  19  40  68  91 127 178 206 259 329 382
#     4  10  19  40  67  90 128 170 215 259 319 387
#     4  11  21  39  65  94 132 166 220 261 322 380
#     4   8  21  38  63  91 125 167 212 259 325 362
#     4   9  23  35  64  98 125 172 213 268 313 383
#     4  10  23  38  63  95 130 168 211 267 320 373
#
# _framework density 24.536572
#
# number of rings (size 3 to 8) (size 9 to 14) (size 15 to 20)
#    2.000    0.333    1.667    1.000    4.667    0.667 
#    0.000    3.333    3.667    0.000    0.000    0.000 
#    0.000    0.000    0.000    0.000    0.000    0.000 
#
# Total GULP energy -66953.954271 kJ/mol
# GULP energy per Si atom -5579.496189 kJ/mol
# Density = 2.448073 g / cm^3
# Si number density = 24.536572 Si / 1000 Ang^3
#
#
#
# Elastic Constant Matrix: (Units=GPa)
#
#
# Indices 1 2 3 4 5 6 
#
# 1 107.7023 -4.8054 10.8200 -5.9808 -7.0443 3.0194
# 2 -4.8054 125.3904 15.3344 -5.7448 -5.2818 14.0934
# 3 10.8200 15.3344 106.8661 -3.0156 -1.0588 26.1998
# 4 -5.9808 -5.7448 -3.0156 34.5049 4.7156 -6.0033
# 5 -7.0443 -5.2818 -1.0588 4.7156 35.1579 4.2786
# 6 3.0194 14.0934 26.1998 -6.0033 4.2786 30.0980
#
#
#
# Elastic Compliance Matrix: (Units=1/GPa)
#
#
# Indices 1 2 3 4 5 6 
#
# 1 0.009617 0.000675 -0.000890 0.001357 0.001881 -0.000502
# 2 0.000675 0.008587 -0.000291 0.000580 0.001823 -0.003979
# 3 -0.000890 -0.000291 0.012119 -0.001245 0.001625 -0.010803
# 4 0.001357 0.000580 -0.001245 0.031176 -0.004782 0.007574
# 5 0.001881 0.001823 0.001625 -0.004782 0.030731 -0.007779
# 6 -0.000502 -0.003979 -0.010803 0.007574 -0.007779 0.047159
#
#
# Mechanical properties :
#
#
# Convention : Reuss Voigt Hill
#
# Bulk Modulus (GPa) = 34.11636 42.51741 38.31689
# Shear Modulus (GPa) = 33.29556 41.19279 37.24418
#
# Velocity S-wave (km/s) = 3.68771 4.10180 3.90026
# Velocity P-wave (km/s) = 5.66275 6.30863 5.99440
#
# Compressibility (1/GPa) = 0.02931145
#
# Stress axis : x y z
#
# Youngs Moduli (GPa) = 103.98365 116.45345 82.51594
#
# Poissons Ratio (x) = -0.07864 0.07348
# Poissons Ratio (y) = -0.07022 0.02398
# Poissons Ratio (z) = 0.09260 0.03384
#
# Static dielectric constant tensor:
#      x y z
#    x 2.085180 -0.045500 0.005970 
#    y -0.045500 1.949420 0.074140 
#    z 0.005970 0.074140 1.877680 
# 
# From -- ./inp_files/283901.got.cif
#   From: 2010.05.17/outbox.cif.g08.bks.cpg/sg2_142_cif.got.tgz:283901.got - 2010.06.03 11:33:40.
