data_PCOD9092821
_publ_section_title
;
Structure prediction by ZEFSAII (Michael W. Deem and Ramdas Pophale) SiO2 
 PCOD9092821
Probable space group: P -1
;
_chemical_formula_sum "Si O2"
_cell_formula_units_Z 14
_cell_length_a 8.772651
_cell_length_b 13.496346
_cell_length_c 7.540475
_cell_angle_alpha 136.747154
_cell_angle_beta 105.214791
_cell_angle_gamma 60.989332
_cell_volume 528.819713
_symmetry_space_group_name_H-M "P -1"
_symmetry_group_IT_number 2
_symmetry_cell_setting 'triclinic'
loop_
_space_group_symop_operation_xyz
x,y,z
-x,-y,-z
loop_
_atom_site_type_symbol
_atom_site_label
_atom_site_fract_x
_atom_site_fract_y
_atom_site_fract_z
Si Si1 0.388115 0.282171 0.601165
Si Si2 0.844535 0.892240 0.794819
Si Si3 0.418890 0.339206 0.286604
Si Si4 0.318976 0.060061 0.813565
Si Si5 0.044871 0.812989 0.275177
Si Si6 0.174767 0.516253 0.138780
Si Si7 0.783998 0.221691 0.076303
O O1 0.234246 0.226645 0.446818
O O2 0.409356 0.356829 0.518603
O O3 0.561777 0.112575 0.460297
O O4 0.332064 0.398492 0.902825
O O5 0.802737 0.038924 0.840366
O O6 0.756545 0.964336 0.053206
O O7 0.049289 0.802321 0.785524
O O8 0.245701 0.459120 0.282843
O O9 0.424706 0.162805 0.021228
O O10 0.595762 0.331715 0.245956
O O11 0.148753 0.174437 0.799116
O O12 0.134012 0.699580 0.319168
O O13 0.173224 0.733080 0.044006
O O14 0.000000 0.000000 0.500000
O O15 0.000000 0.500000 0.000000
#
# Coordination Sequence:
#
# PCOD9092821 Si02
#       7
#     2   2   2   2   2   2   2
#     4  11  23  44  79 105 143 190 249 299 350 429
#     4   9  18  37  68 108 145 186 241 289 353 427
#     4  11  22  45  76 106 151 188 244 297 359 431
#     4  10  19  42  72 109 139 195 249 281 349 450
#     4  11  27  47  69 101 153 193 239 301 367 435
#     4  12  29  49  71 110 145 190 249 299 364 433
#     4  10  20  38  69 107 144 190 240 290 356 429
#
# _framework density 26.474049999999998
#
# number of rings (size 3 to 8) (size 9 to 14) (size 15 to 20)
#    0.000    1.429    4.286    0.857    4.000    1.714 
#    0.000    0.714    0.000    0.000    0.000    0.000 
#    0.000    0.000    0.000    0.000    0.000    0.000 
#
# Total GULP energy -78549.692841 kJ/mol
# GULP energy per Si atom -5610.692346 kJ/mol
# Density = 2.641379 g / cm^3
# Si number density = 26.474050 Si / 1000 Ang^3
#
#
#
# Elastic Constant Matrix: (Units=GPa)
#
#
# Indices 1 2 3 4 5 6 
#
# 1 128.7990 27.8750 21.0218 0.8395 -16.8111 -14.1972
# 2 27.8750 141.8765 18.6224 14.2592 -14.7858 9.8897
# 3 21.0218 18.6224 107.4603 20.1558 -24.4023 4.3612
# 4 0.8395 14.2592 20.1558 38.9805 2.5907 -2.9088
# 5 -16.8111 -14.7858 -24.4023 2.5907 34.9853 -1.8015
# 6 -14.1972 9.8897 4.3612 -2.9088 -1.8015 34.4422
#
#
#
# Elastic Compliance Matrix: (Units=1/GPa)
#
#
# Indices 1 2 3 4 5 6 
#
# 1 0.009263 -0.001805 -0.001258 0.001270 0.002962 0.004758
# 2 -0.001805 0.008260 0.000428 -0.003653 0.003021 -0.003321
# 3 -0.001258 0.000428 0.013101 -0.007697 0.009157 -0.002471
# 4 0.001270 -0.003653 -0.007697 0.031859 -0.008414 0.004797
# 5 0.002962 0.003021 0.009157 -0.008414 0.038319 0.000487
# 6 0.004758 -0.003321 -0.002471 0.004797 0.000487 0.032692
#
#
# Mechanical properties :
#
#
# Convention : Reuss Voigt Hill
#
# Bulk Modulus (GPa) = 39.44326 57.01936 48.23131
# Shear Modulus (GPa) = 33.96348 42.38938 38.17643
#
# Velocity S-wave (km/s) = 3.58564 4.00580 3.80153
# Velocity P-wave (km/s) = 5.66336 6.55590 6.12591
#
# Compressibility (1/GPa) = 0.02535287
#
# Stress axis : x y z
#
# Youngs Moduli (GPa) = 107.95870 121.05945 76.33012
#
# Poissons Ratio (x) = 0.21856 0.09601
# Poissons Ratio (y) = 0.19491 -0.03264
# Poissons Ratio (z) = 0.13580 -0.05177
#
# Static dielectric constant tensor:
#      x y z
#    x 2.111230 -0.013240 0.045740 
#    y -0.013240 2.001640 0.020620 
#    z 0.045740 0.020620 2.123900 
# 
# From -- ./inp_files/209419.got.cif
#   From: 2010.05.17/outbox.cif.g08.bks.cpg/sg2_105_cif.got.tgz:209419.got - 2010.06.03 11:33:40.
