data_PCOD9092414
_publ_section_title
;
Structure prediction by ZEFSAII (Michael W. Deem and Ramdas Pophale) SiO2 
 PCOD9092414
Probable space group: P -1
;
_chemical_formula_sum "Si O2"
_cell_formula_units_Z 16
_cell_length_a 13.048748
_cell_length_b 7.675187
_cell_length_c 11.124958
_cell_angle_alpha 71.982749
_cell_angle_beta 139.903456
_cell_angle_gamma 109.385181
_cell_volume 674.116668
_symmetry_space_group_name_H-M "P -1"
_symmetry_group_IT_number 2
_symmetry_cell_setting 'triclinic'
loop_
_space_group_symop_operation_xyz
x,y,z
-x,-y,-z
loop_
_atom_site_type_symbol
_atom_site_label
_atom_site_fract_x
_atom_site_fract_y
_atom_site_fract_z
Si Si1 0.975493 0.018945 0.227098
Si Si2 0.341309 0.964120 0.211172
Si Si3 0.685558 0.519957 0.365948
Si Si4 0.820228 0.196436 0.680071
Si Si5 0.917450 0.675275 0.918608
Si Si6 0.409914 0.556954 0.289152
Si Si7 0.437481 0.818957 0.819899
Si Si8 0.746115 0.910508 0.252498
O O1 0.894305 0.010948 0.285363
O O2 0.100183 0.876574 0.350441
O O3 0.075742 0.205068 0.221689
O O4 0.816992 0.981869 0.006779
O O5 0.310344 0.943301 0.330538
O O6 0.356736 0.756402 0.222952
O O7 0.493267 0.097718 0.264351
O O8 0.764209 0.390231 0.557373
O O9 0.523364 0.563363 0.274622
O O10 0.643807 0.389725 0.239141
O O11 0.785312 0.720266 0.385285
O O12 0.968165 0.220797 0.900579
O O13 0.742670 0.601828 0.827565
O O14 0.000000 0.500000 0.000000
O O15 0.500000 0.500000 0.500000
O O16 0.320537 0.948075 0.746916
O O17 0.592988 0.839366 0.042151
#
# Coordination Sequence:
#
# PCOD9092414 Si02
#       8
#     2   2   2   2   2   2   2   2
#     4  10  23  42  66  93 136 181 224 278 330 415
#     4  10  19  41  63  99 137 172 220 286 344 397
#     4  12  25  42  69 106 136 182 233 280 345 401
#     4  11  24  42  63 101 140 175 223 283 342 416
#     4  11  21  41  69 100 130 180 221 270 358 406
#     4  12  23  40  68 106 141 168 221 293 342 405
#     4  10  23  41  69  99 135 185 230 286 342 397
#     4  10  23  47  66  94 144 180 241 280 327 409
#
# _framework density 23.734763999999998
#
# number of rings (size 3 to 8) (size 9 to 14) (size 15 to 20)
#    0.000    1.250    5.000    1.875    5.250    2.000 
#    4.500    0.625    0.000    0.000    0.000    0.000 
#    0.000    0.000    0.000    0.000    0.000    0.000 
#
# Total GULP energy -89524.473318 kJ/mol
# GULP energy per Si atom -5595.279582 kJ/mol
# Density = 2.368074 g / cm^3
# Si number density = 23.734764 Si / 1000 Ang^3
#
#
#
# Elastic Constant Matrix: (Units=GPa)
#
#
# Indices 1 2 3 4 5 6 
#
# 1 132.0343 32.4753 31.4079 -15.0961 15.9880 0.2152
# 2 32.4753 75.0573 11.6464 -14.0566 9.1814 2.6160
# 3 31.4079 11.6464 76.1477 -2.7371 -12.2656 -2.6084
# 4 -15.0961 -14.0566 -2.7371 38.3093 -7.8140 -2.2061
# 5 15.9880 9.1814 -12.2656 -7.8140 28.1845 -4.7092
# 6 0.2152 2.6160 -2.6084 -2.2061 -4.7092 43.0462
#
#
#
# Elastic Compliance Matrix: (Units=1/GPa)
#
#
# Indices 1 2 3 4 5 6 
#
# 1 0.010404 -0.002588 -0.005011 0.001307 -0.007028 -0.000900
# 2 -0.002588 0.015954 -0.001870 0.003876 -0.003681 -0.001274
# 3 -0.005011 -0.001870 0.017518 0.001149 0.011820 0.002552
# 4 0.001307 0.003876 0.001149 0.029689 0.007082 0.002124
# 5 -0.007028 -0.003681 0.011820 0.007082 0.048891 0.006687
# 6 -0.000900 -0.001274 0.002552 0.002124 0.006687 0.024308
#
#
# Mechanical properties :
#
#
# Convention : Reuss Voigt Hill
#
# Bulk Modulus (GPa) = 40.10035 48.25537 44.17786
# Shear Modulus (GPa) = 28.73305 35.75532 32.24419
#
# Velocity S-wave (km/s) = 3.48313 3.88552 3.68981
# Velocity P-wave (km/s) = 5.75396 6.36434 6.06684
#
# Compressibility (1/GPa) = 0.02493744
#
# Stress axis : x y z
#
# Youngs Moduli (GPa) = 96.11319 62.68136 57.08392
#
# Poissons Ratio (x) = 0.16224 0.28607
# Poissons Ratio (y) = 0.24877 0.10673
# Poissons Ratio (z) = 0.48166 0.11719
#
# Static dielectric constant tensor:
#      x y z
#    x 1.893250 -0.011550 -0.032990 
#    y -0.011550 1.944680 0.051420 
#    z -0.032990 0.051420 1.949460 
# 
# From -- ./inp_files/419233.got.cif
#   From: 2010.05.17/outbox.cif.g08.bks.cpg/sg2_210_cif.got.tgz:419233.got - 2010.06.03 11:33:40.
