data_PCOD9092839
_publ_section_title
;
Structure prediction by ZEFSAII (Michael W. Deem and Ramdas Pophale) SiO2 
 PCOD9092839
Probable space group: P -1
;
_chemical_formula_sum "Si O2"
_cell_formula_units_Z 14
_cell_length_a 7.382015
_cell_length_b 4.899843
_cell_length_c 21.466816
_cell_angle_alpha 111.107384
_cell_angle_beta 118.576866
_cell_angle_gamma 107.837743
_cell_volume 516.304758
_symmetry_space_group_name_H-M "P -1"
_symmetry_group_IT_number 2
_symmetry_cell_setting 'triclinic'
loop_
_space_group_symop_operation_xyz
x,y,z
-x,-y,-z
loop_
_atom_site_type_symbol
_atom_site_label
_atom_site_fract_x
_atom_site_fract_y
_atom_site_fract_z
Si Si1 0.129722 0.509065 0.707834
Si Si2 0.564992 0.832214 0.578881
Si Si3 0.782783 0.205659 0.129170
Si Si4 0.762098 0.010169 0.760087
Si Si5 0.378769 0.471103 0.189204
Si Si6 0.930680 0.268361 0.529334
Si Si7 0.804225 0.151694 0.985154
O O1 0.151537 0.781155 0.785155
O O2 0.344568 0.445683 0.751083
O O3 0.104375 0.555622 0.635054
O O4 0.852867 0.144097 0.637954
O O5 0.500000 0.500000 0.500000
O O6 0.371241 0.924205 0.533701
O O7 0.587816 0.804145 0.654742
O O8 0.951399 0.646739 0.182280
O O9 0.475978 0.930109 0.062181
O O10 0.846348 0.127460 0.064496
O O11 0.644258 0.199720 0.791217
O O12 0.755884 0.741730 0.785826
O O13 0.257211 0.203099 0.088707
O O14 0.000000 0.500000 0.500000
O O15 0.000000 0.000000 0.500000
O O16 0.000000 0.500000 0.000000
#
# Coordination Sequence:
#
# PCOD9092839 Si02
#       7
#     2   2   2   2   2   2   2
#     4  10  23  43  68 103 149 192 251 305 385 446
#     4  11  25  45  73 104 147 196 253 316 380 451
#     4   9  21  41  70 108 149 192 246 311 373 459
#     4  11  24  46  70 106 146 193 245 307 379 446
#     4  11  24  44  73 103 146 192 243 309 374 456
#     4  12  25  44  70 102 140 192 250 309 372 448
#     4  10  19  42  75 108 147 194 252 306 383 457
#
# _framework density 27.115765
#
# number of rings (size 3 to 8) (size 9 to 14) (size 15 to 20)
#    0.000    1.429    1.429    3.000    0.000    5.143 
#    0.000   10.714    0.000    0.000    0.000    0.000 
#    0.000    0.000    0.000    0.000    0.000    0.000 
#
# Total GULP energy -78232.971200 kJ/mol
# GULP energy per Si atom -5588.069371 kJ/mol
# Density = 2.705405 g / cm^3
# Si number density = 27.115765 Si / 1000 Ang^3
#
#
#
# Elastic Constant Matrix: (Units=GPa)
#
#
# Indices 1 2 3 4 5 6 
#
# 1 144.7787 53.4156 81.7947 -1.2162 -2.4775 19.6606
# 2 53.4156 91.4289 42.8824 -13.3912 -2.6539 5.1352
# 3 81.7947 42.8824 250.8406 -33.8997 -15.5766 0.9214
# 4 -1.2162 -13.3912 -33.8997 45.7499 15.7384 -2.1324
# 5 -2.4775 -2.6539 -15.5766 15.7384 56.9404 4.7722
# 6 19.6606 5.1352 0.9214 -2.1324 4.7722 58.4253
#
#
#
# Elastic Compliance Matrix: (Units=1/GPa)
#
#
# Indices 1 2 3 4 5 6 
#
# 1 0.011156 -0.005396 -0.003207 -0.004086 0.000774 -0.003442
# 2 -0.005396 0.014769 -0.000236 0.004340 -0.000874 0.000751
# 3 -0.003207 -0.000236 0.005620 0.004000 0.000186 0.001142
# 4 -0.004086 0.004340 0.004000 0.028500 -0.006972 0.002540
# 5 0.000774 -0.000874 0.000186 -0.006972 0.019705 -0.002051
# 6 -0.003442 0.000751 0.001142 0.002540 -0.002051 0.018450
#
#
# Mechanical properties :
#
#
# Convention : Reuss Voigt Hill
#
# Bulk Modulus (GPa) = 72.10836 93.69262 82.90049
# Shear Modulus (GPa) = 41.49362 52.82014 47.15688
#
# Velocity S-wave (km/s) = 3.91607 4.41835 4.17477
# Velocity P-wave (km/s) = 6.86280 7.78825 7.34013
#
# Compressibility (1/GPa) = 0.01386802
#
# Stress axis : x y z
#
# Youngs Moduli (GPa) = 89.63771 67.71022 177.92317
#
# Poissons Ratio (x) = 0.36539 0.57055
# Poissons Ratio (y) = 0.48371 0.04191
# Poissons Ratio (z) = 0.28744 0.01595
#
# Static dielectric constant tensor:
#      x y z
#    x 2.269840 0.084070 0.033370 
#    y 0.084070 2.176670 -0.124740 
#    z 0.033370 -0.124740 2.208970 
# 
# From -- ./inp_files/585384.got.cif
#   From: 2010.05.17/outbox.cif.g08.bks.cpg/sg2_293_cif.got.tgz:585384.got - 2010.06.03 11:33:40.
