data_PCOD9092388
_publ_section_title
;
Structure prediction by ZEFSAII (Michael W. Deem and Ramdas Pophale) SiO2 
 PCOD9092388
Probable space group: P -1
;
_chemical_formula_sum "Si O2"
_cell_formula_units_Z 14
_cell_length_a 11.268582
_cell_length_b 14.418000
_cell_length_c 10.434404
_cell_angle_alpha 150.806802
_cell_angle_beta 124.305343
_cell_angle_gamma 44.269313
_cell_volume 567.694153
_symmetry_space_group_name_H-M "P -1"
_symmetry_group_IT_number 2
_symmetry_cell_setting 'triclinic'
loop_
_space_group_symop_operation_xyz
x,y,z
-x,-y,-z
loop_
_atom_site_type_symbol
_atom_site_label
_atom_site_fract_x
_atom_site_fract_y
_atom_site_fract_z
Si Si1 0.216976 0.211817 0.609708
Si Si2 0.499879 0.832310 0.128614
Si Si3 0.016518 0.305874 0.360747
Si Si4 0.143257 0.923495 0.387027
Si Si5 0.325645 0.593260 0.627625
Si Si6 0.419035 0.876083 0.661024
Si Si7 0.849011 0.002756 0.151876
O O1 0.317916 0.308811 0.853901
O O2 0.069041 0.347175 0.580385
O O3 0.360102 0.992509 0.346534
O O4 0.144258 0.133185 0.581773
O O5 0.520747 0.989699 0.227088
O O6 0.450165 0.671490 0.841347
O O7 0.845849 0.308528 0.274595
O O8 0.000000 0.500000 0.500000
O O9 0.154160 0.083994 0.096070
O O10 0.333687 0.782732 0.397350
O O11 0.051036 0.868823 0.153128
O O12 0.000000 0.000000 0.500000
O O13 0.432238 0.323584 0.399848
O O14 0.245635 0.723293 0.599438
O O15 0.261381 0.029319 0.848966
#
# Coordination Sequence:
#
# PCOD9092388 Si02
#       7
#     2   2   2   2   2   2   2
#     4  10  19  41  62  92 135 175 214 275 325 392
#     4  10  22  40  67  93 135 173 216 276 329 383
#     4  12  25  42  68 101 132 178 225 269 332 398
#     4   9  19  39  67  92 128 179 220 267 332 391
#     4  12  23  41  70 100 130 172 223 273 335 387
#     4  10  24  43  65 101 134 173 224 270 333 400
#     4  11  22  43  68  94 137 177 217 279 330 387
#
# _framework density 24.661166000000001
#
# number of rings (size 3 to 8) (size 9 to 14) (size 15 to 20)
#    0.000    1.429    2.857    2.571    0.000    1.714 
#    2.571    7.857    0.000    6.857    0.000    0.000 
#    0.000    0.000    0.000    0.000    0.000    0.000 
#
# Total GULP energy -78097.136919 kJ/mol
# GULP energy per Si atom -5578.366923 kJ/mol
# Density = 2.460504 g / cm^3
# Si number density = 24.661166 Si / 1000 Ang^3
#
#
#
# Elastic Constant Matrix: (Units=GPa)
#
#
# Indices 1 2 3 4 5 6 
#
# 1 156.5596 50.2633 35.6502 -12.8965 31.0658 6.6458
# 2 50.2633 85.3138 12.8748 1.0265 5.4885 8.7301
# 3 35.6502 12.8748 44.2013 -2.6757 20.0299 -8.8653
# 4 -12.8965 1.0265 -2.6757 24.0530 0.6671 7.1449
# 5 31.0658 5.4885 20.0299 0.6671 30.1209 2.1113
# 6 6.6458 8.7301 -8.8653 7.1449 2.1113 35.9296
#
#
#
# Elastic Compliance Matrix: (Units=1/GPa)
#
#
# Indices 1 2 3 4 5 6 
#
# 1 0.011272 -0.005322 -0.004088 0.006836 -0.007900 -0.002696
# 2 -0.005322 0.015411 -0.003429 -0.003056 0.005260 -0.003308
# 3 -0.004088 -0.003429 0.039574 -0.000835 -0.022356 0.012834
# 4 0.006836 -0.003056 -0.000835 0.048419 -0.006310 -0.009986
# 5 -0.007900 0.005260 -0.022356 -0.006310 0.055910 -0.007364
# 6 -0.002696 -0.003308 0.012834 -0.009986 -0.007364 0.034719
#
#
# Mechanical properties :
#
#
# Convention : Reuss Voigt Hill
#
# Bulk Modulus (GPa) = 24.64328 53.73906 39.19117
# Shear Modulus (GPa) = 20.44907 30.50646 25.47776
#
# Velocity S-wave (km/s) = 2.88271 3.52095 3.21769
# Velocity P-wave (km/s) = 4.59287 6.19417 5.45262
#
# Compressibility (1/GPa) = 0.04057902
#
# Stress axis : x y z
#
# Youngs Moduli (GPa) = 88.71521 64.88751 25.26936
#
# Poissons Ratio (x) = 0.34535 0.10331
# Poissons Ratio (y) = 0.47216 0.08664
# Poissons Ratio (z) = 0.36269 0.22247
#
# Static dielectric constant tensor:
#      x y z
#    x 1.913950 -0.044240 -0.058740 
#    y -0.044240 2.128320 0.022200 
#    z -0.058740 0.022200 2.133180 
# 
# From -- ./inp_files/433546.got.cif
#   From: 2010.05.17/outbox.cif.g08.bks.cpg/sg2_217_cif.got.tgz:433546.got - 2010.06.03 11:33:40.
