data_PCOD9092007
_publ_section_title
;
Structure prediction by ZEFSAII (Michael W. Deem and Ramdas Pophale) SiO2 
 PCOD9092007
Probable space group: P -1
;
_chemical_formula_sum "Si O2"
_cell_formula_units_Z 16
_cell_length_a 11.502107
_cell_length_b 14.777113
_cell_length_c 9.412759
_cell_angle_alpha 43.829006
_cell_angle_beta 93.777433
_cell_angle_gamma 60.254248
_cell_volume 682.338015
_symmetry_space_group_name_H-M "P -1"
_symmetry_group_IT_number 2
_symmetry_cell_setting 'triclinic'
loop_
_space_group_symop_operation_xyz
x,y,z
-x,-y,-z
loop_
_atom_site_type_symbol
_atom_site_label
_atom_site_fract_x
_atom_site_fract_y
_atom_site_fract_z
Si Si1 0.417629 0.291762 0.055837
Si Si2 0.582234 0.633575 0.333189
Si Si3 0.179904 0.767195 0.532073
Si Si4 0.531674 0.884116 0.271986
Si Si5 0.210561 0.357560 0.198354
Si Si6 0.131172 0.712195 0.897394
Si Si7 0.213715 0.788232 0.089135
Si Si8 0.717088 0.046173 0.604830
O O1 0.424042 0.267659 0.915871
O O2 0.304007 0.529834 0.783892
O O3 0.306459 0.274727 0.146470
O O4 0.603772 0.137991 0.342625
O O5 0.609584 0.687233 0.419189
O O6 0.379147 0.741913 0.193085
O O7 0.742548 0.380073 0.625345
O O8 0.101431 0.814858 0.631661
O O9 0.304734 0.788054 0.521810
O O10 0.992560 0.964867 0.201626
O O11 0.682358 0.811213 0.477172
O O12 0.362756 0.982904 0.249944
O O13 0.500000 0.000000 0.000000
O O14 0.223926 0.495936 0.095291
O O15 0.000000 0.500000 0.000000
O O16 0.238803 0.710876 0.017715
O O17 0.937772 0.841508 0.815278
#
# Coordination Sequence:
#
# PCOD9092007 Si02
#       8
#     2   2   2   2   2   2   2   2
#     4  10  22  37  63  93 124 163 211 251 317 382
#     4  11  23  40  61  92 130 168 200 259 317 371
#     4  10  20  35  63  96 129 160 205 253 315 380
#     4  11  26  46  63  90 127 172 218 264 312 369
#     4  10  23  45  65  88 122 170 219 266 306 374
#     4  10  19  40  64  97 125 161 206 260 313 378
#     4  10  21  36  61  91 135 160 195 252 323 372
#     4  10  21  39  65  90 123 169 210 253 312 376
#
# _framework density 23.448789999999999
#
# number of rings (size 3 to 8) (size 9 to 14) (size 15 to 20)
#    0.000    1.750    1.250    3.375    3.500    4.500 
#    6.750    3.750    0.000    0.000    0.000    0.000 
#    0.000    0.000    0.000    0.000    0.000    0.000 
#
# Total GULP energy -89380.489894 kJ/mol
# GULP energy per Si atom -5586.280618 kJ/mol
# Density = 2.339542 g / cm^3
# Si number density = 23.448790 Si / 1000 Ang^3
#
#
#
# Elastic Constant Matrix: (Units=GPa)
#
#
# Indices 1 2 3 4 5 6 
#
# 1 58.2324 15.9378 39.0663 19.4294 7.7189 -12.7932
# 2 15.9378 90.0075 30.9920 28.1703 -11.0953 -3.0700
# 3 39.0663 30.9920 142.2333 40.8192 -11.2832 -11.2741
# 4 19.4294 28.1703 40.8192 48.1421 0.8306 -12.1707
# 5 7.7189 -11.0953 -11.2832 0.8306 33.0994 0.6221
# 6 -12.7932 -3.0700 -11.2741 -12.1707 0.6221 28.8021
#
#
#
# Elastic Compliance Matrix: (Units=1/GPa)
#
#
# Indices 1 2 3 4 5 6 
#
# 1 0.025480 -0.002889 -0.006100 -0.001158 -0.009117 0.008330
# 2 -0.002889 0.014895 0.000265 -0.008743 0.006041 -0.003416
# 3 -0.006100 0.000265 0.011157 -0.007672 0.005539 -0.001676
# 4 -0.001158 -0.008743 -0.007672 0.035693 -0.006374 0.010771
# 5 -0.009117 0.006041 0.005539 -0.006374 0.036500 -0.004720
# 6 0.008330 -0.003416 -0.001676 0.010771 -0.004720 0.042053
#
#
# Mechanical properties :
#
#
# Convention : Reuss Voigt Hill
#
# Bulk Modulus (GPa) = 29.33823 51.38502 40.36163
# Shear Modulus (GPa) = 25.69565 35.64053 30.66809
#
# Velocity S-wave (km/s) = 3.31391 3.90286 3.62038
# Velocity P-wave (km/s) = 5.21358 6.50162 5.89290
#
# Compressibility (1/GPa) = 0.03408522
#
# Stress axis : x y z
#
# Youngs Moduli (GPa) = 39.24615 67.13801 89.63254
#
# Poissons Ratio (x) = 0.19396 0.54673
# Poissons Ratio (y) = 0.11338 -0.02379
# Poissons Ratio (z) = 0.23939 -0.01782
#
# Static dielectric constant tensor:
#      x y z
#    x 1.897980 0.058550 -0.054820 
#    y 0.058550 1.945810 -0.033380 
#    z -0.054820 -0.033380 1.914360 
# 
# From -- ./inp_files/270898.got.cif
#   From: 2010.05.17/outbox.cif.g08.bks.cpg/sg2_136_cif.got.tgz:270898.got - 2010.06.03 11:33:40.
