data_PCOD9092618
_publ_section_title
;
Structure prediction by ZEFSAII (Michael W. Deem and Ramdas Pophale) SiO2 
 PCOD9092618
Probable space group: P -1
;
_chemical_formula_sum "Si O2"
_cell_formula_units_Z 16
_cell_length_a 11.945631
_cell_length_b 12.455221
_cell_length_c 11.423784
_cell_angle_alpha 142.261483
_cell_angle_beta 107.082063
_cell_angle_gamma 103.461348
_cell_volume 603.307518
_symmetry_space_group_name_H-M "P -1"
_symmetry_group_IT_number 2
_symmetry_cell_setting 'triclinic'
loop_
_space_group_symop_operation_xyz
x,y,z
-x,-y,-z
loop_
_atom_site_type_symbol
_atom_site_label
_atom_site_fract_x
_atom_site_fract_y
_atom_site_fract_z
Si Si1 0.806560 0.993040 0.259028
Si Si2 0.676782 0.879705 0.614099
Si Si3 0.673568 0.159357 0.036447
Si Si4 0.989727 0.953295 0.094862
Si Si5 0.785814 0.270958 0.779641
Si Si6 0.216243 0.655308 0.512669
Si Si7 0.549095 0.304697 0.979170
Si Si8 0.717002 0.599022 0.052550
O O1 0.578905 0.764680 0.015421
O O2 0.874012 0.274801 0.509073
O O3 0.878804 0.968820 0.148803
O O4 0.849184 0.914931 0.315815
O O5 0.756846 0.109840 0.741285
O O6 0.706558 0.011038 0.860498
O O7 0.453913 0.608388 0.275357
O O8 0.794140 0.838054 0.617341
O O9 0.444098 0.901377 0.769520
O O10 0.702172 0.351547 0.119462
O O11 0.791560 0.330677 0.337682
O O12 0.882327 0.640169 0.812308
O O13 0.000000 0.000000 0.000000
O O14 0.773676 0.463927 0.960968
O O15 0.614752 0.005637 0.409880
O O16 0.000000 0.500000 0.000000
O O17 0.635418 0.531545 0.099901
#
# Coordination Sequence:
#
# PCOD9092618 Si02
#       8
#     2   2   2   2   2   2   2   2
#     4  11  25  43  73 101 141 185 233 295 347 409
#     4  11  22  39  72  99 139 187 231 288 350 408
#     4  10  19  41  71 101 130 189 231 294 352 401
#     4  12  28  48  68 102 145 190 238 290 353 415
#     4  11  22  39  70 107 139 187 221 283 357 418
#     4  10  25  45  70  99 140 178 242 295 349 406
#     4  10  21  42  68 105 143 179 235 289 342 425
#     4  11  21  44  69 109 141 176 244 280 347 433
#
# _framework density 26.520472999999999
#
# number of rings (size 3 to 8) (size 9 to 14) (size 15 to 20)
#    0.000    1.250    2.500    3.375    5.250    5.000 
#    0.000   14.375    0.000    0.000    0.000    0.000 
#    0.000    0.000    0.000    0.000    0.000    0.000 
#
# Total GULP energy -89595.219718 kJ/mol
# GULP energy per Si atom -5599.701232 kJ/mol
# Density = 2.646011 g / cm^3
# Si number density = 26.520473 Si / 1000 Ang^3
#
#
#
# Elastic Constant Matrix: (Units=GPa)
#
#
# Indices 1 2 3 4 5 6 
#
# 1 179.6669 47.5305 24.6026 6.1854 -13.5723 1.5442
# 2 47.5305 135.1669 31.0666 4.4168 -7.0881 -10.5723
# 3 24.6026 31.0666 84.2369 1.7536 -11.3484 -0.5855
# 4 6.1854 4.4168 1.7536 42.0283 -9.0816 -12.3942
# 5 -13.5723 -7.0881 -11.3484 -9.0816 33.8311 -1.1941
# 6 1.5442 -10.5723 -0.5855 -12.3942 -1.1941 52.2829
#
#
#
# Elastic Compliance Matrix: (Units=1/GPa)
#
#
# Indices 1 2 3 4 5 6 
#
# 1 0.006363 -0.001980 -0.000897 -0.000533 0.001670 -0.000686
# 2 -0.001980 0.008857 -0.002642 0.000070 0.000259 0.001842
# 3 -0.000897 -0.002642 0.013608 0.000632 0.003817 -0.000118
# 4 -0.000533 0.000070 0.000632 0.027468 0.007624 0.006723
# 5 0.001670 0.000259 0.003817 0.007624 0.033702 0.002623
# 6 -0.000686 0.001842 -0.000118 0.006723 0.002623 0.021172
#
#
# Mechanical properties :
#
#
# Convention : Reuss Voigt Hill
#
# Bulk Modulus (GPa) = 56.21128 67.27446 61.74287
# Shear Modulus (GPa) = 39.02059 45.35321 42.18690
#
# Velocity S-wave (km/s) = 3.83996 4.13985 3.99272
# Velocity P-wave (km/s) = 6.39546 6.94789 6.67739
#
# Compressibility (1/GPa) = 0.01779002
#
# Stress axis : x y z
#
# Youngs Moduli (GPa) = 157.16222 112.90296 73.48730
#
# Poissons Ratio (x) = 0.22355 0.06591
# Poissons Ratio (y) = 0.31119 0.19415
# Poissons Ratio (z) = 0.14095 0.29829
#
# Static dielectric constant tensor:
#      x y z
#    x 2.160380 -0.001780 -0.041360 
#    y -0.001780 2.105860 0.072950 
#    z -0.041360 0.072950 2.206160 
# 
# From -- ./inp_files/429105.got.cif
#   From: 2010.05.17/outbox.cif.g08.bks.cpg/sg2_215_cif.got.tgz:429105.got - 2010.06.03 11:33:40.
