data_PCOD9092281
_publ_section_title
;
Structure prediction by ZEFSAII (Michael W. Deem and Ramdas Pophale) SiO2 
 PCOD9092281
Probable space group: P -1
;
_chemical_formula_sum "Si O2"
_cell_formula_units_Z 11
_cell_length_a 7.507487
_cell_length_b 11.484919
_cell_length_c 8.500418
_cell_angle_alpha 129.807927
_cell_angle_beta 53.760802
_cell_angle_gamma 124.700502
_cell_volume 432.045630
_symmetry_space_group_name_H-M "P -1"
_symmetry_group_IT_number 2
_symmetry_cell_setting 'triclinic'
loop_
_space_group_symop_operation_xyz
x,y,z
-x,-y,-z
loop_
_atom_site_type_symbol
_atom_site_label
_atom_site_fract_x
_atom_site_fract_y
_atom_site_fract_z
Si Si1 0.996696 0.828499 0.981398
Si Si2 0.488595 0.182938 0.817963
Si Si3 0.388868 0.731541 0.520752
Si Si4 0.000000 0.500000 0.500000
Si Si5 0.758176 0.983507 0.697947
Si Si6 0.147030 0.500167 0.077780
O O1 0.130978 0.747211 0.717257
O O2 0.862520 0.680865 0.038250
O O3 0.176947 0.952347 0.105510
O O4 0.787529 0.882328 0.068757
O O5 0.530712 0.175226 0.601771
O O6 0.627847 0.091657 0.769214
O O7 0.606855 0.367725 0.954162
O O8 0.290527 0.544085 0.391396
O O9 0.577971 0.807507 0.618417
O O10 0.974144 0.452225 0.664305
O O11 0.000000 0.000000 0.500000
O O12 0.000000 0.500000 0.000000
#
# Coordination Sequence:
#
# PCOD9092281 Si02
#       6
#     2   2   2   1   2   2
#     4  11  23  42  67  95 129 174 216 271 332 387
#     4  11  23  43  66  94 133 172 215 275 330 388
#     4  10  22  42  64  94 131 167 219 268 325 395
#     4   8  20  38  66  96 132 170 220 278 322 390
#     4  12  24  42  66  96 132 174 216 267 333 398
#     4  10  19  40  69  97 131 175 224 271 333 396
#
# _framework density 25.460273999999998
#
# number of rings (size 3 to 8) (size 9 to 14) (size 15 to 20)
#    0.000    1.455    3.636    1.636    0.000    0.727 
#    3.273    0.000    0.000    9.818    0.000    0.000 
#    0.000    0.000    0.000    0.000    0.000    0.000 
#
# Total GULP energy -61344.843549 kJ/mol
# GULP energy per Si atom -5576.803959 kJ/mol
# Density = 2.540232 g / cm^3
# Si number density = 25.460274 Si / 1000 Ang^3
#
#
#
# Elastic Constant Matrix: (Units=GPa)
#
#
# Indices 1 2 3 4 5 6 
#
# 1 194.0819 52.0490 78.9425 -5.5486 10.3381 22.2501
# 2 52.0490 92.9858 19.3894 -4.4997 7.3896 41.3170
# 3 78.9425 19.3894 116.8287 -25.3198 1.6173 -9.1913
# 4 -5.5486 -4.4997 -25.3198 32.1052 11.5207 4.3743
# 5 10.3381 7.3896 1.6173 11.5207 56.3024 3.7554
# 6 22.2501 41.3170 -9.1913 4.3743 3.7554 53.7258
#
#
#
# Elastic Compliance Matrix: (Units=1/GPa)
#
#
# Indices 1 2 3 4 5 6 
#
# 1 0.008598 -0.002612 -0.006309 -0.003470 -0.000189 -0.002336
# 2 -0.002612 0.019153 -0.001766 0.003385 -0.001735 -0.014104
# 3 -0.006309 -0.001766 0.016014 0.011107 -0.001738 0.005928
# 4 -0.003470 0.003385 0.011107 0.043246 -0.008831 -0.002170
# 5 -0.000189 -0.001735 -0.001738 -0.008831 0.019851 0.000447
# 6 -0.002336 -0.014104 0.005928 -0.002170 0.000447 0.031586
#
#
# Mechanical properties :
#
#
# Convention : Reuss Voigt Hill
#
# Bulk Modulus (GPa) = 44.66221 78.29534 61.47878
# Shear Modulus (GPa) = 29.88886 45.32770 37.60828
#
# Velocity S-wave (km/s) = 3.43000 4.22397 3.84752
# Velocity P-wave (km/s) = 5.76771 7.38972 6.62852
#
# Compressibility (1/GPa) = 0.02239029
#
# Stress axis : x y z
#
# Youngs Moduli (GPa) = 116.30682 52.20991 62.44729
#
# Poissons Ratio (x) = 0.13638 0.39400
# Poissons Ratio (y) = 0.30382 0.11026
# Poissons Ratio (z) = 0.73382 0.09219
#
# Static dielectric constant tensor:
#      x y z
#    x 1.965140 -0.151650 -0.075870 
#    y -0.151650 1.376530 -0.406690 
#    z -0.075870 -0.406690 1.790870 
# 
# From -- ./inp_files/20916.got.cif
#   From: 2010.05.17/outbox.cif.g08.bks.cpg/sg2_11_cif.got.tgz:20916.got - 2010.06.03 11:33:40.
