data_PCOD9092378
_publ_section_title
;
Structure prediction by ZEFSAII (Michael W. Deem and Ramdas Pophale) SiO2 
 PCOD9092378
Probable space group: P -1
;
_chemical_formula_sum "Si O2"
_cell_formula_units_Z 16
_cell_length_a 8.341851
_cell_length_b 7.412867
_cell_length_c 15.523065
_cell_angle_alpha 141.363753
_cell_angle_beta 90.418724
_cell_angle_gamma 81.651732
_cell_volume 584.173967
_symmetry_space_group_name_H-M "P -1"
_symmetry_group_IT_number 2
_symmetry_cell_setting 'triclinic'
loop_
_space_group_symop_operation_xyz
x,y,z
-x,-y,-z
loop_
_atom_site_type_symbol
_atom_site_label
_atom_site_fract_x
_atom_site_fract_y
_atom_site_fract_z
Si Si1 0.081202 0.241967 0.637610
Si Si2 0.632271 0.605765 0.099613
Si Si3 0.620182 0.834294 0.648631
Si Si4 0.171848 0.215691 0.103007
Si Si5 0.873846 0.112686 0.839740
Si Si6 0.385746 0.755971 0.480447
Si Si7 0.184970 0.812542 0.790299
Si Si8 0.499693 0.411796 0.199430
O O1 0.137362 0.493171 0.673897
O O2 0.949522 0.459068 0.778405
O O3 0.245940 0.046343 0.605912
O O4 0.000000 0.000000 0.500000
O O5 0.611496 0.467524 0.141590
O O6 0.549155 0.949555 0.238024
O O7 0.500000 0.500000 0.000000
O O8 0.801607 0.451789 0.995430
O O9 0.558223 0.752757 0.525744
O O10 0.670692 0.529878 0.588065
O O11 0.763226 0.013443 0.727480
O O12 0.357750 0.256560 0.109781
O O13 0.165801 0.070632 0.143552
O O14 0.129885 0.016081 0.951358
O O15 0.068941 0.994710 0.784210
O O16 0.591262 0.294245 0.640259
O O17 0.378097 0.749828 0.786629
#
# Coordination Sequence:
#
# PCOD9092378 Si02
#       8
#     2   2   2   2   2   2   2   2
#     4  11  21  41  64  98 137 179 224 277 335 409
#     4  10  23  38  66  91 132 176 217 272 345 399
#     4  10  22  41  64  89 134 182 222 268 338 408
#     4  11  22  39  67 104 136 168 229 289 333 394
#     4  10  19  41  61  96 125 178 220 271 338 404
#     4  11  23  40  67  97 133 182 227 274 336 404
#     4  11  24  35  70 103 132 172 231 284 338 398
#     4  12  23  42  68 105 136 170 233 287 329 401
#
# _framework density 27.389099999999999
#
# number of rings (size 3 to 8) (size 9 to 14) (size 15 to 20)
#    0.000    1.250    3.750    3.375    1.750    2.000 
#    0.000    0.625   11.000    3.750    0.000    0.000 
#    0.000    0.000    0.000    0.000    0.000    0.000 
#
# Total GULP energy -89531.069195 kJ/mol
# GULP energy per Si atom -5595.691825 kJ/mol
# Density = 2.732676 g / cm^3
# Si number density = 27.389100 Si / 1000 Ang^3
#
#
#
# Elastic Constant Matrix: (Units=GPa)
#
#
# Indices 1 2 3 4 5 6 
#
# 1 98.7599 29.6941 32.1965 11.7890 -2.7337 -34.1190
# 2 29.6941 84.5218 35.9616 -1.2025 7.7719 -23.5692
# 3 32.1965 35.9616 163.1189 -2.2449 5.3021 -11.8355
# 4 11.7890 -1.2025 -2.2449 55.1052 -22.3740 -4.2194
# 5 -2.7337 7.7719 5.3021 -22.3740 53.0140 6.7100
# 6 -34.1190 -23.5692 -11.8355 -4.2194 6.7100 49.7037
#
#
#
# Elastic Compliance Matrix: (Units=1/GPa)
#
#
# Indices 1 2 3 4 5 6 
#
# 1 0.014590 -0.001885 -0.001846 -0.003052 -0.001161 0.008580
# 2 -0.001885 0.015451 -0.002520 -0.000088 -0.002883 0.005815
# 3 -0.001846 -0.002520 0.007008 0.000523 -0.000113 -0.000734
# 4 -0.003052 -0.000088 0.000523 0.022573 0.009504 -0.001379
# 5 -0.001161 -0.002883 -0.000113 0.009504 0.023831 -0.004601
# 6 0.008580 0.005815 -0.000734 -0.001379 -0.004601 0.029096
#
#
# Mechanical properties :
#
#
# Convention : Reuss Voigt Hill
#
# Bulk Modulus (GPa) = 40.73641 60.23392 50.48516
# Shear Modulus (GPa) = 37.52842 48.13447 42.83145
#
# Velocity S-wave (km/s) = 3.70563 4.19672 3.95880
# Velocity P-wave (km/s) = 5.76320 6.74707 6.27445
#
# Compressibility (1/GPa) = 0.02454807
#
# Stress axis : x y z
#
# Youngs Moduli (GPa) = 68.53830 64.72134 142.69261
#
# Poissons Ratio (x) = 0.12197 0.26343
# Poissons Ratio (y) = 0.12916 0.35958
# Poissons Ratio (z) = 0.12653 0.16309
#
# Static dielectric constant tensor:
#      x y z
#    x 2.224860 0.025990 -0.031320 
#    y 0.025990 2.149710 0.060620 
#    z -0.031320 0.060620 2.131560 
# 
# From -- ./inp_files/617088.got.cif
#   From: 2010.05.17/outbox.cif.g08.bks.cpg/sg2_309_cif.got.tgz:617088.got - 2010.06.03 11:33:40.
