data_PCOD9092271
_publ_section_title
;
Structure prediction by ZEFSAII (Michael W. Deem and Ramdas Pophale) SiO2 
 PCOD9092271
Probable space group: P -1
;
_chemical_formula_sum "Si O2"
_cell_formula_units_Z 15
_cell_length_a 7.521014
_cell_length_b 12.429719
_cell_length_c 16.804481
_cell_angle_alpha 23.303753
_cell_angle_beta 68.642838
_cell_angle_gamma 71.621431
_cell_volume 578.014951
_symmetry_space_group_name_H-M "P -1"
_symmetry_group_IT_number 2
_symmetry_cell_setting 'triclinic'
loop_
_space_group_symop_operation_xyz
x,y,z
-x,-y,-z
loop_
_atom_site_type_symbol
_atom_site_label
_atom_site_fract_x
_atom_site_fract_y
_atom_site_fract_z
Si Si1 0.473220 0.827873 0.788978
Si Si2 0.700594 0.960687 0.167739
Si Si3 0.000000 0.500000 0.500000
Si Si4 0.246610 0.475422 0.320700
Si Si5 0.929612 0.313871 0.068556
Si Si6 0.819779 0.799848 0.647566
Si Si7 0.419968 0.294761 0.790869
Si Si8 0.123283 0.004631 0.135200
O O1 0.442514 0.944467 0.804032
O O2 0.648677 0.927563 0.638411
O O3 0.500000 0.500000 0.000000
O O4 0.263924 0.858631 0.765735
O O5 0.906440 0.880814 0.226852
O O6 0.621788 0.724930 0.282422
O O7 0.751868 0.222868 0.925722
O O8 0.069438 0.437973 0.435213
O O9 0.199419 0.709093 0.331849
O O10 0.234465 0.277876 0.380595
O O11 0.446861 0.483424 0.333641
O O12 0.873814 0.508767 0.873234
O O13 0.000000 0.500000 0.000000
O O14 0.100718 0.140835 0.130264
O O15 0.000000 0.000000 0.500000
O O16 0.211947 0.235108 0.907323
O O17 0.500000 0.000000 0.000000
#
# Coordination Sequence:
#
# PCOD9092271 Si02
#       8
#     2   2   1   2   2   2   2   2
#     4   9  18  38  66  91 128 169 215 267 316 407
#     4  10  19  40  69  92 124 172 226 255 326 399
#     4  12  26  38  64  96 136 170 212 286 324 374
#     4  11  23  43  61  97 130 170 225 263 335 388
#     4  10  23  40  67 101 124 177 224 268 325 399
#     4  11  24  43  67  97 134 175 216 275 339 387
#     4  10  21  36  67  92 118 179 220 258 318 409
#     4  11  22  41  66  94 134 169 222 274 323 393
#
# _framework density 25.950885
#
# number of rings (size 3 to 8) (size 9 to 14) (size 15 to 20)
#    0.000    1.600    6.667    0.400    3.733    2.133 
#    0.000    4.000    0.000    0.000    0.000    0.000 
#    0.000    0.000    0.000    0.000    0.000    0.000 
#
# Total GULP energy -83560.034034 kJ/mol
# GULP energy per Si atom -5570.668936 kJ/mol
# Density = 2.589182 g / cm^3
# Si number density = 25.950885 Si / 1000 Ang^3
#
#
#
# Elastic Constant Matrix: (Units=GPa)
#
#
# Indices 1 2 3 4 5 6 
#
# 1 100.9884 66.6730 28.6900 9.2422 -23.9048 26.7834
# 2 66.6730 230.3986 45.8919 13.5643 -41.1440 21.6807
# 3 28.6900 45.8919 126.7162 26.8452 -14.0625 16.8366
# 4 9.2422 13.5643 26.8452 35.4929 1.2068 -8.4834
# 5 -23.9048 -41.1440 -14.0625 1.2068 59.5913 -6.3581
# 6 26.7834 21.6807 16.8366 -8.4834 -6.3581 50.3618
#
#
#
# Elastic Compliance Matrix: (Units=1/GPa)
#
#
# Indices 1 2 3 4 5 6 
#
# 1 0.014806 -0.002738 -0.000099 -0.004521 0.003370 -0.006998
# 2 -0.002738 0.005926 -0.000902 -0.001114 0.002735 -0.000636
# 3 -0.000099 -0.000902 0.010938 -0.009042 0.001618 -0.004535
# 4 -0.004521 -0.001114 -0.009042 0.039641 -0.004234 0.012050
# 5 0.003370 0.002735 0.001618 -0.004234 0.020312 -0.001660
# 6 -0.006998 -0.000636 -0.004535 0.012050 -0.001660 0.027188
#
#
# Mechanical properties :
#
#
# Convention : Reuss Voigt Hill
#
# Bulk Modulus (GPa) = 41.33630 82.29034 61.81332
# Shear Modulus (GPa) = 37.21542 50.21242 43.71392
#
# Velocity S-wave (km/s) = 3.79102 4.40352 4.10870
# Velocity P-wave (km/s) = 5.92669 7.59168 6.81026
#
# Compressibility (1/GPa) = 0.02419181
#
# Stress axis : x y z
#
# Youngs Moduli (GPa) = 67.54247 168.74044 91.42173
#
# Poissons Ratio (x) = 0.46204 0.00903
# Poissons Ratio (y) = 0.18494 0.08248
# Poissons Ratio (z) = 0.00667 0.15224
#
# Static dielectric constant tensor:
#      x y z
#    x 1.489560 0.176070 -1.169940 
#    y 0.176070 2.142680 0.433020 
#    z -1.169940 0.433020 0.389860 
# 
# From -- ./inp_files/558257.got.cif
#   From: 2010.05.17/outbox.cif.g08.bks.cpg/sg2_280_cif.got.tgz:558257.got - 2010.06.03 11:33:40.
