data_PCOD9092844
_publ_section_title
;
Structure prediction by ZEFSAII (Michael W. Deem and Ramdas Pophale) SiO2 
 PCOD9092844
Probable space group: P -1
;
_chemical_formula_sum "Si O2"
_cell_formula_units_Z 14
_cell_length_a 9.250868
_cell_length_b 7.165250
_cell_length_c 22.399949
_cell_angle_alpha 134.416096
_cell_angle_beta 30.915498
_cell_angle_gamma 128.772736
_cell_volume 543.528682
_symmetry_space_group_name_H-M "P -1"
_symmetry_group_IT_number 2
_symmetry_cell_setting 'triclinic'
loop_
_space_group_symop_operation_xyz
x,y,z
-x,-y,-z
loop_
_atom_site_type_symbol
_atom_site_label
_atom_site_fract_x
_atom_site_fract_y
_atom_site_fract_z
Si Si1 0.053092 0.564516 0.086047
Si Si2 0.133821 0.243703 0.584866
Si Si3 0.709290 0.676402 0.868062
Si Si4 0.369675 0.135870 0.302754
Si Si5 0.868385 0.979969 0.761798
Si Si6 0.363919 0.605863 0.480646
Si Si7 0.950287 0.920410 0.087872
O O1 0.940346 0.732952 0.108450
O O2 0.006515 0.730713 0.199110
O O3 0.392284 0.564164 0.962500
O O4 0.954613 0.264004 0.040921
O O5 0.299528 0.363479 0.495754
O O6 0.367023 0.230397 0.550688
O O7 0.920288 0.457789 0.728439
O O8 0.931556 0.983559 0.590831
O O9 0.721301 0.867388 0.849038
O O10 0.833866 0.838003 0.916606
O O11 0.641514 0.020777 0.210236
O O12 0.341319 0.038164 0.223020
O O13 0.392613 0.450042 0.373992
O O14 0.105109 0.785118 0.617175
#
# Coordination Sequence:
#
# PCOD9092844 Si02
#       7
#     2   2   2   2   2   2   2
#     4  10  21  41  62  87 119 161 200 238 289 358
#     4  10  21  38  66  87 113 160 202 242 289 349
#     4  10  19  43  62  85 118 162 201 237 288 357
#     4  12  22  39  60  95 120 150 197 253 297 343
#     4  10  23  38  61  88 127 154 187 252 304 338
#     4  10  22  42  61  86 120 158 201 238 289 366
#     4  10  20  35  64  86 116 153 203 240 282 352
#
# _framework density 25.757608999999999
#
# number of rings (size 3 to 8) (size 9 to 14) (size 15 to 20)
#    0.000    1.714    2.857    2.571    2.000    1.143 
#    0.000    8.571    0.000    0.000    0.000    0.000 
#    0.000    0.000    0.000    0.000    0.000    0.000 
#
# Total GULP energy -78459.835822 kJ/mol
# GULP energy per Si atom -5604.273987 kJ/mol
# Density = 2.569898 g / cm^3
# Si number density = 25.757609 Si / 1000 Ang^3
#
#
#
# Elastic Constant Matrix: (Units=GPa)
#
#
# Indices 1 2 3 4 5 6 
#
# 1 137.5081 38.9868 47.0834 -3.3001 -5.4275 40.6099
# 2 38.9868 104.9175 15.9581 -2.0607 5.2515 34.8016
# 3 47.0834 15.9581 92.1145 22.5910 -7.5721 22.4477
# 4 -3.3001 -2.0607 22.5910 49.0232 15.1246 11.1166
# 5 -5.4275 5.2515 -7.5721 15.1246 52.7973 0.1175
# 6 40.6099 34.8016 22.4477 11.1166 0.1175 46.1534
#
#
#
# Elastic Compliance Matrix: (Units=1/GPa)
#
#
# Indices 1 2 3 4 5 6 
#
# 1 0.011952 -0.000528 -0.005306 0.005566 -0.001054 -0.008875
# 2 -0.000528 0.013464 -0.000761 0.004024 -0.002633 -0.010280
# 3 -0.005306 -0.000761 0.016480 -0.009261 0.004548 -0.000554
# 4 0.005566 0.004024 -0.009261 0.030724 -0.009934 -0.010802
# 5 -0.001054 -0.002633 0.004548 -0.009934 0.022585 0.003036
# 6 -0.008875 -0.010280 -0.000554 -0.010802 0.003036 0.040091
#
#
# Mechanical properties :
#
#
# Convention : Reuss Voigt Hill
#
# Bulk Modulus (GPa) = 34.83611 59.84406 47.34009
# Shear Modulus (GPa) = 31.63422 45.09557 38.36489
#
# Velocity S-wave (km/s) = 3.50830 4.18876 3.86354
# Velocity P-wave (km/s) = 5.47401 6.83215 6.19044
#
# Compressibility (1/GPa) = 0.02870585
#
# Stress axis : x y z
#
# Youngs Moduli (GPa) = 83.66781 74.27125 60.67841
#
# Poissons Ratio (x) = 0.03923 0.32199
# Poissons Ratio (y) = 0.04419 0.04616
# Poissons Ratio (z) = 0.44398 0.05650
#
# Static dielectric constant tensor:
#      x y z
#    x 2.028750 -0.053790 0.071960 
#    y -0.053790 2.035960 -0.012080 
#    z 0.071960 -0.012080 1.985490 
# 
# From -- ./inp_files/177176.got.cif
#   From: 2010.05.17/outbox.cif.g08.bks.cpg/sg2_89_cif.got.tgz:177176.got - 2010.06.03 11:33:40.
