data_PCOD9092551
_publ_section_title
;
Structure prediction by ZEFSAII (Michael W. Deem and Ramdas Pophale) SiO2 
 PCOD9092551
Probable space group: P -1
;
_chemical_formula_sum "Si O2"
_cell_formula_units_Z 16
_cell_length_a 11.650139
_cell_length_b 12.052052
_cell_length_c 7.857113
_cell_angle_alpha 52.557039
_cell_angle_beta 87.452505
_cell_angle_gamma 117.937309
_cell_volume 683.253185
_symmetry_space_group_name_H-M "P -1"
_symmetry_group_IT_number 2
_symmetry_cell_setting 'triclinic'
loop_
_space_group_symop_operation_xyz
x,y,z
-x,-y,-z
loop_
_atom_site_type_symbol
_atom_site_label
_atom_site_fract_x
_atom_site_fract_y
_atom_site_fract_z
Si Si1 0.380829 0.697364 0.367411
Si Si2 0.140081 0.696447 0.246070
Si Si3 0.449177 0.810401 0.616176
Si Si4 0.985807 0.822557 0.651829
Si Si5 0.106907 0.945338 0.189859
Si Si6 0.150892 0.687942 0.861232
Si Si7 0.776476 0.674669 0.111125
Si Si8 0.422723 0.236841 0.027503
O O1 0.282170 0.758354 0.285396
O O2 0.484480 0.799468 0.429906
O O3 0.267833 0.486476 0.617476
O O4 0.471151 0.727784 0.165183
O O5 0.107024 0.835349 0.141058
O O6 0.177609 0.690671 0.055669
O O7 0.000000 0.500000 0.500000
O O8 0.500000 0.000000 0.500000
O O9 0.274861 0.702290 0.736223
O O10 0.509150 0.748521 0.809174
O O11 0.981460 0.802996 0.465715
O O12 0.000000 0.000000 0.500000
O O13 0.876575 0.874139 0.005469
O O14 0.856303 0.691227 0.915669
O O15 0.264324 0.043370 0.186007
O O16 0.121573 0.829205 0.696273
O O17 0.000000 0.500000 0.000000
O O18 0.624640 0.637818 0.106301
#
# Coordination Sequence:
#
# PCOD9092551 Si02
#       8
#     2   2   2   2   2   2   2   2
#     4  12  24  44  70 101 140 184 230 286 344 412
#     4  12  24  41  69 101 135 178 229 288 344 410
#     4  12  26  41  72 106 139 184 232 289 352 409
#     4  10  19  41  68  92 133 176 222 282 332 409
#     4   9  22  42  68 101 136 177 230 286 343 413
#     4  12  25  44  67 100 135 177 231 284 346 413
#     4   9  22  42  71  94 143 184 228 282 347 410
#     4  10  23  45  68 103 141 181 231 283 344 416
#
# _framework density 23.417382
#
# number of rings (size 3 to 8) (size 9 to 14) (size 15 to 20)
#    0.750    0.500    1.250    5.625    1.750    1.500 
#    0.000    6.875    5.500    0.000    0.000    0.000 
#    0.000    0.000    0.000    0.000    0.000    0.000 
#
# Total GULP energy -89374.965756 kJ/mol
# GULP energy per Si atom -5585.935360 kJ/mol
# Density = 2.336408 g / cm^3
# Si number density = 23.417382 Si / 1000 Ang^3
#
#
#
# Elastic Constant Matrix: (Units=GPa)
#
#
# Indices 1 2 3 4 5 6 
#
# 1 89.5044 3.9835 -1.5418 -7.2117 12.0231 -14.4651
# 2 3.9835 81.1199 24.0219 3.3164 10.6420 -0.1391
# 3 -1.5418 24.0219 77.3614 6.0138 2.4196 -7.1041
# 4 -7.2117 3.3164 6.0138 41.9833 -0.5166 4.5158
# 5 12.0231 10.6420 2.4196 -0.5166 41.3382 -0.5876
# 6 -14.4651 -0.1391 -7.1041 4.5158 -0.5876 31.8789
#
#
#
# Elastic Compliance Matrix: (Units=1/GPa)
#
#
# Indices 1 2 3 4 5 6 
#
# 1 0.012723 -0.000485 0.000927 0.001433 -0.003531 0.005709
# 2 -0.000485 0.014083 -0.004345 -0.000493 -0.003252 -0.001117
# 3 0.000927 -0.004345 0.014820 -0.002050 0.000013 0.003995
# 4 0.001433 -0.000493 -0.002050 0.024755 0.000092 -0.003314
# 5 -0.003531 -0.003252 0.000013 0.000092 0.026039 -0.001147
# 6 0.005709 -0.001117 0.003995 -0.003314 -0.001147 0.035293
#
#
# Mechanical properties :
#
#
# Convention : Reuss Voigt Hill
#
# Bulk Modulus (GPa) = 29.56826 33.43475 31.50151
# Shear Modulus (GPa) = 34.06191 37.80820 35.93506
#
# Velocity S-wave (km/s) = 3.81800 4.02249 3.92158
# Velocity P-wave (km/s) = 5.66482 5.99021 5.82979
#
# Compressibility (1/GPa) = 0.03382004
#
# Stress axis : x y z
#
# Youngs Moduli (GPa) = 78.59971 71.00838 67.47696
#
# Poissons Ratio (x) = 0.03444 -0.06258
# Poissons Ratio (y) = 0.03812 0.29320
# Poissons Ratio (z) = -0.07290 0.30854
#
# Static dielectric constant tensor:
#      x y z
#    x 1.952230 0.036870 -0.012820 
#    y 0.036870 1.882020 -0.026840 
#    z -0.012820 -0.026840 1.901480 
# 
# From -- ./inp_files/256822.got.cif
#   From: 2010.05.17/outbox.cif.g08.bks.cpg/sg2_129_cif.got.tgz:256822.got - 2010.06.03 11:33:40.
