data_PCOD9092792
_publ_section_title
;
Structure prediction by ZEFSAII (Michael W. Deem and Ramdas Pophale) SiO2 
 PCOD9092792
Probable space group: P -1
;
_chemical_formula_sum "Si O2"
_cell_formula_units_Z 14
_cell_length_a 9.615630
_cell_length_b 18.742394
_cell_length_c 9.318967
_cell_angle_alpha 128.298448
_cell_angle_beta 108.669221
_cell_angle_gamma 115.049153
_cell_volume 684.631084
_symmetry_space_group_name_H-M "P -1"
_symmetry_group_IT_number 2
_symmetry_cell_setting 'triclinic'
loop_
_space_group_symop_operation_xyz
x,y,z
-x,-y,-z
loop_
_atom_site_type_symbol
_atom_site_label
_atom_site_fract_x
_atom_site_fract_y
_atom_site_fract_z
Si Si1 0.375568 0.529851 0.053121
Si Si2 0.973517 0.763074 0.228782
Si Si3 0.475866 0.634588 0.914910
Si Si4 0.955416 0.707414 0.819022
Si Si5 0.731545 0.300751 0.186881
Si Si6 0.069542 0.140136 0.220801
Si Si7 0.378341 0.024182 0.913052
O O1 0.619853 0.698642 0.430906
O O2 0.500000 0.500000 0.000000
O O3 0.135807 0.378294 0.888632
O O4 0.320364 0.551700 0.913104
O O5 0.253992 0.935066 0.605810
O O6 0.764406 0.737584 0.151693
O O7 0.965372 0.734425 0.023624
O O8 0.310851 0.484727 0.562905
O O9 0.486558 0.744561 0.009887
O O10 0.968469 0.807151 0.855382
O O11 0.188668 0.755866 0.920448
O O12 0.000000 0.500000 0.500000
O O13 0.614439 0.218599 0.203339
O O14 0.871965 0.072089 0.196063
O O15 0.000000 0.000000 0.000000
O O16 0.500000 0.000000 0.000000
#
# Coordination Sequence:
#
# PCOD9092792 Si02
#       7
#     2   2   2   2   2   2   2
#     4  10  19  42  69  96 130 179 222 269 335 395
#     4  11  23  38  74  96 128 179 227 271 336 396
#     4  10  20  41  72  92 132 176 228 265 328 407
#     4  11  22  43  63 102 137 173 217 286 329 390
#     4  10  25  41  68  94 135 180 220 269 342 395
#     4  12  25  41  70 102 135 171 230 282 328 396
#     4  12  25  47  67  93 136 185 219 272 345 402
#
# _framework density 20.448967
#
# number of rings (size 3 to 8) (size 9 to 14) (size 15 to 20)
#    0.000    1.143    7.143    0.429    4.000    3.429 
#    2.571    0.714    0.000    0.000    0.000    0.000 
#    0.000    0.000    0.000    0.000    0.000    0.000 
#
# Total GULP energy -78078.995331 kJ/mol
# GULP energy per Si atom -5577.071095 kJ/mol
# Density = 2.040242 g / cm^3
# Si number density = 20.448967 Si / 1000 Ang^3
#
#
#
# Elastic Constant Matrix: (Units=GPa)
#
#
# Indices 1 2 3 4 5 6 
#
# 1 68.1937 19.1656 26.6267 -7.7016 1.7487 -22.1817
# 2 19.1656 130.0760 30.0667 -7.9034 -12.1925 -9.7033
# 3 26.6267 30.0667 97.9818 -2.5589 -1.4685 -4.3907
# 4 -7.7016 -7.9034 -2.5589 36.8763 1.9458 -0.8699
# 5 1.7487 -12.1925 -1.4685 1.9458 29.9979 7.4852
# 6 -22.1817 -9.7033 -4.3907 -0.8699 7.4852 40.8083
#
#
#
# Elastic Compliance Matrix: (Units=1/GPa)
#
#
# Indices 1 2 3 4 5 6 
#
# 1 0.021433 -0.001385 -0.004832 0.004404 -0.005295 0.011866
# 2 -0.001385 0.008838 -0.002229 0.001286 0.003350 0.000522
# 3 -0.004832 -0.002229 0.012104 -0.000720 0.000505 -0.001962
# 4 0.004404 0.001286 -0.000720 0.028484 -0.002539 0.003695
# 5 -0.005295 0.003350 0.000505 -0.002539 0.037428 -0.008947
# 6 0.011866 0.000522 -0.001962 0.003695 -0.008947 0.032588
#
#
# Mechanical properties :
#
#
# Convention : Reuss Voigt Hill
#
# Bulk Modulus (GPa) = 39.24030 49.77439 44.50735
# Shear Modulus (GPa) = 30.07346 36.22933 33.15139
#
# Velocity S-wave (km/s) = 3.83908 4.21372 4.03075
# Velocity P-wave (km/s) = 6.23557 6.93307 6.59355
#
# Compressibility (1/GPa) = 0.02548400
#
# Stress axis : x y z
#
# Youngs Moduli (GPa) = 46.65738 113.14714 82.61845
#
# Poissons Ratio (x) = 0.15666 0.39923
# Poissons Ratio (y) = 0.06460 0.18412
# Poissons Ratio (z) = 0.22546 0.25216
#
# Static dielectric constant tensor:
#      x y z
#    x 1.751090 -0.020630 0.005270 
#    y -0.020630 1.810020 0.053030 
#    z 0.005270 0.053030 1.756240 
# 
# From -- ./inp_files/157138.got.cif
#   From: 2010.05.17/outbox.cif.g08.bks.cpg/sg2_79_cif.got.tgz:157138.got - 2010.06.03 11:33:40.
