data_PCOD9092656
_publ_section_title
;
Structure prediction by ZEFSAII (Michael W. Deem and Ramdas Pophale) SiO2 
 PCOD9092656
Probable space group: P -1
;
_chemical_formula_sum "Si O2"
_cell_formula_units_Z 16
_cell_length_a 6.400930
_cell_length_b 7.409366
_cell_length_c 18.248069
_cell_angle_alpha 84.781515
_cell_angle_beta 64.183332
_cell_angle_gamma 119.399988
_cell_volume 625.400965
_symmetry_space_group_name_H-M "P -1"
_symmetry_group_IT_number 2
_symmetry_cell_setting 'triclinic'
loop_
_space_group_symop_operation_xyz
x,y,z
-x,-y,-z
loop_
_atom_site_type_symbol
_atom_site_label
_atom_site_fract_x
_atom_site_fract_y
_atom_site_fract_z
Si Si1 0.392014 0.093431 0.790720
Si Si2 0.814293 0.942194 0.850191
Si Si3 0.734203 0.433726 0.985068
Si Si4 0.717404 0.888534 0.705261
Si Si5 0.245001 0.748856 0.612807
Si Si6 0.118001 0.615078 0.193005
Si Si7 0.326332 0.479252 0.371853
Si Si8 0.652320 0.795229 0.437371
O O1 0.498737 0.948119 0.752638
O O2 0.053709 0.944436 0.857353
O O3 0.555172 0.231533 0.833306
O O4 0.506458 0.289000 0.706914
O O5 0.770617 0.833174 0.780769
O O6 0.948576 0.202174 0.805884
O O7 0.500000 0.500000 0.000000
O O8 0.513423 0.819059 0.941057
O O9 0.881796 0.464264 0.884167
O O10 0.000000 0.500000 0.000000
O O11 0.624823 0.687439 0.672319
O O12 0.015979 0.112193 0.621241
O O13 0.525091 0.782277 0.536557
O O14 0.076631 0.574107 0.710206
O O15 0.014533 0.649267 0.584385
O O16 0.327592 0.993109 0.609111
O O17 0.442743 0.569447 0.431939
#
# Coordination Sequence:
#
# PCOD9092656 Si02
#       8
#     2   2   2   2   2   2   2   2
#     4  10  23  45  75 113 152 212 270 333 408 493
#     4  11  25  50  78 112 162 211 278 340 415 508
#     4  12  32  52  84 127 168 217 279 350 431 515
#     4  10  23  43  71 113 156 205 268 334 403 493
#     4   9  21  41  77 113 157 211 277 336 409 495
#     4  10  25  50  79 114 159 219 276 343 428 497
#     4  10  20  40  69 106 155 208 263 331 413 479
#     4  10  19  41  74 113 161 210 274 343 401 497
#
# _framework density 25.583586
#
# number of rings (size 3 to 8) (size 9 to 14) (size 15 to 20)
#    0.000    1.750    1.250    0.750   10.500    0.500 
#    6.750    5.625    0.000   13.500    0.000    0.000 
#    0.000    0.000    0.000    0.000    0.000    0.000 
#
# Total GULP energy -89443.969413 kJ/mol
# GULP energy per Si atom -5590.248088 kJ/mol
# Density = 2.552536 g / cm^3
# Si number density = 25.583586 Si / 1000 Ang^3
#
#
#
# Elastic Constant Matrix: (Units=GPa)
#
#
# Indices 1 2 3 4 5 6 
#
# 1 130.6452 47.7023 40.2647 0.1211 -10.0727 21.3198
# 2 47.7023 144.3431 59.9490 4.7675 0.3957 0.5803
# 3 40.2647 59.9490 132.6443 -1.7685 -6.1916 6.8397
# 4 0.1211 4.7675 -1.7685 41.8521 13.6690 4.8065
# 5 -10.0727 0.3957 -6.1916 13.6690 38.1226 -10.5888
# 6 21.3198 0.5803 6.8397 4.8065 -10.5888 34.8814
#
#
#
# Elastic Compliance Matrix: (Units=1/GPa)
#
#
# Indices 1 2 3 4 5 6 
#
# 1 0.010090 -0.002711 -0.001504 0.000673 0.000616 -0.005733
# 2 -0.002711 0.009333 -0.003545 -0.001390 -0.000248 0.002313
# 3 -0.001504 -0.003545 0.009682 0.000659 0.000759 -0.000781
# 4 0.000673 -0.001390 0.000659 0.029094 -0.012438 -0.008302
# 5 0.000616 -0.000248 0.000759 -0.012438 0.034194 0.011573
# 6 -0.005733 0.002313 -0.000781 -0.008302 0.011573 0.036944
#
#
# Mechanical properties :
#
#
# Convention : Reuss Voigt Hill
#
# Bulk Modulus (GPa) = 73.60597 78.16274 75.88435
# Shear Modulus (GPa) = 33.47041 40.28567 36.87804
#
# Velocity S-wave (km/s) = 3.62093 3.97251 3.80079
# Velocity P-wave (km/s) = 6.80550 7.18745 6.99908
#
# Compressibility (1/GPa) = 0.01358585
#
# Stress axis : x y z
#
# Youngs Moduli (GPa) = 99.10694 107.14418 103.28281
#
# Poissons Ratio (x) = 0.29042 0.15539
# Poissons Ratio (y) = 0.26864 0.36611
# Poissons Ratio (z) = 0.14911 0.37980
#
# Static dielectric constant tensor:
#      x y z
#    x 2.208870 0.005630 0.057140 
#    y 0.005630 2.003480 -0.018690 
#    z 0.057140 -0.018690 1.953850 
# 
# From -- ./inp_files/557244.got.cif
#   From: 2010.05.17/outbox.cif.g08.bks.cpg/sg2_279_cif.got.tgz:557244.got - 2010.06.03 11:33:40.
