data_PCOD9092409
_publ_section_title
;
Structure prediction by ZEFSAII (Michael W. Deem and Ramdas Pophale) SiO2 
 PCOD9092409
Probable space group: P -1
;
_chemical_formula_sum "Si O2"
_cell_formula_units_Z 16
_cell_length_a 10.491981
_cell_length_b 13.827891
_cell_length_c 7.516668
_cell_angle_alpha 90.099690
_cell_angle_beta 46.475155
_cell_angle_gamma 117.540690
_cell_volume 610.158978
_symmetry_space_group_name_H-M "P -1"
_symmetry_group_IT_number 2
_symmetry_cell_setting 'triclinic'
loop_
_space_group_symop_operation_xyz
x,y,z
-x,-y,-z
loop_
_atom_site_type_symbol
_atom_site_label
_atom_site_fract_x
_atom_site_fract_y
_atom_site_fract_z
Si Si1 0.696331 0.762058 0.184592
Si Si2 0.654929 0.695372 0.634588
Si Si3 0.285102 0.027790 0.895973
Si Si4 0.217967 0.637526 0.448896
Si Si5 0.551658 0.857087 0.895686
Si Si6 0.662096 0.155738 0.240311
Si Si7 0.218010 0.426322 0.953170
Si Si8 0.917653 0.607641 0.310607
O O1 0.669929 0.741469 0.420427
O O2 0.832222 0.909485 0.020072
O O3 0.453902 0.699076 0.326132
O O4 0.774731 0.686732 0.033580
O O5 0.416223 0.552975 0.866575
O O6 0.845525 0.680762 0.477125
O O7 0.667929 0.793732 0.745921
O O8 0.328918 0.040723 0.064278
O O9 0.523268 0.113644 0.554679
O O10 0.194780 0.893964 0.910862
O O11 0.304757 0.736833 0.208387
O O12 0.123578 0.495648 0.520318
O O13 0.023458 0.621041 0.747968
O O14 0.520698 0.904330 0.744044
O O15 0.835556 0.300400 0.018882
O O16 0.239259 0.453399 0.719047
#
# Coordination Sequence:
#
# PCOD9092409 Si02
#       8
#     2   2   2   2   2   2   2   2
#     4  10  19  41  63  94 130 167 213 266 317 380
#     4  11  21  38  62  96 135 174 203 264 331 379
#     4  10  23  44  71  91 122 176 218 267 329 370
#     4  11  22  37  63  97 128 171 210 258 324 384
#     4  11  24  41  66  99 129 164 220 266 319 391
#     4  11  23  44  71  91 126 169 221 273 317 378
#     4  11  21  36  66  97 135 173 212 261 319 392
#     4  11  21  38  63  98 132 170 220 259 321 391
#
# _framework density 26.222673
#
# number of rings (size 3 to 8) (size 9 to 14) (size 15 to 20)
#    0.000    1.250    3.750    3.750    0.000    2.500 
#    4.500    3.125    5.500    0.000    0.000    0.000 
#    0.000    0.000    0.000    0.000    0.000    0.000 
#
# Total GULP energy -89564.213483 kJ/mol
# GULP energy per Si atom -5597.763343 kJ/mol
# Density = 2.616299 g / cm^3
# Si number density = 26.222673 Si / 1000 Ang^3
#
#
#
# Elastic Constant Matrix: (Units=GPa)
#
#
# Indices 1 2 3 4 5 6 
#
# 1 85.2078 16.6109 25.5243 13.6886 2.7628 -17.2007
# 2 16.6109 82.8431 1.4796 26.0927 4.2929 -18.9604
# 3 25.5243 1.4796 73.8472 21.4125 4.4377 0.5975
# 4 13.6886 26.0927 21.4125 53.8029 -1.1206 -6.2541
# 5 2.7628 4.2929 4.4377 -1.1206 23.4448 0.7843
# 6 -17.2007 -18.9604 0.5975 -6.2541 0.7843 43.8251
#
#
#
# Elastic Compliance Matrix: (Units=1/GPa)
#
#
# Indices 1 2 3 4 5 6 
#
# 1 0.014619 -0.001489 -0.004883 -0.000476 -0.000719 0.005105
# 2 -0.001489 0.016283 0.002715 -0.008059 -0.003884 0.005343
# 3 -0.004883 0.002715 0.017535 -0.007355 -0.003527 -0.001968
# 4 -0.000476 -0.008059 -0.007355 0.025630 0.004149 0.000011
# 5 -0.000719 -0.003884 -0.003527 0.004149 0.044386 -0.002117
# 6 0.005105 0.005343 -0.001968 0.000011 -0.002117 0.027200
#
#
# Mechanical properties :
#
#
# Convention : Reuss Voigt Hill
#
# Bulk Modulus (GPa) = 24.31642 36.56975 30.44308
# Shear Modulus (GPa) = 29.99833 37.43344 33.71589
#
# Velocity S-wave (km/s) = 3.38595 3.78236 3.58963
# Velocity P-wave (km/s) = 4.95776 5.74901 5.36798
#
# Compressibility (1/GPa) = 0.04112448
#
# Stress axis : x y z
#
# Youngs Moduli (GPa) = 68.40232 61.41273 57.02718
#
# Poissons Ratio (x) = 0.09141 0.27848
# Poissons Ratio (y) = 0.10182 -0.15483
# Poissons Ratio (z) = 0.33403 -0.16674
#
# Static dielectric constant tensor:
#      x y z
#    x 2.117000 0.042590 -0.014200 
#    y 0.042590 2.166180 -0.041030 
#    z -0.014200 -0.041030 2.003210 
# 
# From -- ./inp_files/273063.got.cif
#   From: 2010.05.17/outbox.cif.g08.bks.cpg/sg2_137_cif.got.tgz:273063.got - 2010.06.03 11:33:40.
