data_PCOD9092072
_publ_section_title
;
Structure prediction by ZEFSAII (Michael W. Deem and Ramdas Pophale) SiO2 
 PCOD9092072
Probable space group: P -1
;
_chemical_formula_sum "Si O2"
_cell_formula_units_Z 16
_cell_length_a 8.910141
_cell_length_b 17.826390
_cell_length_c 14.820960
_cell_angle_alpha 150.149861
_cell_angle_beta 133.392143
_cell_angle_gamma 44.526704
_cell_volume 805.604396
_symmetry_space_group_name_H-M "P -1"
_symmetry_group_IT_number 2
_symmetry_cell_setting 'triclinic'
loop_
_space_group_symop_operation_xyz
x,y,z
-x,-y,-z
loop_
_atom_site_type_symbol
_atom_site_label
_atom_site_fract_x
_atom_site_fract_y
_atom_site_fract_z
Si Si1 0.423353 0.934027 0.810402
Si Si2 0.224128 0.519467 0.148109
Si Si3 0.491339 0.265349 0.868623
Si Si4 0.837615 0.803305 0.481471
Si Si5 0.431978 0.042925 0.303447
Si Si6 0.341172 0.599738 0.460235
Si Si7 0.177973 0.831932 0.382665
Si Si8 0.088960 0.879162 0.208118
O O1 0.558202 0.958387 0.802931
O O2 0.426315 0.750262 0.628341
O O3 0.169955 0.044831 0.819041
O O4 0.500000 0.000000 0.000000
O O5 0.331396 0.479102 0.248586
O O6 0.165763 0.708905 0.323089
O O7 0.397724 0.433022 0.054219
O O8 0.000000 0.500000 0.000000
O O9 0.340147 0.254841 0.708507
O O10 0.746403 0.223175 0.905353
O O11 0.477385 0.132978 0.798545
O O12 0.772128 0.865472 0.621789
O O13 0.082080 0.680253 0.459273
O O14 0.834992 0.963378 0.593415
O O15 0.594722 0.140132 0.493119
O O16 0.500000 0.500000 0.500000
O O17 0.140504 0.773294 0.208252
O O18 0.000000 0.000000 0.500000
#
# Coordination Sequence:
#
# PCOD9092072 Si02
#       8
#     2   2   2   2   2   2   2   2
#     4  11  25  43  64  89 119 171 228 253 299 385
#     4  12  25  38  62  97 131 164 211 265 321 375
#     4  11  21  37  64 101 131 151 202 267 334 370
#     4  10  19  40  65  97 125 162 205 258 322 383
#     4  11  20  38  69  91 122 160 208 264 314 369
#     4  11  25  45  62  85 132 176 208 258 320 375
#     4  12  19  35  64  91 120 163 203 254 316 371
#     4  10  20  37  64  93 125 158 203 263 314 372
#
# _framework density 19.860863999999999
#
# number of rings (size 3 to 8) (size 9 to 14) (size 15 to 20)
#    0.000    1.000    6.250    2.250    1.750    0.500 
#    2.250    2.500    0.000    0.000    0.000    0.000 
#    0.000    0.000    0.000    0.000    0.000    0.000 
#
# Total GULP energy -89071.378174 kJ/mol
# GULP energy per Si atom -5566.961136 kJ/mol
# Density = 1.981566 g / cm^3
# Si number density = 19.860864 Si / 1000 Ang^3
#
#
#
# Elastic Constant Matrix: (Units=GPa)
#
#
# Indices 1 2 3 4 5 6 
#
# 1 104.4600 31.7155 26.5888 -5.3293 -32.1656 6.4253
# 2 31.7155 82.5395 25.4629 -4.1506 -20.4289 14.0897
# 3 26.5888 25.4629 69.8314 -15.0873 -25.8501 8.0690
# 4 -5.3293 -4.1506 -15.0873 28.8881 3.1395 -14.7291
# 5 -32.1656 -20.4289 -25.8501 3.1395 33.9620 4.9720
# 6 6.4253 14.0897 8.0690 -14.7291 4.9720 28.8267
#
#
#
# Elastic Compliance Matrix: (Units=1/GPa)
#
#
# Indices 1 2 3 4 5 6 
#
# 1 0.014595 -0.001156 0.000623 -0.002034 0.014733 -0.006443
# 2 -0.001156 0.017654 -0.002024 -0.006453 0.010470 -0.012908
# 3 0.000623 -0.002024 0.023389 0.007797 0.017138 -0.004669
# 4 -0.002034 -0.006453 0.007797 0.054027 -0.009354 0.030644
# 5 0.014733 0.010470 0.017138 -0.009354 0.067954 -0.029699
# 6 -0.006443 -0.012908 -0.004669 0.030644 -0.029699 0.064522
#
#
# Mechanical properties :
#
#
# Convention : Reuss Voigt Hill
#
# Bulk Modulus (GPa) = 19.79254 47.15171 33.47212
# Shear Modulus (GPa) = 18.93257 29.87292 24.40274
#
# Velocity S-wave (km/s) = 3.09084 3.88249 3.50906
# Velocity P-wave (km/s) = 4.76707 6.62502 5.77130
#
# Compressibility (1/GPa) = 0.05052410
#
# Stress axis : x y z
#
# Youngs Moduli (GPa) = 68.51892 56.64334 42.75498
#
# Poissons Ratio (x) = 0.06549 -0.02665
# Poissons Ratio (y) = 0.07922 0.08654
# Poissons Ratio (z) = -0.04271 0.11465
#
# Static dielectric constant tensor:
#      x y z
#    x 1.656090 0.053880 -0.007830 
#    y 0.053880 1.723500 -0.011690 
#    z -0.007830 -0.011690 1.742400 
# 
# From -- ./inp_files/269487.got.cif
#   From: 2010.05.17/outbox.cif.g08.bks.cpg/sg2_135_cif.got.tgz:269487.got - 2010.06.03 11:33:40.
