data_PCOD9092471
_publ_section_title
;
Structure prediction by ZEFSAII (Michael W. Deem and Ramdas Pophale) SiO2 
 PCOD9092471
Probable space group: P -1
;
_chemical_formula_sum "Si O2"
_cell_formula_units_Z 15
_cell_length_a 14.438667
_cell_length_b 7.589078
_cell_length_c 5.658281
_cell_angle_alpha 110.016163
_cell_angle_beta 81.578639
_cell_angle_gamma 119.081507
_cell_volume 508.967755
_symmetry_space_group_name_H-M "P -1"
_symmetry_group_IT_number 2
_symmetry_cell_setting 'triclinic'
loop_
_space_group_symop_operation_xyz
x,y,z
-x,-y,-z
loop_
_atom_site_type_symbol
_atom_site_label
_atom_site_fract_x
_atom_site_fract_y
_atom_site_fract_z
Si Si1 0.500000 0.500000 0.000000
Si Si2 0.897118 0.006514 0.159100
Si Si3 0.324195 0.222934 0.120136
Si Si4 0.240960 0.818015 0.308221
Si Si5 0.119829 0.298929 0.611132
Si Si6 0.951509 0.587965 0.812936
Si Si7 0.662328 0.403333 0.149538
Si Si8 0.410966 0.986604 0.700868
O O1 0.407022 0.462704 0.247639
O O2 0.407517 0.491007 0.847688
O O3 0.785334 0.839483 0.007970
O O4 0.895582 0.931457 0.396673
O O5 0.923722 0.245639 0.186629
O O6 0.000000 0.000000 0.000000
O O7 0.419406 0.200513 0.913892
O O8 0.285895 0.032551 0.234797
O O9 0.115011 0.666430 0.292510
O O10 0.297402 0.893513 0.572508
O O11 0.281437 0.658221 0.113916
O O12 0.084626 0.341830 0.389509
O O13 0.244825 0.447436 0.642734
O O14 0.075203 0.366648 0.889731
O O15 0.593145 0.173317 0.175463
O O16 0.500000 0.000000 0.500000
#
# Coordination Sequence:
#
# PCOD9092471 Si02
#       8
#     1   2   2   2   2   2   2   2
#     4  12  22  42  68 102 134 184 230 304 360 432
#     4  10  22  44  69 103 144 185 234 300 368 423
#     4  11  25  44  68 103 141 180 245 295 357 438
#     4  10  22  43  67  96 137 188 233 295 354 433
#     4  10  19  41  66 105 136 187 236 292 358 432
#     4  10  21  39  74  98 138 191 237 288 362 431
#     4  10  21  39  69  93 139 179 237 291 363 419
#     4  11  22  43  65  96 135 188 235 291 356 425
#
# _framework density 29.471416999999999
#
# number of rings (size 3 to 8) (size 9 to 14) (size 15 to 20)
#    0.000    1.600    2.667    2.000    0.000    2.667 
#    9.600    8.000    0.000    0.000    0.000    0.000 
#    0.000    0.000    0.000    0.000    0.000    0.000 
#
# Total GULP energy -83758.255593 kJ/mol
# GULP energy per Si atom -5583.883706 kJ/mol
# Density = 2.940434 g / cm^3
# Si number density = 29.471417 Si / 1000 Ang^3
#
#
#
# Elastic Constant Matrix: (Units=GPa)
#
#
# Indices 1 2 3 4 5 6 
#
# 1 155.1748 48.5444 58.4658 -21.5780 5.8097 31.0061
# 2 48.5444 212.2676 39.0066 -34.8506 7.3611 22.4341
# 3 58.4658 39.0066 123.5021 -23.3923 1.8146 -1.7860
# 4 -21.5780 -34.8506 -23.3923 47.2084 -2.2951 14.0944
# 5 5.8097 7.3611 1.8146 -2.2951 78.5655 -3.7830
# 6 31.0061 22.4341 -1.7860 14.0944 -3.7830 73.1881
#
#
#
# Elastic Compliance Matrix: (Units=1/GPa)
#
#
# Indices 1 2 3 4 5 6 
#
# 1 0.009422 -0.000366 -0.003729 0.003555 -0.000698 -0.004691
# 2 -0.000366 0.006004 -0.000886 0.004583 -0.000507 -0.002616
# 3 -0.003729 -0.000886 0.010621 0.002423 0.000264 0.001657
# 4 0.003555 0.004583 0.002423 0.029955 -0.000289 -0.008635
# 5 -0.000698 -0.000507 0.000264 -0.000289 0.012870 0.001179
# 6 -0.004691 -0.002616 0.001657 -0.008635 0.001179 0.018217
#
#
# Mechanical properties :
#
#
# Convention : Reuss Voigt Hill
#
# Bulk Modulus (GPa) = 62.16517 86.99757 74.58137
# Shear Modulus (GPa) = 48.82326 62.78759 55.80542
#
# Velocity S-wave (km/s) = 4.07459 4.62069 4.35621
# Velocity P-wave (km/s) = 6.57841 7.61913 7.11782
#
# Compressibility (1/GPa) = 0.01608618
#
# Stress axis : x y z
#
# Youngs Moduli (GPa) = 106.13949 166.56142 94.15410
#
# Poissons Ratio (x) = 0.06091 0.35108
# Poissons Ratio (y) = 0.03882 0.08337
# Poissons Ratio (z) = 0.39577 0.14749
#
# Static dielectric constant tensor:
#      x y z
#    x 2.394520 -0.157010 -0.135790 
#    y -0.157010 2.599790 0.026670 
#    z -0.135790 0.026670 2.431830 
# 
# From -- ./inp_files/88959.got.cif
#   From: 2010.05.17/outbox.cif.g08.bks.cpg/sg2_45_cif.got.tgz:88959.got - 2010.06.03 11:33:40.
