data_PCOD9092043
_publ_section_title
;
Structure prediction by ZEFSAII (Michael W. Deem and Ramdas Pophale) SiO2 
 PCOD9092043
Probable space group: P -1
;
_chemical_formula_sum "Si O2"
_cell_formula_units_Z 16
_cell_length_a 12.911356
_cell_length_b 21.456794
_cell_length_c 7.752556
_cell_angle_alpha 46.404015
_cell_angle_beta 74.853930
_cell_angle_gamma 35.325558
_cell_volume 624.557709
_symmetry_space_group_name_H-M "P -1"
_symmetry_group_IT_number 2
_symmetry_cell_setting 'triclinic'
loop_
_space_group_symop_operation_xyz
x,y,z
-x,-y,-z
loop_
_atom_site_type_symbol
_atom_site_label
_atom_site_fract_x
_atom_site_fract_y
_atom_site_fract_z
Si Si1 0.553381 0.803426 0.283176
Si Si2 0.926943 0.865121 0.709628
Si Si3 0.593694 0.009415 0.328814
Si Si4 0.955489 0.060080 0.640894
Si Si5 0.032011 0.838366 0.207828
Si Si6 0.397443 0.417661 0.301435
Si Si7 0.187432 0.576278 0.445624
Si Si8 0.104243 0.340491 0.360789
O O1 0.694032 0.612472 0.638533
O O2 0.636193 0.813766 0.364922
O O3 0.259881 0.984123 0.036583
O O4 0.611261 0.802436 0.074114
O O5 0.942777 0.956150 0.528890
O O6 0.689043 0.009952 0.422279
O O7 0.182863 0.644077 0.923562
O O8 0.963578 0.784202 0.023855
O O9 0.816850 0.799552 0.520536
O O10 0.500000 0.000000 0.500000
O O11 0.654772 0.254385 0.403257
O O12 0.094684 0.869824 0.988553
O O13 0.976059 0.108520 0.706769
O O14 0.222170 0.621207 0.495502
O O15 0.412041 0.405792 0.529550
O O16 0.090325 0.558741 0.605424
O O17 0.000000 0.500000 0.000000
#
# Coordination Sequence:
#
# PCOD9092043 Si02
#       8
#     2   2   2   2   2   2   2   2
#     4  11  22  42  63  90 124 166 205 255 311 370
#     4  10  21  40  65  93 126 163 208 253 310 369
#     4  12  25  39  67  94 123 165 208 259 312 376
#     4  10  19  40  65  91 122 169 213 247 319 361
#     4  10  21  38  64  90 125 164 204 266 304 369
#     4   9  23  37  65  88 128 166 206 255 306 367
#     4  10  23  41  61  93 131 162 207 262 309 367
#     4  12  26  42  64  92 127 167 207 258 316 371
#
# _framework density 25.618127999999999
#
# number of rings (size 3 to 8) (size 9 to 14) (size 15 to 20)
#    0.750    0.750    2.500    2.250    3.500    1.500 
#    0.000    0.000    0.000    0.000    0.000    0.000 
#    0.000    0.000    0.000    0.000    0.000    0.000 
#
# Total GULP energy -89337.925892 kJ/mol
# GULP energy per Si atom -5583.620368 kJ/mol
# Density = 2.555982 g / cm^3
# Si number density = 25.618128 Si / 1000 Ang^3
#
#
#
# Elastic Constant Matrix: (Units=GPa)
#
#
# Indices 1 2 3 4 5 6 
#
# 1 112.2774 23.4387 41.2501 19.8873 -27.7706 -13.1658
# 2 23.4387 76.8420 15.6440 18.3549 -7.5194 -4.6103
# 3 41.2501 15.6440 92.7054 30.8293 -23.7188 -22.9320
# 4 19.8873 18.3549 30.8293 39.8005 -3.2944 -13.3152
# 5 -27.7706 -7.5194 -23.7188 -3.2944 47.8467 13.0600
# 6 -13.1658 -4.6103 -22.9320 -13.3152 13.0600 39.7621
#
#
#
# Elastic Compliance Matrix: (Units=1/GPa)
#
#
# Indices 1 2 3 4 5 6 
#
# 1 0.012098 -0.001995 -0.003001 -0.002542 0.005185 -0.000510
# 2 -0.001995 0.015181 0.000638 -0.006809 0.001425 -0.001281
# 3 -0.003001 0.000638 0.018059 -0.010985 0.005456 0.004025
# 4 -0.002542 -0.006809 -0.010985 0.040069 -0.007382 0.007876
# 5 0.005185 0.001425 0.005456 -0.007382 0.028156 -0.006691
# 6 -0.000510 -0.001281 0.004025 0.007876 -0.006691 0.031989
#
#
# Mechanical properties :
#
#
# Convention : Reuss Voigt Hill
#
# Bulk Modulus (GPa) = 27.30535 49.16559 38.23547
# Shear Modulus (GPa) = 30.03427 38.91465 34.47446
#
# Velocity S-wave (km/s) = 3.42772 3.90170 3.67237
# Velocity P-wave (km/s) = 5.13298 6.28737 5.73927
#
# Compressibility (1/GPa) = 0.03662286
#
# Stress axis : x y z
#
# Youngs Moduli (GPa) = 82.65495 65.86974 55.37376
#
# Poissons Ratio (x) = 0.13144 0.16617
# Poissons Ratio (y) = 0.16493 -0.03533
# Poissons Ratio (z) = 0.24803 -0.04203
#
# Static dielectric constant tensor:
#      x y z
#    x 2.039000 0.007630 0.026030 
#    y 0.007630 2.199810 0.040260 
#    z 0.026030 0.040260 2.065060 
# 
# From -- ./inp_files/284631.got.cif
#   From: 2010.05.17/outbox.cif.g08.bks.cpg/sg2_143_cif.got.tgz:284631.got - 2010.06.03 11:33:40.
