data_PCOD9092238
_publ_section_title
;
Structure prediction by ZEFSAII (Michael W. Deem and Ramdas Pophale) SiO2 
 PCOD9092238
Probable space group: P -1
;
_chemical_formula_sum "Si O2"
_cell_formula_units_Z 14
_cell_length_a 28.899799
_cell_length_b 9.912045
_cell_length_c 11.758179
_cell_angle_alpha 139.611772
_cell_angle_beta 22.181538
_cell_angle_gamma 151.869261
_cell_volume 570.290595
_symmetry_space_group_name_H-M "P -1"
_symmetry_group_IT_number 2
_symmetry_cell_setting 'triclinic'
loop_
_space_group_symop_operation_xyz
x,y,z
-x,-y,-z
loop_
_atom_site_type_symbol
_atom_site_label
_atom_site_fract_x
_atom_site_fract_y
_atom_site_fract_z
Si Si1 0.387212 0.081931 0.565996
Si Si2 0.510921 0.261222 0.637675
Si Si3 0.138676 0.939270 0.379527
Si Si4 0.014236 0.766445 0.316369
Si Si5 0.272789 0.524778 0.379579
Si Si6 0.432206 0.158464 0.253391
Si Si7 0.834143 0.945300 0.366333
O O1 0.373780 0.813527 0.412945
O O2 0.517668 0.306794 0.514282
O O3 0.430700 0.213674 0.425140
O O4 0.195950 0.921352 0.943469
O O5 0.674126 0.587298 0.527062
O O6 0.500000 0.000000 0.500000
O O7 0.332793 0.105780 0.007843
O O8 0.149417 0.205540 0.516947
O O9 0.111533 0.856370 0.518836
O O10 0.014223 0.708144 0.412038
O O11 0.853857 0.497050 0.429798
O O12 0.000000 0.000000 0.500000
O O13 0.410629 0.570970 0.014817
O O14 0.251836 0.012032 0.507875
O O15 0.500000 0.000000 0.000000
O O16 0.000000 0.000000 0.000000
#
# Coordination Sequence:
#
# PCOD9092238 Si02
#       7
#     2   2   2   2   2   2   2
#     4  10  22  39  64  97 133 172 227 281 338 402
#     4  11  24  44  71 100 133 183 231 280 340 412
#     4  10  22  42  66  93 135 177 232 277 339 407
#     4   9  20  36  61  96 124 168 223 281 331 391
#     4  10  19  40  68  93 128 180 227 279 332 407
#     4  10  24  42  66  97 134 179 227 276 346 401
#     4  12  27  45  70 102 138 183 227 285 347 402
#
# _framework density 24.548888999999999
#
# number of rings (size 3 to 8) (size 9 to 14) (size 15 to 20)
#    0.000    1.714    1.429    1.714    8.000    1.714 
#   10.286    0.714    0.000    0.000    0.000    0.000 
#    0.000    0.000    0.000    0.000    0.000    0.000 
#
# Total GULP energy -78174.741743 kJ/mol
# GULP energy per Si atom -5583.910124 kJ/mol
# Density = 2.449301 g / cm^3
# Si number density = 24.548889 Si / 1000 Ang^3
#
#
#
# Elastic Constant Matrix: (Units=GPa)
#
#
# Indices 1 2 3 4 5 6 
#
# 1 160.3508 9.6132 51.1901 14.4803 6.3036 25.4866
# 2 9.6132 56.6756 -3.5866 19.0389 -3.6990 12.2456
# 3 51.1901 -3.5866 88.0865 15.3577 -2.9979 12.0749
# 4 14.4803 19.0389 15.3577 30.4585 13.2287 -5.6586
# 5 6.3036 -3.6990 -2.9979 13.2287 39.6062 9.6030
# 6 25.4866 12.2456 12.0749 -5.6586 9.6030 55.2477
#
#
#
# Elastic Compliance Matrix: (Units=1/GPa)
#
#
# Indices 1 2 3 4 5 6 
#
# 1 0.008218 -0.000203 -0.003959 -0.002316 -0.000101 -0.003100
# 2 -0.000203 0.041039 0.013994 -0.047975 0.026167 -0.021523
# 3 -0.003959 0.013994 0.020734 -0.025792 0.014793 -0.011020
# 4 -0.002316 -0.047975 -0.025792 0.105622 -0.050289 0.036898
# 5 -0.000101 0.026167 0.014793 -0.050289 0.051211 -0.023038
# 6 -0.003100 -0.021523 -0.011020 0.036898 -0.023038 0.034493
#
#
# Mechanical properties :
#
#
# Convention : Reuss Voigt Hill
#
# Bulk Modulus (GPa) = 11.15378 46.61624 28.88501
# Shear Modulus (GPa) = 18.41363 41.58891 30.00127
#
# Velocity S-wave (km/s) = 2.74173 4.12044 3.49965
# Velocity P-wave (km/s) = 3.81787 6.45506 5.30301
#
# Compressibility (1/GPa) = 0.08965569
#
# Stress axis : x y z
#
# Youngs Moduli (GPa) = 121.68054 24.36718 48.23035
#
# Poissons Ratio (x) = 0.00495 0.19094
# Poissons Ratio (y) = 0.02473 -0.67496
# Poissons Ratio (z) = 0.48171 -0.34101
#
# Static dielectric constant tensor:
#      x y z
#    x 2.086870 -0.089560 -0.035110 
#    y -0.089560 2.023840 0.016980 
#    z -0.035110 0.016980 1.892260 
# 
# From -- ./inp_files/244711.got.cif
#   From: 2010.05.17/outbox.cif.g08.bks.cpg/sg2_123_cif.got.tgz:244711.got - 2010.06.03 11:33:40.
