data_PCOD9092341
_publ_section_title
;
Structure prediction by ZEFSAII (Michael W. Deem and Ramdas Pophale) SiO2 
 PCOD9092341
Probable space group: P -1
;
_chemical_formula_sum "Si O2"
_cell_formula_units_Z 16
_cell_length_a 19.898737
_cell_length_b 10.173608
_cell_length_c 13.057875
_cell_angle_alpha 130.791303
_cell_angle_beta 154.415502
_cell_angle_gamma 35.533647
_cell_volume 628.238978
_symmetry_space_group_name_H-M "P -1"
_symmetry_group_IT_number 2
_symmetry_cell_setting 'triclinic'
loop_
_space_group_symop_operation_xyz
x,y,z
-x,-y,-z
loop_
_atom_site_type_symbol
_atom_site_label
_atom_site_fract_x
_atom_site_fract_y
_atom_site_fract_z
Si Si1 0.372884 0.978469 0.556484
Si Si2 0.389754 0.632572 0.523882
Si Si3 0.731580 0.904510 0.750553
Si Si4 0.783987 0.993570 0.277963
Si Si5 0.840322 0.085176 0.172400
Si Si6 0.841116 0.513416 0.931957
Si Si7 0.981806 0.466981 0.317166
Si Si8 0.350537 0.461995 0.974514
O O1 0.321601 0.880308 0.526014
O O2 0.628260 0.794832 0.793187
O O3 0.286008 0.989291 0.330521
O O4 0.235052 0.250734 0.538849
O O5 0.500000 0.500000 0.500000
O O6 0.220324 0.606783 0.280985
O O7 0.547191 0.514405 0.776020
O O8 0.500000 0.000000 0.500000
O O9 0.923037 0.616139 0.850707
O O10 0.788668 0.987939 0.963575
O O11 0.797944 0.041927 0.204165
O O12 0.537664 0.182712 0.066181
O O13 0.897741 0.723924 0.314037
O O14 0.914767 0.034298 0.545863
O O15 0.697840 0.363500 0.091803
O O16 0.883892 0.435844 0.069773
O O17 0.867326 0.466682 0.255998
#
# Coordination Sequence:
#
# PCOD9092341 Si02
#       8
#     2   2   2   2   2   2   2   2
#     4  10  23  43  70 113 149 192 231 314 383 446
#     4  10  19  40  74 107 150 186 233 304 396 431
#     4  11  26  44  72 113 142 195 248 302 377 448
#     4  11  28  52  69 105 149 213 247 304 370 432
#     4  11  27  51  76 100 152 198 256 306 362 453
#     4  10  22  43  69 107 152 187 229 314 374 445
#     4  11  25  42  75 108 149 187 255 307 367 438
#     4  12  24  45  77 112 143 198 254 310 362 452
#
# _framework density 25.468015000000001
#
# number of rings (size 3 to 8) (size 9 to 14) (size 15 to 20)
#    0.000    1.250    2.500    3.000    5.250    3.000 
#   13.500    0.000    0.000    0.000    0.000    0.000 
#    0.000    0.000    0.000    0.000    0.000    0.000 
#
# Total GULP energy -89474.427630 kJ/mol
# GULP energy per Si atom -5592.151727 kJ/mol
# Density = 2.541005 g / cm^3
# Si number density = 25.468015 Si / 1000 Ang^3
#
#
#
# Elastic Constant Matrix: (Units=GPa)
#
#
# Indices 1 2 3 4 5 6 
#
# 1 109.2034 64.2842 56.7917 -19.9017 -1.9909 3.3272
# 2 64.2842 154.7464 52.8792 -38.3859 22.0672 -17.6911
# 3 56.7917 52.8792 171.1109 3.7212 4.5570 -12.9621
# 4 -19.9017 -38.3859 3.7212 53.1581 -3.3468 7.1981
# 5 -1.9909 22.0672 4.5570 -3.3468 52.2050 -20.6711
# 6 3.3272 -17.6911 -12.9621 7.1981 -20.6711 42.9948
#
#
#
# Elastic Compliance Matrix: (Units=1/GPa)
#
#
# Indices 1 2 3 4 5 6 
#
# 1 0.014583 -0.004691 -0.003797 0.002972 0.001482 -0.003988
# 2 -0.004691 0.011255 -0.001830 0.006043 -0.003744 0.001631
# 3 -0.003797 -0.001830 0.007951 -0.003646 0.000877 0.002970
# 4 0.002972 0.006043 -0.003646 0.024957 -0.002123 -0.004042
# 5 0.001482 -0.003744 0.000877 -0.002123 0.024915 0.010943
# 6 -0.003988 0.001631 0.002970 -0.004042 0.010943 0.031072
#
#
# Mechanical properties :
#
#
# Convention : Reuss Voigt Hill
#
# Bulk Modulus (GPa) = 76.01753 86.99676 81.50715
# Shear Modulus (GPa) = 35.77779 47.07861 41.42820
#
# Velocity S-wave (km/s) = 3.75215 4.30413 4.03758
# Velocity P-wave (km/s) = 6.97743 7.67685 7.33548
#
# Compressibility (1/GPa) = 0.01315486
#
# Stress axis : x y z
#
# Youngs Moduli (GPa) = 68.57239 88.84693 125.77635
#
# Poissons Ratio (x) = 0.41676 0.47754
# Poissons Ratio (y) = 0.32166 0.23012
# Poissons Ratio (z) = 0.26035 0.16255
#
# Static dielectric constant tensor:
#      x y z
#    x 2.031260 0.007520 0.022160 
#    y 0.007520 2.069050 0.032560 
#    z 0.022160 0.032560 2.057440 
# 
# From -- ./inp_files/471218.got.cif
#   From: 2010.05.17/outbox.cif.g08.bks.cpg/sg2_236_cif.got.tgz:471218.got - 2010.06.03 11:33:40.
