data_PCOD9092017
_publ_section_title
;
Structure prediction by ZEFSAII (Michael W. Deem and Ramdas Pophale) SiO2 
 PCOD9092017
Probable space group: P -1
;
_chemical_formula_sum "Si O2"
_cell_formula_units_Z 16
_cell_length_a 16.645058
_cell_length_b 6.742050
_cell_length_c 22.443066
_cell_angle_alpha 122.544232
_cell_angle_beta 18.544901
_cell_angle_gamma 114.955533
_cell_volume 637.754286
_symmetry_space_group_name_H-M "P -1"
_symmetry_group_IT_number 2
_symmetry_cell_setting 'triclinic'
loop_
_space_group_symop_operation_xyz
x,y,z
-x,-y,-z
loop_
_atom_site_type_symbol
_atom_site_label
_atom_site_fract_x
_atom_site_fract_y
_atom_site_fract_z
Si Si1 0.003319 0.421007 0.584075
Si Si2 0.542712 0.337548 0.778706
Si Si3 0.327125 0.267889 0.049222
Si Si4 0.259039 0.373894 0.861504
Si Si5 0.247929 0.196899 0.270502
Si Si6 0.012629 0.096268 0.912834
Si Si7 0.761585 0.300720 0.406728
Si Si8 0.395186 0.179931 0.367071
O O1 0.028417 0.229776 0.482319
O O2 0.279764 0.319136 0.408479
O O3 0.781562 0.466008 0.797696
O O4 0.908819 0.691203 0.661495
O O5 0.334264 0.396673 0.880264
O O6 0.626068 0.585312 0.766560
O O7 0.710470 0.052857 0.593485
O O8 0.439302 0.294749 0.909896
O O9 0.051073 0.208263 0.220970
O O10 0.529675 0.062586 0.915646
O O11 0.518149 0.310866 0.624395
O O12 0.135596 0.158554 0.897399
O O13 0.047096 0.642324 0.038279
O O14 0.714875 0.081546 0.124941
O O15 0.203603 0.870287 0.703434
O O16 0.707790 0.594234 0.477502
#
# Coordination Sequence:
#
# PCOD9092017 Si02
#       8
#     2   2   2   2   2   2   2   2
#     4  10  22  44  66  91 127 167 208 261 312 370
#     4  12  23  41  63  93 130 166 207 257 318 371
#     4  11  22  42  64  91 132 163 207 262 310 369
#     4  10  23  37  66  98 120 168 215 253 313 377
#     4  11  23  43  67  92 126 168 211 255 317 369
#     4  10  19  42  66  88 128 164 211 261 310 369
#     4  10  19  40  65  84 129 169 202 260 310 365
#     4  10  21  39  60  89 129 160 202 263 311 359
#
# _framework density 25.088032999999999
#
# number of rings (size 3 to 8) (size 9 to 14) (size 15 to 20)
#    0.000    1.500    2.500    3.750    0.000    1.500 
#   13.500    0.625    0.000    0.000    0.000    0.000 
#    0.000    0.000    0.000    0.000    0.000    0.000 
#
# Total GULP energy -89271.215523 kJ/mol
# GULP energy per Si atom -5579.450970 kJ/mol
# Density = 2.503093 g / cm^3
# Si number density = 25.088033 Si / 1000 Ang^3
#
#
#
# Elastic Constant Matrix: (Units=GPa)
#
#
# Indices 1 2 3 4 5 6 
#
# 1 100.3127 41.5945 4.6751 2.9829 -7.3755 4.9576
# 2 41.5945 131.8523 30.5309 8.1483 -4.1159 23.8688
# 3 4.6751 30.5309 108.6109 7.4117 8.9753 -1.0196
# 4 2.9829 8.1483 7.4117 36.8371 13.3223 -4.5250
# 5 -7.3755 -4.1159 8.9753 13.3223 33.2936 9.7008
# 6 4.9576 23.8688 -1.0196 -4.5250 9.7008 40.8733
#
#
#
# Elastic Compliance Matrix: (Units=1/GPa)
#
#
# Indices 1 2 3 4 5 6 
#
# 1 0.011669 -0.003624 0.000388 -0.001119 0.002481 -0.000002
# 2 -0.003624 0.011445 -0.003296 -0.004667 0.005760 -0.008210
# 3 0.000388 -0.003296 0.010465 0.000541 -0.004297 0.003219
# 4 -0.001119 -0.004667 0.000541 0.036370 -0.018837 0.011372
# 5 0.002481 0.005760 -0.004297 -0.018837 0.044798 -0.016490
# 6 -0.000002 -0.008210 0.003219 0.011372 -0.016490 0.034513
#
#
# Mechanical properties :
#
#
# Convention : Reuss Voigt Hill
#
# Bulk Modulus (GPa) = 48.74401 54.93076 51.83738
# Shear Modulus (GPa) = 29.55712 39.79916 34.67814
#
# Velocity S-wave (km/s) = 3.43612 3.98726 3.72191
# Velocity P-wave (km/s) = 5.93413 6.56813 6.25917
#
# Compressibility (1/GPa) = 0.02051534
#
# Stress axis : x y z
#
# Youngs Moduli (GPa) = 85.69544 87.37364 95.55344
#
# Poissons Ratio (x) = 0.31665 -0.03705
# Poissons Ratio (y) = 0.31057 0.31493
# Poissons Ratio (z) = -0.03323 0.28797
#
# Static dielectric constant tensor:
#      x y z
#    x 2.044020 0.045330 -0.029850 
#    y 0.045330 2.102310 -0.102190 
#    z -0.029850 -0.102190 2.094630 
# 
# From -- ./inp_files/597219.got.cif
#   From: 2010.05.17/outbox.cif.g08.bks.cpg/sg2_299_cif.got.tgz:597219.got - 2010.06.03 11:33:40.
