data_PCOD9092328
_publ_section_title
;
Structure prediction by ZEFSAII (Michael W. Deem and Ramdas Pophale) SiO2 
 PCOD9092328
Probable space group: P -1
;
_chemical_formula_sum "Si O2"
_cell_formula_units_Z 14
_cell_length_a 13.803520
_cell_length_b 7.937881
_cell_length_c 8.623096
_cell_angle_alpha 126.933988
_cell_angle_beta 64.054284
_cell_angle_gamma 127.827177
_cell_volume 592.960808
_symmetry_space_group_name_H-M "P -1"
_symmetry_group_IT_number 2
_symmetry_cell_setting 'triclinic'
loop_
_space_group_symop_operation_xyz
x,y,z
-x,-y,-z
loop_
_atom_site_type_symbol
_atom_site_label
_atom_site_fract_x
_atom_site_fract_y
_atom_site_fract_z
Si Si1 0.775531 0.179760 0.248359
Si Si2 0.873109 0.925241 0.464742
Si Si3 0.386702 0.872673 0.387899
Si Si4 0.450541 0.107517 0.960661
Si Si5 0.950708 0.466653 0.692423
Si Si6 0.616028 0.723163 0.614613
Si Si7 0.135133 0.188309 0.948878
O O1 0.728884 0.239750 0.475744
O O2 0.917008 0.383082 0.226220
O O3 0.669418 0.111019 0.157273
O O4 0.779419 0.927134 0.127004
O O5 0.746332 0.729093 0.519723
O O6 0.870754 0.830359 0.242060
O O7 0.879364 0.184027 0.613023
O O8 0.000000 0.000000 0.500000
O O9 0.441014 0.751944 0.162414
O O10 0.500000 0.000000 0.500000
O O11 0.374415 0.064182 0.389383
O O12 0.409133 0.262157 0.179091
O O13 0.500000 0.000000 0.000000
O O14 0.000000 0.500000 0.500000
O O15 0.857854 0.568786 0.856087
O O16 0.500000 0.500000 0.500000
O O17 0.000000 0.000000 0.000000
#
# Coordination Sequence:
#
# PCOD9092328 Si02
#       7
#     2   2   2   2   2   2   2
#     4  10  19  40  72  99 138 174 233 291 343 412
#     4  12  27  45  68 108 143 177 235 293 347 420
#     4   9  18  40  66  92 123 171 230 277 328 409
#     4   9  21  39  64  94 134 179 229 279 339 411
#     4  11  22  42  71 103 135 181 226 285 354 414
#     4  11  24  46  62  93 143 181 225 282 344 408
#     4  10  21  42  68 100 140 176 229 280 348 421
#
# _framework density 23.610329
#
# number of rings (size 3 to 8) (size 9 to 14) (size 15 to 20)
#    0.000    1.714    4.286    0.000    4.000    4.000 
#   10.286    4.286    0.000    0.000    0.000    0.000 
#    0.000    0.000    0.000    0.000    0.000    0.000 
#
# Total GULP energy -78104.864313 kJ/mol
# GULP energy per Si atom -5578.918880 kJ/mol
# Density = 2.355659 g / cm^3
# Si number density = 23.610329 Si / 1000 Ang^3
#
#
#
# Elastic Constant Matrix: (Units=GPa)
#
#
# Indices 1 2 3 4 5 6 
#
# 1 138.0937 29.6743 41.7288 -8.5827 10.4802 27.4648
# 2 29.6743 65.1063 44.0739 -1.9629 -7.6161 26.8003
# 3 41.7288 44.0739 181.5714 -16.9200 -7.7110 15.1560
# 4 -8.5827 -1.9629 -16.9200 33.8833 9.2185 -6.9959
# 5 10.4802 -7.6161 -7.7110 9.2185 36.6591 -3.7528
# 6 27.4648 26.8003 15.1560 -6.9959 -3.7528 42.1708
#
#
#
# Elastic Compliance Matrix: (Units=1/GPa)
#
#
# Indices 1 2 3 4 5 6 
#
# 1 0.009396 -0.002015 -0.001308 0.001863 -0.004303 -0.004442
# 2 -0.002015 0.025679 -0.004943 -0.005657 0.004888 -0.013734
# 3 -0.001308 -0.004943 0.007160 0.003307 0.000225 0.001989
# 4 0.001863 -0.005657 0.003307 0.035092 -0.009203 0.006195
# 5 -0.004303 0.004888 0.000225 -0.009203 0.031981 0.000935
# 6 -0.004442 -0.013734 0.001989 0.006195 0.000935 0.035730
#
#
# Mechanical properties :
#
#
# Convention : Reuss Voigt Hill
#
# Bulk Modulus (GPa) = 38.90990 68.41392 53.66191
# Shear Modulus (GPa) = 29.38781 40.49560 34.94170
#
# Velocity S-wave (km/s) = 3.53186 4.14595 3.85116
# Velocity P-wave (km/s) = 5.75742 7.20817 6.52325
#
# Compressibility (1/GPa) = 0.02570040
#
# Stress axis : x y z
#
# Youngs Moduli (GPa) = 106.43074 38.94235 139.66917
#
# Poissons Ratio (x) = 0.07848 0.18275
# Poissons Ratio (y) = 0.21450 0.69042
# Poissons Ratio (z) = 0.13926 0.19250
#
# Static dielectric constant tensor:
#      x y z
#    x 2.182670 -0.019270 -0.144580 
#    y -0.019270 1.874690 0.087780 
#    z -0.144580 0.087780 1.895360 
# 
# From -- ./inp_files/296644.got.cif
#   From: 2010.05.17/outbox.cif.g08.bks.cpg/sg2_149_cif.got.tgz:296644.got - 2010.06.03 11:33:40.
