data_PCOD9092431
_publ_section_title
;
Structure prediction by ZEFSAII (Michael W. Deem and Ramdas Pophale) SiO2 
 PCOD9092431
Probable space group: P -1
;
_chemical_formula_sum "Si O2"
_cell_formula_units_Z 12
_cell_length_a 11.645971
_cell_length_b 18.229249
_cell_length_c 10.167905
_cell_angle_alpha 33.241926
_cell_angle_beta 40.015053
_cell_angle_gamma 23.913316
_cell_volume 479.647858
_symmetry_space_group_name_H-M "P -1"
_symmetry_group_IT_number 2
_symmetry_cell_setting 'triclinic'
loop_
_space_group_symop_operation_xyz
x,y,z
-x,-y,-z
loop_
_atom_site_type_symbol
_atom_site_label
_atom_site_fract_x
_atom_site_fract_y
_atom_site_fract_z
Si Si1 0.367847 0.664849 0.679675
Si Si2 0.583666 0.812050 0.542872
Si Si3 0.359067 0.215251 0.751733
Si Si4 0.017828 0.565740 0.746230
Si Si5 0.219252 0.773924 0.930418
Si Si6 0.939801 0.200682 0.521180
O O1 0.414959 0.796060 0.441296
O O2 0.190182 0.744394 0.849745
O O3 0.209914 0.713296 0.615656
O O4 0.675213 0.414492 0.799192
O O5 0.749566 0.741933 0.366947
O O6 0.502419 0.702729 0.792714
O O7 0.735734 0.765851 0.611336
O O8 0.268607 0.054012 0.435121
O O9 0.157071 0.386827 0.785400
O O10 0.500000 0.000000 0.000000
O O11 0.180835 0.610243 0.567238
O O12 0.000000 0.500000 0.000000
O O13 0.975613 0.024694 0.804034
#
# Coordination Sequence:
#
# PCOD9092431 Si02
#       6
#     2   2   2   2   2   2
#     4  10  19  41  64  96 132 165 225 259 329 385
#     4   9  21  43  65  96 131 168 226 254 326 394
#     4  11  25  43  65  96 130 179 219 270 318 396
#     4  12  24  41  68  94 137 176 215 274 330 385
#     4   8  19  35  67  95 122 173 212 269 312 394
#     4  10  21  38  67  98 127 170 208 275 325 385
#
# _framework density 25.018353999999999
#
# number of rings (size 3 to 8) (size 9 to 14) (size 15 to 20)
#    1.000    1.000    0.000    3.500    0.000    0.667 
#    9.000    0.833    0.000    0.000    0.000    0.000 
#    0.000    0.000    0.000    0.000    0.000    0.000 
#
# Total GULP energy -66989.445961 kJ/mol
# GULP energy per Si atom -5582.453830 kJ/mol
# Density = 2.496141 g / cm^3
# Si number density = 25.018354 Si / 1000 Ang^3
#
#
#
# Elastic Constant Matrix: (Units=GPa)
#
#
# Indices 1 2 3 4 5 6 
#
# 1 177.2605 25.4858 71.3094 -11.8779 46.1359 13.6799
# 2 25.4858 73.3729 48.7811 -14.9602 12.9394 18.7097
# 3 71.3094 48.7811 142.3760 -23.6864 24.7783 18.2414
# 4 -11.8779 -14.9602 -23.6864 46.6614 12.4540 -0.6327
# 5 46.1359 12.9394 24.7783 12.4540 46.4703 -8.8795
# 6 13.6799 18.7097 18.2414 -0.6327 -8.8795 33.7704
#
#
#
# Elastic Compliance Matrix: (Units=1/GPa)
#
#
# Indices 1 2 3 4 5 6 
#
# 1 0.010659 0.003635 -0.001929 0.006517 -0.014004 -0.008850
# 2 0.003635 0.023366 -0.003720 0.010009 -0.013845 -0.015862
# 3 -0.001929 -0.003720 0.011929 0.005893 -0.005955 -0.005057
# 4 0.006517 0.010009 0.005893 0.035811 -0.025313 -0.017353
# 5 -0.014004 -0.013845 -0.005955 -0.025313 0.055078 0.030568
# 6 -0.008850 -0.015862 -0.005057 -0.017353 0.030568 0.052429
#
#
# Mechanical properties :
#
#
# Convention : Reuss Voigt Hill
#
# Bulk Modulus (GPa) = 23.85053 76.01799 49.93426
# Shear Modulus (GPa) = 24.12265 41.87595 32.99930
#
# Velocity S-wave (km/s) = 3.10852 4.09566 3.63575
# Velocity P-wave (km/s) = 4.73686 7.26751 6.13411
#
# Compressibility (1/GPa) = 0.04192779
#
# Stress axis : x y z
#
# Youngs Moduli (GPa) = 93.81483 42.79657 83.83070
#
# Poissons Ratio (x) = -0.15557 0.16170
# Poissons Ratio (y) = -0.34103 0.31181
# Poissons Ratio (z) = 0.18096 0.15918
#
# Static dielectric constant tensor:
#      x y z
#    x 1.948470 0.012520 -0.016550 
#    y 0.012520 2.179150 -0.018570 
#    z -0.016550 -0.018570 1.991240 
# 
# From -- ./inp_files/278758.got.cif
#   From: 2010.05.17/outbox.cif.g08.bks.cpg/sg2_140_cif.got.tgz:278758.got - 2010.06.03 11:33:40.
