data_PCOD9092871
_publ_section_title
;
Structure prediction by ZEFSAII (Michael W. Deem and Ramdas Pophale) SiO2 
 PCOD9092871
Probable space group: P -1
;
_chemical_formula_sum "Si O2"
_cell_formula_units_Z 16
_cell_length_a 9.359375
_cell_length_b 10.260723
_cell_length_c 14.845193
_cell_angle_alpha 75.401394
_cell_angle_beta 65.006601
_cell_angle_gamma 127.098295
_cell_volume 734.799619
_symmetry_space_group_name_H-M "P -1"
_symmetry_group_IT_number 2
_symmetry_cell_setting 'triclinic'
loop_
_space_group_symop_operation_xyz
x,y,z
-x,-y,-z
loop_
_atom_site_type_symbol
_atom_site_label
_atom_site_fract_x
_atom_site_fract_y
_atom_site_fract_z
Si Si1 0.974591 0.008125 0.305449
Si Si2 0.937059 0.473523 0.125069
Si Si3 0.738285 0.763986 0.999202
Si Si4 0.574447 0.579942 0.591755
Si Si5 0.071629 0.411548 0.444122
Si Si6 0.968125 0.776944 0.101900
Si Si7 0.313181 0.111509 0.349068
Si Si8 0.123211 0.390796 0.233328
O O1 0.079372 0.109694 0.159987
O O2 0.208800 0.093729 0.283585
O O3 0.939705 0.131485 0.336246
O O4 0.705821 0.734568 0.440008
O O5 0.084032 0.708615 0.081102
O O6 0.622663 0.287624 0.246198
O O7 0.019029 0.407279 0.176649
O O8 0.000000 0.500000 0.000000
O O9 0.820542 0.706716 0.058528
O O10 0.422421 0.544861 0.105460
O O11 0.811373 0.956768 0.992007
O O12 0.261075 0.372255 0.734288
O O13 0.712932 0.777410 0.595504
O O14 0.678501 0.500547 0.596147
O O15 0.000000 0.500000 0.500000
O O16 0.125739 0.471174 0.313279
O O17 0.842140 0.137574 0.555671
#
# Coordination Sequence:
#
# PCOD9092871 Si02
#       8
#     2   2   2   2   2   2   2   2
#     4  11  20  38  72  92 116 170 222 253 311 390
#     4  11  24  39  62  93 131 166 209 267 325 375
#     4  11  23  39  67  91 124 166 221 259 312 389
#     4  10  19  43  68  86 127 170 214 259 309 380
#     4  11  22  38  64  97 126 166 210 265 325 370
#     4  10  23  44  61  88 131 173 206 263 324 367
#     4  10  20  42  64  86 130 169 207 259 315 374
#     4  12  22  40  63  96 128 163 217 267 314 383
#
# _framework density 21.774643999999999
#
# number of rings (size 3 to 8) (size 9 to 14) (size 15 to 20)
#    0.000    1.250    3.750    3.375    0.000    4.500 
#    2.250    0.000    0.000    0.000    0.000    0.000 
#    0.000    0.000    0.000    0.000    0.000    0.000 
#
# Total GULP energy -89384.520487 kJ/mol
# GULP energy per Si atom -5586.532530 kJ/mol
# Density = 2.172508 g / cm^3
# Si number density = 21.774644 Si / 1000 Ang^3
#
#
#
# Elastic Constant Matrix: (Units=GPa)
#
#
# Indices 1 2 3 4 5 6 
#
# 1 98.8048 30.1634 29.2349 2.1431 22.1004 -17.4500
# 2 30.1634 79.8199 22.2306 2.3080 1.8845 -26.8973
# 3 29.2349 22.2306 97.1303 19.9118 26.0814 -4.0837
# 4 2.1431 2.3080 19.9118 44.4425 -0.4139 -1.1272
# 5 22.1004 1.8845 26.0814 -0.4139 33.0689 2.7148
# 6 -17.4500 -26.8973 -4.0837 -1.1272 2.7148 30.0579
#
#
#
# Elastic Compliance Matrix: (Units=1/GPa)
#
#
# Indices 1 2 3 4 5 6 
#
# 1 0.014509 -0.002750 -0.000934 -0.000056 -0.009352 0.006678
# 2 -0.002750 0.019763 -0.004034 0.001328 0.002649 0.015351
# 3 -0.000934 -0.004034 0.016078 -0.007088 -0.011819 -0.001166
# 4 -0.000056 0.001328 -0.007088 0.025681 0.005822 0.000630
# 5 -0.009352 0.002649 -0.011819 0.005822 0.046443 -0.008641
# 6 0.006678 0.015351 -0.001166 0.000630 -0.008641 0.051528
#
#
# Mechanical properties :
#
#
# Convention : Reuss Voigt Hill
#
# Bulk Modulus (GPa) = 28.64179 48.77919 38.71049
# Shear Modulus (GPa) = 24.86627 34.45561 29.66094
#
# Velocity S-wave (km/s) = 3.38299 3.98222 3.69477
# Velocity P-wave (km/s) = 5.33308 6.60262 6.00151
#
# Compressibility (1/GPa) = 0.03491402
#
# Stress axis : x y z
#
# Youngs Moduli (GPa) = 68.92046 50.60055 62.19815
#
# Poissons Ratio (x) = 0.13915 0.05811
# Poissons Ratio (y) = 0.18953 0.25088
# Poissons Ratio (z) = 0.06439 0.20410
#
# Static dielectric constant tensor:
#      x y z
#    x 1.752910 0.030730 -0.000760 
#    y 0.030730 1.856900 0.036800 
#    z -0.000760 0.036800 1.843680 
# 
# From -- ./inp_files/494836.got.cif
#   From: 2010.05.17/outbox.cif.g08.bks.cpg/sg2_248_cif.got.tgz:494836.got - 2010.06.03 11:33:40.
