data_PCOD9092396
_publ_section_title
;
Structure prediction by ZEFSAII (Michael W. Deem and Ramdas Pophale) SiO2 
 PCOD9092396
Probable space group: P -1
;
_chemical_formula_sum "Si O2"
_cell_formula_units_Z 16
_cell_length_a 15.909410
_cell_length_b 11.831678
_cell_length_c 11.206320
_cell_angle_alpha 130.908208
_cell_angle_beta 124.037079
_cell_angle_gamma 25.396236
_cell_volume 680.414288
_symmetry_space_group_name_H-M "P -1"
_symmetry_group_IT_number 2
_symmetry_cell_setting 'triclinic'
loop_
_space_group_symop_operation_xyz
x,y,z
-x,-y,-z
loop_
_atom_site_type_symbol
_atom_site_label
_atom_site_fract_x
_atom_site_fract_y
_atom_site_fract_z
Si Si1 0.068392 0.395799 0.678886
Si Si2 0.256121 0.611251 0.825788
Si Si3 0.314123 0.989996 0.884584
Si Si4 0.467301 0.574171 0.235694
Si Si5 0.734271 0.713997 0.476672
Si Si6 0.594222 0.228432 0.436834
Si Si7 0.846164 0.253291 0.904923
Si Si8 0.876581 0.490256 0.949917
O O1 0.193129 0.306424 0.605109
O O2 0.082923 0.479639 0.867365
O O3 0.848659 0.652763 0.631597
O O4 0.175475 0.100715 0.583663
O O5 0.456682 0.436191 0.825735
O O6 0.204475 0.536275 0.652022
O O7 0.254326 0.561370 0.925918
O O8 0.078561 0.952279 0.904453
O O9 0.277252 0.210900 0.037307
O O10 0.418653 0.727500 0.861423
O O11 0.424948 0.851976 0.749535
O O12 0.085086 0.224324 0.863825
O O13 0.500317 0.648228 0.421928
O O14 0.244494 0.797449 0.214582
O O15 0.500000 0.000000 0.500000
O O16 0.500000 0.500000 0.500000
O O17 0.809177 0.410264 0.875224
#
# Coordination Sequence:
#
# PCOD9092396 Si02
#       8
#     2   2   2   2   2   2   2   2
#     4  10  21  40  63  88 126 161 199 256 308 360
#     4  11  23  40  58  91 125 158 201 250 304 369
#     4   9  20  37  67  84 117 164 202 255 305 352
#     4  11  21  38  63  89 123 160 199 253 305 361
#     4  11  23  38  62  93 122 163 203 248 309 372
#     4   9  19  38  65  89 117 165 204 252 312 356
#     4  11  23  38  62  90 122 162 201 249 305 366
#     4  10  19  41  63  87 124 160 203 252 304 363
#
# _framework density 23.515084999999999
#
# number of rings (size 3 to 8) (size 9 to 14) (size 15 to 20)
#    0.000    1.750    2.500    1.875    0.000    2.500 
#    0.000    0.625   35.750    0.000    0.000    0.000 
#    0.000    0.000    0.000    0.000    0.000    0.000 
#
# Total GULP energy -89108.383294 kJ/mol
# GULP energy per Si atom -5569.273956 kJ/mol
# Density = 2.346156 g / cm^3
# Si number density = 23.515085 Si / 1000 Ang^3
#
#
#
# Elastic Constant Matrix: (Units=GPa)
#
#
# Indices 1 2 3 4 5 6 
#
# 1 119.6126 19.6423 14.1161 1.0011 -7.2911 -14.9206
# 2 19.6423 99.3986 19.5437 9.9804 -0.3227 -9.4864
# 3 14.1161 19.5437 58.1024 1.7948 -5.9674 -11.1580
# 4 1.0011 9.9804 1.7948 23.9624 0.6888 2.7276
# 5 -7.2911 -0.3227 -5.9674 0.6888 24.2315 1.3626
# 6 -14.9206 -9.4864 -11.1580 2.7276 1.3626 25.8589
#
#
#
# Elastic Compliance Matrix: (Units=1/GPa)
#
#
# Indices 1 2 3 4 5 6 
#
# 1 0.009364 -0.001222 -0.000732 -0.000414 0.002377 0.004557
# 2 -0.001222 0.011653 -0.003030 -0.004869 -0.000979 0.002828
# 3 -0.000732 -0.003030 0.020255 -0.001158 0.004361 0.007098
# 4 -0.000414 -0.004869 -0.001158 0.044719 -0.001343 -0.007171
# 5 0.002377 -0.000979 0.004361 -0.001343 0.043040 0.000768
# 6 0.004557 0.002828 0.007098 -0.007171 0.000768 0.046117
#
#
# Mechanical properties :
#
#
# Convention : Reuss Voigt Hill
#
# Bulk Modulus (GPa) = 31.94458 42.63532 37.28995
# Shear Modulus (GPa) = 25.56870 29.73133 27.65002
#
# Velocity S-wave (km/s) = 3.30105 3.55963 3.43277
# Velocity P-wave (km/s) = 5.30504 5.92157 5.62176
#
# Compressibility (1/GPa) = 0.03130421
#
# Stress axis : x y z
#
# Youngs Moduli (GPa) = 106.78916 85.81178 49.37094
#
# Poissons Ratio (x) = 0.10489 0.03613
# Poissons Ratio (y) = 0.13053 0.14959
# Poissons Ratio (z) = 0.07815 0.26001
#
# Static dielectric constant tensor:
#      x y z
#    x 1.887160 -0.007190 0.017360 
#    y -0.007190 1.955370 -0.029550 
#    z 0.017360 -0.029550 1.946650 
# 
# From -- ./inp_files/451819.got.cif
#   From: 2010.05.17/outbox.cif.g08.bks.cpg/sg2_226_cif.got.tgz:451819.got - 2010.06.03 11:33:40.
