data_PCOD9092776
_publ_section_title
;
Structure prediction by ZEFSAII (Michael W. Deem and Ramdas Pophale) SiO2 
 PCOD9092776
Probable space group: P -1
;
_chemical_formula_sum "Si O2"
_cell_formula_units_Z 16
_cell_length_a 10.020817
_cell_length_b 8.113578
_cell_length_c 15.024480
_cell_angle_alpha 106.399969
_cell_angle_beta 121.424580
_cell_angle_gamma 120.109763
_cell_volume 609.675123
_symmetry_space_group_name_H-M "P -1"
_symmetry_group_IT_number 2
_symmetry_cell_setting 'triclinic'
loop_
_space_group_symop_operation_xyz
x,y,z
-x,-y,-z
loop_
_atom_site_type_symbol
_atom_site_label
_atom_site_fract_x
_atom_site_fract_y
_atom_site_fract_z
Si Si1 0.741655 0.257413 0.450418
Si Si2 0.218377 0.479744 0.036979
Si Si3 0.610251 0.281094 0.665982
Si Si4 0.301970 0.941059 0.122113
Si Si5 0.705195 0.719829 0.529504
Si Si6 0.432264 0.292925 0.065172
Si Si7 0.137210 0.301796 0.590984
Si Si8 0.959890 0.222081 0.248302
O O1 0.942661 0.559354 0.611776
O O2 0.912061 0.240054 0.487869
O O3 0.508020 0.009762 0.399757
O O4 0.587759 0.174035 0.295938
O O5 0.333222 0.602699 0.196103
O O6 0.248460 0.695757 0.036305
O O7 0.342915 0.411392 0.034605
O O8 0.912800 0.198540 0.901128
O O9 0.370270 0.163661 0.516967
O O10 0.859701 0.555430 0.737576
O O11 0.287387 0.080402 0.067080
O O12 0.500000 0.500000 0.500000
O O13 0.681203 0.577373 0.413056
O O14 0.960253 0.890945 0.696444
O O15 0.718566 0.541368 0.241405
O O16 0.333704 0.070583 0.923672
O O17 0.000000 0.000000 0.500000
#
# Coordination Sequence:
#
# PCOD9092776 Si02
#       8
#     2   2   2   2   2   2   2   2
#     4  11  24  42  68 101 142 194 238 294 360 444
#     4  10  20  39  67 105 141 181 249 308 358 423
#     4  10  19  42  68  99 141 182 240 302 356 419
#     4  10  22  39  67 102 139 187 249 304 362 432
#     4  10  22  42  71 107 137 180 244 297 354 432
#     4  12  24  42  71 105 146 196 240 307 361 435
#     4  12  24  48  78 100 145 200 244 292 371 449
#     4  11  25  39  62 109 145 182 241 299 367 419
#
# _framework density 26.243486999999998
#
# number of rings (size 3 to 8) (size 9 to 14) (size 15 to 20)
#    0.000    1.250    3.750    2.250    0.000    4.500 
#    2.250    0.625    0.000    0.000    0.000    0.000 
#    0.000    0.000    0.000    0.000    0.000    0.000 
#
# Total GULP energy -89286.429147 kJ/mol
# GULP energy per Si atom -5580.401822 kJ/mol
# Density = 2.618376 g / cm^3
# Si number density = 26.243487 Si / 1000 Ang^3
#
#
#
# Elastic Constant Matrix: (Units=GPa)
#
#
# Indices 1 2 3 4 5 6 
#
# 1 69.1078 8.5540 19.5191 4.4453 9.8336 -1.5730
# 2 8.5540 84.4321 -0.2290 7.5645 -6.0749 -0.3902
# 3 19.5191 -0.2290 143.3126 21.8113 0.7678 0.3393
# 4 4.4453 7.5645 21.8113 34.4266 -6.9712 0.7447
# 5 9.8336 -6.0749 0.7678 -6.9712 28.1304 0.0837
# 6 -1.5730 -0.3902 0.3393 0.7447 0.0837 34.4909
#
#
#
# Elastic Compliance Matrix: (Units=1/GPa)
#
#
# Indices 1 2 3 4 5 6 
#
# 1 0.016317 -0.001963 -0.001919 -0.001798 -0.006523 0.000795
# 2 -0.001963 0.012453 0.000625 -0.002317 0.002784 0.000088
# 3 -0.001919 0.000625 0.008021 -0.005108 -0.000679 -0.000047
# 4 -0.001798 -0.002317 -0.005108 0.034846 0.008906 -0.000832
# 5 -0.006523 0.002784 -0.000679 0.008906 0.040658 -0.000550
# 6 0.000795 0.000088 -0.000047 -0.000832 -0.000550 0.029050
#
#
# Mechanical properties :
#
#
# Convention : Reuss Voigt Hill
#
# Bulk Modulus (GPa) = 33.02840 39.17121 36.09981
# Shear Modulus (GPa) = 31.65537 37.34346 34.49942
#
# Velocity S-wave (km/s) = 3.47683 3.77631 3.62966
# Velocity P-wave (km/s) = 5.36009 5.82859 5.59924
#
# Compressibility (1/GPa) = 0.03027697
#
# Stress axis : x y z
#
# Youngs Moduli (GPa) = 61.28544 80.30406 124.66921
#
# Poissons Ratio (x) = 0.15763 0.23921
# Poissons Ratio (y) = 0.12030 -0.07788
# Poissons Ratio (z) = 0.11759 -0.05017
#
# Static dielectric constant tensor:
#      x y z
#    x 2.084950 0.065370 -0.007770 
#    y 0.065370 2.361120 0.018160 
#    z -0.007770 0.018160 2.076440 
# 
# From -- ./inp_files/566819.got.cif
#   From: 2010.05.17/outbox.cif.g08.bks.cpg/sg2_284_cif.got.tgz:566819.got - 2010.06.03 11:33:40.
