data_PCOD9092309
_publ_section_title
;
Structure prediction by ZEFSAII (Michael W. Deem and Ramdas Pophale) SiO2 
 PCOD9092309
Probable space group: P -1
;
_chemical_formula_sum "Si O2"
_cell_formula_units_Z 15
_cell_length_a 16.404021
_cell_length_b 9.024938
_cell_length_c 10.487361
_cell_angle_alpha 43.186686
_cell_angle_beta 145.466463
_cell_angle_gamma 128.100147
_cell_volume 601.819903
_symmetry_space_group_name_H-M "P -1"
_symmetry_group_IT_number 2
_symmetry_cell_setting 'triclinic'
loop_
_space_group_symop_operation_xyz
x,y,z
-x,-y,-z
loop_
_atom_site_type_symbol
_atom_site_label
_atom_site_fract_x
_atom_site_fract_y
_atom_site_fract_z
Si Si1 0.473332 0.469580 0.279167
Si Si2 0.500000 0.000000 0.500000
Si Si3 0.186007 0.524401 0.268177
Si Si4 0.802479 0.412836 0.043703
Si Si5 0.953074 0.244918 0.807637
Si Si6 0.846871 0.956031 0.396531
Si Si7 0.336875 0.658403 0.740719
Si Si8 0.633437 0.839230 0.969830
O O1 0.445720 0.223556 0.358126
O O2 0.642505 0.493948 0.488919
O O3 0.363255 0.522872 0.214594
O O4 0.417475 0.628316 0.996360
O O5 0.340592 0.990956 0.215191
O O6 0.153314 0.611754 0.031053
O O7 0.115444 0.656397 0.210748
O O8 0.142228 0.266257 0.374577
O O9 0.817662 0.185463 0.278093
O O10 0.905625 0.595456 0.127879
O O11 0.821771 0.267974 0.525316
O O12 0.000000 0.000000 0.000000
O O13 0.000000 0.000000 0.500000
O O14 0.713679 0.922298 0.146208
O O15 0.455744 0.819507 0.720619
O O16 0.330231 0.411314 0.835793
#
# Coordination Sequence:
#
# PCOD9092309 Si02
#       8
#     2   1   2   2   2   2   2   2
#     4  11  25  46  75 115 146 198 262 316 384 459
#     4  10  22  38  74 106 150 190 244 322 374 436
#     4  12  25  53  79 108 160 206 248 326 390 462
#     4  12  29  48  73 120 153 202 264 309 388 473
#     4  12  27  48  78 113 155 202 259 320 393 454
#     4  12  24  46  77 107 153 205 254 308 388 464
#     4  10  20  43  71 103 147 191 252 311 376 447
#     4  10  19  40  71 106 138 193 251 303 379 447
#
# _framework density 24.924399999999999
#
# number of rings (size 3 to 8) (size 9 to 14) (size 15 to 20)
#    0.000    0.800    4.000    3.200    3.733    2.133 
#    0.000    0.000    0.000    0.000    0.000    0.000 
#    0.000    0.000    0.000    0.000    0.000    0.000 
#
# Total GULP energy -83552.489441 kJ/mol
# GULP energy per Si atom -5570.165963 kJ/mol
# Density = 2.486767 g / cm^3
# Si number density = 24.924400 Si / 1000 Ang^3
#
#
#
# Elastic Constant Matrix: (Units=GPa)
#
#
# Indices 1 2 3 4 5 6 
#
# 1 77.1808 39.7641 44.9365 -19.0910 11.2814 -9.3440
# 2 39.7641 131.2099 62.6350 -14.1158 19.3678 13.7038
# 3 44.9365 62.6350 185.0824 -0.9447 26.2508 1.0077
# 4 -19.0910 -14.1158 -0.9447 51.6689 -3.3535 -0.6595
# 5 11.2814 19.3678 26.2508 -3.3535 48.8023 6.0259
# 6 -9.3440 13.7038 1.0077 -0.6595 6.0259 27.0824
#
#
#
# Elastic Compliance Matrix: (Units=1/GPa)
#
#
# Indices 1 2 3 4 5 6 
#
# 1 0.020205 -0.004783 -0.003032 0.006105 -0.001968 0.010091
# 2 -0.004783 0.011248 -0.002445 0.001100 -0.001106 -0.006978
# 3 -0.003032 -0.002445 0.007300 -0.001807 -0.002431 0.000416
# 4 0.006105 0.001100 -0.001807 0.021928 0.000376 0.002067
# 5 -0.001968 -0.001106 -0.002431 0.000376 0.023363 -0.005218
# 6 0.010091 -0.006978 0.000416 0.002067 -0.005218 0.045133
#
#
# Mechanical properties :
#
#
# Convention : Reuss Voigt Hill
#
# Bulk Modulus (GPa) = 54.84074 76.46049 65.65061
# Shear Modulus (GPa) = 32.09792 41.91988 37.00890
#
# Velocity S-wave (km/s) = 3.59250 4.10552 3.85755
# Velocity P-wave (km/s) = 6.26568 7.29502 6.79985
#
# Compressibility (1/GPa) = 0.01823462
#
# Stress axis : x y z
#
# Youngs Moduli (GPa) = 49.49234 88.90177 136.99016
#
# Poissons Ratio (x) = 0.42519 0.41531
# Poissons Ratio (y) = 0.23671 0.33493
# Poissons Ratio (z) = 0.15005 0.21736
#
# Static dielectric constant tensor:
#      x y z
#    x 1.129710 -0.463840 0.571300 
#    y -0.463840 1.778220 0.268570 
#    z 0.571300 0.268570 1.690120 
# 
# From -- ./inp_files/461844.got.cif
#   From: 2010.05.17/outbox.cif.g08.bks.cpg/sg2_231_cif.got.tgz:461844.got - 2010.06.03 11:33:40.
