data_PCOD9092408
_publ_section_title
;
Structure prediction by ZEFSAII (Michael W. Deem and Ramdas Pophale) SiO2 
 PCOD9092408
Probable space group: P -1
;
_chemical_formula_sum "Si O2"
_cell_formula_units_Z 12
_cell_length_a 7.174028
_cell_length_b 8.226257
_cell_length_c 10.590068
_cell_angle_alpha 109.910411
_cell_angle_beta 62.026302
_cell_angle_gamma 124.987014
_cell_volume 449.989150
_symmetry_space_group_name_H-M "P -1"
_symmetry_group_IT_number 2
_symmetry_cell_setting 'triclinic'
loop_
_space_group_symop_operation_xyz
x,y,z
-x,-y,-z
loop_
_atom_site_type_symbol
_atom_site_label
_atom_site_fract_x
_atom_site_fract_y
_atom_site_fract_z
Si Si1 0.756576 0.592796 0.054401
Si Si2 0.372900 0.161691 0.727736
Si Si3 0.172366 0.352989 0.223705
Si Si4 0.308493 0.734945 0.579273
Si Si5 0.626401 0.169499 0.900909
Si Si6 0.220310 0.090158 0.356802
O O1 0.817907 0.757132 0.187591
O O2 0.460668 0.496671 0.141314
O O3 0.899446 0.716029 0.917311
O O4 0.762569 0.386113 0.981580
O O5 0.592883 0.289044 0.593065
O O6 0.432904 0.155451 0.854642
O O7 0.299060 0.941467 0.643119
O O8 0.972388 0.417889 0.340323
O O9 0.481577 0.232848 0.379740
O O10 0.815177 0.786785 0.710251
O O11 0.771971 0.099568 0.748126
O O12 0.500000 0.000000 0.000000
O O13 0.000000 0.000000 0.500000
#
# Coordination Sequence:
#
# PCOD9092408 Si02
#       6
#     2   2   2   2   2   2
#     4  11  22  41  68 100 131 181 215 276 335 380
#     4  10  19  41  63  93 139 165 222 271 329 389
#     4  11  21  44  70  96 133 175 219 270 333 383
#     4  10  24  40  70 102 127 179 218 265 331 403
#     4  11  19  39  68  95 127 176 229 261 328 396
#     4  11  23  43  71  97 130 175 223 269 327 399
#
# _framework density 26.667307999999998
#
# number of rings (size 3 to 8) (size 9 to 14) (size 15 to 20)
#    0.000    1.333    5.000    3.000    0.000    1.333 
#    3.000    4.167    3.667    0.000    0.000    0.000 
#    0.000    0.000    0.000    0.000    0.000    0.000 
#
# Total GULP energy -66891.840438 kJ/mol
# GULP energy per Si atom -5574.320036 kJ/mol
# Density = 2.660661 g / cm^3
# Si number density = 26.667308 Si / 1000 Ang^3
#
#
#
# Elastic Constant Matrix: (Units=GPa)
#
#
# Indices 1 2 3 4 5 6 
#
# 1 118.9680 43.2127 22.1006 -15.2876 -1.3919 8.5923
# 2 43.2127 110.4513 72.7789 -0.6198 15.3472 -26.3423
# 3 22.1006 72.7789 219.7329 7.9172 -4.4053 -28.4246
# 4 -15.2876 -0.6198 7.9172 43.8137 3.3476 1.9599
# 5 -1.3919 15.3472 -4.4053 3.3476 18.2638 4.1853
# 6 8.5923 -26.3423 -28.4246 1.9599 4.1853 33.2248
#
#
#
# Elastic Compliance Matrix: (Units=1/GPa)
#
#
# Indices 1 2 3 4 5 6 
#
# 1 0.013833 -0.010630 0.000493 0.004239 0.012398 -0.013396
# 2 -0.010630 0.026028 -0.005152 -0.001217 -0.028901 0.022690
# 3 0.000493 -0.005152 0.006470 -0.001563 0.006065 0.000651
# 4 0.004239 -0.001217 -0.001563 0.024968 -0.002566 -0.004548
# 5 0.012398 -0.028901 0.006065 -0.002566 0.089255 -0.032024
# 6 -0.013396 0.022690 0.000651 -0.004548 -0.032024 0.056412
#
#
# Mechanical properties :
#
#
# Convention : Reuss Voigt Hill
#
# Bulk Modulus (GPa) = 63.48769 80.59295 72.04032
# Shear Modulus (GPa) = 19.77888 39.79782 29.78835
#
# Velocity S-wave (km/s) = 2.72635 3.86733 3.34584
# Velocity P-wave (km/s) = 5.81117 7.08723 6.48068
#
# Compressibility (1/GPa) = 0.01575109
#
# Stress axis : x y z
#
# Youngs Moduli (GPa) = 72.29289 38.42012 154.55886
#
# Poissons Ratio (x) = 0.40842 -0.07613
# Poissons Ratio (y) = 0.76849 0.79630
# Poissons Ratio (z) = -0.03561 0.19794
#
# Static dielectric constant tensor:
#      x y z
#    x 1.388840 -0.552370 -0.461110 
#    y -0.552370 1.825610 -0.278580 
#    z -0.461110 -0.278580 1.871670 
# 
# From -- ./inp_files/162260.got.cif
#   From: 2010.05.17/outbox.cif.g08.bks.cpg/sg2_82_cif.got.tgz:162260.got - 2010.06.03 11:33:40.
