data_PCOD9092525
_publ_section_title
;
Structure prediction by ZEFSAII (Michael W. Deem and Ramdas Pophale) SiO2 
 PCOD9092525
Probable space group: P -1
;
_chemical_formula_sum "Si O2"
_cell_formula_units_Z 16
_cell_length_a 11.572763
_cell_length_b 7.374781
_cell_length_c 11.995444
_cell_angle_alpha 64.354383
_cell_angle_beta 44.484638
_cell_angle_gamma 76.465623
_cell_volume 642.160649
_symmetry_space_group_name_H-M "P -1"
_symmetry_group_IT_number 2
_symmetry_cell_setting 'triclinic'
loop_
_space_group_symop_operation_xyz
x,y,z
-x,-y,-z
loop_
_atom_site_type_symbol
_atom_site_label
_atom_site_fract_x
_atom_site_fract_y
_atom_site_fract_z
Si Si1 0.225011 0.170414 0.546262
Si Si2 0.140023 0.882020 0.269807
Si Si3 0.073331 0.512331 0.820428
Si Si4 0.809169 0.909200 0.166236
Si Si5 0.733951 0.347765 0.551081
Si Si6 0.577174 0.755133 0.809081
Si Si7 0.769603 0.466877 0.869403
Si Si8 0.401497 0.093141 0.897685
O O1 0.244905 0.062380 0.678560
O O2 0.228550 0.414869 0.501665
O O3 0.368328 0.138169 0.371157
O O4 0.048176 0.094699 0.634461
O O5 0.173953 0.796571 0.391212
O O6 0.184885 0.701220 0.204920
O O7 0.254827 0.081865 0.091843
O O8 0.183157 0.326978 0.795185
O O9 0.196602 0.670561 0.618092
O O10 0.910026 0.482892 0.861653
O O11 0.000000 0.500000 0.000000
O O12 0.695458 0.978420 0.130062
O O13 0.000000 0.000000 0.000000
O O14 0.537618 0.281386 0.726668
O O15 0.738544 0.661898 0.766602
O O16 0.511286 0.912562 0.896992
O O17 0.417809 0.591894 0.940418
#
# Coordination Sequence:
#
# PCOD9092525 Si02
#       8
#     2   2   2   2   2   2   2   2
#     4  11  21  38  73  92 122 180 227 263 310 397
#     4  11  19  43  72  92 128 179 224 263 319 398
#     4  11  25  43  67  94 134 173 216 272 333 382
#     4  11  22  44  66  90 127 181 221 252 321 404
#     4  11  23  40  66 101 129 169 221 275 324 384
#     4  10  22  37  65 100 126 165 219 272 318 378
#     4  10  19  41  67  94 125 168 224 264 313 388
#     4  11  25  41  61 100 145 165 207 276 338 381
#
# _framework density 24.915883000000001
#
# number of rings (size 3 to 8) (size 9 to 14) (size 15 to 20)
#    0.000    1.250    5.000    2.250    0.000    5.500 
#    2.250    1.250    0.000    0.000    0.000    0.000 
#    0.000    0.000    0.000    0.000    0.000    0.000 
#
# Total GULP energy -89415.708715 kJ/mol
# GULP energy per Si atom -5588.481795 kJ/mol
# Density = 2.485917 g / cm^3
# Si number density = 24.915883 Si / 1000 Ang^3
#
#
#
# Elastic Constant Matrix: (Units=GPa)
#
#
# Indices 1 2 3 4 5 6 
#
# 1 105.6309 -1.5524 31.9734 -12.3657 -0.9710 -1.6703
# 2 -1.5524 42.3458 10.8810 6.3804 1.2056 -7.3114
# 3 31.9734 10.8810 177.4190 -4.6809 2.8837 21.1227
# 4 -12.3657 6.3804 -4.6809 34.7089 1.8297 0.7088
# 5 -0.9710 1.2056 2.8837 1.8297 47.8745 0.1226
# 6 -1.6703 -7.3114 21.1227 0.7088 0.1226 26.9768
#
#
#
# Elastic Compliance Matrix: (Units=1/GPa)
#
#
# Indices 1 2 3 4 5 6 
#
# 1 0.010559 0.000884 -0.002173 0.003245 0.000192 0.002509
# 2 0.000884 0.026972 -0.003133 -0.005253 -0.000297 0.009957
# 3 -0.002173 -0.003133 0.007025 0.000903 -0.000406 -0.006506
# 4 0.003245 -0.005253 0.000903 0.031165 -0.001040 -0.002744
# 5 0.000192 -0.000297 -0.000406 -0.001040 0.020963 0.000181
# 6 0.002509 0.009957 -0.006506 -0.002744 0.000181 0.045088
#
#
# Mechanical properties :
#
#
# Convention : Reuss Voigt Hill
#
# Bulk Modulus (GPa) = 28.00137 45.33331 36.66734
# Shear Modulus (GPa) = 30.76533 40.85162 35.80848
#
# Velocity S-wave (km/s) = 3.51774 4.05357 3.79512
# Velocity P-wave (km/s) = 5.26897 6.33582 5.82686
#
# Compressibility (1/GPa) = 0.03571254
#
# Stress axis : x y z
#
# Youngs Moduli (GPa) = 94.70521 37.07592 142.34449
#
# Poissons Ratio (x) = -0.03279 0.30937
# Poissons Ratio (y) = -0.08376 0.44593
# Poissons Ratio (z) = 0.20583 0.11615
#
# Static dielectric constant tensor:
#      x y z
#    x 1.985700 0.160210 0.061660 
#    y 0.160210 2.279630 -0.010890 
#    z 0.061660 -0.010890 2.079430 
# 
# From -- ./inp_files/419112.got.cif
#   From: 2010.05.17/outbox.cif.g08.bks.cpg/sg2_210_cif.got.tgz:419112.got - 2010.06.03 11:33:40.
