data_PCOD9092286
_publ_section_title
;
Structure prediction by ZEFSAII (Michael W. Deem and Ramdas Pophale) SiO2 
 PCOD9092286
Probable space group: P -1
;
_chemical_formula_sum "Si O2"
_cell_formula_units_Z 14
_cell_length_a 8.274850
_cell_length_b 7.415006
_cell_length_c 9.503228
_cell_angle_alpha 76.135315
_cell_angle_beta 102.761927
_cell_angle_gamma 105.371712
_cell_volume 538.089724
_symmetry_space_group_name_H-M "P -1"
_symmetry_group_IT_number 2
_symmetry_cell_setting 'triclinic'
loop_
_space_group_symop_operation_xyz
x,y,z
-x,-y,-z
loop_
_atom_site_type_symbol
_atom_site_label
_atom_site_fract_x
_atom_site_fract_y
_atom_site_fract_z
Si Si1 0.909044 0.105378 0.226510
Si Si2 0.682510 0.616082 0.957612
Si Si3 0.321509 0.958017 0.053479
Si Si4 0.489343 0.682623 0.657463
Si Si5 0.162213 0.844420 0.317078
Si Si6 0.875939 0.486891 0.266761
Si Si7 0.360198 0.040996 0.591319
O O1 0.940259 0.291980 0.294467
O O2 0.770043 0.946834 0.313728
O O3 0.819370 0.150453 0.060543
O O4 0.061488 0.009989 0.237462
O O5 0.639450 0.613485 0.782420
O O6 0.711215 0.833709 0.968620
O O7 0.500000 0.500000 0.000000
O O8 0.823333 0.542915 0.088492
O O9 0.288640 0.837893 0.212807
O O10 0.500000 0.000000 0.000000
O O11 0.302538 0.549885 0.672707
O O12 0.464793 0.882500 0.688812
O O13 0.546968 0.759200 0.498055
O O14 0.257125 0.920307 0.464415
O O15 0.022782 0.648448 0.331339
#
# Coordination Sequence:
#
# PCOD9092286 Si02
#       7
#     2   2   2   2   2   2   2
#     4  11  25  44  69 104 140 182 232 278 350 414
#     4  10  19  40  69  98 138 175 228 288 335 397
#     4  12  24  42  68 103 135 178 237 283 341 411
#     4   9  19  38  69  98 133 185 225 280 337 403
#     4  12  25  45  70 102 143 184 223 288 353 407
#     4  10  23  43  69 104 140 178 231 289 343 405
#     4  10  21  41  71  98 140 187 230 275 345 416
#
# _framework density 26.017966999999999
#
# number of rings (size 3 to 8) (size 9 to 14) (size 15 to 20)
#    0.000    1.429    2.857    3.429    2.000    2.857 
#    2.571    0.714    0.000    0.000    0.000    0.000 
#    0.000    0.000    0.000    0.000    0.000    0.000 
#
# Total GULP energy -78262.988838 kJ/mol
# GULP energy per Si atom -5590.213488 kJ/mol
# Density = 2.595875 g / cm^3
# Si number density = 26.017967 Si / 1000 Ang^3
#
#
#
# Elastic Constant Matrix: (Units=GPa)
#
#
# Indices 1 2 3 4 5 6 
#
# 1 65.5425 12.1026 22.2003 -10.7632 -16.7615 10.1187
# 2 12.1026 122.9423 3.4171 -5.4686 -8.4406 24.7487
# 3 22.2003 3.4171 123.6801 -11.9984 -7.1886 13.8008
# 4 -10.7632 -5.4686 -11.9984 34.7508 11.0148 3.1316
# 5 -16.7615 -8.4406 -7.1886 11.0148 43.0233 -3.3274
# 6 10.1187 24.7487 13.8008 3.1316 -3.3274 42.2014
#
#
#
# Elastic Compliance Matrix: (Units=1/GPa)
#
#
# Indices 1 2 3 4 5 6 
#
# 1 0.018641 -0.000595 -0.002321 0.003373 0.005649 -0.003166
# 2 -0.000595 0.009458 0.000705 0.001795 0.000841 -0.005701
# 3 -0.002321 0.000705 0.009090 0.002876 -0.000220 -0.003060
# 4 0.003373 0.001795 0.002876 0.033834 -0.006969 -0.005862
# 5 0.005649 0.000841 -0.000220 -0.006969 0.027426 0.000904
# 6 -0.003166 -0.005701 -0.003060 -0.005862 0.000904 0.029306
#
#
# Mechanical properties :
#
#
# Convention : Reuss Voigt Hill
#
# Bulk Modulus (GPa) = 30.51871 43.06723 36.79297
# Shear Modulus (GPa) = 34.94081 42.29142 38.61612
#
# Velocity S-wave (km/s) = 3.66860 4.03609 3.85672
# Velocity P-wave (km/s) = 5.44979 6.18941 5.83134
#
# Compressibility (1/GPa) = 0.03276679
#
# Stress axis : x y z
#
# Youngs Moduli (GPa) = 53.64603 105.72892 110.00889
#
# Poissons Ratio (x) = 0.06293 0.25529
# Poissons Ratio (y) = 0.03193 -0.07752
# Poissons Ratio (z) = 0.12449 -0.07450
#
# Static dielectric constant tensor:
#      x y z
#    x 2.115110 0.061240 0.019750 
#    y 0.061240 2.011850 -0.048900 
#    z 0.019750 -0.048900 2.116070 
# 
# From -- ./inp_files/157512.got.cif
#   From: 2010.05.17/outbox.cif.g08.bks.cpg/sg2_79_cif.got.tgz:157512.got - 2010.06.03 11:33:40.
