data_PCOD9092991
_publ_section_title
;
Structure prediction by ZEFSAII (Michael W. Deem and Ramdas Pophale) SiO2 
 PCOD9092991
Probable space group: P -1
;
_chemical_formula_sum "Si O2"
_cell_formula_units_Z 16
_cell_length_a 14.061297
_cell_length_b 14.739832
_cell_length_c 14.443517
_cell_angle_alpha 52.066141
_cell_angle_beta 160.148473
_cell_angle_gamma 127.407726
_cell_volume 796.991588
_symmetry_space_group_name_H-M "P -1"
_symmetry_group_IT_number 2
_symmetry_cell_setting 'triclinic'
loop_
_space_group_symop_operation_xyz
x,y,z
-x,-y,-z
loop_
_atom_site_type_symbol
_atom_site_label
_atom_site_fract_x
_atom_site_fract_y
_atom_site_fract_z
Si Si1 0.738428 0.846893 0.854656
Si Si2 0.195288 0.735901 0.131449
Si Si3 0.203038 0.625541 0.698393
Si Si4 0.650883 0.077992 0.703464
Si Si5 0.790192 0.647381 0.160215
Si Si6 0.818996 0.353959 0.022967
Si Si7 0.370951 0.409151 0.283989
Si Si8 0.734155 0.613421 0.429331
O O1 0.590981 0.866260 0.609360
O O2 0.610223 0.939455 0.747232
O O3 0.725604 0.721504 0.966106
O O4 0.068649 0.885256 0.121783
O O5 0.284449 0.861839 0.176702
O O6 0.157149 0.726760 0.992358
O O7 0.443137 0.661464 0.436173
O O8 0.904611 0.672768 0.948392
O O9 0.200855 0.486761 0.772217
O O10 0.081516 0.679648 0.460414
O O11 0.978446 0.644669 0.559632
O O12 0.533367 0.663741 0.985334
O O13 0.748632 0.481134 0.845581
O O14 0.540395 0.317929 0.853622
O O15 0.097364 0.374081 0.327058
O O16 0.586099 0.480443 0.363886
#
# Coordination Sequence:
#
# PCOD9092991 Si02
#       8
#     2   2   2   2   2   2   2   2
#     4  10  21  41  56  77 107 140 177 222 277 303
#     4  12  20  32  48  77 105 139 182 212 254 309
#     4  10  21  36  52  85 104 133 184 216 265 327
#     4  10  23  36  56  81 106 138 185 219 253 332
#     4  10  21  36  58  76 107 136 172 233 265 312
#     4  10  20  31  47  72 107 149 169 211 255 319
#     4  10  20  30  46  72 106 146 170 210 254 311
#     4  10  20  32  49  72 108 142 169 211 257 321
#
# _framework density 20.075493999999999
#
# number of rings (size 3 to 8) (size 9 to 14) (size 15 to 20)
#    0.750    1.000    1.250    3.750    1.750    1.000 
#    4.500    0.000    0.000    0.000    0.000    5.250 
#    0.000    0.000    0.000    0.000    0.000    0.000 
#
# Total GULP energy -89139.362871 kJ/mol
# GULP energy per Si atom -5571.210179 kJ/mol
# Density = 2.002980 g / cm^3
# Si number density = 20.075494 Si / 1000 Ang^3
#
#
#
# Elastic Constant Matrix: (Units=GPa)
#
#
# Indices 1 2 3 4 5 6 
#
# 1 42.2636 14.2058 -2.2945 -2.2016 6.5453 -9.0800
# 2 14.2058 37.2832 25.9309 2.3215 -6.9673 -18.2446
# 3 -2.2945 25.9309 106.9948 6.2399 -2.5781 1.9759
# 4 -2.2016 2.3215 6.2399 24.7111 0.1015 -4.8966
# 5 6.5453 -6.9673 -2.5781 0.1015 26.9322 4.2270
# 6 -9.0800 -18.2446 1.9759 -4.8966 4.2270 24.2726
#
#
#
# Elastic Compliance Matrix: (Units=1/GPa)
#
#
# Indices 1 2 3 4 5 6 
#
# 1 0.031930 -0.016521 0.004141 0.003805 -0.011972 0.002042
# 2 -0.016521 0.071795 -0.018676 0.005999 0.013211 0.048215
# 3 0.004141 -0.018676 0.014421 -0.004312 -0.002221 -0.014146
# 4 0.003805 0.005999 -0.004312 0.044447 -0.002412 0.015670
# 5 -0.011972 0.013211 -0.002221 -0.002412 0.043639 -0.002454
# 6 0.002042 0.048215 -0.014146 0.015670 -0.002454 0.082943
#
#
# Mechanical properties :
#
#
# Convention : Reuss Voigt Hill
#
# Bulk Modulus (GPa) = 17.84675 29.13624 23.49150
# Shear Modulus (GPa) = 13.51477 25.09650 19.30564
#
# Velocity S-wave (km/s) = 2.59742 3.53952 3.10442
# Velocity P-wave (km/s) = 4.23138 5.59009 4.95750
#
# Compressibility (1/GPa) = 0.05603260
#
# Stress axis : x y z
#
# Youngs Moduli (GPa) = 31.31864 13.92852 69.34546
#
# Poissons Ratio (x) = 0.23011 -0.28713
# Poissons Ratio (y) = 0.51741 1.29511
# Poissons Ratio (z) = -0.12968 0.26013
#
# Static dielectric constant tensor:
#      x y z
#    x 1.782560 -0.014580 0.016460 
#    y -0.014580 1.737170 0.011880 
#    z 0.016460 0.011880 1.708230 
# 
# From -- ./inp_files/533751.got.cif
#   From: 2010.05.17/outbox.cif.g08.bks.cpg/sg2_267_cif.got.tgz:533751.got - 2010.06.03 11:33:40.
