data_PCOD9092375
_publ_section_title
;
Structure prediction by ZEFSAII (Michael W. Deem and Ramdas Pophale) SiO2 
 PCOD9092375
Probable space group: P -1
;
_chemical_formula_sum "Si O2"
_cell_formula_units_Z 16
_cell_length_a 12.028733
_cell_length_b 6.132462
_cell_length_c 25.515843
_cell_angle_alpha 91.852323
_cell_angle_beta 149.865164
_cell_angle_gamma 87.414416
_cell_volume 943.885012
_symmetry_space_group_name_H-M "P -1"
_symmetry_group_IT_number 2
_symmetry_cell_setting 'triclinic'
loop_
_space_group_symop_operation_xyz
x,y,z
-x,-y,-z
loop_
_atom_site_type_symbol
_atom_site_label
_atom_site_fract_x
_atom_site_fract_y
_atom_site_fract_z
Si Si1 0.428167 0.330249 0.341624
Si Si2 0.636739 0.276338 0.601180
Si Si3 0.950413 0.332283 0.635972
Si Si4 0.955296 0.927175 0.788869
Si Si5 0.754325 0.951745 0.517075
Si Si6 0.167624 0.450836 0.521430
Si Si7 0.352100 0.196220 0.966546
Si Si8 0.753764 0.431608 0.160328
O O1 0.367220 0.518966 0.359985
O O2 0.202102 0.208103 0.237988
O O3 0.590357 0.450316 0.368506
O O4 0.586898 0.142079 0.429945
O O5 0.390378 0.181654 0.501322
O O6 0.735926 0.346127 0.587018
O O7 0.803366 0.090887 0.692394
O O8 0.137396 0.452969 0.744964
O O9 0.919288 0.441670 0.567692
O O10 0.962374 0.071231 0.627606
O O11 0.085189 0.753418 0.802482
O O12 0.129804 0.076809 0.891057
O O13 0.807394 0.800149 0.487850
O O14 0.000000 0.500000 0.500000
O O15 0.285085 0.376103 0.896758
O O16 0.518469 0.320202 0.073576
O O17 0.500000 0.000000 0.000000
#
# Coordination Sequence:
#
# PCOD9092375 Si02
#       8
#     2   2   2   2   2   2   2   2
#     4   9  18  32  49  71  97 127 166 197 239 292
#     4  10  18  30  45  74 101 127 160 196 241 288
#     4  11  20  30  49  70  98 131 166 198 235 294
#     4  10  16  29  48  69 103 133 159 192 236 290
#     4   9  21  31  49  67  95 128 160 202 247 285
#     4  10  23  38  48  66  95 130 171 211 242 276
#     4   9  18  29  45  66 104 136 156 191 234 290
#     4  10  19  30  44  72 102 133 164 189 234 294
#
# _framework density 16.951218000000001
#
# number of rings (size 3 to 8) (size 9 to 14) (size 15 to 20)
#    0.000    2.250    2.500    0.375    1.750    6.500 
#    0.000    0.000    0.000    0.000    0.000    0.875 
#    0.000   27.000    0.000    8.000    0.000    1.250 
#
# Total GULP energy -89072.947153 kJ/mol
# GULP energy per Si atom -5567.059197 kJ/mol
# Density = 1.691264 g / cm^3
# Si number density = 16.951218 Si / 1000 Ang^3
#
#
#
# Elastic Constant Matrix: (Units=GPa)
#
#
# Indices 1 2 3 4 5 6 
#
# 1 85.4939 35.2279 25.6235 3.0550 14.9055 -8.9146
# 2 35.2279 118.2167 46.9414 14.4338 9.7153 -7.8346
# 3 25.6235 46.9414 91.8555 36.7001 12.6972 -1.4145
# 4 3.0550 14.4338 36.7001 50.1856 8.4192 6.3692
# 5 14.9055 9.7153 12.6972 8.4192 15.1584 0.9182
# 6 -8.9146 -7.8346 -1.4145 6.3692 0.9182 10.1992
#
#
#
# Elastic Compliance Matrix: (Units=1/GPa)
#
#
# Indices 1 2 3 4 5 6 
#
# 1 0.017360 -0.002453 -0.002066 0.002141 -0.015750 0.013084
# 2 -0.002453 0.011704 -0.004947 -0.000207 -0.001218 0.006399
# 3 -0.002066 -0.004947 0.019883 -0.012935 -0.004610 0.005644
# 4 0.002141 -0.000207 -0.012935 0.033275 -0.008403 -0.020104
# 5 -0.015750 -0.001218 -0.004610 -0.008403 0.091879 -0.018365
# 6 0.013084 0.006399 0.005644 -0.020104 -0.018365 0.129389
#
#
# Mechanical properties :
#
#
# Convention : Reuss Voigt Hill
#
# Bulk Modulus (GPa) = 33.31696 56.79462 45.05579
# Shear Modulus (GPa) = 15.04081 27.62685 21.33383
#
# Velocity S-wave (km/s) = 2.98199 4.04144 3.55144
# Velocity P-wave (km/s) = 5.61726 7.44010 6.59199
#
# Compressibility (1/GPa) = 0.03001475
#
# Stress axis : x y z
#
# Youngs Moduli (GPa) = 57.60234 85.44150 50.29305
#
# Poissons Ratio (x) = 0.20957 0.10392
# Poissons Ratio (y) = 0.14129 0.24882
# Poissons Ratio (z) = 0.11902 0.42271
#
# Static dielectric constant tensor:
#      x y z
#    x 1.537500 0.018040 0.036650 
#    y 0.018040 1.667090 0.031350 
#    z 0.036650 0.031350 1.644160 
# 
# From -- ./inp_files/77312.got.cif
#   From: 2010.05.17/outbox.cif.g08.bks.cpg/sg2_39_cif.got.tgz:77312.got - 2010.06.03 11:33:40.
