data_PCOD9092305
_publ_section_title
;
Structure prediction by ZEFSAII (Michael W. Deem and Ramdas Pophale) SiO2 
 PCOD9092305
Probable space group: P -1
;
_chemical_formula_sum "Si O2"
_cell_formula_units_Z 16
_cell_length_a 7.678014
_cell_length_b 12.014961
_cell_length_c 13.937924
_cell_angle_alpha 32.528071
_cell_angle_beta 82.683952
_cell_angle_gamma 69.276397
_cell_volume 608.120582
_symmetry_space_group_name_H-M "P -1"
_symmetry_group_IT_number 2
_symmetry_cell_setting 'triclinic'
loop_
_space_group_symop_operation_xyz
x,y,z
-x,-y,-z
loop_
_atom_site_type_symbol
_atom_site_label
_atom_site_fract_x
_atom_site_fract_y
_atom_site_fract_z
Si Si1 0.197135 0.071030 0.715117
Si Si2 0.881609 0.225992 0.912046
Si Si3 0.243722 0.572500 0.880532
Si Si4 0.462926 0.563511 0.608302
Si Si5 0.488309 0.175891 0.287186
Si Si6 0.603445 0.762848 0.278866
Si Si7 0.891868 0.010332 0.664164
Si Si8 0.771066 0.764089 0.022795
O O1 0.213641 0.232743 0.680184
O O2 0.192741 0.858211 0.928280
O O3 0.387415 0.981834 0.697813
O O4 0.010405 0.139920 0.608825
O O5 0.043507 0.310869 0.864487
O O6 0.679349 0.414596 0.743941
O O7 0.000000 0.000000 0.000000
O O8 0.258201 0.435556 0.882345
O O9 0.400131 0.673284 0.801383
O O10 0.035796 0.802572 0.737921
O O11 0.307003 0.789523 0.511299
O O12 0.503398 0.670940 0.431373
O O13 0.370087 0.397665 0.698138
O O14 0.288312 0.383098 0.102460
O O15 0.500000 0.000000 0.500000
O O16 0.436932 0.026854 0.080866
O O17 0.836824 0.885511 0.844407
#
# Coordination Sequence:
#
# PCOD9092305 Si02
#       8
#     2   2   2   2   2   2   2   2
#     4  10  22  43  71 106 152 192 247 318 387 457
#     4  11  23  44  73 108 148 198 261 318 385 459
#     4  10  20  42  77 109 156 203 249 324 387 457
#     4  10  22  42  68 103 146 204 252 317 382 457
#     4  10  22  44  78 116 155 202 259 320 384 458
#     4  10  20  40  69  99 148 197 248 317 381 455
#     4   9  21  40  69 103 151 198 245 311 393 452
#     4  10  19  40  71 103 147 196 246 315 386 447
#
# _framework density 26.310569000000001
#
# number of rings (size 3 to 8) (size 9 to 14) (size 15 to 20)
#    0.000    2.000    2.500    0.375    1.750    1.000 
#    9.000    0.625   16.500    5.250    0.000    0.000 
#    0.000    0.000    0.000    0.000    0.000    0.000 
#
# Total GULP energy -89573.501317 kJ/mol
# GULP energy per Si atom -5598.343832 kJ/mol
# Density = 2.625069 g / cm^3
# Si number density = 26.310569 Si / 1000 Ang^3
#
#
#
# Elastic Constant Matrix: (Units=GPa)
#
#
# Indices 1 2 3 4 5 6 
#
# 1 111.8196 49.1214 47.7065 -9.6639 5.6583 37.2239
# 2 49.1214 146.8125 85.4948 -9.0129 30.4966 11.8860
# 3 47.7065 85.4948 176.7664 -24.0034 7.6129 -12.0362
# 4 -9.6639 -9.0129 -24.0034 35.3040 -22.9330 -1.0644
# 5 5.6583 30.4966 7.6129 -22.9330 55.7880 5.1866
# 6 37.2239 11.8860 -12.0362 -1.0644 5.1866 54.7304
#
#
#
# Elastic Compliance Matrix: (Units=1/GPa)
#
#
# Indices 1 2 3 4 5 6 
#
# 1 0.015133 -0.002601 -0.003324 0.002403 0.002317 -0.010631
# 2 -0.002601 0.012833 -0.006255 -0.007460 -0.008806 -0.001704
# 3 -0.003324 -0.006255 0.010890 0.008460 0.005219 0.005684
# 4 0.002403 -0.007460 0.008460 0.047138 0.021994 0.000679
# 5 0.002317 -0.008806 0.005219 0.021994 0.030928 -0.001019
# 6 -0.010631 -0.001704 0.005684 0.000679 -0.001019 0.027232
#
#
# Mechanical properties :
#
#
# Convention : Reuss Voigt Hill
#
# Bulk Modulus (GPa) = 68.97430 88.89376 78.93403
# Shear Modulus (GPa) = 28.84414 46.03618 37.44016
#
# Velocity S-wave (km/s) = 3.31463 4.18751 3.77637
# Velocity P-wave (km/s) = 6.39698 7.56571 7.00576
#
# Compressibility (1/GPa) = 0.01449815
#
# Stress axis : x y z
#
# Youngs Moduli (GPa) = 66.08060 77.92214 91.82428
#
# Poissons Ratio (x) = 0.20266 0.30519
# Poissons Ratio (y) = 0.17186 0.57435
# Poissons Ratio (z) = 0.21963 0.48739
#
# Static dielectric constant tensor:
#      x y z
#    x 2.106360 0.005630 -0.002790 
#    y 0.005630 2.061570 0.032360 
#    z -0.002790 0.032360 2.084190 
# 
# From -- ./inp_files/497688.got.cif
#   From: 2010.05.17/outbox.cif.g08.bks.cpg/sg2_249_cif.got.tgz:497688.got - 2010.06.03 11:33:40.
