data_PCOD9092295
_publ_section_title
;
Structure prediction by ZEFSAII (Michael W. Deem and Ramdas Pophale) SiO2 
 PCOD9092295
Probable space group: P -1
;
_chemical_formula_sum "Si O2"
_cell_formula_units_Z 14
_cell_length_a 8.980996
_cell_length_b 21.532759
_cell_length_c 8.718157
_cell_angle_alpha 151.342612
_cell_angle_beta 56.831230
_cell_angle_gamma 133.978954
_cell_volume 572.285040
_symmetry_space_group_name_H-M "P -1"
_symmetry_group_IT_number 2
_symmetry_cell_setting 'triclinic'
loop_
_space_group_symop_operation_xyz
x,y,z
-x,-y,-z
loop_
_atom_site_type_symbol
_atom_site_label
_atom_site_fract_x
_atom_site_fract_y
_atom_site_fract_z
Si Si1 0.852316 0.160689 0.041087
Si Si2 0.102641 0.669857 0.127322
Si Si3 0.282398 0.629887 0.246241
Si Si4 0.667495 0.675278 0.976797
Si Si5 0.412406 0.316815 0.304715
Si Si6 0.953741 0.112421 0.184620
Si Si7 0.593181 0.131856 0.857498
O O1 0.795801 0.274466 0.406748
O O2 0.849636 0.058392 0.960327
O O3 0.078369 0.235204 0.987713
O O4 0.672313 0.079732 0.841792
O O5 0.200253 0.614793 0.083587
O O6 0.152666 0.829477 0.515827
O O7 0.212461 0.714954 0.999292
O O8 0.857929 0.538957 0.967581
O O9 0.529920 0.692810 0.224784
O O10 0.576044 0.493406 0.629499
O O11 0.596294 0.713124 0.937516
O O12 0.175555 0.269954 0.366417
O O13 0.447211 0.197682 0.118903
O O14 0.000000 0.000000 0.000000
O O15 0.500000 0.000000 0.500000
#
# Coordination Sequence:
#
# PCOD9092295 Si02
#       7
#     2   2   2   2   2   2   2
#     4  10  25  42  69  99 133 181 228 278 346 399
#     4  10  20  37  67  99 129 176 221 269 344 398
#     4  10  19  40  70 102 134 166 224 288 335 400
#     4  10  19  40  70 102 134 166 224 288 335 400
#     4  10  20  37  67  99 129 176 221 269 344 398
#     4  10  20  41  65  98 137 178 222 269 328 415
#     4  12  25  45  64  92 137 186 230 281 332 403
#
# _framework density 24.463332999999999
#
# number of rings (size 3 to 8) (size 9 to 14) (size 15 to 20)
#    0.000    1.714    2.857    1.714    4.000    2.286 
#    2.571   14.286    0.000    0.000    0.000    0.000 
#    0.000    0.000    0.000    0.000    0.000    0.000 
#
# Total GULP energy -78158.445184 kJ/mol
# GULP energy per Si atom -5582.746085 kJ/mol
# Density = 2.440765 g / cm^3
# Si number density = 24.463333 Si / 1000 Ang^3
#
#
#
# Elastic Constant Matrix: (Units=GPa)
#
#
# Indices 1 2 3 4 5 6 
#
# 1 124.8150 28.4036 40.8994 -5.9708 -1.2617 -7.9133
# 2 28.4036 108.1518 25.0394 -20.9312 -7.8056 27.4052
# 3 40.8994 25.0394 44.0669 2.9955 -2.2303 -0.1641
# 4 -5.9708 -20.9312 2.9955 27.2899 -2.1419 -20.8015
# 5 -1.2617 -7.8056 -2.2303 -2.1419 25.1334 -5.8073
# 6 -7.9133 27.4052 -0.1641 -20.8015 -5.8073 44.6456
#
#
#
# Elastic Compliance Matrix: (Units=1/GPa)
#
#
# Indices 1 2 3 4 5 6 
#
# 1 0.013138 -0.000393 -0.012501 0.009632 0.001927 0.007263
# 2 -0.000393 0.014283 -0.008186 0.008710 0.003424 -0.004364
# 3 -0.012501 -0.008186 0.040022 -0.017978 -0.002477 -0.005742
# 4 0.009632 0.008710 -0.017978 0.073361 0.015348 0.032472
# 5 0.001927 0.003424 -0.002477 0.015348 0.044621 0.011186
# 6 0.007263 -0.004364 -0.005742 0.032472 0.011186 0.042928
#
#
# Mechanical properties :
#
#
# Convention : Reuss Voigt Hill
#
# Bulk Modulus (GPa) = 39.55168 51.74648 45.64908
# Shear Modulus (GPa) = 17.92497 31.59320 24.75908
#
# Velocity S-wave (km/s) = 2.70983 3.59758 3.18479
# Velocity P-wave (km/s) = 5.09841 6.20124 5.67667
#
# Compressibility (1/GPa) = 0.02528338
#
# Stress axis : x y z
#
# Youngs Moduli (GPa) = 76.11334 70.01126 24.98656
#
# Poissons Ratio (x) = 0.02755 0.31235
# Poissons Ratio (y) = 0.02995 0.20454
# Poissons Ratio (z) = 0.95146 0.57311
#
# Static dielectric constant tensor:
#      x y z
#    x 2.004960 0.074820 -0.026230 
#    y 0.074820 2.016520 -0.035480 
#    z -0.026230 -0.035480 1.915910 
# 
# From -- ./inp_files/202200.got.cif
#   From: 2010.05.17/outbox.cif.g08.bks.cpg/sg2_102_cif.got.tgz:202200.got - 2010.06.03 11:33:40.
