data_PCOD9092716
_publ_section_title
;
Structure prediction by ZEFSAII (Michael W. Deem and Ramdas Pophale) SiO2 
 PCOD9092716
Probable space group: P -1
;
_chemical_formula_sum "Si O2"
_cell_formula_units_Z 14
_cell_length_a 8.988952
_cell_length_b 10.664079
_cell_length_c 9.695560
_cell_angle_alpha 62.918045
_cell_angle_beta 122.174759
_cell_angle_gamma 140.362200
_cell_volume 500.084788
_symmetry_space_group_name_H-M "P -1"
_symmetry_group_IT_number 2
_symmetry_cell_setting 'triclinic'
loop_
_space_group_symop_operation_xyz
x,y,z
-x,-y,-z
loop_
_atom_site_type_symbol
_atom_site_label
_atom_site_fract_x
_atom_site_fract_y
_atom_site_fract_z
Si Si1 0.452617 0.888285 0.366024
Si Si2 0.761181 0.763229 0.917626
Si Si3 0.178417 0.148731 0.392131
Si Si4 0.529408 0.564059 0.284784
Si Si5 0.372046 0.780901 0.087097
Si Si6 0.039454 0.311470 0.703223
Si Si7 0.308694 0.700787 0.799994
O O1 0.591469 0.828848 0.514052
O O2 0.289592 0.763220 0.210622
O O3 0.248469 0.836600 0.391097
O O4 0.650841 0.113884 0.305103
O O5 0.915585 0.894825 0.791106
O O6 0.582345 0.546879 0.864938
O O7 0.582030 0.783963 0.876527
O O8 0.913420 0.774655 0.106775
O O9 0.317577 0.376281 0.370169
O O10 0.000000 0.000000 0.500000
O O11 0.539479 0.736222 0.215027
O O12 0.798384 0.647211 0.366881
O O13 0.221599 0.651526 0.941334
O O14 0.500000 0.000000 0.000000
O O15 0.147070 0.520506 0.705357
#
# Coordination Sequence:
#
# PCOD9092716 Si02
#       7
#     2   2   2   2   2   2   2
#     4  11  27  37  62 109 140 173 228 278 343 412
#     4   9  19  40  76  92 128 189 224 278 348 399
#     4  10  24  45  64  96 142 189 228 265 346 427
#     4   9  19  42  71  90 136 182 225 276 343 404
#     4  10  20  39  64 102 141 168 229 288 336 408
#     4  11  20  43  74 102 129 174 234 295 341 391
#     4  10  19  42  65  97 140 171 229 284 339 402
#
# _framework density 27.995253000000002
#
# number of rings (size 3 to 8) (size 9 to 14) (size 15 to 20)
#    0.857    1.143    2.857    0.857    0.000    7.429 
#    2.571    0.000    0.000    0.000    0.000    0.000 
#    0.000    0.000    0.000    0.000    0.000    0.000 
#
# Total GULP energy -78369.054903 kJ/mol
# GULP energy per Si atom -5597.789636 kJ/mol
# Density = 2.793153 g / cm^3
# Si number density = 27.995253 Si / 1000 Ang^3
#
#
#
# Elastic Constant Matrix: (Units=GPa)
#
#
# Indices 1 2 3 4 5 6 
#
# 1 111.5314 43.9541 42.4626 -20.7759 -18.9051 7.4661
# 2 43.9541 102.3506 39.3124 -19.4995 0.6263 4.8920
# 3 42.4626 39.3124 114.5817 -16.0543 -25.7448 10.1311
# 4 -20.7759 -19.4995 -16.0543 47.3480 -7.4587 -11.7876
# 5 -18.9051 0.6263 -25.7448 -7.4587 60.3821 -3.6400
# 6 7.4661 4.8920 10.1311 -11.7876 -3.6400 64.2954
#
#
#
# Elastic Compliance Matrix: (Units=1/GPa)
#
#
# Indices 1 2 3 4 5 6 
#
# 1 0.012593 -0.003950 -0.001969 0.003815 0.003619 0.000053
# 2 -0.003950 0.013173 -0.003327 0.002232 -0.002501 0.000248
# 3 -0.001969 -0.003327 0.012090 0.002452 0.004834 -0.000700
# 4 0.003815 0.002232 0.002452 0.026490 0.005741 0.004182
# 5 0.003619 -0.002501 0.004834 0.005741 0.020564 0.001225
# 6 0.000053 0.000248 -0.000700 0.004182 0.001225 0.016475
#
#
# Mechanical properties :
#
#
# Convention : Reuss Voigt Hill
#
# Bulk Modulus (GPa) = 51.64026 64.43578 58.03802
# Shear Modulus (GPa) = 39.57874 47.92072 43.74973
#
# Velocity S-wave (km/s) = 3.76409 4.14181 3.95746
# Velocity P-wave (km/s) = 6.11369 6.77787 6.45433
#
# Compressibility (1/GPa) = 0.01936473
#
# Stress axis : x y z
#
# Youngs Moduli (GPa) = 79.41217 75.91268 82.71239
#
# Poissons Ratio (x) = 0.29982 0.16284
# Poissons Ratio (y) = 0.31364 0.27520
# Poissons Ratio (z) = 0.15634 0.25257
#
# Static dielectric constant tensor:
#      x y z
#    x 2.130440 -0.009410 -0.061770 
#    y -0.009410 2.221400 0.000960 
#    z -0.061770 0.000960 2.236240 
# 
# From -- ./inp_files/389550.got.cif
#   From: 2010.05.17/outbox.cif.g08.bks.cpg/sg2_195_cif.got.tgz:389550.got - 2010.06.03 11:33:40.
