data_PCOD9092068
_publ_section_title
;
Structure prediction by ZEFSAII (Michael W. Deem and Ramdas Pophale) SiO2 
 PCOD9092068
Probable space group: P -1
;
_chemical_formula_sum "Si O2"
_cell_formula_units_Z 15
_cell_length_a 24.409386
_cell_length_b 5.219192
_cell_length_c 12.006828
_cell_angle_alpha 130.855187
_cell_angle_beta 30.898381
_cell_angle_gamma 131.271948
_cell_volume 574.770065
_symmetry_space_group_name_H-M "P -1"
_symmetry_group_IT_number 2
_symmetry_cell_setting 'triclinic'
loop_
_space_group_symop_operation_xyz
x,y,z
-x,-y,-z
loop_
_atom_site_type_symbol
_atom_site_label
_atom_site_fract_x
_atom_site_fract_y
_atom_site_fract_z
Si Si1 0.666319 0.571168 0.413563
Si Si2 0.664713 0.772427 0.726949
Si Si3 0.517704 0.066902 0.794607
Si Si4 0.096626 0.205138 0.637305
Si Si5 0.200803 0.356122 0.109769
Si Si6 0.000000 0.000000 0.500000
Si Si7 0.658127 0.003851 0.101753
Si Si8 0.875105 0.036539 0.082603
O O1 0.660392 0.639928 0.572171
O O2 0.631660 0.196310 0.312517
O O3 0.583896 0.786115 0.568683
O O4 0.794404 0.736947 0.208083
O O5 0.607813 0.402210 0.779721
O O6 0.790363 0.911246 0.581558
O O7 0.581167 0.008172 0.964723
O O8 0.449315 0.125989 0.821892
O O9 0.058139 0.176385 0.568062
O O10 0.120506 0.600173 0.759572
O O11 0.997586 0.000852 0.832884
O O12 0.085993 0.302329 0.359674
O O13 0.254184 0.697422 0.038898
O O14 0.283332 0.281305 0.037090
O O15 0.179528 0.031828 0.964806
#
# Coordination Sequence:
#
# PCOD9092068 Si02
#       8
#     2   2   2   2   2   1   2   2
#     4  11  23  42  67  98 131 181 224 290 333 415
#     4  11  24  41  68  92 140 173 238 269 353 404
#     4  11  25  43  62 101 134 186 223 286 332 414
#     4  10  19  40  65  96 129 177 215 292 333 418
#     4  10  23  44  66 106 136 187 220 291 333 418
#     4  10  22  40  72  96 142 172 234 278 356 402
#     4  11  25  42  71  99 145 175 237 277 348 392
#     4   9  20  39  66  95 135 165 231 271 351 396
#
# _framework density 26.097390000000001
#
# number of rings (size 3 to 8) (size 9 to 14) (size 15 to 20)
#    0.000    1.600    1.333    2.400    3.733    2.667 
#    0.000    8.000    0.000    0.000    0.000    0.000 
#    0.000    0.000    0.000    0.000    0.000    0.000 
#
# Total GULP energy -83639.696124 kJ/mol
# GULP energy per Si atom -5575.979742 kJ/mol
# Density = 2.603799 g / cm^3
# Si number density = 26.097390 Si / 1000 Ang^3
#
#
#
# Elastic Constant Matrix: (Units=GPa)
#
#
# Indices 1 2 3 4 5 6 
#
# 1 164.9546 40.6876 194.2719 14.3507 40.9991 3.3808
# 2 40.6876 89.8460 61.9660 -23.9870 -6.9173 9.9544
# 3 194.2719 61.9660 593.5604 43.2503 79.4646 -42.0154
# 4 14.3507 -23.9870 43.2503 48.8808 12.5121 -8.2302
# 5 40.9991 -6.9173 79.4646 12.5121 57.4240 -8.2984
# 6 3.3808 9.9544 -42.0154 -8.2302 -8.2984 46.7060
#
#
#
# Elastic Compliance Matrix: (Units=1/GPa)
#
#
# Indices 1 2 3 4 5 6 
#
# 1 0.012094 -0.003955 -0.002988 -0.002225 -0.005071 -0.004014
# 2 -0.003955 0.017872 -0.002233 0.010035 0.005477 -0.002790
# 3 -0.002988 -0.002233 0.003569 -0.002308 -0.002120 0.003119
# 4 -0.002225 0.010035 -0.002308 0.028240 -0.000029 0.000917
# 5 -0.005071 0.005477 -0.002120 -0.000029 0.024882 0.001708
# 6 -0.004014 -0.002790 0.003119 0.000917 0.001708 0.025567
#
#
# Mechanical properties :
#
#
# Convention : Reuss Voigt Hill
#
# Bulk Modulus (GPa) = 65.87554 160.24580 113.06067
# Shear Modulus (GPa) = 36.86315 67.36449 52.11382
#
# Velocity S-wave (km/s) = 3.76243 5.08613 4.47351
# Velocity P-wave (km/s) = 6.64617 9.79939 8.37256
#
# Compressibility (1/GPa) = 0.01518014
#
# Stress axis : x y z
#
# Youngs Moduli (GPa) = 82.68813 55.95438 280.20217
#
# Poissons Ratio (x) = 0.22132 0.83736
# Poissons Ratio (y) = 0.32707 0.62575
# Poissons Ratio (z) = 0.24711 0.12496
#
# Static dielectric constant tensor:
#      x y z
#    x 2.070340 -0.014990 0.023400 
#    y -0.014990 2.117630 -0.035550 
#    z 0.023400 -0.035550 2.109520 
# 
# From -- ./inp_files/476040.got.cif
#   From: 2010.05.17/outbox.cif.g08.bks.cpg/sg2_239_cif.got.tgz:476040.got - 2010.06.03 11:33:40.
