data_PCOD9092941
_publ_section_title
;
Structure prediction by ZEFSAII (Michael W. Deem and Ramdas Pophale) SiO2 
 PCOD9092941
Probable space group: P -1
;
_chemical_formula_sum "Si O2"
_cell_formula_units_Z 12
_cell_length_a 9.232169
_cell_length_b 9.088124
_cell_length_c 12.979654
_cell_angle_alpha 46.054937
_cell_angle_beta 129.773301
_cell_angle_gamma 99.827793
_cell_volume 524.039942
_symmetry_space_group_name_H-M "P -1"
_symmetry_group_IT_number 2
_symmetry_cell_setting 'triclinic'
loop_
_space_group_symop_operation_xyz
x,y,z
-x,-y,-z
loop_
_atom_site_type_symbol
_atom_site_label
_atom_site_fract_x
_atom_site_fract_y
_atom_site_fract_z
Si Si1 0.278149 0.756190 0.766269
Si Si2 0.271004 0.658578 0.031789
Si Si3 0.444749 0.132289 0.302722
Si Si4 0.955171 0.827129 0.995137
Si Si5 0.987117 0.566266 0.634055
Si Si6 0.651155 0.729278 0.226752
O O1 0.350835 0.899513 0.655096
O O2 0.089742 0.720689 0.648240
O O3 0.500000 0.500000 0.000000
O O4 0.227365 0.817746 0.833052
O O5 0.301639 0.409631 0.129980
O O6 0.496789 0.614006 0.205571
O O7 0.083159 0.778812 0.970309
O O8 0.500000 0.000000 0.500000
O O9 0.297047 0.067235 0.196862
O O10 0.031843 0.584998 0.208927
O O11 0.000000 0.000000 0.000000
O O12 0.168202 0.385613 0.724042
O O13 0.769576 0.692237 0.407336
O O14 0.500000 0.000000 0.000000
#
# Coordination Sequence:
#
# PCOD9092941 Si02
#       6
#     2   2   2   2   2   2
#     4  10  19  44  73  93 133 191 232 285 352 422
#     4  11  23  46  70  97 146 184 237 291 350 431
#     4  11  24  44  72 104 142 183 236 293 356 424
#     4  12  26  44  68 104 143 186 240 297 360 418
#     4  11  23  45  71  97 146 187 233 300 355 418
#     4  11  24  43  70 104 139 189 242 289 358 431
#
# _framework density 22.899018000000002
#
# number of rings (size 3 to 8) (size 9 to 14) (size 15 to 20)
#    0.000    1.000    6.667    1.500    2.333    2.000 
#    6.000    1.667    0.000    0.000    0.000    0.000 
#    0.000    0.000    0.000    0.000    0.000    0.000 
#
# Total GULP energy -67234.008715 kJ/mol
# GULP energy per Si atom -5602.834060 kJ/mol
# Density = 2.284690 g / cm^3
# Si number density = 22.899018 Si / 1000 Ang^3
#
#
#
# Elastic Constant Matrix: (Units=GPa)
#
#
# Indices 1 2 3 4 5 6 
#
# 1 174.5604 59.9373 61.0956 19.8501 -34.9933 -1.1499
# 2 59.9373 131.6678 45.9414 40.4068 -0.8373 23.3905
# 3 61.0956 45.9414 146.4807 40.8920 -17.3500 18.1252
# 4 19.8501 40.4068 40.8920 46.0631 -1.3247 9.2960
# 5 -34.9933 -0.8373 -17.3500 -1.3247 45.3938 4.5971
# 6 -1.1499 23.3905 18.1252 9.2960 4.5971 39.6407
#
#
#
# Elastic Compliance Matrix: (Units=1/GPa)
#
#
# Indices 1 2 3 4 5 6 
#
# 1 0.009046 -0.004200 -0.002614 0.001687 0.005654 0.002885
# 2 -0.004200 0.013096 0.000611 -0.009140 -0.002452 -0.005701
# 3 -0.002614 0.000611 0.010709 -0.008108 0.002226 -0.003690
# 4 0.001687 -0.009140 -0.008108 0.036003 -0.001000 0.000822
# 5 0.005654 -0.002452 0.002226 -0.001000 0.027403 -0.002351
# 6 0.002885 -0.005701 -0.003690 0.000822 -0.002351 0.030441
#
#
# Mechanical properties :
#
#
# Convention : Reuss Voigt Hill
#
# Bulk Modulus (GPa) = 48.91133 87.40637 68.15885
# Shear Modulus (GPa) = 34.26544 45.26848 39.76696
#
# Velocity S-wave (km/s) = 3.87249 4.45103 4.17180
# Velocity P-wave (km/s) = 6.43435 8.04169 7.28250
#
# Compressibility (1/GPa) = 0.02044516
#
# Stress axis : x y z
#
# Youngs Moduli (GPa) = 110.54097 76.36041 93.37808
#
# Poissons Ratio (x) = 0.32073 0.24409
# Poissons Ratio (y) = 0.46430 -0.05707
# Poissons Ratio (z) = 0.28896 -0.04667
#
# Static dielectric constant tensor:
#      x y z
#    x 1.839790 0.001990 0.017320 
#    y 0.001990 1.895230 -0.041230 
#    z 0.017320 -0.041230 1.860780 
# 
# From -- ./inp_files/183919.got.cif
#   From: 2010.05.17/outbox.cif.g08.bks.cpg/sg2_92_cif.got.tgz:183919.got - 2010.06.03 11:33:40.
