data_PCOD9092407
_publ_section_title
;
Structure prediction by ZEFSAII (Michael W. Deem and Ramdas Pophale) SiO2 
 PCOD9092407
Probable space group: P -1
;
_chemical_formula_sum "Si O2"
_cell_formula_units_Z 12
_cell_length_a 9.959559
_cell_length_b 15.622977
_cell_length_c 9.341276
_cell_angle_alpha 93.988107
_cell_angle_beta 111.788621
_cell_angle_gamma 29.834760
_cell_volume 562.331871
_symmetry_space_group_name_H-M "P -1"
_symmetry_group_IT_number 2
_symmetry_cell_setting 'triclinic'
loop_
_space_group_symop_operation_xyz
x,y,z
-x,-y,-z
loop_
_atom_site_type_symbol
_atom_site_label
_atom_site_fract_x
_atom_site_fract_y
_atom_site_fract_z
Si Si1 0.183285 0.978204 0.652625
Si Si2 0.631143 0.026386 0.539068
Si Si3 0.851602 0.202028 0.813199
Si Si4 0.464481 0.809493 0.212865
Si Si5 0.260827 0.402851 0.984323
Si Si6 0.538713 0.435454 0.158565
O O1 0.376586 0.828815 0.842339
O O2 0.426955 0.899477 0.631509
O O3 0.000000 0.000000 0.500000
O O4 0.927004 0.172141 0.669994
O O5 0.053444 0.804109 0.687080
O O6 0.500000 0.000000 0.500000
O O7 0.460607 0.172830 0.617005
O O8 0.678010 0.203368 0.780185
O O9 0.610538 0.412729 0.777783
O O10 0.177921 0.019980 0.033569
O O11 0.748335 0.624434 0.186666
O O12 0.298018 0.481973 0.048439
O O13 0.000000 0.500000 0.000000
O O14 0.500000 0.500000 0.000000
#
# Coordination Sequence:
#
# PCOD9092407 Si02
#       6
#     2   2   2   2   2   2
#     4  11  22  44  63  93 132 170 205 261 323 376
#     4  12  26  42  65  96 132 167 211 267 322 370
#     4  10  20  37  72  90 123 173 215 251 317 385
#     4  10  19  41  63  92 126 176 207 249 327 384
#     4  11  25  42  69  95 127 169 216 261 313 384
#     4  12  22  41  67  96 125 166 219 262 305 378
#
# _framework density 21.339711999999999
#
# number of rings (size 3 to 8) (size 9 to 14) (size 15 to 20)
#    0.000    1.000    6.667    1.000    2.333    2.000 
#    3.000    5.000    0.000    0.000    0.000    0.000 
#    0.000    0.000    0.000    0.000    0.000    0.000 
#
# Total GULP energy -66855.272518 kJ/mol
# GULP energy per Si atom -5571.272710 kJ/mol
# Density = 2.129114 g / cm^3
# Si number density = 21.339712 Si / 1000 Ang^3
#
#
#
# Elastic Constant Matrix: (Units=GPa)
#
#
# Indices 1 2 3 4 5 6 
#
# 1 154.2618 35.8463 18.0521 33.0477 2.2514 2.1693
# 2 35.8463 104.0049 33.4942 49.3975 13.7892 5.9452
# 3 18.0521 33.4942 61.6835 37.6741 -10.0777 3.7153
# 4 33.0477 49.3975 37.6741 53.3603 1.7906 -5.3913
# 5 2.2514 13.7892 -10.0777 1.7906 27.2298 6.3675
# 6 2.1693 5.9452 3.7153 -5.3913 6.3675 33.8053
#
#
#
# Elastic Compliance Matrix: (Units=1/GPa)
#
#
# Indices 1 2 3 4 5 6 
#
# 1 0.007630 -0.000553 0.001857 -0.005736 0.001116 -0.001721
# 2 -0.000553 0.019729 -0.000928 -0.017461 -0.008065 -0.004598
# 3 0.001857 -0.000928 0.037479 -0.028621 0.018923 -0.012204
# 4 -0.005736 -0.017461 -0.028621 0.060809 -0.009501 0.018072
# 5 0.001116 -0.008065 0.018923 -0.009501 0.051122 -0.011877
# 6 -0.001721 -0.004598 -0.012204 0.018072 -0.011877 0.036961
#
#
# Mechanical properties :
#
#
# Convention : Reuss Voigt Hill
#
# Bulk Modulus (GPa) = 15.24601 54.97059 35.10830
# Shear Modulus (GPa) = 21.29085 38.38293 29.83689
#
# Velocity S-wave (km/s) = 3.16208 4.24566 3.74329
# Velocity P-wave (km/s) = 4.52677 7.06045 5.93049
#
# Compressibility (1/GPa) = 0.06559092
#
# Stress axis : x y z
#
# Youngs Moduli (GPa) = 131.05332 50.68575 26.68135
#
# Poissons Ratio (x) = 0.02803 -0.04953
# Poissons Ratio (y) = 0.07248 0.02475
# Poissons Ratio (z) = -0.24330 0.04702
#
# Static dielectric constant tensor:
#      x y z
#    x 1.711050 -0.018030 0.011610 
#    y -0.018030 1.949230 -0.037050 
#    z 0.011610 -0.037050 1.863600 
# 
# From -- ./inp_files/144381.got.cif
#   From: 2010.05.17/outbox.cif.g08.bks.cpg/sg2_73_cif.got.tgz:144381.got - 2010.06.03 11:33:40.
