data_PCOD9092753
_publ_section_title
;
Structure prediction by ZEFSAII (Michael W. Deem and Ramdas Pophale) SiO2 
 PCOD9092753
Probable space group: P -1
;
_chemical_formula_sum "Si O2"
_cell_formula_units_Z 16
_cell_length_a 11.195321
_cell_length_b 19.921107
_cell_length_c 7.811042
_cell_angle_alpha 53.318322
_cell_angle_beta 42.104276
_cell_angle_gamma 32.874115
_cell_volume 632.400615
_symmetry_space_group_name_H-M "P -1"
_symmetry_group_IT_number 2
_symmetry_cell_setting 'triclinic'
loop_
_space_group_symop_operation_xyz
x,y,z
-x,-y,-z
loop_
_atom_site_type_symbol
_atom_site_label
_atom_site_fract_x
_atom_site_fract_y
_atom_site_fract_z
Si Si1 0.791526 0.810846 0.098614
Si Si2 0.434487 0.806237 0.359795
Si Si3 0.335256 0.353945 0.954959
Si Si4 0.664125 0.339066 0.163531
Si Si5 0.827733 0.818315 0.646363
Si Si6 0.259527 0.989634 0.990028
Si Si7 0.807961 0.458330 0.415132
Si Si8 0.163740 0.822806 0.086523
O O1 0.583804 0.807599 0.344995
O O2 0.747314 0.909679 0.104427
O O3 0.777686 0.840840 0.867631
O O4 0.094423 0.684651 0.007911
O O5 0.660291 0.700898 0.142873
O O6 0.311883 0.759970 0.612286
O O7 0.259271 0.930880 0.246606
O O8 0.334023 0.448814 0.739139
O O9 0.595738 0.237237 0.956397
O O10 0.065738 0.426543 0.226961
O O11 0.393058 0.470525 0.321779
O O12 0.702429 0.295248 0.996316
O O13 0.063157 0.673136 0.574670
O O14 0.930753 0.868082 0.383379
O O15 0.551894 0.883875 0.758042
O O16 0.000900 0.061395 0.043842
#
# Coordination Sequence:
#
# PCOD9092753 Si02
#       8
#     2   2   2   2   2   2   2   2
#     4  10  21  40  67  93 122 166 220 258 307 375
#     4  10  19  42  67  93 125 171 218 255 317 370
#     4  10  21  41  64  96 123 161 219 267 309 378
#     4  10  24  42  62  99 132 166 212 265 314 383
#     4  11  20  41  66  94 124 168 213 260 320 375
#     4  10  22  42  67  95 129 166 212 266 317 380
#     4  10  21  41  68  89 123 168 219 259 307 382
#     4  11  25  40  59  96 136 164 207 264 324 378
#
# _framework density 25.300418000000001
#
# number of rings (size 3 to 8) (size 9 to 14) (size 15 to 20)
#    0.000    1.750    2.500    3.375    0.000    5.500 
#    4.500    5.000    0.000    0.000    0.000    0.000 
#    0.000    0.000    0.000    0.000    0.000    0.000 
#
# Total GULP energy -89436.434301 kJ/mol
# GULP energy per Si atom -5589.777144 kJ/mol
# Density = 2.524283 g / cm^3
# Si number density = 25.300418 Si / 1000 Ang^3
#
#
#
# Elastic Constant Matrix: (Units=GPa)
#
#
# Indices 1 2 3 4 5 6 
#
# 1 100.3890 31.0532 18.9871 5.8968 -17.8585 -13.1791
# 2 31.0532 110.7209 13.0489 5.8378 -17.6353 -12.7119
# 3 18.9871 13.0489 34.9903 3.9701 -14.4917 -24.6713
# 4 5.8968 5.8378 3.9701 35.9798 1.7354 -6.1212
# 5 -17.8585 -17.6353 -14.4917 1.7354 25.7987 12.3216
# 6 -13.1791 -12.7119 -24.6713 -6.1212 12.3216 29.7024
#
#
#
# Elastic Compliance Matrix: (Units=1/GPa)
#
#
# Indices 1 2 3 4 5 6 
#
# 1 0.012360 -0.002173 -0.005021 -0.001761 0.005436 -0.002234
# 2 -0.002173 0.010701 0.000893 -0.001451 0.005577 0.001745
# 3 -0.005021 0.000893 0.075460 0.001223 0.012802 0.055774
# 4 -0.001761 -0.001451 0.001223 0.030110 -0.007892 0.009092
# 5 0.005436 0.005577 0.012802 -0.007892 0.059193 -0.010749
# 6 -0.002234 0.001745 0.055774 0.009092 -0.010749 0.086082
#
#
# Mechanical properties :
#
#
# Convention : Reuss Voigt Hill
#
# Bulk Modulus (GPa) = 11.63874 41.36429 26.50151
# Shear Modulus (GPa) = 15.86562 30.49691 23.18126
#
# Velocity S-wave (km/s) = 2.50689 3.47564 3.03023
# Velocity P-wave (km/s) = 3.60410 5.70013 4.76870
#
# Compressibility (1/GPa) = 0.08591997
#
# Stress axis : x y z
#
# Youngs Moduli (GPa) = 80.90536 93.45013 13.25208
#
# Poissons Ratio (x) = 0.20303 0.06654
# Poissons Ratio (y) = 0.17578 -0.01183
# Poissons Ratio (z) = 0.40620 -0.08344
#
# Static dielectric constant tensor:
#      x y z
#    x 2.019730 0.018950 -0.025210 
#    y 0.018950 2.075780 -0.027630 
#    z -0.025210 -0.027630 2.016010 
# 
# From -- ./inp_files/282835.got.cif
#   From: 2010.05.17/outbox.cif.g08.bks.cpg/sg2_142_cif.got.tgz:282835.got - 2010.06.03 11:33:40.
