data_PCOD9092376
_publ_section_title
;
Structure prediction by ZEFSAII (Michael W. Deem and Ramdas Pophale) SiO2 
 PCOD9092376
Probable space group: P -1
;
_chemical_formula_sum "Si O2"
_cell_formula_units_Z 14
_cell_length_a 19.417571
_cell_length_b 5.420741
_cell_length_c 10.807867
_cell_angle_alpha 55.059532
_cell_angle_beta 135.758905
_cell_angle_gamma 134.402538
_cell_volume 561.186162
_symmetry_space_group_name_H-M "P -1"
_symmetry_group_IT_number 2
_symmetry_cell_setting 'triclinic'
loop_
_space_group_symop_operation_xyz
x,y,z
-x,-y,-z
loop_
_atom_site_type_symbol
_atom_site_label
_atom_site_fract_x
_atom_site_fract_y
_atom_site_fract_z
Si Si1 0.130014 0.743936 0.297157
Si Si2 0.886447 0.435701 0.158586
Si Si3 0.299812 0.803768 0.824730
Si Si4 0.761332 0.170598 0.826099
Si Si5 0.213766 0.284445 0.650577
Si Si6 0.572939 0.395997 0.788063
Si Si7 0.359730 0.450720 0.453801
O O1 0.137868 0.777473 0.149735
O O2 0.141345 0.412049 0.443970
O O3 0.017909 0.706337 0.226547
O O4 0.244744 0.084664 0.391021
O O5 0.818476 0.471519 0.175342
O O6 0.868427 0.053514 0.275091
O O7 0.815663 0.389740 0.956234
O O8 0.295967 0.608738 0.750795
O O9 0.282685 0.138370 0.703378
O O10 0.404200 0.870275 0.028820
O O11 0.681769 0.295175 0.618461
O O12 0.674561 0.770506 0.857710
O O13 0.456141 0.396706 0.656096
O O14 0.590271 0.386281 0.665704
#
# Coordination Sequence:
#
# PCOD9092376 Si02
#       7
#     2   2   2   2   2   2   2
#     4  11  25  39  58 100 131 163 209 262 328 377
#     4  10  22  40  67  90 128 170 213 259 317 383
#     4  10  21  41  70  91 124 170 225 255 313 380
#     4  11  21  40  63  95 126 165 212 268 319 379
#     4  10  23  42  66  94 129 174 212 260 316 387
#     4  10  19  41  61  93 117 168 220 260 315 380
#     4  10  22  36  64  88 130 162 209 268 322 372
#
# _framework density 24.947158000000002
#
# number of rings (size 3 to 8) (size 9 to 14) (size 15 to 20)
#    0.857    0.857    2.857    1.286    2.000    2.286 
#    0.000    1.429    0.000    0.000    0.000    0.000 
#    0.000    0.000    0.000    0.000    0.000    0.000 
#
# Total GULP energy -78280.469508 kJ/mol
# GULP energy per Si atom -5591.462108 kJ/mol
# Density = 2.489038 g / cm^3
# Si number density = 24.947158 Si / 1000 Ang^3
#
#
#
# Elastic Constant Matrix: (Units=GPa)
#
#
# Indices 1 2 3 4 5 6 
#
# 1 108.6031 23.9721 10.3469 10.9228 15.0386 5.0062
# 2 23.9721 58.1468 10.2690 -5.5603 13.0385 1.1996
# 3 10.3469 10.2690 51.4016 -4.0169 17.5997 14.4294
# 4 10.9228 -5.5603 -4.0169 25.9374 -3.7172 4.3936
# 5 15.0386 13.0385 17.5997 -3.7172 37.0757 4.6856
# 6 5.0062 1.1996 14.4294 4.3936 4.6856 34.5701
#
#
#
# Elastic Compliance Matrix: (Units=1/GPa)
#
#
# Indices 1 2 3 4 5 6 
#
# 1 0.011348 -0.004401 -0.000787 -0.006337 -0.003329 0.000095
# 2 -0.004401 0.020749 -0.001481 0.005378 -0.004325 0.000438
# 3 -0.000787 -0.001481 0.026524 0.004395 -0.010033 -0.010104
# 4 -0.006337 0.005378 0.004395 0.044879 0.004022 -0.007352
# 5 -0.003329 -0.004325 -0.010033 0.004022 0.035065 -0.000444
# 6 0.000095 0.000438 -0.010104 -0.007352 -0.000444 0.034110
#
#
# Mechanical properties :
#
#
# Convention : Reuss Voigt Hill
#
# Bulk Modulus (GPa) = 22.08351 34.14749 28.11550
# Shear Modulus (GPa) = 24.86228 31.08756 27.97492
#
# Velocity S-wave (km/s) = 3.16032 3.53390 3.35231
# Velocity P-wave (km/s) = 4.71043 5.51080 5.12626
#
# Compressibility (1/GPa) = 0.04528267
#
# Stress axis : x y z
#
# Youngs Moduli (GPa) = 88.11905 48.19554 37.70125
#
# Poissons Ratio (x) = 0.21211 0.02967
# Poissons Ratio (y) = 0.38781 0.05585
# Poissons Ratio (z) = 0.06936 0.07139
#
# Static dielectric constant tensor:
#      x y z
#    x 1.978650 0.021810 -0.023830 
#    y 0.021810 1.954480 -0.060960 
#    z -0.023830 -0.060960 1.997180 
# 
# From -- ./inp_files/95512.got.cif
#   From: 2010.05.17/outbox.cif.g08.bks.cpg/sg2_48_cif.got.tgz:95512.got - 2010.06.03 11:33:40.
