data_PCOD9092697
_publ_section_title
;
Structure prediction by ZEFSAII (Michael W. Deem and Ramdas Pophale) SiO2 
 PCOD9092697
Probable space group: P -1
;
_chemical_formula_sum "Si O2"
_cell_formula_units_Z 16
_cell_length_a 16.330805
_cell_length_b 11.763120
_cell_length_c 14.394424
_cell_angle_alpha 41.054137
_cell_angle_beta 141.987160
_cell_angle_gamma 156.090551
_cell_volume 683.807615
_symmetry_space_group_name_H-M "P -1"
_symmetry_group_IT_number 2
_symmetry_cell_setting 'triclinic'
loop_
_space_group_symop_operation_xyz
x,y,z
-x,-y,-z
loop_
_atom_site_type_symbol
_atom_site_label
_atom_site_fract_x
_atom_site_fract_y
_atom_site_fract_z
Si Si1 0.769042 0.827686 0.713571
Si Si2 0.060502 0.360345 0.079401
Si Si3 0.840160 0.959526 0.488718
Si Si4 0.154975 0.771464 0.351490
Si Si5 0.489455 0.020701 0.346906
Si Si6 0.688219 0.554284 0.448922
Si Si7 0.629095 0.057455 0.918877
Si Si8 0.188210 0.695969 0.813918
O O1 0.885025 0.766369 0.838330
O O2 0.743812 0.875965 0.556444
O O3 0.525765 0.561185 0.700273
O O4 0.886204 0.089552 0.720510
O O5 0.250603 0.634034 0.145155
O O6 0.054079 0.490957 0.908100
O O7 0.827314 0.127971 0.063740
O O8 0.762547 0.711321 0.516882
O O9 0.781506 0.067294 0.309239
O O10 0.101355 0.218945 0.567524
O O11 0.347081 0.985318 0.313665
O O12 0.948603 0.489073 0.286433
O O13 0.266048 0.754686 0.534999
O O14 0.384524 0.719807 0.441641
O O15 0.464196 0.056125 0.198012
O O16 0.420098 0.839655 0.931898
#
# Coordination Sequence:
#
# PCOD9092697 Si02
#       8
#     2   2   2   2   2   2   2   2
#     4  11  24  40  60  92 126 169 207 254 312 369
#     4  11  25  44  63  92 130 168 209 258 316 376
#     4  11  22  36  65  96 123 156 212 266 314 366
#     4  10  22  39  65  90 130 166 210 255 310 375
#     4  10  19  42  64  93 126 170 202 262 317 365
#     4  10  20  37  61  92 126 156 201 269 316 357
#     4  11  23  40  69  90 123 168 214 259 314 374
#     4  12  23  42  64  98 125 168 209 257 315 376
#
# _framework density 23.398392999999999
#
# number of rings (size 3 to 8) (size 9 to 14) (size 15 to 20)
#    0.000    1.250    2.500    3.750    0.000    6.500 
#    0.000    0.625    0.000    0.000    0.000    0.000 
#    0.000    0.000    0.000    0.000    0.000    0.000 
#
# Total GULP energy -89521.808326 kJ/mol
# GULP energy per Si atom -5595.113020 kJ/mol
# Density = 2.334514 g / cm^3
# Si number density = 23.398393 Si / 1000 Ang^3
#
#
#
# Elastic Constant Matrix: (Units=GPa)
#
#
# Indices 1 2 3 4 5 6 
#
# 1 123.3947 19.5982 21.3021 1.6925 20.1522 -13.0439
# 2 19.5982 64.1061 11.8472 20.5101 16.7552 9.2024
# 3 21.3021 11.8472 54.8967 -0.8359 10.9424 1.0453
# 4 1.6925 20.5101 -0.8359 37.3985 -0.5164 9.9068
# 5 20.1522 16.7552 10.9424 -0.5164 51.5375 6.7179
# 6 -13.0439 9.2024 1.0453 9.9068 6.7179 37.6950
#
#
#
# Elastic Compliance Matrix: (Units=1/GPa)
#
#
# Indices 1 2 3 4 5 6 
#
# 1 0.009987 -0.002163 -0.002867 -0.000648 -0.003226 0.004809
# 2 -0.002163 0.022342 -0.003000 -0.011764 -0.005635 -0.002024
# 3 -0.002867 -0.003000 0.020449 0.002498 -0.002075 -0.001113
# 4 -0.000648 -0.011764 0.002498 0.035352 0.004890 -0.007584
# 5 -0.003226 -0.005635 -0.002075 0.004890 0.023662 -0.005186
# 6 0.004809 -0.002024 -0.001113 -0.007584 -0.005186 0.031635
#
#
# Mechanical properties :
#
#
# Convention : Reuss Voigt Hill
#
# Bulk Modulus (GPa) = 27.23428 38.65471 32.94450
# Shear Modulus (GPa) = 29.11637 37.96953 33.54295
#
# Velocity S-wave (km/s) = 3.53140 4.03270 3.79034
# Velocity P-wave (km/s) = 5.31905 6.18382 5.76767
#
# Compressibility (1/GPa) = 0.03671843
#
# Stress axis : x y z
#
# Youngs Moduli (GPa) = 100.13392 44.75956 48.90282
#
# Poissons Ratio (x) = 0.09681 0.14019
# Poissons Ratio (y) = 0.21658 0.14669
# Poissons Ratio (z) = 0.28706 0.13426
#
# Static dielectric constant tensor:
#      x y z
#    x 1.863560 0.015830 0.010910 
#    y 0.015830 1.866780 0.026180 
#    z 0.010910 0.026180 1.913710 
# 
# From -- ./inp_files/532422.got.cif
#   From: 2010.05.17/outbox.cif.g08.bks.cpg/sg2_267_cif.got.tgz:532422.got - 2010.06.03 11:33:40.
