data_PCOD9092393
_publ_section_title
;
Structure prediction by ZEFSAII (Michael W. Deem and Ramdas Pophale) SiO2 
 PCOD9092393
Probable space group: P -1
;
_chemical_formula_sum "Si O2"
_cell_formula_units_Z 13
_cell_length_a 14.023176
_cell_length_b 7.055829
_cell_length_c 6.314759
_cell_angle_alpha 120.904674
_cell_angle_beta 80.810567
_cell_angle_gamma 83.330859
_cell_volume 514.537993
_symmetry_space_group_name_H-M "P -1"
_symmetry_group_IT_number 2
_symmetry_cell_setting 'triclinic'
loop_
_space_group_symop_operation_xyz
x,y,z
-x,-y,-z
loop_
_atom_site_type_symbol
_atom_site_label
_atom_site_fract_x
_atom_site_fract_y
_atom_site_fract_z
Si Si1 0.618591 0.049218 0.159492
Si Si2 0.091122 0.328605 0.208441
Si Si3 0.907460 0.083737 0.731118
Si Si4 0.471539 0.350800 0.108849
Si Si5 0.279182 0.340804 0.380224
Si Si6 0.781943 0.882459 0.349819
Si Si7 0.000000 0.500000 0.000000
O O1 0.554667 0.280156 0.219470
O O2 0.697384 0.017094 0.300858
O O3 0.542720 0.884695 0.129901
O O4 0.682169 0.918215 0.867023
O O5 0.177739 0.425417 0.336732
O O6 0.086998 0.094107 0.181469
O O7 0.121484 0.254051 0.901693
O O8 0.996647 0.518283 0.283176
O O9 0.921471 0.323397 0.939016
O O10 0.817142 0.051510 0.595624
O O11 0.000000 0.000000 0.500000
O O12 0.366282 0.447376 0.319445
O O13 0.500000 0.500000 0.000000
O O14 0.260496 0.304545 0.611368
#
# Coordination Sequence:
#
# PCOD9092393 Si02
#       7
#     2   2   2   2   2   2   1
#     4   8  18  36  59  82 120 166 201 251 313 364
#     4  10  22  43  61  89 130 162 207 264 305 370
#     4  11  24  43  66  93 125 164 210 263 316 372
#     4   9  17  36  59  86 123 157 203 264 303 359
#     4   8  18  37  59  84 122 164 201 255 312 364
#     4  10  19  41  63  85 127 169 203 256 314 369
#     4  12  24  42  68  94 126 162 212 266 312 372
#
# _framework density 25.265381999999999
#
# number of rings (size 3 to 8) (size 9 to 14) (size 15 to 20)
#    0.923    1.538    1.538    0.462    0.000    1.231 
#    8.308    3.846    0.000    0.000    0.000    0.000 
#    0.000    0.000    0.000    0.000    0.000    0.000 
#
# Total GULP energy -72391.400534 kJ/mol
# GULP energy per Si atom -5568.569272 kJ/mol
# Density = 2.520788 g / cm^3
# Si number density = 25.265382 Si / 1000 Ang^3
#
#
#
# Elastic Constant Matrix: (Units=GPa)
#
#
# Indices 1 2 3 4 5 6 
#
# 1 137.4060 62.1561 45.7517 -18.5515 19.4929 3.7197
# 2 62.1561 184.8607 67.4987 -27.7737 12.6828 14.8642
# 3 45.7517 67.4987 63.3758 -12.1002 6.4754 7.8665
# 4 -18.5515 -27.7737 -12.1002 43.7743 7.1867 -7.5270
# 5 19.4929 12.6828 6.4754 7.1867 41.6646 -9.9824
# 6 3.7197 14.8642 7.8665 -7.5270 -9.9824 34.7336
#
#
#
# Elastic Compliance Matrix: (Units=1/GPa)
#
#
# Indices 1 2 3 4 5 6 
#
# 1 0.010582 -0.000607 -0.005922 0.003168 -0.004420 -0.000116
# 2 -0.000607 0.009624 -0.008648 0.003503 -0.002390 -0.002023
# 3 -0.005922 -0.008648 0.029460 -0.000303 0.000323 -0.002310
# 4 0.003168 0.003503 -0.000303 0.027833 -0.006746 0.002323
# 5 -0.004420 -0.002390 0.000323 -0.006746 0.029964 0.008573
# 6 -0.000116 -0.002023 -0.002310 0.002323 0.008573 0.033159
#
#
# Mechanical properties :
#
#
# Convention : Reuss Voigt Hill
#
# Bulk Modulus (GPa) = 51.77884 81.82838 66.80361
# Shear Modulus (GPa) = 28.18280 38.05022 33.11651
#
# Velocity S-wave (km/s) = 3.34349 3.88496 3.62435
# Velocity P-wave (km/s) = 5.95346 7.25133 6.63421
#
# Compressibility (1/GPa) = 0.01931291
#
# Stress axis : x y z
#
# Youngs Moduli (GPa) = 94.49989 103.90454 33.94444
#
# Poissons Ratio (x) = 0.06310 0.20101
# Poissons Ratio (y) = 0.05739 0.29354
# Poissons Ratio (z) = 0.55959 0.89854
#
# Static dielectric constant tensor:
#      x y z
#    x 0.291080 1.599970 -0.276400 
#    y 1.599970 0.564510 0.202130 
#    z -0.276400 0.202130 2.108800 
# 
# From -- ./inp_files/86025.got.cif
#   From: 2010.05.17/outbox.cif.g08.bks.cpg/sg2_44_cif.got.tgz:86025.got - 2010.06.03 11:33:40.
