data_PCOD9092324
_publ_section_title
;
Structure prediction by ZEFSAII (Michael W. Deem and Ramdas Pophale) SiO2 
 PCOD9092324
Probable space group: P -1
;
_chemical_formula_sum "Si O2"
_cell_formula_units_Z 15
_cell_length_a 13.420767
_cell_length_b 7.411474
_cell_length_c 9.867165
_cell_angle_alpha 115.716907
_cell_angle_beta 131.532265
_cell_angle_gamma 52.466499
_cell_volume 581.876703
_symmetry_space_group_name_H-M "P -1"
_symmetry_group_IT_number 2
_symmetry_cell_setting 'triclinic'
loop_
_space_group_symop_operation_xyz
x,y,z
-x,-y,-z
loop_
_atom_site_type_symbol
_atom_site_label
_atom_site_fract_x
_atom_site_fract_y
_atom_site_fract_z
Si Si1 0.536844 0.203411 0.053455
Si Si2 0.631719 0.835326 0.340110
Si Si3 0.262150 0.816905 0.217445
Si Si4 0.953102 0.077047 0.162198
Si Si5 0.837436 0.814911 0.098417
Si Si6 0.399019 0.346043 0.250575
Si Si7 0.500000 0.000000 0.500000
Si Si8 0.065376 0.255426 0.544196
O O1 0.493728 0.339814 0.197903
O O2 0.705958 0.069933 0.107747
O O3 0.428276 0.295312 0.854546
O O4 0.500000 0.000000 0.000000
O O5 0.760290 0.862190 0.386765
O O6 0.500838 0.106707 0.347743
O O7 0.650026 0.765498 0.487751
O O8 0.336112 0.605778 0.321679
O O9 0.381463 0.897888 0.311341
O O10 0.190575 0.753174 0.001124
O O11 0.110388 0.014925 0.211842
O O12 0.973277 0.145717 0.354171
O O13 0.932707 0.852715 0.081224
O O14 0.936233 0.719284 0.289568
O O15 0.745065 0.686378 0.930354
O O16 0.000000 0.500000 0.500000
#
# Coordination Sequence:
#
# PCOD9092324 Si02
#       8
#     2   2   2   2   2   2   1   2
#     4   8  15  34  66  85 120 156 204 266 312 354
#     4  10  20  41  64  92 128 166 211 275 311 373
#     4  11  25  44  66  93 130 179 213 270 322 390
#     4  11  25  43  62  95 141 169 210 267 332 386
#     4  10  19  41  66  94 130 172 205 273 323 380
#     4  10  19  40  72  93 125 166 222 265 324 376
#     4  12  24  46  64  88 134 172 222 266 324 378
#     4  12  22  41  66  93 134 173 212 261 326 392
#
# _framework density 25.778656000000002
#
# number of rings (size 3 to 8) (size 9 to 14) (size 15 to 20)
#    0.000    1.867    5.333    2.800    0.000    1.067 
#    4.800    1.333    0.000    0.000    0.000    0.000 
#    0.000    0.000    0.000    0.000    0.000    0.000 
#
# Total GULP energy -83522.792399 kJ/mol
# GULP energy per Si atom -5568.186160 kJ/mol
# Density = 2.571998 g / cm^3
# Si number density = 25.778656 Si / 1000 Ang^3
#
#
#
# Elastic Constant Matrix: (Units=GPa)
#
#
# Indices 1 2 3 4 5 6 
#
# 1 97.7834 9.3294 6.4119 0.3448 17.5191 10.4750
# 2 9.3294 69.3215 20.9785 -13.0372 12.8308 16.3295
# 3 6.4119 20.9785 112.1668 -10.2622 12.8873 5.5269
# 4 0.3448 -13.0372 -10.2622 25.5861 4.1966 -4.0038
# 5 17.5191 12.8308 12.8873 4.1966 48.8396 4.7467
# 6 10.4750 16.3295 5.5269 -4.0038 4.7467 21.8041
#
#
#
# Elastic Compliance Matrix: (Units=1/GPa)
#
#
# Indices 1 2 3 4 5 6 
#
# 1 0.011384 0.000278 -0.000061 -0.000206 -0.003646 -0.004906
# 2 0.000278 0.020265 -0.001925 0.008349 -0.004435 -0.012324
# 3 -0.000061 -0.001925 0.009855 0.003379 -0.002374 0.000110
# 4 -0.000206 0.008349 0.003379 0.046377 -0.007297 0.003094
# 5 -0.003646 -0.004435 -0.002374 -0.007297 0.024294 -0.000954
# 6 -0.004906 -0.012324 0.000110 0.003094 -0.000954 0.058197
#
#
# Mechanical properties :
#
#
# Convention : Reuss Voigt Hill
#
# Bulk Modulus (GPa) = 26.25536 39.19015 32.72275
# Shear Modulus (GPa) = 26.81190 35.41607 31.11399
#
# Velocity S-wave (km/s) = 3.22853 3.71057 3.47791
# Velocity P-wave (km/s) = 4.90967 5.79598 5.37114
#
# Compressibility (1/GPa) = 0.03808747
#
# Stress axis : x y z
#
# Youngs Moduli (GPa) = 87.84564 49.34657 101.46760
#
# Poissons Ratio (x) = -0.01373 0.00619
# Poissons Ratio (y) = -0.02444 0.19536
# Poissons Ratio (z) = 0.00536 0.09501
#
# Static dielectric constant tensor:
#      x y z
#    x 1.355960 0.018700 -0.609780 
#    y 0.018700 2.149710 -0.051650 
#    z -0.609780 -0.051650 2.159370 
# 
# From -- ./inp_files/445098.got.cif
#   From: 2010.05.17/outbox.cif.g08.bks.cpg/sg2_223_cif.got.tgz:445098.got - 2010.06.03 11:33:40.
