data_PCOD9092590
_publ_section_title
;
Structure prediction by ZEFSAII (Michael W. Deem and Ramdas Pophale) SiO2 
 PCOD9092590
Probable space group: P -1
;
_chemical_formula_sum "Si O2"
_cell_formula_units_Z 12
_cell_length_a 23.955001
_cell_length_b 9.594444
_cell_length_c 5.254820
_cell_angle_alpha 138.341123
_cell_angle_beta 51.211575
_cell_angle_gamma 144.811431
_cell_volume 462.219993
_symmetry_space_group_name_H-M "P -1"
_symmetry_group_IT_number 2
_symmetry_cell_setting 'triclinic'
loop_
_space_group_symop_operation_xyz
x,y,z
-x,-y,-z
loop_
_atom_site_type_symbol
_atom_site_label
_atom_site_fract_x
_atom_site_fract_y
_atom_site_fract_z
Si Si1 0.567458 0.308904 0.612243
Si Si2 0.140015 0.738185 0.539521
Si Si3 0.583224 0.814818 0.453572
Si Si4 0.296701 0.928112 0.035526
Si Si5 0.031957 0.835702 0.602040
Si Si6 0.232576 0.195945 0.290571
O O1 0.518591 0.270694 0.429208
O O2 0.680991 0.467576 0.514899
O O3 0.500000 0.000000 0.500000
O O4 0.566650 0.534082 0.064047
O O5 0.078957 0.789485 0.629607
O O6 0.068144 0.485973 0.604695
O O7 0.191227 0.670578 0.113016
O O8 0.223210 0.024839 0.843188
O O9 0.626430 0.938133 0.774550
O O10 0.656203 0.041481 0.329130
O O11 0.270832 0.122389 0.307055
O O12 0.121466 0.039551 0.433770
O O13 0.000000 0.000000 0.000000
#
# Coordination Sequence:
#
# PCOD9092590 Si02
#       6
#     2   2   2   2   2   2
#     4  10  22  41  64  96 133 177 214 267 320 383
#     4  10  20  42  65  95 129 173 208 276 331 388
#     4  10  22  41  64  95 133 173 217 261 316 390
#     4  10  19  41  69  95 130 172 214 262 324 385
#     4  10  23  40  65  96 127 169 220 272 333 394
#     4  10  21  41  67  92 137 170 220 273 326 387
#
# _framework density 25.961666000000001
#
# number of rings (size 3 to 8) (size 9 to 14) (size 15 to 20)
#    0.000    2.000    3.333    0.500    0.000    8.000 
#    3.000    9.167    0.000    0.000    0.000    0.000 
#    0.000    0.000    0.000    0.000    0.000    0.000 
#
# Total GULP energy -66992.209247 kJ/mol
# GULP energy per Si atom -5582.684104 kJ/mol
# Density = 2.590258 g / cm^3
# Si number density = 25.961666 Si / 1000 Ang^3
#
#
#
# Elastic Constant Matrix: (Units=GPa)
#
#
# Indices 1 2 3 4 5 6 
#
# 1 93.1460 9.2616 25.3546 -7.1282 24.1998 11.6153
# 2 9.2616 163.2536 28.3991 -10.3957 2.8540 26.9605
# 3 25.3546 28.3991 79.6104 -6.5327 7.5466 2.4811
# 4 -7.1282 -10.3957 -6.5327 48.9540 7.8179 -4.7559
# 5 24.1998 2.8540 7.5466 7.8179 44.6149 -12.0861
# 6 11.6153 26.9605 2.4811 -4.7559 -12.0861 42.6429
#
#
#
# Elastic Compliance Matrix: (Units=1/GPa)
#
#
# Indices 1 2 3 4 5 6 
#
# 1 0.015551 0.001427 -0.003997 0.002965 -0.010408 -0.007525
# 2 0.001427 0.007553 -0.002623 0.001327 -0.002560 -0.005589
# 3 -0.003997 -0.002623 0.014766 0.000996 0.000222 0.002062
# 4 0.002965 0.001327 0.000996 0.022140 -0.005995 -0.000935
# 5 -0.010408 -0.002560 0.000222 -0.005995 0.032775 0.013061
# 6 -0.007525 -0.005589 0.002062 -0.000935 0.013061 0.032511
#
#
# Mechanical properties :
#
#
# Convention : Reuss Voigt Hill
#
# Bulk Modulus (GPa) = 36.38547 51.33783 43.86165
# Shear Modulus (GPa) = 34.51949 45.44201 39.98075
#
# Velocity S-wave (km/s) = 3.65037 4.18826 3.92853
# Velocity P-wave (km/s) = 5.64025 6.57313 6.12448
#
# Compressibility (1/GPa) = 0.02748350
#
# Stress axis : x y z
#
# Youngs Moduli (GPa) = 64.30256 132.39727 67.72164
#
# Poissons Ratio (x) = -0.18887 0.27070
# Poissons Ratio (y) = -0.09173 0.17763
# Poissons Ratio (z) = 0.25704 0.34727
#
# Static dielectric constant tensor:
#      x y z
#    x 2.039180 0.066910 -0.090810 
#    y 0.066910 2.271800 -0.077880 
#    z -0.090810 -0.077880 2.094630 
# 
# From -- ./inp_files/123038.got.cif
#   From: 2010.05.17/outbox.cif.g08.bks.cpg/sg2_62_cif.got.tgz:123038.got - 2010.06.03 11:33:40.
