data_PCOD9092621
_publ_section_title
;
Structure prediction by ZEFSAII (Michael W. Deem and Ramdas Pophale) SiO2 
 PCOD9092621
Probable space group: P -1
;
_chemical_formula_sum "Si O2"
_cell_formula_units_Z 15
_cell_length_a 21.453204
_cell_length_b 9.700311
_cell_length_c 11.464964
_cell_angle_alpha 59.378005
_cell_angle_beta 151.981873
_cell_angle_gamma 137.972526
_cell_volume 664.094612
_symmetry_space_group_name_H-M "P -1"
_symmetry_group_IT_number 2
_symmetry_cell_setting 'triclinic'
loop_
_space_group_symop_operation_xyz
x,y,z
-x,-y,-z
loop_
_atom_site_type_symbol
_atom_site_label
_atom_site_fract_x
_atom_site_fract_y
_atom_site_fract_z
Si Si1 0.957642 0.223561 0.807725
Si Si2 0.354026 0.602035 0.180647
Si Si3 0.585092 0.023042 0.005760
Si Si4 0.031056 0.923830 0.698385
Si Si5 0.801924 0.426667 0.445599
Si Si6 0.566333 0.637484 0.737507
Si Si7 0.817702 0.800846 0.627593
Si Si8 0.000000 0.500000 0.500000
O O1 0.850198 0.290987 0.631689
O O2 0.825050 0.971911 0.639282
O O3 0.125589 0.424738 0.906374
O O4 0.063491 0.225128 0.087416
O O5 0.464646 0.643569 0.461070
O O6 0.369085 0.472634 0.168478
O O7 0.434638 0.840046 0.169191
O O8 0.427140 0.748175 0.835196
O O9 0.500000 0.000000 0.000000
O O10 0.815286 0.207972 0.307396
O O11 0.932022 0.667394 0.623226
O O12 0.925124 0.912354 0.636990
O O13 0.000000 0.000000 0.500000
O O14 0.255210 0.114956 0.019862
O O15 0.872757 0.480129 0.404293
O O16 0.398915 0.448925 0.632442
#
# Coordination Sequence:
#
# PCOD9092621 Si02
#       8
#     2   2   2   2   2   2   2   1
#     4  10  20  42  74 101 130 171 227 290 324 400
#     4  10  19  41  71 102 128 171 232 289 324 392
#     4  10  22  37  63 100 131 167 220 273 334 388
#     4  12  29  46  63  97 145 181 218 281 348 414
#     4  11  25  41  67  98 133 182 220 276 340 394
#     4  10  23  42  70  95 133 179 226 278 340 395
#     4  10  23  43  69 102 131 173 229 273 342 399
#     4  10  22  42  64  98 132 170 226 272 320 404
#
# _framework density 22.587143000000001
#
# number of rings (size 3 to 8) (size 9 to 14) (size 15 to 20)
#    0.000    1.600    2.667    0.800    9.333    2.133 
#    0.000    1.333    0.000    0.000    0.000    0.000 
#    0.000    0.000    0.000    0.000    0.000    0.000 
#
# Total GULP energy -83650.425787 kJ/mol
# GULP energy per Si atom -5576.695052 kJ/mol
# Density = 2.253573 g / cm^3
# Si number density = 22.587143 Si / 1000 Ang^3
#
#
#
# Elastic Constant Matrix: (Units=GPa)
#
#
# Indices 1 2 3 4 5 6 
#
# 1 42.8421 25.5879 30.4302 14.0956 4.0085 13.2156
# 2 25.5879 108.0734 70.6666 25.2176 -0.1584 6.2397
# 3 30.4302 70.6666 149.2265 55.3972 13.3137 0.9114
# 4 14.0956 25.2176 55.3972 56.9265 0.8181 5.1414
# 5 4.0085 -0.1584 13.3137 0.8181 24.4576 16.5562
# 6 13.2156 6.2397 0.9114 5.1414 16.5562 37.9271
#
#
#
# Elastic Compliance Matrix: (Units=1/GPa)
#
#
# Indices 1 2 3 4 5 6 
#
# 1 0.032988 -0.003237 -0.005755 0.000023 0.007144 -0.013946
# 2 -0.003237 0.015047 -0.008038 0.002301 0.008402 -0.005134
# 3 -0.005755 -0.008038 0.018084 -0.013454 -0.016602 0.011964
# 4 0.000023 0.002301 -0.013454 0.030337 0.012984 -0.009843
# 5 0.007144 0.008402 -0.016602 0.012984 0.073692 -0.037401
# 6 -0.013946 -0.005134 0.011964 -0.009843 -0.037401 0.049444
#
#
# Mechanical properties :
#
#
# Convention : Reuss Voigt Hill
#
# Bulk Modulus (GPa) = 31.19162 61.50127 46.34644
# Shear Modulus (GPa) = 18.91524 35.42604 27.17064
#
# Velocity S-wave (km/s) = 2.89698 3.96462 3.47208
# Velocity P-wave (km/s) = 5.00295 6.94587 6.05288
#
# Compressibility (1/GPa) = 0.03205989
#
# Stress axis : x y z
#
# Youngs Moduli (GPa) = 30.31371 66.45856 55.29845
#
# Poissons Ratio (x) = 0.21515 0.31822
# Poissons Ratio (y) = 0.09814 0.44447
# Poissons Ratio (z) = 0.17444 0.53417
#
# Static dielectric constant tensor:
#      x y z
#    x 1.921700 0.071060 -0.120550 
#    y 0.071060 1.879740 -0.076270 
#    z -0.120550 -0.076270 2.045150 
# 
# From -- ./inp_files/469929.got.cif
#   From: 2010.05.17/outbox.cif.g08.bks.cpg/sg2_235_cif.got.tgz:469929.got - 2010.06.03 11:33:40.
