data_PCOD9092307
_publ_section_title
;
Structure prediction by ZEFSAII (Michael W. Deem and Ramdas Pophale) SiO2 
 PCOD9092307
Probable space group: P -1
;
_chemical_formula_sum "Si O2"
_cell_formula_units_Z 14
_cell_length_a 8.574432
_cell_length_b 14.540961
_cell_length_c 10.396549
_cell_angle_alpha 27.034837
_cell_angle_beta 115.061807
_cell_angle_gamma 105.150035
_cell_volume 512.110123
_symmetry_space_group_name_H-M "P -1"
_symmetry_group_IT_number 2
_symmetry_cell_setting 'triclinic'
loop_
_space_group_symop_operation_xyz
x,y,z
-x,-y,-z
loop_
_atom_site_type_symbol
_atom_site_label
_atom_site_fract_x
_atom_site_fract_y
_atom_site_fract_z
Si Si1 0.723430 0.618735 0.235514
Si Si2 0.392053 0.133190 0.413716
Si Si3 0.158913 0.910547 0.768524
Si Si4 0.010896 0.856343 0.055997
Si Si5 0.731099 0.592062 0.554917
Si Si6 0.439857 0.462227 0.190584
Si Si7 0.091690 0.536276 0.853452
O O1 0.796872 0.681044 0.905218
O O2 0.826255 0.797258 0.033656
O O3 0.571803 0.591476 0.120004
O O4 0.856491 0.379706 0.580481
O O5 0.506352 0.271493 0.351682
O O6 0.500000 0.000000 0.500000
O O7 0.320720 0.995706 0.666201
O O8 0.082099 0.954410 0.832666
O O9 0.219558 0.659398 0.100041
O O10 0.000000 0.000000 0.500000
O O11 0.351042 0.345388 0.689674
O O12 0.000000 0.000000 0.000000
O O13 0.605233 0.660729 0.547082
O O14 0.923252 0.639540 0.576432
O O15 0.256254 0.608674 0.880018
O O16 0.000000 0.500000 0.000000
#
# Coordination Sequence:
#
# PCOD9092307 Si02
#       7
#     2   2   2   2   2   2   2
#     4  10  22  45  69 106 150 185 259 310 374 460
#     4  10  22  40  69 105 147 187 241 320 374 438
#     4  11  22  43  71 102 146 191 256 308 369 453
#     4  10  25  45  73 107 145 211 249 307 382 472
#     4  10  19  40  71 105 140 197 246 303 380 457
#     4   9  20  40  69 101 145 194 239 313 383 436
#     4   8  17  36  68  99 137 188 248 288 376 447
#
# _framework density 27.337869000000001
#
# number of rings (size 3 to 8) (size 9 to 14) (size 15 to 20)
#    0.857    1.429    1.429    0.429    2.000    1.143 
#    5.143    2.143    9.429    0.000    0.000    0.000 
#    0.000    0.000    0.000    0.000    0.000    0.000 
#
# Total GULP energy -78299.912147 kJ/mol
# GULP energy per Si atom -5592.850868 kJ/mol
# Density = 2.727565 g / cm^3
# Si number density = 27.337869 Si / 1000 Ang^3
#
#
#
# Elastic Constant Matrix: (Units=GPa)
#
#
# Indices 1 2 3 4 5 6 
#
# 1 206.1763 124.2415 60.4866 2.3804 -43.1504 -11.1117
# 2 124.2415 261.1228 57.8282 5.5007 -10.7511 -5.3206
# 3 60.4866 57.8282 80.9084 -4.0108 -10.6987 11.1819
# 4 2.3804 5.5007 -4.0108 37.9035 -1.7426 -1.6700
# 5 -43.1504 -10.7511 -10.6987 -1.7426 49.4577 6.2514
# 6 -11.1117 -5.3206 11.1819 -1.6700 6.2514 77.9799
#
#
#
# Elastic Compliance Matrix: (Units=1/GPa)
#
#
# Indices 1 2 3 4 5 6 
#
# 1 0.009448 -0.003312 -0.004007 -0.000186 0.006502 0.001170
# 2 -0.003312 0.005798 -0.002050 -0.000933 -0.002153 0.000370
# 3 -0.004007 -0.002050 0.017413 0.002266 0.000308 -0.003184
# 4 -0.000186 -0.000933 0.002266 0.026822 0.001061 0.000074
# 5 0.006502 -0.002153 0.000308 0.001061 0.025692 -0.001302
# 6 0.001170 0.000370 -0.003184 0.000074 -0.001302 0.013578
#
#
# Mechanical properties :
#
#
# Convention : Reuss Voigt Hill
#
# Bulk Modulus (GPa) = 71.83334 114.81334 93.32334
# Shear Modulus (GPa) = 40.94024 53.44498 47.19261
#
# Velocity S-wave (km/s) = 3.87404 4.42631 4.15935
# Velocity P-wave (km/s) = 6.80765 8.25906 7.56823
#
# Compressibility (1/GPa) = 0.01392111
#
# Stress axis : x y z
#
# Youngs Moduli (GPa) = 105.84717 172.46787 57.42784
#
# Poissons Ratio (x) = 0.57128 0.23009
# Poissons Ratio (y) = 0.35061 0.11772
# Poissons Ratio (z) = 0.42409 0.35354
#
# Static dielectric constant tensor:
#      x y z
#    x 2.196820 -0.036260 -0.022870 
#    y -0.036260 2.169280 0.078790 
#    z -0.022870 0.078790 2.277290 
# 
# From -- ./inp_files/393647.got.cif
#   From: 2010.05.17/outbox.cif.g08.bks.cpg/sg2_197_cif.got.tgz:393647.got - 2010.06.03 11:33:40.
