data_PCOD9092848
_publ_section_title
;
Structure prediction by ZEFSAII (Michael W. Deem and Ramdas Pophale) SiO2 
 PCOD9092848
Probable space group: P -1
;
_chemical_formula_sum "Si O2"
_cell_formula_units_Z 16
_cell_length_a 17.231267
_cell_length_b 8.174910
_cell_length_c 8.522712
_cell_angle_alpha 118.361739
_cell_angle_beta 96.777866
_cell_angle_gamma 45.639326
_cell_volume 710.216383
_symmetry_space_group_name_H-M "P -1"
_symmetry_group_IT_number 2
_symmetry_cell_setting 'triclinic'
loop_
_space_group_symop_operation_xyz
x,y,z
-x,-y,-z
loop_
_atom_site_type_symbol
_atom_site_label
_atom_site_fract_x
_atom_site_fract_y
_atom_site_fract_z
Si Si1 0.672839 0.820834 0.707937
Si Si2 0.557282 0.656594 0.738436
Si Si3 0.713693 0.829140 0.069496
Si Si4 0.130203 0.719253 0.644550
Si Si5 0.794612 0.311996 0.023618
Si Si6 0.550523 0.614680 0.087640
Si Si7 0.764158 0.092642 0.396519
Si Si8 0.073494 0.183340 0.396919
O O1 0.626364 0.711717 0.719132
O O2 0.774042 0.604877 0.515455
O O3 0.558660 0.099158 0.727315
O O4 0.714469 0.851364 0.890294
O O5 0.630816 0.363882 0.541411
O O6 0.421413 0.920516 0.797475
O O7 0.568386 0.641059 0.922364
O O8 0.768485 0.537252 0.008094
O O9 0.772605 0.901439 0.198566
O O10 0.127265 0.756034 0.845885
O O11 0.176931 0.828318 0.630862
O O12 0.014164 0.835194 0.599627
O O13 0.670646 0.453915 0.123256
O O14 0.851801 0.035552 0.826235
O O15 0.500000 0.500000 0.000000
O O16 0.836933 0.934460 0.498188
O O17 0.000000 0.500000 0.500000
#
# Coordination Sequence:
#
# PCOD9092848 Si02
#       8
#     2   2   2   2   2   2   2   2
#     4  10  21  43  63  97 137 178 211 268 328 390
#     4  10  19  43  64  97 139 181 210 260 338 396
#     4  11  21  40  71  97 135 180 212 262 338 405
#     4  11  27  43  68 101 133 170 229 275 322 388
#     4  12  24  46  67 100 135 173 224 269 333 395
#     4  11  22  35  68  98 137 172 214 272 328 390
#     4  11  24  43  69 100 131 175 223 276 326 394
#     4  12  27  50  71  89 131 182 224 278 332 386
#
# _framework density 22.528345000000002
#
# number of rings (size 3 to 8) (size 9 to 14) (size 15 to 20)
#    0.000    1.000    3.750    3.375    5.250    1.500 
#    0.000    1.875    0.000    0.000    0.000    0.000 
#    0.000    0.000    0.000    0.000    0.000    0.000 
#
# Total GULP energy -89359.989505 kJ/mol
# GULP energy per Si atom -5584.999344 kJ/mol
# Density = 2.247707 g / cm^3
# Si number density = 22.528345 Si / 1000 Ang^3
#
#
#
# Elastic Constant Matrix: (Units=GPa)
#
#
# Indices 1 2 3 4 5 6 
#
# 1 75.9989 12.7125 24.7206 1.6406 19.9525 -9.8940
# 2 12.7125 65.1183 49.4363 18.7749 5.1028 7.0450
# 3 24.7206 49.4363 114.0058 17.0176 27.0197 -17.3694
# 4 1.6406 18.7749 17.0176 23.6137 -3.2755 5.1331
# 5 19.9525 5.1028 27.0197 -3.2755 34.9393 1.3334
# 6 -9.8940 7.0450 -17.3694 5.1331 1.3334 19.5868
#
#
#
# Elastic Compliance Matrix: (Units=1/GPa)
#
#
# Indices 1 2 3 4 5 6 
#
# 1 0.020633 -0.010774 0.010597 -0.009305 -0.020327 0.027518
# 2 -0.010774 0.043590 -0.031016 0.003190 0.026027 -0.051234
# 3 0.010597 -0.031016 0.043229 -0.026808 -0.039930 0.064587
# 4 -0.009305 0.003190 -0.026808 0.075861 0.034670 -0.051862
# 5 -0.020327 0.026027 -0.039930 0.034670 0.073194 -0.069107
# 6 0.027518 -0.051234 0.064587 -0.051862 -0.069107 0.158955
#
#
# Mechanical properties :
#
#
# Convention : Reuss Voigt Hill
#
# Bulk Modulus (GPa) = 22.19021 47.65132 34.92076
# Shear Modulus (GPa) = 10.14465 26.84486 18.49476
#
# Velocity S-wave (km/s) = 2.12434 3.45571 2.86834
# Velocity P-wave (km/s) = 3.98603 6.09263 5.14823
#
# Compressibility (1/GPa) = 0.04506493
#
# Stress axis : x y z
#
# Youngs Moduli (GPa) = 48.46563 22.94084 23.13288
#
# Poissons Ratio (x) = 0.24717 -0.24514
# Poissons Ratio (y) = 0.52219 0.71749
# Poissons Ratio (z) = -0.51359 0.71154
#
# Static dielectric constant tensor:
#      x y z
#    x 1.806220 -0.020210 -0.021430 
#    y -0.020210 1.825470 0.029170 
#    z -0.021430 0.029170 1.842880 
# 
# From -- ./inp_files/329460.got.cif
#   From: 2010.05.17/outbox.cif.g08.bks.cpg/sg2_165_cif.got.tgz:329460.got - 2010.06.03 11:33:40.
