data_PCOD9092858
_publ_section_title
;
Structure prediction by ZEFSAII (Michael W. Deem and Ramdas Pophale) SiO2 
 PCOD9092858
Probable space group: P -1
;
_chemical_formula_sum "Si O2"
_cell_formula_units_Z 16
_cell_length_a 8.153041
_cell_length_b 12.964309
_cell_length_c 10.061796
_cell_angle_alpha 126.748891
_cell_angle_beta 51.222096
_cell_angle_gamma 121.261353
_cell_volume 646.377391
_symmetry_space_group_name_H-M "P -1"
_symmetry_group_IT_number 2
_symmetry_cell_setting 'triclinic'
loop_
_space_group_symop_operation_xyz
x,y,z
-x,-y,-z
loop_
_atom_site_type_symbol
_atom_site_label
_atom_site_fract_x
_atom_site_fract_y
_atom_site_fract_z
Si Si1 0.267881 0.690757 0.778773
Si Si2 0.440222 0.081406 0.311807
Si Si3 0.712188 0.414636 0.712035
Si Si4 0.059871 0.313967 0.300860
Si Si5 0.905542 0.167723 0.789797
Si Si6 0.993576 0.568735 0.197001
Si Si7 0.648082 0.824981 0.298044
Si Si8 0.763208 0.917538 0.021034
O O1 0.495405 0.769829 0.663777
O O2 0.206445 0.531422 0.704665
O O3 0.082787 0.712950 0.783952
O O4 0.238230 0.760511 0.987124
O O5 0.456623 0.100131 0.477563
O O6 0.222541 0.974878 0.306021
O O7 0.623547 0.012348 0.106634
O O8 0.770820 0.547777 0.701263
O O9 0.475322 0.327834 0.748757
O O10 0.882979 0.330211 0.510234
O O11 0.788724 0.442530 0.844859
O O12 0.189620 0.203377 0.178624
O O13 0.996199 0.277023 0.714320
O O14 0.106283 0.152224 0.764133
O O15 0.000000 0.500000 0.000000
O O16 0.641618 0.863329 0.177654
O O17 0.000000 0.000000 0.000000
#
# Coordination Sequence:
#
# PCOD9092858 Si02
#       8
#     2   2   2   2   2   2   2   2
#     4  10  19  43  66  90 133 175 221 273 332 394
#     4  12  24  41  67  97 134 180 224 276 339 388
#     4  10  21  41  73  95 132 171 219 272 337 388
#     4  10  20  41  68  99 128 169 218 277 333 394
#     4  11  23  42  63  95 136 181 222 271 336 395
#     4   9  21  41  67  96 132 172 211 272 335 398
#     4  12  24  42  66  97 135 175 229 275 326 397
#     4  12  23  40  64  98 134 171 224 277 331 398
#
# _framework density 24.753337999999999
#
# number of rings (size 3 to 8) (size 9 to 14) (size 15 to 20)
#    0.000    1.250    3.750    1.875    0.000    1.500 
#    6.750    3.125    0.000    0.000    0.000    0.000 
#    0.000    0.000    0.000    0.000    0.000    0.000 
#
# Total GULP energy -89475.065554 kJ/mol
# GULP energy per Si atom -5592.191597 kJ/mol
# Density = 2.469700 g / cm^3
# Si number density = 24.753338 Si / 1000 Ang^3
#
#
#
# Elastic Constant Matrix: (Units=GPa)
#
#
# Indices 1 2 3 4 5 6 
#
# 1 36.4298 27.1806 -1.5544 7.7596 8.6938 17.4391
# 2 27.1806 185.6402 19.6606 -1.8430 7.7633 27.7100
# 3 -1.5544 19.6606 69.8413 6.8098 -0.9851 2.3604
# 4 7.7596 -1.8430 6.8098 18.7007 1.9230 7.7006
# 5 8.6938 7.7633 -0.9851 1.9230 31.5979 3.7533
# 6 17.4391 27.7100 2.3604 7.7006 3.7533 42.2266
#
#
#
# Elastic Compliance Matrix: (Units=1/GPa)
#
#
# Indices 1 2 3 4 5 6 
#
# 1 0.041059 -0.004573 0.003779 -0.013520 -0.007926 -0.010997
# 2 -0.004573 0.006875 -0.002405 0.004868 -0.000405 -0.003340
# 3 0.003779 -0.002405 0.015832 -0.007831 0.000459 0.000519
# 4 -0.013520 0.004868 -0.007831 0.066272 -0.000661 -0.009200
# 5 -0.007926 -0.000405 0.000459 -0.000661 0.033909 0.000620
# 6 -0.010997 -0.003340 0.000519 -0.009200 0.000620 0.032009
#
#
# Mechanical properties :
#
#
# Convention : Reuss Voigt Hill
#
# Bulk Modulus (GPa) = 17.43105 42.49832 29.96468
# Shear Modulus (GPa) = 22.57592 34.94669 28.76130
#
# Velocity S-wave (km/s) = 3.02327 3.76146 3.41239
# Velocity P-wave (km/s) = 4.38680 6.00590 5.25903
#
# Compressibility (1/GPa) = 0.05736890
#
# Stress axis : x y z
#
# Youngs Moduli (GPa) = 24.35508 145.45792 63.16444
#
# Poissons Ratio (x) = 0.66521 -0.23872
# Poissons Ratio (y) = 0.11138 0.15188
# Poissons Ratio (z) = -0.09205 0.34976
#
# Static dielectric constant tensor:
#      x y z
#    x 1.964480 -0.033530 0.016730 
#    y -0.033530 1.990620 0.008200 
#    z 0.016730 0.008200 1.980120 
# 
# From -- ./inp_files/399556.got.cif
#   From: 2010.05.17/outbox.cif.g08.bks.cpg/sg2_200_cif.got.tgz:399556.got - 2010.06.03 11:33:40.
