data_PCOD9092579
_publ_section_title
;
Structure prediction by ZEFSAII (Michael W. Deem and Ramdas Pophale) SiO2 
 PCOD9092579
Probable space group: P -1
;
_chemical_formula_sum "Si O2"
_cell_formula_units_Z 16
_cell_length_a 11.326135
_cell_length_b 17.473414
_cell_length_c 10.412110
_cell_angle_alpha 133.135687
_cell_angle_beta 59.398114
_cell_angle_gamma 148.542689
_cell_volume 769.703791
_symmetry_space_group_name_H-M "P -1"
_symmetry_group_IT_number 2
_symmetry_cell_setting 'triclinic'
loop_
_space_group_symop_operation_xyz
x,y,z
-x,-y,-z
loop_
_atom_site_type_symbol
_atom_site_label
_atom_site_fract_x
_atom_site_fract_y
_atom_site_fract_z
Si Si1 0.679290 0.852281 0.504587
Si Si2 0.357443 0.401282 0.836711
Si Si3 0.786493 0.328824 0.503748
Si Si4 0.907568 0.588747 0.382293
Si Si5 0.925532 0.223313 0.764988
Si Si6 0.671466 0.629793 0.673812
Si Si7 0.464603 0.015789 0.891792
Si Si8 0.617841 0.809156 0.794778
O O1 0.741855 0.777765 0.328964
O O2 0.418148 0.713477 0.442321
O O3 0.686779 0.850822 0.654210
O O4 0.819782 0.041068 0.600417
O O5 0.526811 0.526650 0.765507
O O6 0.139587 0.344760 0.882787
O O7 0.500000 0.500000 0.000000
O O8 0.000000 0.500000 0.500000
O O9 0.892189 0.363173 0.621440
O O10 0.682068 0.160449 0.304036
O O11 0.865592 0.660455 0.585898
O O12 0.660186 0.379757 0.269614
O O13 0.975760 0.677771 0.310632
O O14 0.718925 0.169878 0.865431
O O15 0.500000 0.500000 0.500000
O O16 0.734790 0.788463 0.788496
O O17 0.345910 0.055302 0.008521
O O18 0.500000 0.000000 0.000000
#
# Coordination Sequence:
#
# PCOD9092579 Si02
#       8
#     2   2   2   2   2   2   2   2
#     4  11  22  42  67  91 133 176 212 270 332 390
#     4  12  24  42  67 102 130 163 229 281 318 390
#     4  11  21  39  67  94 125 174 222 261 324 393
#     4  11  21  41  70  91 126 180 226 255 328 402
#     4  11  24  42  65  96 128 177 215 267 336 390
#     4  10  19  41  69  87 129 177 216 259 328 396
#     4  11  23  40  62  98 136 166 214 274 325 385
#     4  11  19  42  69  87 127 180 216 257 331 401
#
# _framework density 20.787219
#
# number of rings (size 3 to 8) (size 9 to 14) (size 15 to 20)
#    0.000    1.000    8.750    0.375    0.000    5.500 
#    4.500    0.625    0.000    0.000    0.000    0.000 
#    0.000    0.000    0.000    0.000    0.000    0.000 
#
# Total GULP energy -89410.880999 kJ/mol
# GULP energy per Si atom -5588.180062 kJ/mol
# Density = 2.073991 g / cm^3
# Si number density = 20.787219 Si / 1000 Ang^3
#
#
#
# Elastic Constant Matrix: (Units=GPa)
#
#
# Indices 1 2 3 4 5 6 
#
# 1 70.3969 -0.2233 -1.8754 0.4199 4.7464 2.9505
# 2 -0.2233 60.5651 9.8129 -8.0924 19.5965 -6.2469
# 3 -1.8754 9.8129 53.0329 -7.9624 1.1409 -5.2086
# 4 0.4199 -8.0924 -7.9624 15.5109 -4.6179 0.9628
# 5 4.7464 19.5965 1.1409 -4.6179 42.2581 0.4532
# 6 2.9505 -6.2469 -5.2086 0.9628 0.4532 41.9583
#
#
#
# Elastic Compliance Matrix: (Units=1/GPa)
#
#
# Indices 1 2 3 4 5 6 
#
# 1 0.014381 0.000455 0.000304 -0.000502 -0.001880 -0.000874
# 2 0.000455 0.021015 -0.002376 0.006879 -0.009010 0.002741
# 3 0.000304 -0.002376 0.020946 0.009845 0.001557 0.001982
# 4 -0.000502 0.006879 0.009845 0.074505 0.004737 0.000521
# 5 -0.001880 -0.009010 0.001557 0.004737 0.028544 -0.001433
# 6 -0.000874 0.002741 0.001982 0.000521 -0.001433 0.024552
#
#
# Mechanical properties :
#
#
# Convention : Reuss Voigt Hill
#
# Bulk Modulus (GPa) = 18.83016 22.15813 20.49415
# Shear Modulus (GPa) = 24.40432 31.69750 28.05091
#
# Velocity S-wave (km/s) = 3.43009 3.90918 3.67744
# Velocity P-wave (km/s) = 4.97650 5.57299 5.28317
#
# Compressibility (1/GPa) = 0.05310629
#
# Stress axis : x y z
#
# Youngs Moduli (GPa) = 69.53578 47.58499 47.74180
#
# Poissons Ratio (x) = -0.02165 -0.01450
# Poissons Ratio (y) = -0.03163 0.11346
# Poissons Ratio (z) = -0.02112 0.11309
#
# Static dielectric constant tensor:
#      x y z
#    x 1.751390 0.053950 -0.049180 
#    y 0.053950 1.726220 0.034270 
#    z -0.049180 0.034270 1.740490 
# 
# From -- ./inp_files/271868.got.cif
#   From: 2010.05.17/outbox.cif.g08.bks.cpg/sg2_136_cif.got.tgz:271868.got - 2010.06.03 11:33:40.
