data_PCOD9092520
_publ_section_title
;
Structure prediction by ZEFSAII (Michael W. Deem and Ramdas Pophale) SiO2 
 PCOD9092520
Probable space group: P -1
;
_chemical_formula_sum "Si O2"
_cell_formula_units_Z 14
_cell_length_a 18.111286
_cell_length_b 17.637631
_cell_length_c 8.009406
_cell_angle_alpha 40.870086
_cell_angle_beta 53.639265
_cell_angle_gamma 24.492576
_cell_volume 649.845008
_symmetry_space_group_name_H-M "P -1"
_symmetry_group_IT_number 2
_symmetry_cell_setting 'triclinic'
loop_
_space_group_symop_operation_xyz
x,y,z
-x,-y,-z
loop_
_atom_site_type_symbol
_atom_site_label
_atom_site_fract_x
_atom_site_fract_y
_atom_site_fract_z
Si Si1 0.818578 0.348276 0.923914
Si Si2 0.118127 0.261264 0.173487
Si Si3 0.217786 0.718557 0.572261
Si Si4 0.486412 0.251139 0.562088
Si Si5 0.370720 0.802374 0.209624
Si Si6 0.968904 0.666192 0.213684
Si Si7 0.914405 0.282299 0.557095
O O1 0.600487 0.591568 0.746723
O O2 0.931116 0.197930 0.851372
O O3 0.877752 0.413051 0.789779
O O4 0.853782 0.228226 0.234032
O O5 0.075372 0.198237 0.451893
O O6 0.345503 0.023543 0.247439
O O7 0.036881 0.321215 0.999690
O O8 0.000000 0.500000 0.000000
O O9 0.255538 0.811157 0.331518
O O10 0.430973 0.426936 0.768453
O O11 0.108696 0.772453 0.481737
O O12 0.576721 0.238970 0.596011
O O13 0.291372 0.424924 0.624782
O O14 0.235929 0.057398 0.914961
O O15 0.000000 0.500000 0.500000
#
# Coordination Sequence:
#
# PCOD9092520 Si02
#       7
#     2   2   2   2   2   2   2
#     4  10  21  39  64  93 129 160 213 260 309 390
#     4  11  21  39  65  86 129 173 209 268 321 367
#     4  10  19  41  67  92 128 168 208 260 325 376
#     4   8  21  40  58  92 124 166 205 262 318 370
#     4   9  21  41  66  88 129 170 207 265 320 376
#     4  11  23  42  62  94 126 168 220 262 312 385
#     4   9  20  40  60  93 131 157 210 262 314 379
#
# _framework density 21.543600999999999
#
# number of rings (size 3 to 8) (size 9 to 14) (size 15 to 20)
#    0.857    1.429    1.429    0.857    0.000    4.000 
#    5.143    2.143    0.000    0.000    0.000    0.000 
#    0.000    0.000    0.000    0.000    0.000    0.000 
#
# Total GULP energy -78089.241921 kJ/mol
# GULP energy per Si atom -5577.802994 kJ/mol
# Density = 2.149457 g / cm^3
# Si number density = 21.543601 Si / 1000 Ang^3
#
#
#
# Elastic Constant Matrix: (Units=GPa)
#
#
# Indices 1 2 3 4 5 6 
#
# 1 63.5455 15.2722 31.3652 -0.7393 13.6213 3.7867
# 2 15.2722 87.0433 24.3592 -6.4352 0.1428 16.1263
# 3 31.3652 24.3592 104.3560 2.9246 5.4043 9.6845
# 4 -0.7393 -6.4352 2.9246 41.8551 7.7716 4.6414
# 5 13.6213 0.1428 5.4043 7.7716 36.5275 2.4217
# 6 3.7867 16.1263 9.6845 4.6414 2.4217 29.1367
#
#
#
# Elastic Compliance Matrix: (Units=1/GPa)
#
#
# Indices 1 2 3 4 5 6 
#
# 1 0.020418 -0.002049 -0.005389 0.001694 -0.007209 0.000601
# 2 -0.002049 0.014007 -0.002102 0.002912 0.000886 -0.007325
# 3 -0.005389 -0.002102 0.011873 -0.001149 0.000635 -0.001953
# 4 0.001694 0.002912 -0.001149 0.026074 -0.005680 -0.005131
# 5 -0.007209 0.000886 0.000635 -0.005680 0.031273 -0.001459
# 6 0.000601 -0.007325 -0.001953 -0.005131 -0.001459 0.039885
#
#
# Mechanical properties :
#
#
# Convention : Reuss Voigt Hill
#
# Bulk Modulus (GPa) = 36.73646 44.10421 40.42034
# Shear Modulus (GPa) = 29.12381 33.76706 31.44543
#
# Velocity S-wave (km/s) = 3.68075 3.96331 3.82464
# Velocity P-wave (km/s) = 5.92900 6.43897 6.18924
#
# Compressibility (1/GPa) = 0.02722091
#
# Stress axis : x y z
#
# Youngs Moduli (GPa) = 48.97630 71.39246 84.22300
#
# Poissons Ratio (x) = 0.14626 0.45384
# Poissons Ratio (y) = 0.10034 0.17700
# Poissons Ratio (z) = 0.26391 0.15003
#
# Static dielectric constant tensor:
#      x y z
#    x 1.748540 0.014940 0.027020 
#    y 0.014940 1.846190 -0.037910 
#    z 0.027020 -0.037910 1.807310 
# 
# From -- ./inp_files/258637.got.cif
#   From: 2010.05.17/outbox.cif.g08.bks.cpg/sg2_130_cif.got.tgz:258637.got - 2010.06.03 11:33:40.
