data_PCOD9092597
_publ_section_title
;
Structure prediction by ZEFSAII (Michael W. Deem and Ramdas Pophale) SiO2 
 PCOD9092597
Probable space group: P -1
;
_chemical_formula_sum "Si O2"
_cell_formula_units_Z 14
_cell_length_a 13.672383
_cell_length_b 13.770999
_cell_length_c 8.114283
_cell_angle_alpha 35.714359
_cell_angle_beta 136.741326
_cell_angle_gamma 133.746383
_cell_volume 591.699347
_symmetry_space_group_name_H-M "P -1"
_symmetry_group_IT_number 2
_symmetry_cell_setting 'triclinic'
loop_
_space_group_symop_operation_xyz
x,y,z
-x,-y,-z
loop_
_atom_site_type_symbol
_atom_site_label
_atom_site_fract_x
_atom_site_fract_y
_atom_site_fract_z
Si Si1 0.603968 0.847107 0.525112
Si Si2 0.111241 0.379159 0.316979
Si Si3 0.363081 0.316354 0.866218
Si Si4 0.848614 0.367527 0.448635
Si Si5 0.348264 0.438665 0.234126
Si Si6 0.626038 0.034799 0.754613
Si Si7 0.086026 0.897093 0.366791
O O1 0.614151 0.736450 0.531180
O O2 0.471726 0.939989 0.245027
O O3 0.759304 0.980491 0.561689
O O4 0.585521 0.718041 0.839853
O O5 0.224492 0.401004 0.581145
O O6 0.228989 0.412641 0.268406
O O7 0.009163 0.187458 0.477220
O O8 0.000000 0.500000 0.000000
O O9 0.495453 0.421567 0.769751
O O10 0.313017 0.131195 0.969880
O O11 0.757671 0.206210 0.666594
O O12 0.882264 0.263343 0.473341
O O13 0.000000 0.500000 0.500000
O O14 0.737885 0.485428 0.117370
O O15 0.500000 0.000000 0.500000
O O16 0.000000 0.000000 0.000000
#
# Coordination Sequence:
#
# PCOD9092597 Si02
#       7
#     2   2   2   2   2   2   2
#     4  11  22  40  75 100 132 181 241 281 337 415
#     4  12  27  43  68 101 144 184 226 293 361 404
#     4  11  22  45  73  95 135 193 236 272 351 428
#     4  12  23  37  67 108 139 175 238 292 337 410
#     4  12  25  42  64 107 142 177 231 294 343 419
#     4  10  19  41  69  99 131 183 236 279 339 411
#     4  12  22  44  68  95 136 189 230 279 350 418
#
# _framework density 23.660661999999999
#
# number of rings (size 3 to 8) (size 9 to 14) (size 15 to 20)
#    0.000    0.571    8.571    1.714    0.000    0.571 
#    0.000    0.714    0.000    0.000    0.000    0.000 
#    0.000    0.000    0.000    0.000    0.000    0.000 
#
# Total GULP energy -78204.180816 kJ/mol
# GULP energy per Si atom -5586.012915 kJ/mol
# Density = 2.360681 g / cm^3
# Si number density = 23.660662 Si / 1000 Ang^3
#
#
#
# Elastic Constant Matrix: (Units=GPa)
#
#
# Indices 1 2 3 4 5 6 
#
# 1 132.9509 40.4800 30.4420 -7.4393 6.9429 32.4128
# 2 40.4800 127.1293 16.6635 -27.7457 -2.5480 42.1600
# 3 30.4420 16.6635 91.9300 -6.1206 16.6994 17.0503
# 4 -7.4393 -27.7457 -6.1206 21.9921 9.7498 1.4711
# 5 6.9429 -2.5480 16.6994 9.7498 49.0039 -11.3935
# 6 32.4128 42.1600 17.0503 1.4711 -11.3935 58.1153
#
#
#
# Elastic Compliance Matrix: (Units=1/GPa)
#
#
# Indices 1 2 3 4 5 6 
#
# 1 0.009643 -0.000066 -0.001231 0.004637 -0.003201 -0.005714
# 2 -0.000066 0.021135 0.004278 0.034372 -0.011775 -0.019729
# 3 -0.001231 0.004278 0.014834 0.013930 -0.009519 -0.008987
# 4 0.004637 0.034372 0.013930 0.112889 -0.035719 -0.041468
# 5 -0.003201 -0.011775 -0.009519 -0.035719 0.035476 0.020980
# 6 -0.005714 -0.019729 -0.008987 -0.041468 0.020980 0.042506
#
#
# Mechanical properties :
#
#
# Convention : Reuss Voigt Hill
#
# Bulk Modulus (GPa) = 19.39056 58.57569 38.98312
# Shear Modulus (GPa) = 20.18456 43.45059 31.81757
#
# Velocity S-wave (km/s) = 2.92393 4.28998 3.67106
# Velocity P-wave (km/s) = 4.42857 7.02488 5.87201
#
# Compressibility (1/GPa) = 0.05157150
#
# Stress axis : x y z
#
# Youngs Moduli (GPa) = 103.69775 47.31552 67.41409
#
# Poissons Ratio (x) = 0.00314 0.08301
# Poissons Ratio (y) = 0.00689 -0.28837
# Poissons Ratio (z) = 0.12768 -0.20239
#
# Static dielectric constant tensor:
#      x y z
#    x 1.983110 -0.008610 -0.066920 
#    y -0.008610 1.991460 0.028930 
#    z -0.066920 0.028930 1.962130 
# 
# From -- ./inp_files/299222.got.cif
#   From: 2010.05.17/outbox.cif.g08.bks.cpg/sg2_150_cif.got.tgz:299222.got - 2010.06.03 11:33:40.
