data_PCOD9092744
_publ_section_title
;
Structure prediction by ZEFSAII (Michael W. Deem and Ramdas Pophale) SiO2 
 PCOD9092744
Probable space group: P -1
;
_chemical_formula_sum "Si O2"
_cell_formula_units_Z 12
_cell_length_a 12.935815
_cell_length_b 18.984151
_cell_length_c 9.408282
_cell_angle_alpha 127.577076
_cell_angle_beta 131.418183
_cell_angle_gamma 20.939646
_cell_volume 618.927464
_symmetry_space_group_name_H-M "P -1"
_symmetry_group_IT_number 2
_symmetry_cell_setting 'triclinic'
loop_
_space_group_symop_operation_xyz
x,y,z
-x,-y,-z
loop_
_atom_site_type_symbol
_atom_site_label
_atom_site_fract_x
_atom_site_fract_y
_atom_site_fract_z
Si Si1 0.245359 0.718350 0.021257
Si Si2 0.840755 0.340518 0.638850
Si Si3 0.682766 0.636350 0.905330
Si Si4 0.765173 0.916945 0.595977
Si Si5 0.893471 0.967796 0.297207
Si Si6 0.351433 0.831743 0.140917
O O1 0.453533 0.682809 0.121225
O O2 0.075125 0.843622 0.164265
O O3 0.500000 0.500000 0.000000
O O4 0.993147 0.819381 0.809445
O O5 0.500000 0.500000 0.500000
O O6 0.764009 0.484717 0.795575
O O7 0.032637 0.234256 0.536291
O O8 0.023807 0.164761 0.690304
O O9 0.451771 0.809308 0.789810
O O10 0.523564 0.749674 0.050127
O O11 0.000000 0.500000 0.000000
O O12 0.500000 0.000000 0.500000
O O13 0.626685 0.094029 0.650792
O O14 0.000000 0.000000 0.500000
O O15 0.000000 0.000000 0.000000
#
# Coordination Sequence:
#
# PCOD9092744 Si02
#       6
#     2   2   2   2   2   2
#     4  11  23  42  69  94 125 173 226 263 318 400
#     4  12  24  42  70  98 130 174 227 265 326 401
#     4  12  25  43  66 100 137 172 216 278 335 383
#     4  11  23  43  65  93 133 168 209 274 332 375
#     4  12  24  43  70  99 131 174 225 273 321 395
#     4  10  19  42  67  85 126 175 217 255 327 383
#
# _framework density 19.388376999999998
#
# number of rings (size 3 to 8) (size 9 to 14) (size 15 to 20)
#    0.000    0.667    5.000    6.000    0.000    0.667 
#    3.000    0.833    0.000    0.000    0.000    0.000 
#    0.000    0.000    0.000    0.000    0.000    0.000 
#
# Total GULP energy -66822.255231 kJ/mol
# GULP energy per Si atom -5568.521269 kJ/mol
# Density = 1.934425 g / cm^3
# Si number density = 19.388377 Si / 1000 Ang^3
#
#
#
# Elastic Constant Matrix: (Units=GPa)
#
#
# Indices 1 2 3 4 5 6 
#
# 1 77.3105 43.0187 -7.7533 -17.3765 6.2975 -4.5509
# 2 43.0187 128.2189 24.8370 -2.9160 2.6595 6.9116
# 3 -7.7533 24.8370 28.1472 -4.7955 -8.9394 -1.0912
# 4 -17.3765 -2.9160 -4.7955 32.1633 -5.3084 6.9974
# 5 6.2975 2.6595 -8.9394 -5.3084 43.1847 12.5553
# 6 -4.5509 6.9116 -1.0912 6.9974 12.5553 54.0831
#
#
#
# Elastic Compliance Matrix: (Units=1/GPa)
#
#
# Indices 1 2 3 4 5 6 
#
# 1 0.025661 -0.012656 0.022073 0.016235 0.003202 0.001378
# 2 -0.012656 0.015958 -0.020396 -0.008780 -0.004018 -0.001447
# 3 0.022073 -0.020396 0.068303 0.022905 0.015179 -0.000646
# 4 0.016235 -0.008780 0.022905 0.045269 0.009999 -0.005228
# 5 0.003202 -0.004018 0.015179 0.009999 0.029349 -0.007018
# 6 0.001378 -0.001447 -0.000646 -0.005228 -0.007018 0.021084
#
#
# Mechanical properties :
#
#
# Convention : Reuss Voigt Hill
#
# Bulk Modulus (GPa) = 11.36845 39.32015 25.34430
# Shear Modulus (GPa) = 19.46263 37.45783 28.46023
#
# Velocity S-wave (km/s) = 3.17176 4.40019 3.83548
# Velocity P-wave (km/s) = 4.39201 6.79263 5.71968
#
# Compressibility (1/GPa) = 0.08796272
#
# Stress axis : x y z
#
# Youngs Moduli (GPa) = 38.97036 62.66457 14.64067
#
# Poissons Ratio (x) = 0.79311 -0.32316
# Poissons Ratio (y) = 0.49323 0.29860
# Poissons Ratio (z) = -0.86018 1.27808
#
# Static dielectric constant tensor:
#      x y z
#    x 7.661030 6.594580 1.506000 
#    y 6.594580 8.898500 1.680740 
#    z 1.506000 1.680740 2.077740 
# 
# From -- ./inp_files/145272.got.cif
#   From: 2010.05.17/outbox.cif.g08.bks.cpg/sg2_73_cif.got.tgz:145272.got - 2010.06.03 11:33:40.
