data_PCOD9092436
_publ_section_title
;
Structure prediction by ZEFSAII (Michael W. Deem and Ramdas Pophale) SiO2 
 PCOD9092436
Probable space group: P -1
;
_chemical_formula_sum "Si O2"
_cell_formula_units_Z 14
_cell_length_a 8.564282
_cell_length_b 8.588272
_cell_length_c 17.823163
_cell_angle_alpha 59.209367
_cell_angle_beta 144.580694
_cell_angle_gamma 118.577157
_cell_volume 647.721557
_symmetry_space_group_name_H-M "P -1"
_symmetry_group_IT_number 2
_symmetry_cell_setting 'triclinic'
loop_
_space_group_symop_operation_xyz
x,y,z
-x,-y,-z
loop_
_atom_site_type_symbol
_atom_site_label
_atom_site_fract_x
_atom_site_fract_y
_atom_site_fract_z
Si Si1 0.448382 0.662427 0.995172
Si Si2 0.699150 0.406401 0.881560
Si Si3 0.678762 0.973755 0.749314
Si Si4 0.179903 0.278303 0.254506
Si Si5 0.349597 0.998619 0.102395
Si Si6 0.623710 0.703424 0.512528
Si Si7 0.829700 0.138567 0.357366
O O1 0.479103 0.611696 0.107533
O O2 0.500000 0.500000 0.000000
O O3 0.639783 0.841264 0.995264
O O4 0.128284 0.685783 0.858045
O O5 0.652700 0.541924 0.761995
O O6 0.701865 0.202424 0.901888
O O7 0.000000 0.500000 0.000000
O O8 0.847152 0.891033 0.771995
O O9 0.797134 0.988469 0.876216
O O10 0.413879 0.822360 0.694184
O O11 0.554750 0.157722 0.633207
O O12 0.340576 0.236042 0.402151
O O13 0.663437 0.038876 0.247560
O O14 0.500000 0.500000 0.500000
O O15 0.937492 0.705434 0.609964
O O16 0.000000 0.000000 0.500000
#
# Coordination Sequence:
#
# PCOD9092436 Si02
#       7
#     2   2   2   2   2   2   2
#     4  11  23  41  64  84 119 161 212 258 304 360
#     4  10  23  39  60  89 116 157 210 257 303 360
#     4   9  20  37  63  89 123 162 199 240 312 370
#     4  11  21  40  60  88 128 157 201 262 299 362
#     4  10  19  41  65  82 120 161 198 254 314 357
#     4  11  20  36  62  94 126 161 199 245 302 373
#     4   8  18  36  63  83 121 155 198 233 308 367
#
# _framework density 21.614225999999999
#
# number of rings (size 3 to 8) (size 9 to 14) (size 15 to 20)
#    0.857    1.143    1.429    2.571    0.000    0.000 
#    0.000   20.714    0.000    0.000    0.000    0.000 
#    0.000    0.000    0.000    0.000    0.000    0.000 
#
# Total GULP energy -77977.626648 kJ/mol
# GULP energy per Si atom -5569.830475 kJ/mol
# Density = 2.156503 g / cm^3
# Si number density = 21.614226 Si / 1000 Ang^3
#
#
#
# Elastic Constant Matrix: (Units=GPa)
#
#
# Indices 1 2 3 4 5 6 
#
# 1 122.7286 48.8393 13.6768 -10.0279 -9.7461 -18.3262
# 2 48.8393 138.3097 -2.3491 3.0664 8.5108 -0.7761
# 3 13.6768 -2.3491 57.7414 -2.3403 -7.6524 -0.6226
# 4 -10.0279 3.0664 -2.3403 30.7071 5.3633 -4.7072
# 5 -9.7461 8.5108 -7.6524 5.3633 25.4071 -14.3370
# 6 -18.3262 -0.7761 -0.6226 -4.7072 -14.3370 36.8374
#
#
#
# Elastic Compliance Matrix: (Units=1/GPa)
#
#
# Indices 1 2 3 4 5 6 
#
# 1 0.013806 -0.005716 -0.001500 0.004626 0.012698 0.012256
# 2 -0.005716 0.009785 0.000491 -0.002298 -0.008312 -0.006158
# 3 -0.001500 0.000491 0.018496 0.000135 0.005861 0.001875
# 4 0.004626 -0.002298 0.000135 0.035517 -0.001382 0.006256
# 5 0.012698 -0.008312 0.005861 -0.001382 0.067267 0.032245
# 6 0.012256 -0.006158 0.001875 0.006256 0.032245 0.046494
#
#
# Mechanical properties :
#
#
# Convention : Reuss Voigt Hill
#
# Bulk Modulus (GPa) = 34.92013 48.79041 41.85527
# Shear Modulus (GPa) = 23.32512 35.83117 29.57814
#
# Velocity S-wave (km/s) = 3.28861 4.07598 3.70328
# Velocity P-wave (km/s) = 5.53273 6.69132 6.13942
#
# Compressibility (1/GPa) = 0.02863678
#
# Stress axis : x y z
#
# Youngs Moduli (GPa) = 72.43057 102.20004 54.06496
#
# Poissons Ratio (x) = 0.58416 0.08111
# Poissons Ratio (y) = 0.41400 -0.02654
# Poissons Ratio (z) = 0.10866 -0.05016
#
# Static dielectric constant tensor:
#      x y z
#    x 2.029150 0.105250 0.013340 
#    y 0.105250 1.769090 0.009820 
#    z 0.013340 0.009820 1.881940 
# 
# From -- ./inp_files/555157.got.cif
#   From: 2010.05.17/outbox.cif.g08.bks.cpg/sg2_278_cif.got.tgz:555157.got - 2010.06.03 11:33:40.
