data_PCOD9092632
_publ_section_title
;
Structure prediction by ZEFSAII (Michael W. Deem and Ramdas Pophale) SiO2 
 PCOD9092632
Probable space group: P -1
;
_chemical_formula_sum "Si O2"
_cell_formula_units_Z 15
_cell_length_a 8.507565
_cell_length_b 14.752630
_cell_length_c 9.313025
_cell_angle_alpha 42.439678
_cell_angle_beta 114.156025
_cell_angle_gamma 98.178661
_cell_volume 695.056725
_symmetry_space_group_name_H-M "P -1"
_symmetry_group_IT_number 2
_symmetry_cell_setting 'triclinic'
loop_
_space_group_symop_operation_xyz
x,y,z
-x,-y,-z
loop_
_atom_site_type_symbol
_atom_site_label
_atom_site_fract_x
_atom_site_fract_y
_atom_site_fract_z
Si Si1 0.969131 0.486309 0.671687
Si Si2 0.245655 0.208187 0.130340
Si Si3 0.500000 0.000000 0.000000
Si Si4 0.664393 0.485804 0.757127
Si Si5 0.952671 0.320501 0.290637
Si Si6 0.487504 0.774504 0.027038
Si Si7 0.840567 0.061543 0.480353
Si Si8 0.370109 0.236955 0.448637
O O1 0.055654 0.588955 0.675948
O O2 0.000000 0.500000 0.500000
O O3 0.768442 0.516405 0.619491
O O4 0.065578 0.329222 0.935936
O O5 0.333924 0.231223 0.987612
O O6 0.372944 0.222953 0.294042
O O7 0.202388 0.060903 0.301438
O O8 0.540723 0.908919 0.272679
O O9 0.507320 0.144251 0.919234
O O10 0.564859 0.631054 0.624874
O O11 0.820250 0.410570 0.017267
O O12 0.554007 0.375640 0.808066
O O13 0.896108 0.178482 0.457699
O O14 0.158034 0.277065 0.364520
O O15 0.327847 0.865300 0.763730
O O16 0.000000 0.000000 0.500000
#
# Coordination Sequence:
#
# PCOD9092632 Si02
#       8
#     2   2   1   2   2   2   2   2
#     4  11  23  41  66  99 128 161 215 277 317 371
#     4  12  22  42  64  96 129 167 212 271 316 379
#     4  12  26  42  58  92 140 172 202 262 330 382
#     4  10  21  45  69  91 123 175 220 255 322 390
#     4  10  19  41  71  95 119 168 223 257 317 387
#     4  11  26  41  63  97 129 168 217 263 321 381
#     4  11  20  41  71  92 121 171 219 256 312 393
#     4  11  21  40  69  93 129 170 211 260 322 384
#
# _framework density 21.580971000000002
#
# number of rings (size 3 to 8) (size 9 to 14) (size 15 to 20)
#    0.000    1.067    5.333    2.000    3.733    1.067 
#    2.400    0.667    0.000    0.000    0.000    0.000 
#    0.000    0.000    0.000    0.000    0.000    0.000 
#
# Total GULP energy -83659.230180 kJ/mol
# GULP energy per Si atom -5577.282012 kJ/mol
# Density = 2.153185 g / cm^3
# Si number density = 21.580971 Si / 1000 Ang^3
#
#
#
# Elastic Constant Matrix: (Units=GPa)
#
#
# Indices 1 2 3 4 5 6 
#
# 1 43.9038 29.1268 3.8320 -2.2057 -13.2455 9.6764
# 2 29.1268 173.7808 49.5420 -16.7874 -31.4273 23.7910
# 3 3.8320 49.5420 92.3181 -10.8251 -15.9086 4.1749
# 4 -2.2057 -16.7874 -10.8251 47.8295 1.6223 -11.7397
# 5 -13.2455 -31.4273 -15.9086 1.6223 35.6917 -7.1315
# 6 9.6764 23.7910 4.1749 -11.7397 -7.1315 18.5193
#
#
#
# Elastic Compliance Matrix: (Units=1/GPa)
#
#
# Indices 1 2 3 4 5 6 
#
# 1 0.028808 -0.002840 0.001762 -0.002064 0.006987 -0.010419
# 2 -0.002840 0.009038 -0.003727 0.000168 0.003685 -0.007761
# 3 0.001762 -0.003727 0.013605 0.002723 0.004135 0.004119
# 4 -0.002064 0.000168 0.002723 0.025732 0.002963 0.017702
# 5 0.006987 0.003685 0.004135 0.002963 0.036918 0.006778
# 6 -0.010419 -0.007761 0.004119 0.017702 0.006778 0.082315
#
#
# Mechanical properties :
#
#
# Convention : Reuss Voigt Hill
#
# Bulk Modulus (GPa) = 23.90038 52.77826 38.33932
# Shear Modulus (GPa) = 22.73007 35.57489 29.15248
#
# Velocity S-wave (km/s) = 3.24890 4.06450 3.67937
# Velocity P-wave (km/s) = 5.01723 6.82172 5.98784
#
# Compressibility (1/GPa) = 0.04184034
#
# Stress axis : x y z
#
# Youngs Moduli (GPa) = 34.71247 110.64555 73.50497
#
# Poissons Ratio (x) = 0.31424 -0.12948
# Poissons Ratio (y) = 0.09858 0.27393
# Poissons Ratio (z) = -0.06115 0.41233
#
# Static dielectric constant tensor:
#      x y z
#    x 1.820600 -0.007500 0.018340 
#    y -0.007500 1.776550 -0.018100 
#    z 0.018340 -0.018100 1.782340 
# 
# From -- ./inp_files/181183.got.cif
#   From: 2010.05.17/outbox.cif.g08.bks.cpg/sg2_91_cif.got.tgz:181183.got - 2010.06.03 11:33:40.
