data_PCOD9092011
_publ_section_title
;
Structure prediction by ZEFSAII (Michael W. Deem and Ramdas Pophale) SiO2 
 PCOD9092011
Probable space group: P -1
;
_chemical_formula_sum "Si O2"
_cell_formula_units_Z 12
_cell_length_a 6.908134
_cell_length_b 15.190152
_cell_length_c 11.012529
_cell_angle_alpha 27.785096
_cell_angle_beta 108.023619
_cell_angle_gamma 110.539550
_cell_volume 504.447537
_symmetry_space_group_name_H-M "P -1"
_symmetry_group_IT_number 2
_symmetry_cell_setting 'triclinic'
loop_
_space_group_symop_operation_xyz
x,y,z
-x,-y,-z
loop_
_atom_site_type_symbol
_atom_site_label
_atom_site_fract_x
_atom_site_fract_y
_atom_site_fract_z
Si Si1 0.305396 0.465456 0.711268
Si Si2 0.016233 0.349120 0.017182
Si Si3 0.711219 0.538905 0.861536
Si Si4 0.277459 0.877702 0.604014
Si Si5 0.146794 0.053401 0.131086
Si Si6 0.281420 0.871162 0.147450
O O1 0.508975 0.538255 0.743731
O O2 0.280094 0.645441 0.404774
O O3 0.114265 0.403294 0.841906
O O4 0.297583 0.261352 0.892667
O O5 0.901664 0.523480 0.826511
O O6 0.836044 0.169828 0.230887
O O7 0.153284 0.978048 0.360506
O O8 0.802797 0.677458 0.818844
O O9 0.684451 0.331774 0.174544
O O10 0.500000 0.000000 0.500000
O O11 0.232358 0.908709 0.233170
O O12 0.913351 0.069127 0.031896
O O13 0.500000 0.000000 0.000000
#
# Coordination Sequence:
#
# PCOD9092011 Si02
#       6
#     2   2   2   2   2   2
#     4  12  23  43  71  98 133 178 226 269 341 401
#     4   9  21  36  63 101 136 176 208 268 343 398
#     4   9  20  37  60 100 137 172 212 268 325 405
#     4  10  19  40  65 101 138 169 211 274 341 389
#     4  11  25  47  66  96 142 170 225 288 317 406
#     4  11  29  46  69  96 127 187 233 276 333 387
#
# _framework density 23.788399999999999
#
# number of rings (size 3 to 8) (size 9 to 14) (size 15 to 20)
#    1.000    0.667    1.667    2.000    2.333    5.333 
#    0.000    0.000    0.000    0.000    0.000    0.000 
#    0.000    0.000    0.000    0.000    0.000    0.000 
#
# Total GULP energy -66993.440273 kJ/mol
# GULP energy per Si atom -5582.786689 kJ/mol
# Density = 2.373426 g / cm^3
# Si number density = 23.788400 Si / 1000 Ang^3
#
#
#
# Elastic Constant Matrix: (Units=GPa)
#
#
# Indices 1 2 3 4 5 6 
#
# 1 76.1278 19.5573 14.8717 11.3113 -12.7016 30.4912
# 2 19.5573 53.9733 0.0703 -8.3102 -8.4107 25.7131
# 3 14.8717 0.0703 83.2760 -4.1466 4.8615 18.7538
# 4 11.3113 -8.3102 -4.1466 34.4384 3.7260 1.0684
# 5 -12.7016 -8.4107 4.8615 3.7260 28.6011 -6.2907
# 6 30.4912 25.7131 18.7538 1.0684 -6.2907 40.6658
#
#
#
# Elastic Compliance Matrix: (Units=1/GPa)
#
#
# Indices 1 2 3 4 5 6 
#
# 1 0.021559 -0.001774 -0.001812 -0.008152 0.007604 -0.012818
# 2 -0.001774 0.030506 0.005228 0.009027 0.001642 -0.020353
# 3 -0.001812 0.005228 0.014993 0.004452 -0.004524 -0.009678
# 4 -0.008152 0.009027 0.004452 0.035315 -0.007132 -0.003679
# 5 0.007604 0.001642 -0.004524 -0.007132 0.040932 0.001867
# 6 -0.012818 -0.020353 -0.009678 -0.003679 0.001867 0.051919
#
#
# Mechanical properties :
#
#
# Convention : Reuss Voigt Hill
#
# Bulk Modulus (GPa) = 14.21609 31.37507 22.79558
# Shear Modulus (GPa) = 23.21414 32.66625 27.94019
#
# Velocity S-wave (km/s) = 3.12726 3.70969 3.43086
# Velocity P-wave (km/s) = 4.36219 5.61845 5.02970
#
# Compressibility (1/GPa) = 0.07034281
#
# Stress axis : x y z
#
# Youngs Moduli (GPa) = 46.38424 32.78087 66.69889
#
# Poissons Ratio (x) = 0.05814 0.12085
# Poissons Ratio (y) = 0.08227 -0.34871
# Poissons Ratio (z) = 0.08404 -0.17138
#
# Static dielectric constant tensor:
#      x y z
#    x 1.921720 -0.038840 0.046020 
#    y -0.038840 2.023760 -0.051000 
#    z 0.046020 -0.051000 1.884870 
# 
# From -- ./inp_files/300669.got.cif
#   From: 2010.05.17/outbox.cif.g08.bks.cpg/sg2_151_cif.got.tgz:300669.got - 2010.06.03 11:33:40.
