data_PCOD9092226
_publ_section_title
;
Structure prediction by ZEFSAII (Michael W. Deem and Ramdas Pophale) SiO2 
 PCOD9092226
Probable space group: P -1
;
_chemical_formula_sum "Si O2"
_cell_formula_units_Z 16
_cell_length_a 12.877964
_cell_length_b 12.559017
_cell_length_c 7.185036
_cell_angle_alpha 100.300637
_cell_angle_beta 45.248384
_cell_angle_gamma 120.787727
_cell_volume 676.836878
_symmetry_space_group_name_H-M "P -1"
_symmetry_group_IT_number 2
_symmetry_cell_setting 'triclinic'
loop_
_space_group_symop_operation_xyz
x,y,z
-x,-y,-z
loop_
_atom_site_type_symbol
_atom_site_label
_atom_site_fract_x
_atom_site_fract_y
_atom_site_fract_z
Si Si1 0.781911 0.819627 0.927880
Si Si2 0.833926 0.965669 0.368884
Si Si3 0.622124 0.948409 0.000945
Si Si4 0.775245 0.176465 0.478222
Si Si5 0.801558 0.729359 0.482813
Si Si6 0.803204 0.376679 0.202310
Si Si7 0.524298 0.452743 0.650042
Si Si8 0.133963 0.754491 0.203858
O O1 0.649213 0.865103 0.090150
O O2 0.843634 0.813398 0.641718
O O3 0.956668 0.936909 0.838697
O O4 0.664962 0.671015 0.093371
O O5 0.796271 0.062991 0.336509
O O6 0.715269 0.947112 0.693758
O O7 0.795049 0.819848 0.358546
O O8 0.728331 0.096377 0.972571
O O9 0.419919 0.890022 0.216043
O O10 0.794153 0.274405 0.328312
O O11 0.894226 0.247868 0.536597
O O12 0.623097 0.587910 0.683054
O O13 0.961120 0.709616 0.284665
O O14 0.660924 0.409378 0.442829
O O15 0.783084 0.322351 0.000570
O O16 0.000000 0.500000 0.000000
O O17 0.500000 0.500000 0.500000
#
# Coordination Sequence:
#
# PCOD9092226 Si02
#       8
#     2   2   2   2   2   2   2   2
#     4  11  20  42  71 100 134 178 229 283 350 411
#     4  10  20  38  76 103 134 174 231 295 343 412
#     4  10  19  40  68 106 139 167 234 296 341 411
#     4  11  24  43  72 109 137 179 235 290 350 411
#     4  11  21  44  71 103 132 184 233 282 349 416
#     4  12  28  48  66  99 146 186 235 287 339 421
#     4  12  29  47  64  97 147 183 231 292 341 415
#     4  11  22  43  75 100 138 187 229 285 355 410
#
# _framework density 23.639372000000002
#
# number of rings (size 3 to 8) (size 9 to 14) (size 15 to 20)
#    0.000    1.000    6.250    2.625    1.750    4.000 
#    4.500    1.250    0.000    0.000    0.000    0.000 
#    0.000    0.000    0.000    0.000    0.000    0.000 
#
# Total GULP energy -89277.124223 kJ/mol
# GULP energy per Si atom -5579.820264 kJ/mol
# Density = 2.358557 g / cm^3
# Si number density = 23.639372 Si / 1000 Ang^3
#
#
#
# Elastic Constant Matrix: (Units=GPa)
#
#
# Indices 1 2 3 4 5 6 
#
# 1 80.7919 26.1091 17.7354 -7.1941 -6.5419 -26.1279
# 2 26.1091 85.7832 12.7222 -4.8343 0.1688 -10.8012
# 3 17.7354 12.7222 76.5568 -20.5632 -10.1888 -11.7581
# 4 -7.1941 -4.8343 -20.5632 47.0331 2.4384 1.7667
# 5 -6.5419 0.1688 -10.1888 2.4384 37.2064 2.9584
# 6 -26.1279 -10.8012 -11.7581 1.7667 2.9584 46.7817
#
#
#
# Elastic Compliance Matrix: (Units=1/GPa)
#
#
# Indices 1 2 3 4 5 6 
#
# 1 0.016757 -0.003821 -0.001476 0.001130 0.001853 0.007946
# 2 -0.003821 0.013106 -0.001285 0.000237 -0.001149 0.000633
# 3 -0.001476 -0.001285 0.016206 0.006449 0.003564 0.002483
# 4 0.001130 0.000237 0.006449 0.024213 0.000268 0.001376
# 5 0.001853 -0.001149 0.003564 0.000268 0.028177 -0.000126
# 6 0.007946 0.000633 0.002483 0.001376 -0.000126 0.026540
#
#
# Mechanical properties :
#
#
# Convention : Reuss Voigt Hill
#
# Bulk Modulus (GPa) = 30.39109 39.58504 34.98807
# Shear Modulus (GPa) = 33.52786 38.64193 36.08489
#
# Velocity S-wave (km/s) = 3.77013 4.04746 3.91125
# Velocity P-wave (km/s) = 5.64233 6.21484 5.93549
#
# Compressibility (1/GPa) = 0.03290438
#
# Stress axis : x y z
#
# Youngs Moduli (GPa) = 59.67818 76.30097 61.70653
#
# Poissons Ratio (x) = 0.29152 0.09110
# Poissons Ratio (y) = 0.22801 0.07929
# Poissons Ratio (z) = 0.08811 0.09805
#
# Static dielectric constant tensor:
#      x y z
#    x 1.982290 -0.007740 0.052380 
#    y -0.007740 1.942750 0.034900 
#    z 0.052380 0.034900 1.902590 
# 
# From -- ./inp_files/307669.got.cif
#   From: 2010.05.17/outbox.cif.g08.bks.cpg/sg2_154_cif.got.tgz:307669.got - 2010.06.03 11:33:40.
