data_PCOD9092240
_publ_section_title
;
Structure prediction by ZEFSAII (Michael W. Deem and Ramdas Pophale) SiO2 
 PCOD9092240
Probable space group: P -1
;
_chemical_formula_sum "Si O2"
_cell_formula_units_Z 14
_cell_length_a 11.842695
_cell_length_b 12.124917
_cell_length_c 12.191856
_cell_angle_alpha 141.394191
_cell_angle_beta 142.451253
_cell_angle_gamma 38.472392
_cell_volume 601.162960
_symmetry_space_group_name_H-M "P -1"
_symmetry_group_IT_number 2
_symmetry_cell_setting 'triclinic'
loop_
_space_group_symop_operation_xyz
x,y,z
-x,-y,-z
loop_
_atom_site_type_symbol
_atom_site_label
_atom_site_fract_x
_atom_site_fract_y
_atom_site_fract_z
Si Si1 0.648795 0.058983 0.589398
Si Si2 0.700666 0.818686 0.241280
Si Si3 0.871110 0.224183 0.543173
Si Si4 0.973597 0.327618 0.907355
Si Si5 0.736369 0.414627 0.014140
Si Si6 0.915575 0.163589 0.156520
Si Si7 0.669161 0.095571 0.111887
O O1 0.631032 0.271774 0.780518
O O2 0.500000 0.000000 0.500000
O O3 0.623519 0.013845 0.408057
O O4 0.878187 0.889881 0.658039
O O5 0.944611 0.736776 0.340508
O O6 0.650899 0.648967 0.126680
O O7 0.559701 0.871539 0.065310
O O8 0.805824 0.314763 0.683862
O O9 0.697711 0.236151 0.334446
O O10 0.000000 0.000000 0.500000
O O11 0.904458 0.360112 0.004392
O O12 0.176902 0.125403 0.909930
O O13 0.000000 0.500000 0.000000
O O14 0.811505 0.354480 0.149688
O O15 0.762534 0.136587 0.102761
O O16 0.000000 0.000000 0.000000
#
# Coordination Sequence:
#
# PCOD9092240 Si02
#       7
#     2   2   2   2   2   2   2
#     4  11  23  41  68 103 141 180 220 285 348 405
#     4  12  24  44  70 103 137 179 229 288 339 402
#     4  10  22  43  67  93 136 179 228 280 337 398
#     4  11  21  42  69  93 134 182 224 279 339 401
#     4  11  24  44  68 102 139 175 236 278 337 419
#     4  10  19  40  68  94 135 179 215 280 345 401
#     4  11  23  43  71  97 133 181 228 279 352 404
#
# _framework density 23.288194000000001
#
# number of rings (size 3 to 8) (size 9 to 14) (size 15 to 20)
#    0.000    1.143    5.714    2.571    0.000    5.143 
#    5.143    0.714    0.000    0.000    0.000    0.000 
#    0.000    0.000    0.000    0.000    0.000    0.000 
#
# Total GULP energy -78011.560843 kJ/mol
# GULP energy per Si atom -5572.254346 kJ/mol
# Density = 2.323519 g / cm^3
# Si number density = 23.288194 Si / 1000 Ang^3
#
#
#
# Elastic Constant Matrix: (Units=GPa)
#
#
# Indices 1 2 3 4 5 6 
#
# 1 114.4557 20.5822 18.3126 -4.3082 5.7621 20.0417
# 2 20.5822 79.1740 29.5685 -0.3832 10.3579 30.9682
# 3 18.3126 29.5685 123.3988 -14.7541 1.4893 10.9504
# 4 -4.3082 -0.3832 -14.7541 40.3332 11.7324 6.9519
# 5 5.7621 10.3579 1.4893 11.7324 44.3059 0.2809
# 6 20.0417 30.9682 10.9504 6.9519 0.2809 34.2290
#
#
#
# Elastic Compliance Matrix: (Units=1/GPa)
#
#
# Indices 1 2 3 4 5 6 
#
# 1 0.010127 0.000528 -0.000702 0.002582 -0.002058 -0.006690
# 2 0.000528 0.022525 -0.003029 0.004546 -0.006306 -0.020591
# 3 -0.000702 -0.003029 0.009419 0.003576 -0.000460 -0.000584
# 4 0.002582 0.004546 0.003576 0.031523 -0.009783 -0.013091
# 5 -0.002058 -0.006306 -0.000460 -0.009783 0.026862 0.008824
# 6 -0.006690 -0.020591 -0.000584 -0.013091 0.008824 0.054535
#
#
# Mechanical properties :
#
#
# Convention : Reuss Voigt Hill
#
# Bulk Modulus (GPa) = 28.03880 50.43945 39.23913
# Shear Modulus (GPa) = 28.85418 40.34464 34.59941
#
# Velocity S-wave (km/s) = 3.52377 4.16674 3.85867
# Velocity P-wave (km/s) = 5.34995 6.69737 6.06122
#
# Compressibility (1/GPa) = 0.03566487
#
# Stress axis : x y z
#
# Youngs Moduli (GPa) = 98.74994 44.39433 106.17053
#
# Poissons Ratio (x) = -0.02345 0.07455
# Poissons Ratio (y) = -0.05216 0.32158
# Poissons Ratio (z) = 0.06934 0.13447
#
# Static dielectric constant tensor:
#      x y z
#    x 2.086700 0.054850 -0.118190 
#    y 0.054850 1.943050 -0.063730 
#    z -0.118190 -0.063730 2.135350 
# 
# From -- ./inp_files/291897.got.cif
#   From: 2010.05.17/outbox.cif.g08.bks.cpg/sg2_146_cif.got.tgz:291897.got - 2010.06.03 11:33:40.
