data_PCOD9092454
_publ_section_title
;
Structure prediction by ZEFSAII (Michael W. Deem and Ramdas Pophale) SiO2 
 PCOD9092454
Probable space group: P -1
;
_chemical_formula_sum "Si O2"
_cell_formula_units_Z 16
_cell_length_a 14.558814
_cell_length_b 11.315170
_cell_length_c 11.560474
_cell_angle_alpha 62.953842
_cell_angle_beta 97.555673
_cell_angle_gamma 151.976698
_cell_volume 608.969930
_symmetry_space_group_name_H-M "P -1"
_symmetry_group_IT_number 2
_symmetry_cell_setting 'triclinic'
loop_
_space_group_symop_operation_xyz
x,y,z
-x,-y,-z
loop_
_atom_site_type_symbol
_atom_site_label
_atom_site_fract_x
_atom_site_fract_y
_atom_site_fract_z
Si Si1 0.730411 0.417297 0.880408
Si Si2 0.271507 0.477057 0.494078
Si Si3 0.427446 0.645436 0.899919
Si Si4 0.353729 0.436734 0.741020
Si Si5 0.416712 0.869864 0.673022
Si Si6 0.874721 0.224081 0.874691
Si Si7 0.930482 0.229036 0.404960
Si Si8 0.556876 0.744266 0.228121
O O1 0.995478 0.722487 0.733926
O O2 0.662141 0.462518 0.782423
O O3 0.731448 0.470111 0.988125
O O4 0.500000 0.000000 0.000000
O O5 0.193022 0.311413 0.678686
O O6 0.057520 0.284556 0.483824
O O7 0.414146 0.552014 0.412759
O O8 0.504510 0.894134 0.351651
O O9 0.305835 0.398728 0.886124
O O10 0.563661 0.941441 0.715228
O O11 0.633205 0.851049 0.925461
O O12 0.361107 0.291972 0.779016
O O13 0.644318 0.862834 0.563489
O O14 0.114757 0.449424 0.808775
O O15 0.500000 0.000000 0.500000
O O16 0.952511 0.467107 0.720243
O O17 0.796787 0.143291 0.032046
#
# Coordination Sequence:
#
# PCOD9092454 Si02
#       8
#     2   2   2   2   2   2   2   2
#     4  10  19  41  65  94 126 167 216 268 319 374
#     4  11  23  41  68  94 137 166 218 275 321 383
#     4  11  23  40  66  95 138 165 215 276 322 382
#     4  12  26  43  65 101 133 175 219 260 335 394
#     4  12  23  38  64 103 128 164 219 274 324 379
#     4  11  23  41  68  98 125 173 219 268 328 378
#     4  11  22  41  71  96 129 171 222 269 324 382
#     4  10  24  44  67  93 137 172 217 269 322 394
#
# _framework density 26.273878
#
# number of rings (size 3 to 8) (size 9 to 14) (size 15 to 20)
#    0.000    1.000    6.250    1.125    1.750    6.500 
#    0.000    3.125    2.750    0.000    0.000    0.000 
#    0.000    0.000    0.000    0.000    0.000    0.000 
#
# Total GULP energy -89226.887694 kJ/mol
# GULP energy per Si atom -5576.680481 kJ/mol
# Density = 2.621408 g / cm^3
# Si number density = 26.273878 Si / 1000 Ang^3
#
#
#
# Elastic Constant Matrix: (Units=GPa)
#
#
# Indices 1 2 3 4 5 6 
#
# 1 93.9147 25.4359 7.9102 15.6057 20.1353 -12.6009
# 2 25.4359 59.8574 28.8615 26.0128 -2.6499 1.5300
# 3 7.9102 28.8615 80.5886 15.6702 -9.5039 2.5000
# 4 15.6057 26.0128 15.6702 38.4293 -2.2694 -0.1999
# 5 20.1353 -2.6499 -9.5039 -2.2694 53.3632 5.0226
# 6 -12.6009 1.5300 2.5000 -0.1999 5.0226 35.5244
#
#
#
# Elastic Compliance Matrix: (Units=1/GPa)
#
#
# Indices 1 2 3 4 5 6 
#
# 1 0.014896 -0.005718 0.000109 -0.002579 -0.006601 0.006441
# 2 -0.005718 0.028710 -0.006591 -0.014317 0.002100 -0.003179
# 3 0.000109 -0.006591 0.015414 -0.001732 0.002408 -0.001112
# 4 -0.002579 -0.014317 -0.001732 0.037558 0.001569 -0.000187
# 5 -0.006601 0.002100 0.002408 0.001569 0.022372 -0.005756
# 6 0.006441 -0.003179 -0.001112 -0.000187 -0.005756 0.031462
#
#
# Mechanical properties :
#
#
# Convention : Reuss Voigt Hill
#
# Bulk Modulus (GPa) = 28.88574 39.86400 34.37487
# Shear Modulus (GPa) = 26.83107 36.94025 31.88566
#
# Velocity S-wave (km/s) = 3.19910 3.75369 3.48744
# Velocity P-wave (km/s) = 4.96625 5.83030 5.41553
#
# Compressibility (1/GPa) = 0.03461916
#
# Stress axis : x y z
#
# Youngs Moduli (GPa) = 67.13424 34.83073 64.87802
#
# Poissons Ratio (x) = 0.19918 -0.00708
# Poissons Ratio (y) = 0.38390 0.42759
# Poissons Ratio (z) = -0.00732 0.22956
#
# Static dielectric constant tensor:
#      x y z
#    x 2.083630 -0.129390 0.014750 
#    y -0.129390 2.301800 -0.017760 
#    z 0.014750 -0.017760 2.116150 
# 
# From -- ./inp_files/452215.got.cif
#   From: 2010.05.17/outbox.cif.g08.bks.cpg/sg2_227_cif.got.tgz:452215.got - 2010.06.03 11:33:40.
