data_PCOD9092234
_publ_section_title
;
Structure prediction by ZEFSAII (Michael W. Deem and Ramdas Pophale) SiO2 
 PCOD9092234
Probable space group: P -1
;
_chemical_formula_sum "Si O2"
_cell_formula_units_Z 16
_cell_length_a 8.743996
_cell_length_b 13.432836
_cell_length_c 11.941549
_cell_angle_alpha 73.488581
_cell_angle_beta 149.647703
_cell_angle_gamma 92.898105
_cell_volume 622.251922
_symmetry_space_group_name_H-M "P -1"
_symmetry_group_IT_number 2
_symmetry_cell_setting 'triclinic'
loop_
_space_group_symop_operation_xyz
x,y,z
-x,-y,-z
loop_
_atom_site_type_symbol
_atom_site_label
_atom_site_fract_x
_atom_site_fract_y
_atom_site_fract_z
Si Si1 0.114094 0.257564 0.006320
Si Si2 0.851074 0.925295 0.088369
Si Si3 0.302632 0.412668 0.651059
Si Si4 0.082767 0.231745 0.624329
Si Si5 0.589422 0.579027 0.777088
Si Si6 0.660011 0.633191 0.554247
Si Si7 0.162177 0.083614 0.533774
Si Si8 0.381670 0.140543 0.446365
O O1 0.237053 0.358763 0.057070
O O2 0.243559 0.181762 0.223388
O O3 0.213554 0.169728 0.996027
O O4 0.723814 0.319246 0.736466
O O5 0.833408 0.882038 0.215579
O O6 0.217153 0.917115 0.290805
O O7 0.546138 0.041148 0.830290
O O8 0.349149 0.286625 0.756097
O O9 0.590642 0.456539 0.842689
O O10 0.185436 0.430107 0.441509
O O11 0.000000 0.500000 0.500000
O O12 0.979152 0.201705 0.446883
O O13 0.786772 0.326664 0.476911
O O14 0.697520 0.574382 0.717375
O O15 0.714296 0.745571 0.578313
O O16 0.203517 0.077532 0.427364
O O17 0.000000 0.000000 0.500000
#
# Coordination Sequence:
#
# PCOD9092234 Si02
#       8
#     2   2   2   2   2   2   2   2
#     4  10  20  39  71  93 127 161 231 261 308 379
#     4  11  23  44  69  91 130 186 213 264 326 392
#     4  10  22  37  67  94 128 173 210 259 336 388
#     4  11  21  43  63  91 134 169 212 266 333 379
#     4  10  20  40  67  93 126 174 212 266 317 388
#     4  10  19  40  68  92 127 173 215 264 324 386
#     4  12  26  41  66 101 132 170 218 275 332 381
#     4  10  22  44  69  92 129 176 217 271 319 390
#
# _framework density 25.713056999999999
#
# number of rings (size 3 to 8) (size 9 to 14) (size 15 to 20)
#    0.000    1.500    5.000    1.875    0.000    2.000 
#    4.500    0.625    2.750    0.000    0.000    0.000 
#    0.000    0.000    0.000    0.000    0.000    0.000 
#
# Total GULP energy -89494.907566 kJ/mol
# GULP energy per Si atom -5593.431723 kJ/mol
# Density = 2.565453 g / cm^3
# Si number density = 25.713057 Si / 1000 Ang^3
#
#
#
# Elastic Constant Matrix: (Units=GPa)
#
#
# Indices 1 2 3 4 5 6 
#
# 1 138.2259 45.3963 18.5030 17.8614 4.6857 -5.0746
# 2 45.3963 117.5489 -4.2071 21.0731 7.9527 -7.0030
# 3 18.5030 -4.2071 67.2177 2.7348 1.9189 -0.4048
# 4 17.8614 21.0731 2.7348 33.2687 -8.5420 1.3117
# 5 4.6857 7.9527 1.9189 -8.5420 19.6194 6.6990
# 6 -5.0746 -7.0030 -0.4048 1.3117 6.6990 61.3791
#
#
#
# Elastic Compliance Matrix: (Units=1/GPa)
#
#
# Indices 1 2 3 4 5 6 
#
# 1 0.009038 -0.002687 -0.002424 -0.003677 -0.002706 0.000798
# 2 -0.002687 0.011919 0.002108 -0.008673 -0.008963 0.002315
# 3 -0.002424 0.002108 0.015848 -0.002105 -0.002916 0.000508
# 4 -0.003677 -0.008673 -0.002105 0.044498 0.025702 -0.005064
# 5 -0.002706 -0.008963 -0.002916 0.025702 0.069951 -0.009449
# 6 0.000798 0.002315 0.000508 -0.005064 -0.009449 0.017765
#
#
# Mechanical properties :
#
#
# Convention : Reuss Voigt Hill
#
# Bulk Modulus (GPa) = 32.46848 49.15300 40.81074
# Shear Modulus (GPa) = 26.98429 40.40679 33.69554
#
# Velocity S-wave (km/s) = 3.24302 3.96845 3.62393
# Velocity P-wave (km/s) = 5.16503 6.33685 5.78071
#
# Compressibility (1/GPa) = 0.03079910
#
# Stress axis : x y z
#
# Youngs Moduli (GPa) = 110.64653 83.89624 63.09824
#
# Poissons Ratio (x) = 0.22545 0.15297
# Poissons Ratio (y) = 0.29734 -0.13304
# Poissons Ratio (z) = 0.26825 -0.17689
#
# Static dielectric constant tensor:
#      x y z
#    x 2.060960 0.043070 0.011800 
#    y 0.043070 2.048690 -0.017090 
#    z 0.011800 -0.017090 2.052130 
# 
# From -- ./inp_files/39985.got.cif
#   From: 2010.05.17/outbox.cif.g08.bks.cpg/sg2_20_cif.got.tgz:39985.got - 2010.06.03 11:33:40.
