data_PCOD9092005
_publ_section_title
;
Structure prediction by ZEFSAII (Michael W. Deem and Ramdas Pophale) SiO2 
 PCOD9092005
Probable space group: P -1
;
_chemical_formula_sum "Si O2"
_cell_formula_units_Z 16
_cell_length_a 19.593945
_cell_length_b 12.547011
_cell_length_c 9.147335
_cell_angle_alpha 45.590999
_cell_angle_beta 45.612203
_cell_angle_gamma 29.836167
_cell_volume 771.721121
_symmetry_space_group_name_H-M "P -1"
_symmetry_group_IT_number 2
_symmetry_cell_setting 'triclinic'
loop_
_space_group_symop_operation_xyz
x,y,z
-x,-y,-z
loop_
_atom_site_type_symbol
_atom_site_label
_atom_site_fract_x
_atom_site_fract_y
_atom_site_fract_z
Si Si1 0.620127 0.765048 0.467306
Si Si2 0.242664 0.097900 0.935302
Si Si3 0.644270 0.282738 0.410434
Si Si4 0.433914 0.701400 0.802307
Si Si5 0.907087 0.321154 0.496486
Si Si6 0.924110 0.412393 0.050116
Si Si7 0.801604 0.860497 0.726103
Si Si8 0.054714 0.906641 0.842799
O O1 0.686671 0.823096 0.219650
O O2 0.546446 0.699194 0.585298
O O3 0.755273 0.551079 0.562919
O O4 0.500000 0.000000 0.500000
O O5 0.317755 0.922540 0.861763
O O6 0.246644 0.013277 0.166635
O O7 0.077589 0.310674 0.943439
O O8 0.500000 0.500000 0.500000
O O9 0.623690 0.313518 0.238950
O O10 0.785742 0.213249 0.304003
O O11 0.690436 0.058041 0.591242
O O12 0.500000 0.500000 0.000000
O O13 0.896117 0.360707 0.298481
O O14 0.039095 0.262493 0.418566
O O15 0.947363 0.110167 0.693096
O O16 0.939701 0.271748 0.036865
O O17 0.820391 0.662416 0.908351
O O18 0.000000 0.000000 0.000000
#
# Coordination Sequence:
#
# PCOD9092005 Si02
#       8
#     2   2   2   2   2   2   2   2
#     4  10  21  37  63  96 126 155 210 265 310 367
#     4  10  19  40  64  96 124 155 213 258 314 376
#     4  11  26  46  61  90 135 172 212 262 324 379
#     4  11  25  41  64  89 125 173 213 251 314 385
#     4  10  20  40  67  93 126 161 215 258 313 377
#     4  11  20  39  69  95 122 162 213 261 312 383
#     4  10  20  41  67  94 125 162 203 273 317 374
#     4  11  26  43  62  95 132 171 212 266 321 372
#
# _framework density 20.732876999999998
#
# number of rings (size 3 to 8) (size 9 to 14) (size 15 to 20)
#    0.000    1.500    2.500    2.625    5.250    0.000 
#    4.500    3.125    0.000    0.000    0.000    0.000 
#    0.000    0.000    0.000    0.000    0.000    0.000 
#
# Total GULP energy -89146.988830 kJ/mol
# GULP energy per Si atom -5571.686802 kJ/mol
# Density = 2.068569 g / cm^3
# Si number density = 20.732877 Si / 1000 Ang^3
#
#
#
# Elastic Constant Matrix: (Units=GPa)
#
#
# Indices 1 2 3 4 5 6 
#
# 1 39.5673 24.2919 13.3143 -3.4153 3.4196 2.1541
# 2 24.2919 136.4503 39.2956 -7.0725 10.1685 0.3653
# 3 13.3143 39.2956 57.1125 -9.1476 3.7950 -0.2229
# 4 -3.4153 -7.0725 -9.1476 36.7463 -8.7066 -2.0061
# 5 3.4196 10.1685 3.7950 -8.7066 35.9760 -0.7173
# 6 2.1541 0.3653 -0.2229 -2.0061 -0.7173 32.5829
#
#
#
# Elastic Compliance Matrix: (Units=1/GPa)
#
#
# Indices 1 2 3 4 5 6 
#
# 1 0.029283 -0.003957 -0.003938 0.000605 -0.001141 -0.001906
# 2 -0.003957 0.009814 -0.005762 -0.000355 -0.001875 0.000049
# 3 -0.003938 -0.005762 0.023066 0.004467 0.000666 0.000772
# 4 0.000605 -0.000355 0.004467 0.030054 0.006885 0.001997
# 5 -0.001141 -0.001875 0.000666 0.006885 0.030054 0.001187
# 6 -0.001906 0.000049 0.000772 0.001997 0.001187 0.030971
#
#
# Mechanical properties :
#
#
# Convention : Reuss Voigt Hill
#
# Bulk Modulus (GPa) = 28.69648 42.99264 35.84456
# Shear Modulus (GPa) = 26.01833 31.47624 28.74728
#
# Velocity S-wave (km/s) = 3.54634 3.90061 3.72769
# Velocity P-wave (km/s) = 5.53533 6.40842 5.98781
#
# Compressibility (1/GPa) = 0.03484747
#
# Stress axis : x y z
#
# Youngs Moduli (GPa) = 34.14963 101.89860 43.35407
#
# Poissons Ratio (x) = 0.40326 0.17074
# Poissons Ratio (y) = 0.13515 0.24979
# Poissons Ratio (z) = 0.13449 0.58711
#
# Static dielectric constant tensor:
#      x y z
#    x 1.750100 0.014890 -0.032280 
#    y 0.014890 1.800630 0.039290 
#    z -0.032280 0.039290 1.824520 
# 
# From -- ./inp_files/278188.got.cif
#   From: 2010.05.17/outbox.cif.g08.bks.cpg/sg2_140_cif.got.tgz:278188.got - 2010.06.03 11:33:40.
