data_PCOD9092572
_publ_section_title
;
Structure prediction by ZEFSAII (Michael W. Deem and Ramdas Pophale) SiO2 
 PCOD9092572
Probable space group: P -1
;
_chemical_formula_sum "Si O2"
_cell_formula_units_Z 12
_cell_length_a 12.777931
_cell_length_b 8.430187
_cell_length_c 10.621791
_cell_angle_alpha 124.506256
_cell_angle_beta 149.296678
_cell_angle_gamma 55.742706
_cell_volume 473.546389
_symmetry_space_group_name_H-M "P -1"
_symmetry_group_IT_number 2
_symmetry_cell_setting 'triclinic'
loop_
_space_group_symop_operation_xyz
x,y,z
-x,-y,-z
loop_
_atom_site_type_symbol
_atom_site_label
_atom_site_fract_x
_atom_site_fract_y
_atom_site_fract_z
Si Si1 0.944268 0.869943 0.566831
Si Si2 0.729799 0.240827 0.364279
Si Si3 0.220381 0.701872 0.103659
Si Si4 0.793572 0.931619 0.872609
Si Si5 0.750343 0.539075 0.733397
Si Si6 0.645480 0.604552 0.109607
O O1 0.089498 0.774056 0.559698
O O2 0.803786 0.715770 0.395873
O O3 0.793490 0.058909 0.440430
O O4 0.089925 0.953252 0.853440
O O5 0.719305 0.434759 0.523350
O O6 0.513841 0.244498 0.071564
O O7 0.318387 0.580504 0.272784
O O8 0.238679 0.552569 0.939953
O O9 0.319621 0.890386 0.250761
O O10 0.980347 0.797904 0.927640
O O11 0.685889 0.773498 0.762908
O O12 0.000000 0.500000 0.000000
O O13 0.500000 0.500000 0.000000
#
# Coordination Sequence:
#
# PCOD9092572 Si02
#       6
#     2   2   2   2   2   2
#     4  11  23  45  72  99 133 181 226 278 342 401
#     4  11  24  44  72  99 135 179 227 280 336 409
#     4  10  22  41  65  99 137 174 224 279 331 405
#     4  10  21  41  73 103 131 177 228 280 340 404
#     4  10  19  41  69 102 129 176 225 272 346 395
#     4  12  28  45  63 102 141 179 226 279 341 404
#
# _framework density 25.340707999999999
#
# number of rings (size 3 to 8) (size 9 to 14) (size 15 to 20)
#    0.000    1.333    3.333    3.500    2.333    7.333 
#    3.000    1.667    0.000    0.000    0.000    0.000 
#    0.000    0.000    0.000    0.000    0.000    0.000 
#
# Total GULP energy -67216.916673 kJ/mol
# GULP energy per Si atom -5601.409723 kJ/mol
# Density = 2.528303 g / cm^3
# Si number density = 25.340708 Si / 1000 Ang^3
#
#
#
# Elastic Constant Matrix: (Units=GPa)
#
#
# Indices 1 2 3 4 5 6 
#
# 1 104.2814 64.5770 25.5299 31.3690 -16.6689 12.9647
# 2 64.5770 171.9581 58.0020 10.7987 -5.6298 44.3079
# 3 25.5299 58.0020 96.2232 21.5532 -15.2164 19.9139
# 4 31.3690 10.7987 21.5532 57.4836 10.9244 -2.6079
# 5 -16.6689 -5.6298 -15.2164 10.9244 31.5314 -0.1238
# 6 12.9647 44.3079 19.9139 -2.6079 -0.1238 53.5379
#
#
#
# Elastic Compliance Matrix: (Units=1/GPa)
#
#
# Indices 1 2 3 4 5 6 
#
# 1 0.020582 -0.007761 0.005711 -0.015314 0.017551 -0.001391
# 2 -0.007761 0.011567 -0.006164 0.005455 -0.006923 -0.005151
# 3 0.005711 -0.006164 0.018345 -0.011825 0.014854 -0.003647
# 4 -0.015314 0.005455 -0.011825 0.034075 -0.024614 0.005195
# 5 0.017551 -0.006923 0.014854 -0.024614 0.055433 -0.005117
# 6 -0.001391 -0.005151 -0.003647 0.005195 -0.005117 0.024876
#
#
# Mechanical properties :
#
#
# Convention : Reuss Voigt Hill
#
# Bulk Modulus (GPa) = 29.35445 74.29782 51.82614
# Shear Modulus (GPa) = 25.95209 43.46751 34.70980
#
# Velocity S-wave (km/s) = 3.20367 4.14614 3.70499
# Velocity P-wave (km/s) = 5.02929 7.23214 6.22887
#
# Compressibility (1/GPa) = 0.03406638
#
# Stress axis : x y z
#
# Youngs Moduli (GPa) = 48.58537 86.45185 54.50941
#
# Poissons Ratio (x) = 0.67097 -0.31129
# Poissons Ratio (y) = 0.37708 0.33599
# Poissons Ratio (z) = -0.27746 0.53288
#
# Static dielectric constant tensor:
#      x y z
#    x 2.024890 0.080950 0.022390 
#    y 0.080950 2.007610 -0.032020 
#    z 0.022390 -0.032020 1.995170 
# 
# From -- ./inp_files/417938.got.cif
#   From: 2010.05.17/outbox.cif.g08.bks.cpg/sg2_209_cif.got.tgz:417938.got - 2010.06.03 11:33:40.
