data_PCOD9092802
_publ_section_title
;
Structure prediction by ZEFSAII (Michael W. Deem and Ramdas Pophale) SiO2 
 PCOD9092802
Probable space group: P -1
;
_chemical_formula_sum "Si O2"
_cell_formula_units_Z 16
_cell_length_a 7.588765
_cell_length_b 7.511584
_cell_length_c 12.501023
_cell_angle_alpha 85.977967
_cell_angle_beta 62.615382
_cell_angle_gamma 79.089074
_cell_volume 621.193243
_symmetry_space_group_name_H-M "P -1"
_symmetry_group_IT_number 2
_symmetry_cell_setting 'triclinic'
loop_
_space_group_symop_operation_xyz
x,y,z
-x,-y,-z
loop_
_atom_site_type_symbol
_atom_site_label
_atom_site_fract_x
_atom_site_fract_y
_atom_site_fract_z
Si Si1 0.464826 0.549079 0.307559
Si Si2 0.417027 0.851309 0.455493
Si Si3 0.025385 0.842911 0.696764
Si Si4 0.442264 0.291594 0.947369
Si Si5 0.294320 0.210539 0.372219
Si Si6 0.841242 0.377750 0.897968
Si Si7 0.061875 0.168910 0.033947
Si Si8 0.979013 0.270043 0.646178
O O1 0.535335 0.664519 0.380404
O O2 0.556933 0.602224 0.169210
O O3 0.465230 0.334568 0.321287
O O4 0.226209 0.634783 0.357290
O O5 0.232013 0.795271 0.574509
O O6 0.500000 0.000000 0.500000
O O7 0.360394 0.992526 0.366988
O O8 0.853962 0.756964 0.688484
O O9 0.029584 0.804169 0.822889
O O10 0.977048 0.060511 0.683587
O O11 0.671000 0.252185 0.926333
O O12 0.302919 0.429177 0.059717
O O13 0.304670 0.142323 0.974008
O O14 0.159213 0.267586 0.513091
O O15 0.984238 0.362329 0.756032
O O16 0.966661 0.326415 0.971787
O O17 0.000000 0.000000 0.000000
#
# Coordination Sequence:
#
# PCOD9092802 Si02
#       8
#     2   2   2   2   2   2   2   2
#     4  11  23  43  71 101 137 184 227 287 352 415
#     4  11  25  43  66 103 145 176 223 295 346 414
#     4  11  23  43  67 103 132 180 237 284 350 419
#     4  10  26  45  68 101 141 184 237 286 355 417
#     4  11  23  42  73 101 130 181 238 277 356 425
#     4  10  23  46  68 100 139 184 231 295 346 413
#     4  12  26  44  69 102 136 186 236 284 355 418
#     4  10  19  42  70  97 135 175 226 295 344 411
#
# _framework density 25.756879000000001
#
# number of rings (size 3 to 8) (size 9 to 14) (size 15 to 20)
#    0.000    1.250    3.750    1.500    7.000    2.000 
#    0.000    0.000    0.000    0.000    0.000    0.000 
#    0.000    0.000    0.000    0.000    0.000    0.000 
#
# Total GULP energy -89502.555860 kJ/mol
# GULP energy per Si atom -5593.909741 kJ/mol
# Density = 2.569826 g / cm^3
# Si number density = 25.756879 Si / 1000 Ang^3
#
#
#
# Elastic Constant Matrix: (Units=GPa)
#
#
# Indices 1 2 3 4 5 6 
#
# 1 102.9355 22.7096 26.4122 -5.0327 16.8138 22.8208
# 2 22.7096 93.8408 52.6335 -3.5580 4.9620 31.4954
# 3 26.4122 52.6335 143.6723 4.0047 23.2031 23.7509
# 4 -5.0327 -3.5580 4.0047 36.9162 5.6907 5.4635
# 5 16.8138 4.9620 23.2031 5.6907 47.1981 2.1160
# 6 22.8208 31.4954 23.7509 5.4635 2.1160 43.2025
#
#
#
# Elastic Compliance Matrix: (Units=1/GPa)
#
#
# Indices 1 2 3 4 5 6 
#
# 1 0.012097 -0.000218 -0.000553 0.003233 -0.004129 -0.006134
# 2 -0.000218 0.016783 -0.004648 0.003481 0.000628 -0.010036
# 3 -0.000553 -0.004648 0.009635 -0.000771 -0.003899 -0.001328
# 4 0.003233 0.003481 -0.000771 0.029715 -0.004391 -0.007364
# 5 -0.004129 0.000628 -0.003899 -0.004391 0.024895 0.003203
# 6 -0.006134 -0.010036 -0.001328 -0.007364 0.003203 0.035208
#
#
# Mechanical properties :
#
#
# Convention : Reuss Voigt Hill
#
# Bulk Modulus (GPa) = 36.12971 60.43989 48.28480
# Shear Modulus (GPa) = 33.69358 41.37624 37.53491
#
# Velocity S-wave (km/s) = 3.62074 4.01236 3.82157
# Velocity P-wave (km/s) = 5.61581 6.70685 6.18544
#
# Compressibility (1/GPa) = 0.02767806
#
# Stress axis : x y z
#
# Youngs Moduli (GPa) = 82.66354 59.58452 103.78453
#
# Poissons Ratio (x) = 0.01296 0.05744
# Poissons Ratio (y) = 0.01798 0.48236
# Poissons Ratio (z) = 0.04575 0.27693
#
# Static dielectric constant tensor:
#      x y z
#    x 2.172030 0.006160 0.055550 
#    y 0.006160 2.101360 -0.017400 
#    z 0.055550 -0.017400 1.969340 
# 
# From -- ./inp_files/379043.got.cif
#   From: 2010.05.17/outbox.cif.g08.bks.cpg/sg2_190_cif.got.tgz:379043.got - 2010.06.03 11:33:40.
