data_PCOD9092122
_publ_section_title
;
Structure prediction by ZEFSAII (Michael W. Deem and Ramdas Pophale) SiO2 
 PCOD9092122
Probable space group: P -1
;
_chemical_formula_sum "Si O2"
_cell_formula_units_Z 16
_cell_length_a 10.957748
_cell_length_b 8.019609
_cell_length_c 11.861696
_cell_angle_alpha 56.069645
_cell_angle_beta 58.745628
_cell_angle_gamma 44.886299
_cell_volume 596.642036
_symmetry_space_group_name_H-M "P -1"
_symmetry_group_IT_number 2
_symmetry_cell_setting 'triclinic'
loop_
_space_group_symop_operation_xyz
x,y,z
-x,-y,-z
loop_
_atom_site_type_symbol
_atom_site_label
_atom_site_fract_x
_atom_site_fract_y
_atom_site_fract_z
Si Si1 0.229809 0.432087 0.790063
Si Si2 0.207253 0.828573 0.834342
Si Si3 0.098956 0.878027 0.626137
Si Si4 0.154091 0.539805 0.419253
Si Si5 0.206870 0.745347 0.111647
Si Si6 0.630587 0.900264 0.347681
Si Si7 0.301590 0.080663 0.067233
Si Si8 0.628534 0.102876 0.655660
O O1 0.085967 0.656518 0.687359
O O2 0.264105 0.198774 0.783637
O O3 0.437565 0.340422 0.702736
O O4 0.195475 0.347279 0.957602
O O5 0.177940 0.732282 0.767174
O O6 0.329682 0.908811 0.704778
O O7 0.273532 0.676604 0.976222
O O8 0.007552 0.068582 0.861393
O O9 0.244059 0.852185 0.486614
O O10 0.948005 0.166216 0.606885
O O11 0.239919 0.537060 0.260584
O O12 0.295098 0.329547 0.516701
O O13 0.000000 0.500000 0.500000
O O14 0.273199 0.894358 0.084945
O O15 0.433828 0.003797 0.367992
O O16 0.276381 0.060747 0.218426
O O17 0.500000 0.000000 0.000000
#
# Coordination Sequence:
#
# PCOD9092122 Si02
#       8
#     2   2   2   2   2   2   2   2
#     4   9  21  38  64  93 129 165 211 266 320 373
#     4  10  20  40  61  89 128 164 219 255 322 381
#     4  11  22  40  62  99 132 165 218 267 313 389
#     4  11  23  42  62  96 132 170 215 265 316 388
#     4  10  20  37  67  85 121 177 206 261 321 372
#     4  10  20  41  65  88 129 177 204 266 323 372
#     4  10  19  40  66  93 126 167 219 256 323 384
#     4   9  22  39  66  92 129 170 211 261 328 370
#
# _framework density 26.816749000000002
#
# number of rings (size 3 to 8) (size 9 to 14) (size 15 to 20)
#    0.750    1.250    3.750    0.375    1.750    2.000 
#    4.500    2.500    0.000    4.500    0.000    0.000 
#    0.000    0.000    0.000    0.000    0.000    0.000 
#
# Total GULP energy -89269.231088 kJ/mol
# GULP energy per Si atom -5579.326943 kJ/mol
# Density = 2.675571 g / cm^3
# Si number density = 26.816749 Si / 1000 Ang^3
#
#
#
# Elastic Constant Matrix: (Units=GPa)
#
#
# Indices 1 2 3 4 5 6 
#
# 1 98.2615 9.6044 52.0091 5.7140 1.5105 9.1347
# 2 9.6044 79.9832 50.0090 -10.3480 3.5717 -10.9322
# 3 52.0091 50.0090 277.6844 -10.5152 32.7747 -5.3245
# 4 5.7140 -10.3480 -10.5152 33.9807 4.5865 -8.1850
# 5 1.5105 3.5717 32.7747 4.5865 40.6406 6.8039
# 6 9.1347 -10.9322 -5.3245 -8.1850 6.8039 36.8290
#
#
#
# Elastic Compliance Matrix: (Units=1/GPa)
#
#
# Indices 1 2 3 4 5 6 
#
# 1 0.012600 -0.001364 -0.002837 -0.005271 0.003499 -0.005758
# 2 -0.001364 0.015656 -0.002046 0.006073 -0.001415 0.006301
# 3 -0.002837 -0.002046 0.005184 0.002623 -0.004572 0.002273
# 4 -0.005271 0.006073 0.002623 0.037422 -0.008929 0.013456
# 5 0.003499 -0.001415 -0.004572 -0.008929 0.030909 -0.009643
# 6 -0.005758 0.006301 0.002273 0.013456 -0.009643 0.035552
#
#
# Mechanical properties :
#
#
# Convention : Reuss Voigt Hill
#
# Bulk Modulus (GPa) = 47.74618 75.46380 61.60499
# Shear Modulus (GPa) = 31.88793 45.24383 38.56588
#
# Velocity S-wave (km/s) = 3.45208 4.11195 3.79638
# Velocity P-wave (km/s) = 5.80796 7.12361 6.49916
#
# Compressibility (1/GPa) = 0.02094408
#
# Stress axis : x y z
#
# Youngs Moduli (GPa) = 79.36474 63.87375 192.91706
#
# Poissons Ratio (x) = 0.08715 0.54734
# Poissons Ratio (y) = 0.10828 0.39474
# Poissons Ratio (z) = 0.22517 0.13070
#
# Static dielectric constant tensor:
#      x y z
#    x 2.266800 0.056010 0.128120 
#    y 0.056010 2.158330 0.023050 
#    z 0.128120 0.023050 2.107050 
# 
# From -- ./inp_files/416293.got.cif
#   From: 2010.05.17/outbox.cif.g08.bks.cpg/sg2_209_cif.got.tgz:416293.got - 2010.06.03 11:33:40.
