data_PCOD9092686
_publ_section_title
;
Structure prediction by ZEFSAII (Michael W. Deem and Ramdas Pophale) SiO2 
 PCOD9092686
Probable space group: P -1
;
_chemical_formula_sum "Si O2"
_cell_formula_units_Z 16
_cell_length_a 15.719690
_cell_length_b 7.920768
_cell_length_c 9.035938
_cell_angle_alpha 65.981965
_cell_angle_beta 50.783236
_cell_angle_gamma 55.245581
_cell_volume 714.243882
_symmetry_space_group_name_H-M "P -1"
_symmetry_group_IT_number 2
_symmetry_cell_setting 'triclinic'
loop_
_space_group_symop_operation_xyz
x,y,z
-x,-y,-z
loop_
_atom_site_type_symbol
_atom_site_label
_atom_site_fract_x
_atom_site_fract_y
_atom_site_fract_z
Si Si1 0.308229 0.401241 0.447313
Si Si2 0.953315 0.092964 0.176570
Si Si3 0.744339 0.134822 0.582275
Si Si4 0.803374 0.952084 0.909181
Si Si5 0.509681 0.680001 0.329756
Si Si6 0.858701 0.553136 0.124263
Si Si7 0.442874 0.956856 0.775619
Si Si8 0.427907 0.380525 0.045250
O O1 0.296651 0.620347 0.436674
O O2 0.209615 0.370333 0.669209
O O3 0.441510 0.206282 0.384520
O O4 0.306528 0.428268 0.259509
O O5 0.865370 0.023919 0.389655
O O6 0.864039 0.334446 0.161498
O O7 0.072738 0.055830 0.156783
O O8 0.000000 0.000000 0.000000
O O9 0.626343 0.145275 0.624715
O O10 0.776096 0.040043 0.744093
O O11 0.814559 0.722087 0.985105
O O12 0.682367 0.062869 0.105884
O O13 0.500000 0.500000 0.500000
O O14 0.570230 0.813295 0.291546
O O15 0.578632 0.587148 0.132717
O O16 0.000000 0.500000 0.000000
O O17 0.484657 0.859149 0.928927
O O18 0.500000 0.500000 0.000000
#
# Coordination Sequence:
#
# PCOD9092686 Si02
#       8
#     2   2   2   2   2   2   2   2
#     4   9  20  40  63  95 136 174 221 271 332 415
#     4  10  24  47  67  99 130 173 236 290 339 397
#     4  11  22  46  66  94 140 181 228 273 343 416
#     4  11  22  41  73  94 132 187 223 273 347 408
#     4  12  25  41  64 102 144 177 224 290 340 396
#     4   9  21  41  65  93 131 173 227 280 332 399
#     4  10  23  39  65 100 139 173 228 272 343 407
#     4  10  19  42  63  92 140 179 219 264 336 416
#
# _framework density 22.401311
#
# number of rings (size 3 to 8) (size 9 to 14) (size 15 to 20)
#    0.750    1.000    2.500    0.750    3.500    2.500 
#   11.250    1.875    0.000    0.000    0.000    0.000 
#    0.000    0.000    0.000    0.000    0.000    0.000 
#
# Total GULP energy -89131.056230 kJ/mol
# GULP energy per Si atom -5570.691014 kJ/mol
# Density = 2.235033 g / cm^3
# Si number density = 22.401311 Si / 1000 Ang^3
#
#
#
# Elastic Constant Matrix: (Units=GPa)
#
#
# Indices 1 2 3 4 5 6 
#
# 1 77.7804 8.7654 56.3190 1.1534 -3.1083 -18.5821
# 2 8.7654 76.1373 44.5335 -0.5202 5.7415 -3.8406
# 3 56.3190 44.5335 186.3096 25.4381 2.6335 3.0342
# 4 1.1534 -0.5202 25.4381 46.7108 -9.0185 -7.2566
# 5 -3.1083 5.7415 2.6335 -9.0185 37.0898 6.9430
# 6 -18.5821 -3.8406 3.0342 -7.2566 6.9430 16.2786
#
#
#
# Elastic Compliance Matrix: (Units=1/GPa)
#
#
# Indices 1 2 3 4 5 6 
#
# 1 0.036036 0.008232 -0.015829 0.015605 -0.003537 0.054493
# 2 0.008232 0.018196 -0.008028 0.006739 -0.003612 0.019731
# 3 -0.015829 -0.008028 0.014081 -0.011492 0.001423 -0.028317
# 4 0.015605 0.006739 -0.011492 0.033339 0.002578 0.035307
# 5 -0.003537 -0.003612 0.001423 0.002578 0.030973 -0.017216
# 6 0.054493 0.019731 -0.028317 0.035307 -0.017216 0.156649
#
#
# Mechanical properties :
#
#
# Convention : Reuss Voigt Hill
#
# Bulk Modulus (GPa) = 26.98110 62.16257 44.57183
# Shear Modulus (GPa) = 15.02042 35.38979 25.20511
#
# Velocity S-wave (km/s) = 2.59224 3.97899 3.35798
# Velocity P-wave (km/s) = 4.58587 6.99426 5.91396
#
# Compressibility (1/GPa) = 0.03706299
#
# Stress axis : x y z
#
# Youngs Moduli (GPa) = 27.74965 54.95727 71.01533
#
# Poissons Ratio (x) = -0.45241 1.12412
# Poissons Ratio (y) = -0.22844 0.57013
# Poissons Ratio (z) = 0.43926 0.44121
#
# Static dielectric constant tensor:
#      x y z
#    x 1.853210 -0.020540 -0.036610 
#    y -0.020540 1.910760 -0.027970 
#    z -0.036610 -0.027970 1.928990 
# 
# From -- ./inp_files/215758.got.cif
#   From: 2010.05.17/outbox.cif.g08.bks.cpg/sg2_108_cif.got.tgz:215758.got - 2010.06.03 11:33:40.
