data_PCOD9092444
_publ_section_title
;
Structure prediction by ZEFSAII (Michael W. Deem and Ramdas Pophale) SiO2 
 PCOD9092444
Probable space group: P -1
;
_chemical_formula_sum "Si O2"
_cell_formula_units_Z 14
_cell_length_a 17.266613
_cell_length_b 9.615946
_cell_length_c 9.784534
_cell_angle_alpha 121.820929
_cell_angle_beta 48.770261
_cell_angle_gamma 83.220350
_cell_volume 711.147165
_symmetry_space_group_name_H-M "P -1"
_symmetry_group_IT_number 2
_symmetry_cell_setting 'triclinic'
loop_
_space_group_symop_operation_xyz
x,y,z
-x,-y,-z
loop_
_atom_site_type_symbol
_atom_site_label
_atom_site_fract_x
_atom_site_fract_y
_atom_site_fract_z
Si Si1 0.607209 0.883764 0.029827
Si Si2 0.165537 0.165194 0.094260
Si Si3 0.274852 0.406549 0.725843
Si Si4 0.954236 0.431169 0.724119
Si Si5 0.768531 0.829077 0.544715
Si Si6 0.509665 0.335129 0.003316
Si Si7 0.626602 0.387240 0.409334
O O1 0.449487 0.149097 0.394195
O O2 0.736273 0.801301 0.935987
O O3 0.656275 0.890634 0.825969
O O4 0.582505 0.717830 0.968365
O O5 0.096508 0.322897 0.120066
O O6 0.031958 0.281503 0.416370
O O7 0.276259 0.884827 0.810441
O O8 0.200348 0.357304 0.688661
O O9 0.269953 0.589929 0.760656
O O10 0.189188 0.498094 0.016058
O O11 0.085529 0.275785 0.602818
O O12 0.678071 0.072070 0.694042
O O13 0.449349 0.458833 0.285335
O O14 0.500000 0.500000 0.000000
O O15 0.500000 0.500000 0.500000
#
# Coordination Sequence:
#
# PCOD9092444 Si02
#       7
#     2   2   2   2   2   2   2
#     4  10  19  41  65  88 122 168 200 254 310 374
#     4  10  23  41  62  88 128 162 208 254 310 363
#     4  11  20  36  64  91 118 163 211 248 310 368
#     4  10  23  40  60  87 125 172 201 245 309 388
#     4  10  19  42  63  87 125 167 198 243 318 381
#     4  11  23  38  66 100 124 152 214 269 307 354
#     4  12  22  40  63  98 124 159 206 270 306 355
#
# _framework density 19.686502999999998
#
# number of rings (size 3 to 8) (size 9 to 14) (size 15 to 20)
#    0.000    1.429    4.286    2.143    4.000    2.286 
#    0.000    5.000    0.000    0.000    0.000    0.000 
#    0.000    0.000    0.000    0.000    0.000    0.000 
#
# Total GULP energy -78192.902890 kJ/mol
# GULP energy per Si atom -5585.207349 kJ/mol
# Density = 1.964170 g / cm^3
# Si number density = 19.686503 Si / 1000 Ang^3
#
#
#
# Elastic Constant Matrix: (Units=GPa)
#
#
# Indices 1 2 3 4 5 6 
#
# 1 36.7899 28.3335 23.0457 5.8367 10.9235 2.5901
# 2 28.3335 127.9967 24.1971 13.5831 3.9253 9.0386
# 3 23.0457 24.1971 65.7993 -0.6069 -3.3093 10.6007
# 4 5.8367 13.5831 -0.6069 44.1568 5.6060 1.7221
# 5 10.9235 3.9253 -3.3093 5.6060 16.4118 6.7932
# 6 2.5901 9.0386 10.6007 1.7221 6.7932 18.3699
#
#
#
# Elastic Compliance Matrix: (Units=1/GPa)
#
#
# Indices 1 2 3 4 5 6 
#
# 1 0.071942 -0.010771 -0.030687 0.000450 -0.067251 0.037692
# 2 -0.010771 0.010434 0.001597 -0.002615 0.009051 -0.007639
# 3 -0.030687 0.001597 0.031997 0.000257 0.038485 -0.029180
# 4 0.000450 -0.002615 0.000257 0.024434 -0.008815 0.002044
# 5 -0.067251 0.009051 0.038485 -0.008815 0.142950 -0.069217
# 6 0.037692 -0.007639 -0.029180 0.002044 -0.069217 0.095124
#
#
# Mechanical properties :
#
#
# Convention : Reuss Voigt Hill
#
# Bulk Modulus (GPa) = 28.85820 42.41539 35.63679
# Shear Modulus (GPa) = 10.68021 26.12167 18.40094
#
# Velocity S-wave (km/s) = 2.33172 3.64659 3.06060
# Velocity P-wave (km/s) = 4.68401 6.27075 5.53454
#
# Compressibility (1/GPa) = 0.03465220
#
# Stress axis : x y z
#
# Youngs Moduli (GPa) = 13.90006 95.83623 31.25262
#
# Poissons Ratio (x) = 1.03225 0.95905
# Poissons Ratio (y) = 0.14972 -0.04991
# Poissons Ratio (z) = 0.42655 -0.15305
#
# Static dielectric constant tensor:
#      x y z
#    x 1.705070 -0.021030 -0.004620 
#    y -0.021030 1.692860 -0.007970 
#    z -0.004620 -0.007970 1.701650 
# 
# From -- ./inp_files/156659.got.cif
#   From: 2010.05.17/outbox.cif.g08.bks.cpg/sg2_79_cif.got.tgz:156659.got - 2010.06.03 11:33:40.
