data_PCOD9092512
_publ_section_title
;
Structure prediction by ZEFSAII (Michael W. Deem and Ramdas Pophale) SiO2 
 PCOD9092512
Probable space group: P -1
;
_chemical_formula_sum "Si O2"
_cell_formula_units_Z 16
_cell_length_a 10.130752
_cell_length_b 8.715964
_cell_length_c 11.556548
_cell_angle_alpha 62.236798
_cell_angle_beta 49.785840
_cell_angle_gamma 81.611962
_cell_volume 671.179122
_symmetry_space_group_name_H-M "P -1"
_symmetry_group_IT_number 2
_symmetry_cell_setting 'triclinic'
loop_
_space_group_symop_operation_xyz
x,y,z
-x,-y,-z
loop_
_atom_site_type_symbol
_atom_site_label
_atom_site_fract_x
_atom_site_fract_y
_atom_site_fract_z
Si Si1 0.155767 0.986520 0.508786
Si Si2 0.550272 0.134569 0.747939
Si Si3 0.720152 0.549289 0.922037
Si Si4 0.970417 0.563049 0.124564
Si Si5 0.678527 0.701281 0.352139
Si Si6 0.177017 0.911848 0.780733
Si Si7 0.492348 0.267517 0.326255
Si Si8 0.541790 0.241465 0.975085
O O1 0.311928 0.162950 0.398830
O O2 0.272831 0.869880 0.418972
O O3 0.097060 0.907090 0.697833
O O4 0.000000 0.000000 0.500000
O O5 0.439199 0.245874 0.700921
O O6 0.584114 0.204568 0.833802
O O7 0.441892 0.927603 0.898193
O O8 0.922835 0.547880 0.819856
O O9 0.612244 0.424888 0.128388
O O10 0.659364 0.732539 0.904722
O O11 0.654321 0.429885 0.889180
O O12 0.066381 0.770564 0.981607
O O13 0.000000 0.500000 0.000000
O O14 0.785070 0.564769 0.287759
O O15 0.566808 0.654213 0.549364
O O16 0.803651 0.890415 0.253026
O O17 0.371259 0.861551 0.680773
#
# Coordination Sequence:
#
# PCOD9092512 Si02
#       8
#     2   2   2   2   2   2   2   2
#     4  11  21  34  59  93 125 154 205 260 312 359
#     4  11  20  38  60  97 118 160 213 258 304 368
#     4  10  21  43  61  87 126 173 203 242 324 376
#     4  11  24  39  59  95 126 159 210 264 306 361
#     4  11  20  38  70  91 119 161 217 257 306 367
#     4  10  20  40  63  87 126 165 203 258 312 372
#     4  10  19  41  67  88 123 168 207 256 311 380
#     4  10  22  36  65  83 126 167 201 250 305 384
#
# _framework density 23.838645
#
# number of rings (size 3 to 8) (size 9 to 14) (size 15 to 20)
#    0.000    1.500    3.750    2.625    0.000    5.000 
#    2.250    1.875    0.000    2.250    0.000    0.000 
#    0.000    0.000    0.000    0.000    0.000    0.000 
#
# Total GULP energy -89431.260110 kJ/mol
# GULP energy per Si atom -5589.453757 kJ/mol
# Density = 2.378439 g / cm^3
# Si number density = 23.838645 Si / 1000 Ang^3
#
#
#
# Elastic Constant Matrix: (Units=GPa)
#
#
# Indices 1 2 3 4 5 6 
#
# 1 126.2484 22.8216 28.2230 16.2394 -12.4484 -17.2557
# 2 22.8216 95.8882 35.9395 21.4546 -10.5315 -0.2166
# 3 28.2230 35.9395 89.8529 26.0155 2.0153 3.0678
# 4 16.2394 21.4546 26.0155 52.4072 -3.2350 -6.4203
# 5 -12.4484 -10.5315 2.0153 -3.2350 30.5418 6.4888
# 6 -17.2557 -0.2166 3.0678 -6.4203 6.4888 35.5582
#
#
#
# Elastic Compliance Matrix: (Units=1/GPa)
#
#
# Indices 1 2 3 4 5 6 
#
# 1 0.009620 -0.000808 -0.002737 -0.000592 0.002852 0.004272
# 2 -0.000808 0.013394 -0.004298 -0.002979 0.004534 -0.001305
# 3 -0.002737 -0.004298 0.015545 -0.005707 -0.003575 -0.003074
# 4 -0.000592 -0.002979 -0.005707 0.023897 0.000710 0.004372
# 5 0.002852 0.004534 -0.003575 0.000710 0.036814 -0.004869
# 6 0.004272 -0.001305 -0.003074 0.004372 -0.004869 0.032131
#
#
# Mechanical properties :
#
#
# Convention : Reuss Voigt Hill
#
# Bulk Modulus (GPa) = 43.71962 53.99531 48.85747
# Shear Modulus (GPa) = 32.31817 38.70179 35.50998
#
# Velocity S-wave (km/s) = 3.68598 4.03363 3.86372
# Velocity P-wave (km/s) = 6.04110 6.66281 6.35956
#
# Compressibility (1/GPa) = 0.02287303
#
# Stress axis : x y z
#
# Youngs Moduli (GPa) = 103.94790 74.66175 64.32786
#
# Poissons Ratio (x) = 0.06036 0.17605
# Poissons Ratio (y) = 0.08404 0.27647
# Poissons Ratio (z) = 0.28448 0.32089
#
# Static dielectric constant tensor:
#      x y z
#    x 1.980660 0.033620 -0.015010 
#    y 0.033620 1.957000 -0.060170 
#    z -0.015010 -0.060170 1.918560 
# 
# From -- ./inp_files/333860.got.cif
#   From: 2010.05.17/outbox.cif.g08.bks.cpg/sg2_167_cif.got.tgz:333860.got - 2010.06.03 11:33:40.
