data_PCOD9092370
_publ_section_title
;
Structure prediction by ZEFSAII (Michael W. Deem and Ramdas Pophale) SiO2 
 PCOD9092370
Probable space group: P -1
;
_chemical_formula_sum "Si O2"
_cell_formula_units_Z 16
_cell_length_a 11.404570
_cell_length_b 18.620358
_cell_length_c 14.935921
_cell_angle_alpha 150.458395
_cell_angle_beta 147.625354
_cell_angle_gamma 52.137708
_cell_volume 744.235422
_symmetry_space_group_name_H-M "P -1"
_symmetry_group_IT_number 2
_symmetry_cell_setting 'triclinic'
loop_
_space_group_symop_operation_xyz
x,y,z
-x,-y,-z
loop_
_atom_site_type_symbol
_atom_site_label
_atom_site_fract_x
_atom_site_fract_y
_atom_site_fract_z
Si Si1 0.743645 0.399929 0.775100
Si Si2 0.483315 0.095827 0.837649
Si Si3 0.978990 0.333316 0.347420
Si Si4 0.302014 0.270519 0.622310
Si Si5 0.234128 0.298125 0.811688
Si Si6 0.288753 0.773302 0.255694
Si Si7 0.329816 0.895459 0.696940
Si Si8 0.198821 0.919663 0.204448
O O1 0.810829 0.348296 0.857844
O O2 0.596298 0.237443 0.444804
O O3 0.638597 0.527823 0.865804
O O4 0.000000 0.500000 0.000000
O O5 0.341248 0.176080 0.778061
O O6 0.474521 0.943351 0.609388
O O7 0.357282 0.018659 0.766664
O O8 0.757681 0.242757 0.177923
O O9 0.000000 0.500000 0.500000
O O10 0.210279 0.343141 0.561596
O O11 0.905010 0.207466 0.080557
O O12 0.278945 0.331121 0.770978
O O13 0.571076 0.294047 0.793385
O O14 0.145805 0.071989 0.316344
O O15 0.946939 0.205800 0.553854
O O16 0.109985 0.819834 0.131866
O O17 0.500000 0.000000 0.000000
O O18 0.500000 0.000000 0.500000
#
# Coordination Sequence:
#
# PCOD9092370 Si02
#       8
#     2   2   2   2   2   2   2   2
#     4   9  22  40  65  92 128 164 213 261 320 374
#     4  11  21  42  65  90 129 167 222 257 306 399
#     4  12  26  38  57  95 137 167 209 274 323 363
#     4  11  22  38  63  94 129 168 212 259 324 374
#     4  11  22  40  68  97 123 166 220 262 321 378
#     4  10  20  39  67  91 124 175 215 256 308 389
#     4  10  22  44  68  93 125 166 214 265 324 380
#     4  10  19  41  61  86 122 167 214 248 308 391
#
# _framework density 21.498574000000001
#
# number of rings (size 3 to 8) (size 9 to 14) (size 15 to 20)
#    0.000    1.500    3.750    2.250    3.500    0.500 
#    0.000    0.625    0.000    0.000    0.000    0.000 
#    0.000    0.000    0.000    0.000    0.000    0.000 
#
# Total GULP energy -89287.205624 kJ/mol
# GULP energy per Si atom -5580.450351 kJ/mol
# Density = 2.144964 g / cm^3
# Si number density = 21.498574 Si / 1000 Ang^3
#
#
#
# Elastic Constant Matrix: (Units=GPa)
#
#
# Indices 1 2 3 4 5 6 
#
# 1 103.1981 28.1442 31.5497 13.2972 -10.4134 23.4663
# 2 28.1442 110.5127 32.7486 20.8771 -2.1717 17.4013
# 3 31.5497 32.7486 72.8769 18.3927 -16.4483 1.5935
# 4 13.2972 20.8771 18.3927 32.7867 2.9068 -2.3502
# 5 -10.4134 -2.1717 -16.4483 2.9068 33.2477 7.4897
# 6 23.4663 17.4013 1.5935 -2.3502 7.4897 42.8594
#
#
#
# Elastic Compliance Matrix: (Units=1/GPa)
#
#
# Indices 1 2 3 4 5 6 
#
# 1 0.013806 -0.000204 -0.003433 -0.004587 0.004920 -0.008460
# 2 -0.000204 0.012123 -0.003574 -0.006056 0.000643 -0.005122
# 3 -0.003433 -0.003574 0.021390 -0.009199 0.010014 0.000281
# 4 -0.004587 -0.006056 -0.009199 0.043180 -0.012375 0.009843
# 5 0.004920 0.000643 0.010014 -0.012375 0.040181 -0.011027
# 6 -0.008460 -0.005122 0.000281 0.009843 -0.011027 0.032500
#
#
# Mechanical properties :
#
#
# Convention : Reuss Voigt Hill
#
# Bulk Modulus (GPa) = 30.39643 52.38584 41.39113
# Shear Modulus (GPa) = 26.51604 34.72176 30.61890
#
# Velocity S-wave (km/s) = 3.51577 4.02316 3.77799
# Velocity P-wave (km/s) = 5.53628 6.78241 6.19078
#
# Compressibility (1/GPa) = 0.03289860
#
# Stress axis : x y z
#
# Youngs Moduli (GPa) = 72.43138 82.48866 46.75188
#
# Poissons Ratio (x) = 0.01679 0.16048
# Poissons Ratio (y) = 0.01474 0.16709
# Poissons Ratio (z) = 0.24862 0.29480
#
# Static dielectric constant tensor:
#      x y z
#    x 1.831020 -0.005700 0.028670 
#    y -0.005700 1.807480 0.020990 
#    z 0.028670 0.020990 1.818320 
# 
# From -- ./inp_files/523499.got.cif
#   From: 2010.05.17/outbox.cif.g08.bks.cpg/sg2_262_cif.got.tgz:523499.got - 2010.06.03 11:33:40.
