data_PCOD9092434
_publ_section_title
;
Structure prediction by ZEFSAII (Michael W. Deem and Ramdas Pophale) SiO2 
 PCOD9092434
Probable space group: P -1
;
_chemical_formula_sum "Si O2"
_cell_formula_units_Z 12
_cell_length_a 5.406350
_cell_length_b 7.108051
_cell_length_c 19.266319
_cell_angle_alpha 141.892539
_cell_angle_beta 81.668867
_cell_angle_gamma 97.231890
_cell_volume 452.008349
_symmetry_space_group_name_H-M "P -1"
_symmetry_group_IT_number 2
_symmetry_cell_setting 'triclinic'
loop_
_space_group_symop_operation_xyz
x,y,z
-x,-y,-z
loop_
_atom_site_type_symbol
_atom_site_label
_atom_site_fract_x
_atom_site_fract_y
_atom_site_fract_z
Si Si1 0.923784 0.939499 0.066058
Si Si2 0.510265 0.727401 0.278942
Si Si3 0.801205 0.736155 0.610683
Si Si4 0.565212 0.280888 0.025396
Si Si5 0.283338 0.845061 0.507442
Si Si6 0.897161 0.605780 0.712055
O O1 0.910919 0.256766 0.200438
O O2 0.171701 0.783678 0.038633
O O3 0.671868 0.743590 0.022195
O O4 0.000000 0.000000 0.000000
O O5 0.579929 0.572746 0.159074
O O6 0.357848 0.477451 0.259280
O O7 0.310295 0.991229 0.347860
O O8 0.742524 0.910277 0.358916
O O9 0.929092 0.293249 0.575984
O O10 0.885985 0.834994 0.713334
O O11 0.000000 0.500000 0.500000
O O12 0.500000 0.000000 0.000000
O O13 0.402612 0.528062 0.438187
O O14 0.500000 0.000000 0.500000
#
# Coordination Sequence:
#
# PCOD9092434 Si02
#       6
#     2   2   2   2   2   2
#     4  10  19  41  64  99 135 185 229 289 338 420
#     4  11  19  40  67  92 135 189 218 293 347 412
#     4  10  23  40  60 101 139 174 234 287 350 422
#     4  10  21  37  69  97 135 182 239 277 347 417
#     4   8  19  39  62  89 129 172 226 276 350 406
#     4   9  20  40  62  93 139 172 235 279 353 412
#
# _framework density 26.548182000000001
#
# number of rings (size 3 to 8) (size 9 to 14) (size 15 to 20)
#    1.000    1.333    3.333    0.500    0.000    2.000 
#    3.000    1.667    0.000    0.000    0.000    0.000 
#    0.000    0.000    0.000    0.000    0.000    0.000 
#
# Total GULP energy -66893.144713 kJ/mol
# GULP energy per Si atom -5574.428726 kJ/mol
# Density = 2.648776 g / cm^3
# Si number density = 26.548182 Si / 1000 Ang^3
#
#
#
# Elastic Constant Matrix: (Units=GPa)
#
#
# Indices 1 2 3 4 5 6 
#
# 1 133.2504 11.8445 60.8852 2.9341 12.2505 -12.8736
# 2 11.8445 88.8956 16.0607 -7.7662 -8.9971 -4.5495
# 3 60.8852 16.0607 227.2133 -30.7588 36.2745 -23.1714
# 4 2.9341 -7.7662 -30.7588 31.5694 -13.3112 0.2500
# 5 12.2505 -8.9971 36.2745 -13.3112 49.9748 -0.1347
# 6 -12.8736 -4.5495 -23.1714 0.2500 -0.1347 18.1898
#
#
#
# Elastic Compliance Matrix: (Units=1/GPa)
#
#
# Indices 1 2 3 4 5 6 
#
# 1 0.009270 -0.001212 -0.002328 -0.004267 -0.001928 0.003336
# 2 -0.001212 0.012364 -0.000421 0.004422 0.004011 0.001668
# 3 -0.002328 -0.000421 0.007032 0.005602 -0.003098 0.007106
# 4 -0.004267 0.004422 0.005602 0.042412 0.009086 0.004706
# 5 -0.001928 0.004011 -0.003098 0.009086 0.025862 -0.004242
# 6 0.003336 0.001668 0.007106 0.004706 -0.004242 0.066709
#
#
# Mechanical properties :
#
#
# Convention : Reuss Voigt Hill
#
# Bulk Modulus (GPa) = 48.20385 69.66001 58.93193
# Shear Modulus (GPa) = 28.01332 43.98474 35.99903
#
# Velocity S-wave (km/s) = 3.25189 4.07478 3.68637
# Velocity P-wave (km/s) = 5.68298 6.95949 6.35338
#
# Compressibility (1/GPa) = 0.02074523
#
# Stress axis : x y z
#
# Youngs Moduli (GPa) = 107.87955 80.87824 142.20096
#
# Poissons Ratio (x) = 0.09800 0.33102
# Poissons Ratio (y) = 0.13072 0.05985
# Poissons Ratio (z) = 0.25113 0.03404
#
# Static dielectric constant tensor:
#      x y z
#    x 3.047780 -0.253160 0.145100 
#    y -0.253160 2.501610 -0.099940 
#    z 0.145100 -0.099940 2.174050 
# 
# From -- ./inp_files/603614.got.cif
#   From: 2010.05.17/outbox.cif.g08.bks.cpg/sg2_302_cif.got.tgz:603614.got - 2010.06.03 11:33:40.
