data_PCOD9092532
_publ_section_title
;
Structure prediction by ZEFSAII (Michael W. Deem and Ramdas Pophale) SiO2 
 PCOD9092532
Probable space group: P -1
;
_chemical_formula_sum "Si O2"
_cell_formula_units_Z 16
_cell_length_a 16.048464
_cell_length_b 7.996315
_cell_length_c 10.747681
_cell_angle_alpha 43.648080
_cell_angle_beta 57.968071
_cell_angle_gamma 87.812045
_cell_volume 651.233358
_symmetry_space_group_name_H-M "P -1"
_symmetry_group_IT_number 2
_symmetry_cell_setting 'triclinic'
loop_
_space_group_symop_operation_xyz
x,y,z
-x,-y,-z
loop_
_atom_site_type_symbol
_atom_site_label
_atom_site_fract_x
_atom_site_fract_y
_atom_site_fract_z
Si Si1 0.725150 0.713564 0.972378
Si Si2 0.266504 0.036484 0.759483
Si Si3 0.617733 0.687707 0.717864
Si Si4 0.399119 0.563204 0.542713
Si Si5 0.720636 0.165666 0.578919
Si Si6 0.246601 0.515937 0.190814
Si Si7 0.987330 0.160105 0.545785
Si Si8 0.993453 0.703237 0.133696
O O1 0.700892 0.957369 0.823995
O O2 0.634240 0.457717 0.275520
O O3 0.733689 0.587935 0.902443
O O4 0.855416 0.900231 0.837350
O O5 0.375324 0.190463 0.489582
O O6 0.290658 0.297237 0.687873
O O7 0.271888 0.824542 0.966391
O O8 0.134172 0.857167 0.893909
O O9 0.712612 0.983216 0.562888
O O10 0.500000 0.500000 0.000000
O O11 0.669228 0.490538 0.773457
O O12 0.500000 0.500000 0.500000
O O13 0.395762 0.826735 0.347306
O O14 0.858965 0.470197 0.304744
O O15 0.106066 0.281919 0.466433
O O16 0.987858 0.450313 0.362778
O O17 0.000000 0.000000 0.500000
O O18 0.000000 0.000000 0.000000
#
# Coordination Sequence:
#
# PCOD9092532 Si02
#       8
#     2   2   2   2   2   2   2   2
#     4   9  20  41  66  92 126 169 215 273 324 385
#     4  11  25  43  65  99 133 168 221 275 327 401
#     4  11  26  43  68  97 128 177 226 272 324 391
#     4  12  27  40  62  96 133 181 217 259 335 398
#     4  10  23  45  68  96 132 172 221 274 334 386
#     4   9  20  41  66  94 123 164 218 272 326 378
#     4   8  16  35  65  95 125 166 220 269 330 393
#     4  10  19  41  67  98 138 169 215 279 343 396
#
# _framework density 24.568766
#
# number of rings (size 3 to 8) (size 9 to 14) (size 15 to 20)
#    0.000    2.000    1.250    1.500    5.250    3.500 
#    0.000    3.125    0.000    0.000    0.000    0.000 
#    0.000    0.000    0.000    0.000    0.000    0.000 
#
# Total GULP energy -89074.740873 kJ/mol
# GULP energy per Si atom -5567.171305 kJ/mol
# Density = 2.451285 g / cm^3
# Si number density = 24.568766 Si / 1000 Ang^3
#
#
#
# Elastic Constant Matrix: (Units=GPa)
#
#
# Indices 1 2 3 4 5 6 
#
# 1 88.9402 -2.5791 15.9578 -2.7148 -15.2240 -15.5573
# 2 -2.5791 44.9204 -0.3120 -22.1710 -0.2220 -4.9341
# 3 15.9578 -0.3120 20.6725 -14.2490 -13.3999 10.6098
# 4 -2.7148 -22.1710 -14.2490 31.3600 -2.9912 -0.9708
# 5 -15.2240 -0.2220 -13.3999 -2.9912 24.2083 -2.6981
# 6 -15.5573 -4.9341 10.6098 -0.9708 -2.6981 37.6195
#
#
#
# Elastic Compliance Matrix: (Units=1/GPa)
#
#
# Indices 1 2 3 4 5 6 
#
# 1 0.008775 0.028613 0.069260 0.057045 0.050379 -0.007066
# 2 0.028613 -0.059338 -0.278075 -0.178151 -0.151012 0.067047
# 3 0.069260 -0.278075 -0.802285 -0.593492 -0.457431 0.170316
# 4 0.057045 -0.178151 -0.593492 -0.385823 -0.326989 0.134199
# 5 0.050379 -0.151012 -0.457431 -0.326989 -0.210126 0.106528
# 6 -0.007066 0.067047 0.170316 0.134199 0.106528 -0.004478
#
#
# Mechanical properties :
#
#
# Convention : Reuss Voigt Hill
#
# Bulk Modulus (GPa) = -0.82423 20.07404 9.62491
# Shear Modulus (GPa) = -3.33937 28.06865 12.36464
#
# Velocity S-wave (km/s) = -1.16711 3.38369 2.24579
# Velocity P-wave (km/s) = 1.46711 4.84294 3.26356
#
# Compressibility (1/GPa) = -1.21325156
#
# Stress axis : x y z
#
# Youngs Moduli (GPa) = 113.95771 -16.85272 -1.24644
#
# Poissons Ratio (x) = 0.48220 0.08633
# Poissons Ratio (y) = -3.26065 -0.34660
# Poissons Ratio (z) = -7.89270 -4.68631
#
# Static dielectric constant tensor:
#      x y z
#    x 2.098410 -0.066430 0.036260 
#    y -0.066430 1.964610 -0.055780 
#    z 0.036260 -0.055780 2.024290 
# 
# From -- ./inp_files/461806.got.cif
#   From: 2010.05.17/outbox.cif.g08.bks.cpg/sg2_231_cif.got.tgz:461806.got - 2010.06.03 11:33:40.
