data_PCOD9092106
_publ_section_title
;
Structure prediction by ZEFSAII (Michael W. Deem and Ramdas Pophale) SiO2 
 PCOD9092106
Probable space group: P -1
;
_chemical_formula_sum "Si O2"
_cell_formula_units_Z 16
_cell_length_a 8.621341
_cell_length_b 18.698940
_cell_length_c 9.363792
_cell_angle_alpha 135.027006
_cell_angle_beta 47.765733
_cell_angle_gamma 107.130688
_cell_volume 741.199323
_symmetry_space_group_name_H-M "P -1"
_symmetry_group_IT_number 2
_symmetry_cell_setting 'triclinic'
loop_
_space_group_symop_operation_xyz
x,y,z
-x,-y,-z
loop_
_atom_site_type_symbol
_atom_site_label
_atom_site_fract_x
_atom_site_fract_y
_atom_site_fract_z
Si Si1 0.191840 0.523340 0.322354
Si Si2 0.640589 0.008642 0.286367
Si Si3 0.072558 0.849258 0.714659
Si Si4 0.634189 0.373219 0.233311
Si Si5 0.162936 0.743409 0.794787
Si Si6 0.438430 0.680381 0.102384
Si Si7 0.301409 0.213236 0.699976
Si Si8 0.914375 0.582168 0.037323
O O1 0.167839 0.642065 0.550872
O O2 0.000000 0.500000 0.500000
O O3 0.437125 0.442827 0.101209
O O4 0.140366 0.492823 0.153800
O O5 0.821144 0.066099 0.296090
O O6 0.462420 0.090649 0.406582
O O7 0.500000 0.000000 0.500000
O O8 0.805109 0.897312 0.959746
O O9 0.162585 0.827721 0.792116
O O10 0.187957 0.741152 0.398960
O O11 0.500000 0.500000 0.500000
O O12 0.645693 0.306838 0.277077
O O13 0.558416 0.320402 0.070878
O O14 0.877649 0.379579 0.068705
O O15 0.932291 0.785916 0.087163
O O16 0.584772 0.741125 0.177024
O O17 0.275324 0.299236 0.709087
O O18 0.000000 0.500000 0.000000
#
# Coordination Sequence:
#
# PCOD9092106 Si02
#       8
#     2   2   2   2   2   2   2   2
#     4  11  18  36  56  81 121 170 208 232 298 370
#     4  10  19  40  66  91 116 152 209 265 310 364
#     4  10  23  35  62  98 112 153 213 258 310 365
#     4  11  21  34  53  83 124 169 196 242 300 349
#     4  11  20  35  58  86 120 165 203 246 299 370
#     4  10  20  36  54  89 126 157 206 251 294 362
#     4   9  19  37  62  82 115 164 200 240 307 357
#     4  10  22  35  53  84 121 161 198 241 292 361
#
# _framework density 21.586637
#
# number of rings (size 3 to 8) (size 9 to 14) (size 15 to 20)
#    0.000    1.750    6.250    0.000    1.750    3.500 
#    0.000    0.000    0.000    9.750    0.000    0.000 
#    0.000    0.000    0.000    0.000    0.000    0.000 
#
# Total GULP energy -89116.133157 kJ/mol
# GULP energy per Si atom -5569.758322 kJ/mol
# Density = 2.153750 g / cm^3
# Si number density = 21.586637 Si / 1000 Ang^3
#
#
#
# Elastic Constant Matrix: (Units=GPa)
#
#
# Indices 1 2 3 4 5 6 
#
# 1 61.6505 32.6659 11.8201 -1.7560 -2.3605 -29.3878
# 2 32.6659 125.7494 46.5102 -7.6208 -7.8378 -30.5632
# 3 11.8201 46.5102 132.6740 13.3425 -25.0830 -19.8352
# 4 -1.7560 -7.6208 13.3425 29.7716 -8.4217 -10.7626
# 5 -2.3605 -7.8378 -25.0830 -8.4217 18.6709 -2.8601
# 6 -29.3878 -30.5632 -19.8352 -10.7626 -2.8601 42.5250
#
#
#
# Elastic Compliance Matrix: (Units=1/GPa)
#
#
# Indices 1 2 3 4 5 6 
#
# 1 0.030022 -0.000284 0.003763 0.015656 0.020023 0.027608
# 2 -0.000284 0.012821 -0.002131 0.010937 0.009165 0.011409
# 3 0.003763 -0.002131 0.012627 0.002643 0.019102 0.008913
# 4 0.015656 0.010937 0.002643 0.062679 0.044331 0.038758
# 5 0.020023 0.009165 0.019102 0.044331 0.112973 0.048152
# 6 0.027608 0.011409 0.008913 0.038758 0.048152 0.068000
#
#
# Mechanical properties :
#
#
# Convention : Reuss Voigt Hill
#
# Bulk Modulus (GPa) = 17.19164 55.78513 36.48839
# Shear Modulus (GPa) = 15.83209 33.46534 24.64872
#
# Velocity S-wave (km/s) = 2.71111 3.94163 3.38279
# Velocity P-wave (km/s) = 4.21681 6.82743 5.67430
#
# Compressibility (1/GPa) = 0.05816780
#
# Stress axis : x y z
#
# Youngs Moduli (GPa) = 33.30864 77.99565 79.19467
#
# Poissons Ratio (x) = 0.02214 -0.29804
# Poissons Ratio (y) = 0.00946 0.16875
# Poissons Ratio (z) = -0.12535 0.16620
#
# Static dielectric constant tensor:
#      x y z
#    x 1.792300 -0.033990 -0.080200 
#    y -0.033990 1.902200 0.050390 
#    z -0.080200 0.050390 1.870910 
# 
# From -- ./inp_files/215407.got.cif
#   From: 2010.05.17/outbox.cif.g08.bks.cpg/sg2_108_cif.got.tgz:215407.got - 2010.06.03 11:33:40.
