data_PCOD9092061
_publ_section_title
;
Structure prediction by ZEFSAII (Michael W. Deem and Ramdas Pophale) SiO2 
 PCOD9092061
Probable space group: P -1
;
_chemical_formula_sum "Si O2"
_cell_formula_units_Z 16
_cell_length_a 5.126804
_cell_length_b 25.805120
_cell_length_c 28.026974
_cell_angle_alpha 166.319694
_cell_angle_beta 50.631511
_cell_angle_gamma 130.462050
_cell_volume 667.057483
_symmetry_space_group_name_H-M "P -1"
_symmetry_group_IT_number 2
_symmetry_cell_setting 'triclinic'
loop_
_space_group_symop_operation_xyz
x,y,z
-x,-y,-z
loop_
_atom_site_type_symbol
_atom_site_label
_atom_site_fract_x
_atom_site_fract_y
_atom_site_fract_z
Si Si1 0.741982 0.364200 0.735394
Si Si2 0.703444 0.134893 0.140427
Si Si3 0.120024 0.111480 0.819091
Si Si4 0.246467 0.013860 0.436998
Si Si5 0.206102 0.867313 0.021160
Si Si6 0.616491 0.834017 0.555200
Si Si7 0.797913 0.600582 0.743644
Si Si8 0.399755 0.248352 0.770514
O O1 0.444322 0.271129 0.648372
O O2 0.628917 0.246823 0.694415
O O3 0.097989 0.295134 0.616007
O O4 0.775761 0.627891 0.971090
O O5 0.906534 0.363729 0.299494
O O6 0.500000 0.000000 0.000000
O O7 0.430948 0.098397 0.182203
O O8 0.000000 0.000000 0.000000
O O9 0.467482 0.114525 0.689760
O O10 0.815898 0.996949 0.717530
O O11 0.984304 0.101209 0.880038
O O12 0.571433 0.031960 0.342000
O O13 0.000000 0.000000 0.500000
O O14 0.988272 0.851041 0.287102
O O15 0.472941 0.700099 0.850924
O O16 0.949969 0.751502 0.906292
O O17 0.331347 0.648575 0.446926
O O18 0.500000 0.500000 0.000000
#
# Coordination Sequence:
#
# PCOD9092061 Si02
#       8
#     2   2   2   2   2   2   2   2
#     4  11  27  51  73 100 148 182 224 286 347 408
#     4   8  16  30  62  94 123 179 230 274 346 405
#     4  12  28  45  69 105 139 185 237 282 343 413
#     4  10  23  47  72  99 137 176 215 275 339 398
#     4  10  19  40  65  94 137 178 231 289 339 402
#     4  12  28  45  69 102 142 183 234 281 347 419
#     4  10  19  40  65  95 137 182 227 286 347 401
#     4  11  25  48  76 107 135 174 227 282 338 407
#
# _framework density 23.985938000000001
#
# number of rings (size 3 to 8) (size 9 to 14) (size 15 to 20)
#    0.000    1.500    1.250    3.375    1.750    6.000 
#    0.000    1.250    0.000    0.000    0.000    0.000 
#    0.000    0.000    0.000    0.000    0.000    0.000 
#
# Total GULP energy -89466.520113 kJ/mol
# GULP energy per Si atom -5591.657507 kJ/mol
# Density = 2.393134 g / cm^3
# Si number density = 23.985938 Si / 1000 Ang^3
#
#
#
# Elastic Constant Matrix: (Units=GPa)
#
#
# Indices 1 2 3 4 5 6 
#
# 1 123.5748 14.5456 45.6485 19.6343 31.5675 -15.8016
# 2 14.5456 128.4616 47.1515 39.6642 8.2358 -7.4683
# 3 45.6485 47.1515 145.2315 31.2085 20.9460 -1.4189
# 4 19.6343 39.6642 31.2085 46.4136 -1.6870 4.2006
# 5 31.5675 8.2358 20.9460 -1.6870 41.0352 -0.4721
# 6 -15.8016 -7.4683 -1.4189 4.2006 -0.4721 35.1403
#
#
#
# Elastic Compliance Matrix: (Units=1/GPa)
#
#
# Indices 1 2 3 4 5 6 
#
# 1 0.013093 0.002550 -0.001843 -0.007482 -0.009869 0.007117
# 2 0.002550 0.011983 -0.001794 -0.010691 -0.003835 0.004848
# 3 -0.001843 -0.001794 0.009378 -0.004073 -0.003181 -0.000387
# 4 -0.007482 -0.010691 -0.004073 0.037922 0.011422 -0.010181
# 5 -0.009869 -0.003835 -0.003181 0.011422 0.034752 -0.006280
# 6 0.007117 0.004848 -0.000387 -0.010181 -0.006280 0.033805
#
#
# Mechanical properties :
#
#
# Convention : Reuss Voigt Hill
#
# Bulk Modulus (GPa) = 30.97884 67.99545 49.48714
# Shear Modulus (GPa) = 32.49611 43.84598 38.17105
#
# Velocity S-wave (km/s) = 3.68475 4.28013 3.99355
# Velocity P-wave (km/s) = 5.57195 7.26881 6.47620
#
# Compressibility (1/GPa) = 0.03228010
#
# Stress axis : x y z
#
# Youngs Moduli (GPa) = 76.37937 83.45269 106.63789
#
# Poissons Ratio (x) = -0.21284 0.19649
# Poissons Ratio (y) = -0.19480 0.19134
# Poissons Ratio (z) = 0.14074 0.14974
#
# Static dielectric constant tensor:
#      x y z
#    x 2.002250 -0.107210 0.001040 
#    y -0.107210 2.990940 -0.307920 
#    z 0.001040 -0.307920 1.982850 
# 
# From -- ./inp_files/605146.got.cif
#   From: 2010.05.17/outbox.cif.g08.bks.cpg/sg2_303_cif.got.tgz:605146.got - 2010.06.03 11:33:40.
