data_PCOD9092787
_publ_section_title
;
Structure prediction by ZEFSAII (Michael W. Deem and Ramdas Pophale) SiO2 
 PCOD9092787
Probable space group: P -1
;
_chemical_formula_sum "Si O2"
_cell_formula_units_Z 14
_cell_length_a 18.920026
_cell_length_b 10.364714
_cell_length_c 14.561983
_cell_angle_alpha 42.053672
_cell_angle_beta 150.100328
_cell_angle_gamma 153.334473
_cell_volume 632.185145
_symmetry_space_group_name_H-M "P -1"
_symmetry_group_IT_number 2
_symmetry_cell_setting 'triclinic'
loop_
_space_group_symop_operation_xyz
x,y,z
-x,-y,-z
loop_
_atom_site_type_symbol
_atom_site_label
_atom_site_fract_x
_atom_site_fract_y
_atom_site_fract_z
Si Si1 0.509798 0.937722 0.318469
Si Si2 0.370311 0.202313 0.064405
Si Si3 0.105988 0.267793 0.248193
Si Si4 0.351744 0.441195 0.083117
Si Si5 0.829032 0.938466 0.401361
Si Si6 0.303958 0.810818 0.807059
Si Si7 0.688690 0.740899 0.660805
O O1 0.268321 0.607063 0.230501
O O2 0.661165 0.939303 0.539228
O O3 0.506605 0.147423 0.243584
O O4 0.594778 0.029917 0.261040
O O5 0.321103 0.225672 0.098769
O O6 0.500000 0.500000 0.000000
O O7 0.392562 0.267380 0.793466
O O8 0.111964 0.133984 0.237390
O O9 0.861815 0.071876 0.097372
O O10 0.198523 0.234779 0.452857
O O11 0.316879 0.368421 0.190075
O O12 0.231382 0.514294 0.878699
O O13 0.858099 0.185145 0.344585
O O14 0.000000 0.000000 0.500000
O O15 0.500000 0.000000 0.000000
O O16 0.500000 0.500000 0.500000
#
# Coordination Sequence:
#
# PCOD9092787 Si02
#       7
#     2   2   2   2   2   2   2
#     4  11  21  43  69  92 129 177 217 263 324 383
#     4  12  26  42  62  96 144 168 206 278 329 377
#     4  11  22  42  67  96 125 172 221 266 318 386
#     4  11  22  43  65  95 132 175 213 264 330 380
#     4  11  21  38  65  97 128 164 223 266 311 393
#     4  10  20  37  67  96 122 171 218 258 320 385
#     4  10  19  42  69  93 127 171 221 273 312 386
#
# _framework density 22.145409999999998
#
# number of rings (size 3 to 8) (size 9 to 14) (size 15 to 20)
#    0.000    1.143    5.714    3.857    2.000    1.143 
#    2.571    4.286    0.000    0.000    0.000    0.000 
#    0.000    0.000    0.000    0.000    0.000    0.000 
#
# Total GULP energy -78106.891983 kJ/mol
# GULP energy per Si atom -5579.063713 kJ/mol
# Density = 2.209501 g / cm^3
# Si number density = 22.145410 Si / 1000 Ang^3
#
#
#
# Elastic Constant Matrix: (Units=GPa)
#
#
# Indices 1 2 3 4 5 6 
#
# 1 141.1030 32.9599 57.8529 -19.2943 24.6526 13.6350
# 2 32.9599 43.8932 32.6610 -11.1604 8.0774 12.6482
# 3 57.8529 32.6610 115.7876 -35.4117 25.9563 10.0499
# 4 -19.2943 -11.1604 -35.4117 30.5672 0.0942 4.7671
# 5 24.6526 8.0774 25.9563 0.0942 53.9415 -6.5310
# 6 13.6350 12.6482 10.0499 4.7671 -6.5310 34.9316
#
#
#
# Elastic Compliance Matrix: (Units=1/GPa)
#
#
# Indices 1 2 3 4 5 6 
#
# 1 0.010128 -0.003787 -0.001932 0.003272 -0.003517 -0.003130
# 2 -0.003787 0.034180 -0.003836 0.007425 -0.002929 -0.011355
# 3 -0.001932 -0.003836 0.020361 0.022326 -0.009411 -0.008521
# 4 0.003272 0.007425 0.022326 0.066922 -0.016197 -0.022550
# 5 -0.003517 -0.002929 -0.009411 -0.016197 0.026634 0.012331
# 6 -0.003130 -0.011355 -0.008521 -0.022550 0.012331 0.041795
#
#
# Mechanical properties :
#
#
# Convention : Reuss Voigt Hill
#
# Bulk Modulus (GPa) = 21.94935 60.85903 41.40419
# Shear Modulus (GPa) = 21.33873 35.70872 28.52373
#
# Velocity S-wave (km/s) = 3.10752 4.01991 3.59279
# Velocity P-wave (km/s) = 4.77583 7.00624 5.99566
#
# Compressibility (1/GPa) = 0.04555943
#
# Stress axis : x y z
#
# Youngs Moduli (GPa) = 98.73830 29.25730 49.11310
#
# Poissons Ratio (x) = 0.11079 0.09486
# Poissons Ratio (y) = 0.37390 0.18841
# Poissons Ratio (z) = 0.19071 0.11224
#
# Static dielectric constant tensor:
#      x y z
#    x 1.879210 -0.034570 0.036890 
#    y -0.034570 1.934000 0.004550 
#    z 0.036890 0.004550 1.809590 
# 
# From -- ./inp_files/530436.got.cif
#   From: 2010.05.17/outbox.cif.g08.bks.cpg/sg2_266_cif.got.tgz:530436.got - 2010.06.03 11:33:40.
