data_PCOD9092676
_publ_section_title
;
Structure prediction by ZEFSAII (Michael W. Deem and Ramdas Pophale) SiO2 
 PCOD9092676
Probable space group: P -1
;
_chemical_formula_sum "Si O2"
_cell_formula_units_Z 10
_cell_length_a 5.259641
_cell_length_b 5.476803
_cell_length_c 14.861334
_cell_angle_alpha 92.823888
_cell_angle_beta 87.010971
_cell_angle_gamma 78.339081
_cell_volume 417.906428
_symmetry_space_group_name_H-M "P -1"
_symmetry_group_IT_number 2
_symmetry_cell_setting 'triclinic'
loop_
_space_group_symop_operation_xyz
x,y,z
-x,-y,-z
loop_
_atom_site_type_symbol
_atom_site_label
_atom_site_fract_x
_atom_site_fract_y
_atom_site_fract_z
Si Si1 0.612898 0.194988 0.765574
Si Si2 0.505394 0.926934 0.601830
Si Si3 0.808706 0.453867 0.138996
Si Si4 0.306041 0.031995 0.920381
Si Si5 0.012945 0.784824 0.690182
O O1 0.497704 0.448433 0.824339
O O2 0.486636 0.006699 0.826802
O O3 0.492970 0.174333 0.668637
O O4 0.909452 0.060156 0.743203
O O5 0.779377 0.759563 0.627301
O O6 0.270915 0.798009 0.631845
O O7 0.500000 0.000000 0.500000
O O8 0.858439 0.687325 0.085199
O O9 0.949296 0.404271 0.231137
O O10 0.844412 0.192706 0.083015
O O11 0.500000 0.000000 0.000000
#
# Coordination Sequence:
#
# PCOD9092676 Si02
#       5
#     2   2   2   2   2
#     4   8  22  36  66  90 136 172 218 276 336 390
#     4  10  20  40  68  97 133 176 228 277 336 403
#     4  10  19  42  62  99 132 182 218 280 340 401
#     4  10  20  40  68  97 133 176 228 277 336 403
#     4  10  19  42  62  99 132 182 218 280 340 401
#
# _framework density 23.928802000000001
#
# number of rings (size 3 to 8) (size 9 to 14) (size 15 to 20)
#    2.400    0.000    2.000    1.200    0.000    0.000 
#   14.400    4.000    0.000    0.000    0.000    0.000 
#    0.000    0.000    0.000    0.000    0.000    0.000 
#
# Total GULP energy -55727.885837 kJ/mol
# GULP energy per Si atom -5572.788584 kJ/mol
# Density = 2.387434 g / cm^3
# Si number density = 23.928802 Si / 1000 Ang^3
#
#
#
# Elastic Constant Matrix: (Units=GPa)
#
#
# Indices 1 2 3 4 5 6 
#
# 1 129.4195 28.3577 53.4837 -31.7263 -0.4890 -2.4828
# 2 28.3577 148.2095 60.4251 -28.1208 7.0054 5.1666
# 3 53.4837 60.4251 172.1886 -31.2231 13.6235 3.5475
# 4 -31.7263 -28.1208 -31.2231 31.8895 -7.8965 4.9022
# 5 -0.4890 7.0054 13.6235 -7.8965 32.8118 -7.9361
# 6 -2.4828 5.1666 3.5475 4.9022 -7.9361 21.2990
#
#
#
# Elastic Compliance Matrix: (Units=1/GPa)
#
#
# Indices 1 2 3 4 5 6 
#
# 1 0.010962 0.000467 -0.002014 0.010129 0.003447 0.000453
# 2 0.000467 0.008880 -0.001921 0.006879 -0.000274 -0.003465
# 3 -0.002014 -0.001921 0.008123 0.004045 -0.002765 -0.003083
# 4 0.010129 0.006879 0.004045 0.055032 0.007586 -0.011002
# 5 0.003447 -0.000274 -0.002765 0.007586 0.036667 0.012845
# 6 0.000453 -0.003465 -0.003083 -0.011002 0.012845 0.055676
#
#
# Mechanical properties :
#
#
# Convention : Reuss Voigt Hill
#
# Bulk Modulus (GPa) = 47.55333 81.59450 64.57392
# Shear Modulus (GPa) = 26.41521 37.70346 32.05934
#
# Velocity S-wave (km/s) = 3.32612 3.97375 3.66427
# Velocity P-wave (km/s) = 5.88785 7.43150 6.70425
#
# Compressibility (1/GPa) = 0.02102902
#
# Stress axis : x y z
#
# Youngs Moduli (GPa) = 91.22722 112.61318 123.10802
#
# Poissons Ratio (x) = -0.05258 0.24794
# Poissons Ratio (y) = -0.04260 0.23646
# Poissons Ratio (z) = 0.18373 0.21630
#
# Static dielectric constant tensor:
#      x y z
#    x 1.931640 -0.012460 0.017480 
#    y -0.012460 1.981940 0.025500 
#    z 0.017480 0.025500 1.855860 
# 
# From -- ./inp_files/3685.got.cif
#   From: 2010.05.17/outbox.cif.g08.bks.cpg/sg2_2_cif.got.tgz:3685.got - 2010.06.03 11:33:40.
