data_PCOD9092010
_publ_section_title
;
Structure prediction by ZEFSAII (Michael W. Deem and Ramdas Pophale) SiO2 
 PCOD9092010
Probable space group: P -1
;
_chemical_formula_sum "Si O2"
_cell_formula_units_Z 14
_cell_length_a 12.526326
_cell_length_b 13.743966
_cell_length_c 5.387552
_cell_angle_alpha 66.450098
_cell_angle_beta 122.229393
_cell_angle_gamma 132.640329
_cell_volume 576.085071
_symmetry_space_group_name_H-M "P -1"
_symmetry_group_IT_number 2
_symmetry_cell_setting 'triclinic'
loop_
_space_group_symop_operation_xyz
x,y,z
-x,-y,-z
loop_
_atom_site_type_symbol
_atom_site_label
_atom_site_fract_x
_atom_site_fract_y
_atom_site_fract_z
Si Si1 0.868045 0.286616 0.863647
Si Si2 0.688028 0.640864 0.338004
Si Si3 0.420075 0.005229 0.145467
Si Si4 0.690313 0.525836 0.956883
Si Si5 0.960543 0.916843 0.285542
Si Si6 0.066502 0.730419 0.545634
Si Si7 0.340961 0.725062 0.747127
O O1 0.984140 0.330592 0.729180
O O2 0.733256 0.303394 0.595755
O O3 0.761311 0.124921 0.929107
O O4 0.973278 0.352150 0.169690
O O5 0.741061 0.626593 0.689300
O O6 0.501480 0.558556 0.193096
O O7 0.778874 0.792112 0.217099
O O8 0.735421 0.584489 0.231915
O O9 0.477474 0.155957 0.094266
O O10 0.500000 0.000000 0.500000
O O11 0.500000 0.000000 0.000000
O O12 0.710767 0.411079 0.064708
O O13 0.046470 0.845169 0.440946
O O14 0.000000 0.000000 0.500000
O O15 0.000000 0.000000 0.000000
O O16 0.245597 0.775413 0.696527
#
# Coordination Sequence:
#
# PCOD9092010 Si02
#       7
#     2   2   2   2   2   2   2
#     4   9  18  33  51  85 129 160 192 261 311 367
#     4  10  24  46  63  96 126 169 223 271 307 381
#     4  10  16  29  46  80 125 157 193 246 310 361
#     4  10  22  42  71  91 130 168 215 270 321 382
#     4  12  26  46  69  92 127 177 218 263 324 387
#     4  10  21  36  57  87 126 152 206 255 309 379
#     4   9  21  32  61  88 123 160 203 252 328 368
#
# _framework density 24.301964000000002
#
# number of rings (size 3 to 8) (size 9 to 14) (size 15 to 20)
#    0.857    1.143    1.429    1.714    2.000    2.286 
#    0.000    1.429    0.000    0.000    0.000    0.000 
#    0.000    0.000    0.000    0.000    0.000    0.000 
#
# Total GULP energy -77977.414603 kJ/mol
# GULP energy per Si atom -5569.815329 kJ/mol
# Density = 2.424665 g / cm^3
# Si number density = 24.301964 Si / 1000 Ang^3
#
#
#
# Elastic Constant Matrix: (Units=GPa)
#
#
# Indices 1 2 3 4 5 6 
#
# 1 89.2249 8.8805 29.6973 -11.9832 -13.2452 -1.0618
# 2 8.8805 96.0736 21.2902 -17.3012 -14.9813 2.9452
# 3 29.6973 21.2902 166.4084 -6.5831 -43.2831 -11.9442
# 4 -11.9832 -17.3012 -6.5831 36.0070 -4.5239 -5.8734
# 5 -13.2452 -14.9813 -43.2831 -4.5239 45.5224 -5.7850
# 6 -1.0618 2.9452 -11.9442 -5.8734 -5.7850 33.5260
#
#
#
# Elastic Compliance Matrix: (Units=1/GPa)
#
#
# Indices 1 2 3 4 5 6 
#
# 1 0.012728 0.000452 -0.001141 0.004906 0.003434 0.001409
# 2 0.000452 0.012356 -0.000023 0.006870 0.004984 0.000984
# 3 -0.001141 -0.000023 0.009193 0.003365 0.009430 0.005458
# 4 0.004906 0.006870 0.003365 0.036272 0.011651 0.009116
# 5 0.003434 0.004984 0.009430 0.011651 0.036168 0.011312
# 6 0.001409 0.000984 0.005458 0.009116 0.011312 0.035279
#
#
# Mechanical properties :
#
#
# Convention : Reuss Voigt Hill
#
# Bulk Modulus (GPa) = 30.43758 52.38254 41.41006
# Shear Modulus (GPa) = 32.38958 42.46703 37.42830
#
# Velocity S-wave (km/s) = 3.65471 4.18481 3.92871
# Velocity P-wave (km/s) = 5.51009 6.70462 6.13649
#
# Compressibility (1/GPa) = 0.03285412
#
# Stress axis : x y z
#
# Youngs Moduli (GPa) = 78.56869 80.93137 108.77398
#
# Poissons Ratio (x) = -0.03658 0.12410
# Poissons Ratio (y) = -0.03552 0.00247
# Poissons Ratio (z) = 0.08964 0.00184
#
# Static dielectric constant tensor:
#      x y z
#    x 2.017480 0.047770 -0.051310 
#    y 0.047770 2.024770 0.071310 
#    z -0.051310 0.071310 2.078050 
# 
# From -- ./inp_files/97617.got.cif
#   From: 2010.05.17/outbox.cif.g08.bks.cpg/sg2_49_cif.got.tgz:97617.got - 2010.06.03 11:33:40.
