data_PCOD9092626
_publ_section_title
;
Structure prediction by ZEFSAII (Michael W. Deem and Ramdas Pophale) SiO2 
 PCOD9092626
Probable space group: P -1
;
_chemical_formula_sum "Si O2"
_cell_formula_units_Z 16
_cell_length_a 9.052471
_cell_length_b 19.378936
_cell_length_c 9.150346
_cell_angle_alpha 138.228292
_cell_angle_beta 51.938212
_cell_angle_gamma 102.006410
_cell_volume 738.595430
_symmetry_space_group_name_H-M "P -1"
_symmetry_group_IT_number 2
_symmetry_cell_setting 'triclinic'
loop_
_space_group_symop_operation_xyz
x,y,z
-x,-y,-z
loop_
_atom_site_type_symbol
_atom_site_label
_atom_site_fract_x
_atom_site_fract_y
_atom_site_fract_z
Si Si1 0.845800 0.180811 0.134483
Si Si2 0.625155 0.381577 0.829403
Si Si3 0.980553 0.381662 0.829567
Si Si4 0.339389 0.184215 0.115536
Si Si5 0.709716 0.994376 0.286640
Si Si6 0.320438 0.977824 0.149969
Si Si7 0.955692 0.763388 0.154413
Si Si8 0.600616 0.751958 0.142507
O O1 0.756094 0.274056 0.466923
O O2 0.721681 0.108595 0.063619
O O3 0.863882 0.248467 0.087831
O O4 0.084877 0.075792 0.852392
O O5 0.789023 0.390025 0.857208
O O6 0.449267 0.354195 0.969189
O O7 0.500000 0.500000 0.000000
O O8 0.203149 0.280311 0.468118
O O9 0.964294 0.336718 0.929424
O O10 0.000000 0.500000 0.000000
O O11 0.580705 0.101154 0.889180
O O12 0.322090 0.243770 0.062792
O O13 0.247619 0.091892 0.011772
O O14 0.628858 0.129075 0.513420
O O15 0.500000 0.000000 0.500000
O O16 0.134399 0.107080 0.511405
O O17 0.500000 0.000000 0.000000
O O18 0.765668 0.759049 0.168370
#
# Coordination Sequence:
#
# PCOD9092626 Si02
#       8
#     2   2   2   2   2   2   2   2
#     4  12  26  44  73 103 146 187 230 282 353 424
#     4  12  29  49  68  99 136 189 244 287 342 416
#     4  12  28  46  70  97 135 181 241 293 343 405
#     4  11  22  45  70 102 142 182 227 277 353 421
#     4  10  19  41  71 105 136 174 224 276 347 428
#     4  12  25  40  70 112 151 182 220 286 353 422
#     4  12  23  45  69 106 140 182 228 286 351 414
#     4  11  23  43  75  99 142 182 224 288 349 420
#
# _framework density 21.662738000000001
#
# number of rings (size 3 to 8) (size 9 to 14) (size 15 to 20)
#    0.000    0.500    6.250    2.625    5.250    1.500 
#    0.000    3.750    0.000    0.000    0.000    0.000 
#    0.000    0.000    0.000    0.000    0.000    0.000 
#
# Total GULP energy -89462.648008 kJ/mol
# GULP energy per Si atom -5591.415501 kJ/mol
# Density = 2.161343 g / cm^3
# Si number density = 21.662738 Si / 1000 Ang^3
#
#
#
# Elastic Constant Matrix: (Units=GPa)
#
#
# Indices 1 2 3 4 5 6 
#
# 1 122.9118 64.1852 24.4240 15.0827 15.8351 -5.3428
# 2 64.1852 155.4646 23.3990 14.5191 9.9515 -7.2240
# 3 24.4240 23.3990 33.4484 2.0286 9.0340 6.1522
# 4 15.0827 14.5191 2.0286 37.3567 -2.0522 2.4742
# 5 15.8351 9.9515 9.0340 -2.0522 31.4572 7.1072
# 6 -5.3428 -7.2240 6.1522 2.4742 7.1072 36.8804
#
#
#
# Elastic Compliance Matrix: (Units=1/GPa)
#
#
# Indices 1 2 3 4 5 6 
#
# 1 0.012209 -0.003406 -0.005699 -0.003746 -0.004387 0.003149
# 2 -0.003406 0.008716 -0.003718 -0.001980 -0.000574 0.002077
# 3 -0.005699 -0.003718 0.039362 0.001780 -0.005522 -0.007175
# 4 -0.003746 -0.001980 0.001780 0.029495 0.004861 -0.004143
# 5 -0.004387 -0.000574 -0.005522 0.004861 0.037761 -0.007430
# 6 0.003149 0.002077 -0.007175 -0.004143 -0.007430 0.030884
#
#
# Mechanical properties :
#
#
# Convention : Reuss Voigt Hill
#
# Bulk Modulus (GPa) = 28.86685 59.53792 44.20238
# Shear Modulus (GPa) = 25.55967 34.45997 30.00982
#
# Velocity S-wave (km/s) = 3.43868 3.99275 3.72603
# Velocity P-wave (km/s) = 5.39634 6.98568 6.24180
#
# Compressibility (1/GPa) = 0.03464181
#
# Stress axis : x y z
#
# Youngs Moduli (GPa) = 81.90898 114.73003 25.40496
#
# Poissons Ratio (x) = 0.39073 0.14479
# Poissons Ratio (y) = 0.27896 0.09445
# Poissons Ratio (z) = 0.46683 0.42652
#
# Static dielectric constant tensor:
#      x y z
#    x 1.867410 -0.042280 0.017880 
#    y -0.042280 1.835300 -0.011870 
#    z 0.017880 -0.011870 1.804720 
# 
# From -- ./inp_files/218808.got.cif
#   From: 2010.05.17/outbox.cif.g08.bks.cpg/sg2_110_cif.got.tgz:218808.got - 2010.06.03 11:33:40.
