data_PCOD9092856
_publ_section_title
;
Structure prediction by ZEFSAII (Michael W. Deem and Ramdas Pophale) SiO2 
 PCOD9092856
Probable space group: P -1
;
_chemical_formula_sum "Si O2"
_cell_formula_units_Z 14
_cell_length_a 20.176114
_cell_length_b 11.303236
_cell_length_c 11.994976
_cell_angle_alpha 115.808539
_cell_angle_beta 33.152477
_cell_angle_gamma 138.206267
_cell_volume 852.755548
_symmetry_space_group_name_H-M "P -1"
_symmetry_group_IT_number 2
_symmetry_cell_setting 'triclinic'
loop_
_space_group_symop_operation_xyz
x,y,z
-x,-y,-z
loop_
_atom_site_type_symbol
_atom_site_label
_atom_site_fract_x
_atom_site_fract_y
_atom_site_fract_z
Si Si1 0.049610 0.249336 0.512381
Si Si2 0.356158 0.143020 0.802384
Si Si3 0.891365 0.294008 0.924813
Si Si4 0.585252 0.540453 0.018088
Si Si5 0.825922 0.862577 0.524795
Si Si6 0.000553 0.085473 0.923778
Si Si7 0.213521 0.524968 0.756063
O O1 0.107049 0.205997 0.521164
O O2 0.236033 0.404080 0.234484
O O3 0.888151 0.038117 0.583334
O O4 0.974327 0.320465 0.699605
O O5 0.349609 0.268900 0.938988
O O6 0.572390 0.304248 0.523137
O O7 0.270423 0.947841 0.911143
O O8 0.211245 0.041719 0.861994
O O9 0.811015 0.372435 0.084974
O O10 0.066575 0.425788 0.819759
O O11 0.400894 0.331565 0.255838
O O12 0.500000 0.500000 0.000000
O O13 0.931099 0.939252 0.290709
O O14 0.142968 0.329621 0.829143
O O15 0.000000 0.000000 0.000000
#
# Coordination Sequence:
#
# PCOD9092856 Si02
#       7
#     2   2   2   2   2   2   2
#     4  10  16  29  49  76 104 130 155 206 265 309
#     4  11  18  33  50  77 105 134 170 205 260 302
#     4  10  19  31  51  77 109 135 158 203 261 320
#     4  10  17  25  50  76 106 128 155 207 265 310
#     4  10  17  31  46  75 104 127 166 212 255 297
#     4  11  22  36  52  72 103 141 179 214 242 288
#     4  10  20  34  49  75 107 135 169 205 252 310
#
# _framework density 16.417366000000001
#
# number of rings (size 3 to 8) (size 9 to 14) (size 15 to 20)
#    0.000    1.714    5.714    3.000    0.000    0.571 
#    0.000    0.000    0.000    0.857    0.000    2.000 
#    0.000    0.000    0.000    0.000    0.000    0.000 
#
# Total GULP energy -78037.817675 kJ/mol
# GULP energy per Si atom -5574.129834 kJ/mol
# Density = 1.638000 g / cm^3
# Si number density = 16.417366 Si / 1000 Ang^3
#
#
#
# Elastic Constant Matrix: (Units=GPa)
#
#
# Indices 1 2 3 4 5 6 
#
# 1 33.2355 18.1668 21.1673 0.2357 9.4414 -0.5084
# 2 18.1668 105.2752 67.0873 11.8677 0.1377 10.6659
# 3 21.1673 67.0873 133.4062 4.4067 2.3477 2.4601
# 4 0.2357 11.8677 4.4067 39.4704 7.8056 -1.1920
# 5 9.4414 0.1377 2.3477 7.8056 12.5563 0.5963
# 6 -0.5084 10.6659 2.4601 -1.1920 0.5963 9.9540
#
#
#
# Elastic Compliance Matrix: (Units=1/GPa)
#
#
# Indices 1 2 3 4 5 6 
#
# 1 0.050916 -0.010214 -0.002891 0.012847 -0.046501 0.018584
# 2 -0.010214 0.019208 -0.007635 -0.008504 0.015188 -0.021145
# 3 -0.002891 -0.007635 0.011668 0.001378 -0.001036 0.005377
# 4 0.012847 -0.008504 0.001378 0.034453 -0.031977 0.015469
# 5 -0.046501 0.015188 -0.001036 -0.031977 0.135954 -0.030367
# 6 0.018584 -0.021145 0.005377 0.015469 -0.030367 0.126412
#
#
# Mechanical properties :
#
#
# Convention : Reuss Voigt Hill
#
# Bulk Modulus (GPa) = 24.80711 53.86218 39.33465
# Shear Modulus (GPa) = 11.53327 23.42917 17.48122
#
# Velocity S-wave (km/s) = 2.65335 3.78179 3.26667
# Velocity P-wave (km/s) = 4.95279 7.20753 6.18380
#
# Compressibility (1/GPa) = 0.04031102
#
# Stress axis : x y z
#
# Youngs Moduli (GPa) = 19.64024 52.06088 85.70629
#
# Poissons Ratio (x) = 0.53177 0.24776
# Poissons Ratio (y) = 0.20061 0.65439
# Poissons Ratio (z) = 0.05678 0.39750
#
# Static dielectric constant tensor:
#      x y z
#    x 1.520910 0.008200 -0.007230 
#    y 0.008200 1.570620 -0.012730 
#    z -0.007230 -0.012730 1.604820 
# 
# From -- ./inp_files/338825.got.cif
#   From: 2010.05.17/outbox.cif.g08.bks.cpg/sg2_170_cif.got.tgz:338825.got - 2010.06.03 11:33:40.
