data_PCOD9092877
_publ_section_title
;
Structure prediction by ZEFSAII (Michael W. Deem and Ramdas Pophale) SiO2 
 PCOD9092877
Probable space group: P -1
;
_chemical_formula_sum "Si O2"
_cell_formula_units_Z 16
_cell_length_a 7.096078
_cell_length_b 14.941535
_cell_length_c 17.129520
_cell_angle_alpha 32.371762
_cell_angle_beta 57.441254
_cell_angle_gamma 43.290073
_cell_volume 652.090651
_symmetry_space_group_name_H-M "P -1"
_symmetry_group_IT_number 2
_symmetry_cell_setting 'triclinic'
loop_
_space_group_symop_operation_xyz
x,y,z
-x,-y,-z
loop_
_atom_site_type_symbol
_atom_site_label
_atom_site_fract_x
_atom_site_fract_y
_atom_site_fract_z
Si Si1 0.383988 0.619535 0.020624
Si Si2 0.961560 0.347326 0.671124
Si Si3 0.927592 0.163779 0.520722
Si Si4 0.882604 0.437601 0.139492
Si Si5 0.872002 0.909585 0.036703
Si Si6 0.826818 0.950719 0.298630
Si Si7 0.575156 0.623381 0.220485
Si Si8 0.333627 0.969068 0.444492
O O1 0.385409 0.815461 0.857287
O O2 0.500000 0.500000 0.000000
O O3 0.621634 0.455050 0.148857
O O4 0.084560 0.747812 0.040104
O O5 0.655451 0.419506 0.712388
O O6 0.000000 0.500000 0.500000
O O7 0.155474 0.228691 0.791650
O O8 0.028031 0.183414 0.710430
O O9 0.805585 0.408190 0.374931
O O10 0.957804 0.078460 0.663580
O O11 0.232050 0.998589 0.534055
O O12 0.738316 0.145623 0.515325
O O13 0.743986 0.598160 0.123646
O O14 0.120932 0.210450 0.285822
O O15 0.000000 0.500000 0.000000
O O16 0.599681 0.130553 0.900276
O O17 0.000000 0.000000 0.000000
O O18 0.650416 0.882659 0.427845
#
# Coordination Sequence:
#
# PCOD9092877 Si02
#       8
#     2   2   2   2   2   2   2   2
#     4  12  23  40  69 103 132 176 234 292 349 411
#     4  11  22  39  69 102 132 182 233 278 354 419
#     4  10  23  40  62  97 137 181 230 292 347 412
#     4  11  20  37  66  94 127 180 231 278 341 416
#     4  10  19  43  69  93 134 184 226 280 353 420
#     4  12  22  41  67 100 137 176 236 290 344 417
#     4  10  20  41  66  89 131 187 229 273 348 408
#     4  10  22  40  62  94 140 182 228 287 358 413
#
# _framework density 24.536466000000001
#
# number of rings (size 3 to 8) (size 9 to 14) (size 15 to 20)
#    0.000    1.250    6.250    1.875    0.000    0.500 
#    4.500    0.000    0.000    1.500    0.000    0.875 
#    0.000    0.000    0.000    0.000    0.000    0.000 
#
# Total GULP energy -89120.434114 kJ/mol
# GULP energy per Si atom -5570.027132 kJ/mol
# Density = 2.448062 g / cm^3
# Si number density = 24.536466 Si / 1000 Ang^3
#
#
#
# Elastic Constant Matrix: (Units=GPa)
#
#
# Indices 1 2 3 4 5 6 
#
# 1 38.1001 30.4081 15.5910 6.2550 6.5209 4.5983
# 2 30.4081 172.5884 56.1155 6.4040 7.0090 3.5780
# 3 15.5910 56.1155 108.9317 10.2219 -3.5943 -10.2915
# 4 6.2550 6.4040 10.2219 32.5388 0.3764 6.1054
# 5 6.5209 7.0090 -3.5943 0.3764 37.0674 0.8991
# 6 4.5983 3.5780 -10.2915 6.1054 0.8991 26.4593
#
#
#
# Elastic Compliance Matrix: (Units=1/GPa)
#
#
# Indices 1 2 3 4 5 6 
#
# 1 0.033027 -0.004481 -0.002742 -0.003570 -0.005066 -0.005204
# 2 -0.004481 0.007829 -0.003681 0.000840 -0.001012 -0.001871
# 3 -0.002742 -0.003681 0.012549 -0.003973 0.002273 0.006695
# 4 -0.003570 0.000840 -0.003973 0.034177 -0.000047 -0.008923
# 5 -0.005066 -0.001012 0.002273 -0.000047 0.028258 0.000952
# 6 -0.005204 -0.001871 0.006695 -0.008923 0.000952 0.043582
#
#
# Mechanical properties :
#
#
# Convention : Reuss Voigt Hill
#
# Bulk Modulus (GPa) = 31.64926 58.20549 44.92737
# Shear Modulus (GPa) = 26.07396 33.71347 29.89372
#
# Velocity S-wave (km/s) = 3.26339 3.71079 3.49426
# Velocity P-wave (km/s) = 5.20831 6.49103 5.88472
#
# Compressibility (1/GPa) = 0.03159631
#
# Stress axis : x y z
#
# Youngs Moduli (GPa) = 30.27859 127.72805 79.68756
#
# Poissons Ratio (x) = 0.57237 0.21854
# Poissons Ratio (y) = 0.13568 0.29331
# Poissons Ratio (z) = 0.08304 0.47013
#
# Static dielectric constant tensor:
#      x y z
#    x 2.066400 -0.040140 -0.032380 
#    y -0.040140 1.964770 -0.001010 
#    z -0.032380 -0.001010 1.986050 
# 
# From -- ./inp_files/503785.got.cif
#   From: 2010.05.17/outbox.cif.g08.bks.cpg/sg2_252_cif.got.tgz:503785.got - 2010.06.03 11:33:40.
