data_PCOD9092423
_publ_section_title
;
Structure prediction by ZEFSAII (Michael W. Deem and Ramdas Pophale) SiO2 
 PCOD9092423
Probable space group: P -1
;
_chemical_formula_sum "Si O2"
_cell_formula_units_Z 14
_cell_length_a 8.483576
_cell_length_b 10.326538
_cell_length_c 11.688596
_cell_angle_alpha 90.590157
_cell_angle_beta 40.304481
_cell_angle_gamma 79.350705
_cell_volume 632.271838
_symmetry_space_group_name_H-M "P -1"
_symmetry_group_IT_number 2
_symmetry_cell_setting 'triclinic'
loop_
_space_group_symop_operation_xyz
x,y,z
-x,-y,-z
loop_
_atom_site_type_symbol
_atom_site_label
_atom_site_fract_x
_atom_site_fract_y
_atom_site_fract_z
Si Si1 0.054235 0.064178 0.749835
Si Si2 0.407436 0.646257 0.403959
Si Si3 0.726398 0.042736 0.593766
Si Si4 0.949463 0.681065 0.094811
Si Si5 0.046209 0.770454 0.788214
Si Si6 0.497409 0.843232 0.066059
Si Si7 0.541331 0.539319 0.106852
O O1 0.092706 0.177587 0.813481
O O2 0.757187 0.111669 0.869648
O O3 0.241996 0.050799 0.535705
O O4 0.112729 0.912410 0.767016
O O5 0.308671 0.806237 0.429793
O O6 0.254774 0.650790 0.605521
O O7 0.368598 0.553091 0.318671
O O8 0.708602 0.625398 0.246053
O O9 0.533137 0.055748 0.806337
O O10 0.000000 0.000000 0.500000
O O11 0.992107 0.715143 0.940105
O O12 0.194324 0.568589 0.006206
O O13 0.781919 0.816951 0.860543
O O14 0.517477 0.696563 0.104427
O O15 0.500000 0.500000 0.000000
#
# Coordination Sequence:
#
# PCOD9092423 Si02
#       7
#     2   2   2   2   2   2   2
#     4  10  21  37  63  95 125 163 205 253 312 368
#     4  10  23  41  63  93 122 168 204 252 318 361
#     4   8  16  33  60  84 116 159 201 242 294 360
#     4  12  23  41  64  91 132 164 202 259 307 376
#     4  11  23  40  64  94 129 160 204 254 318 372
#     4  10  19  41  64  90 123 164 211 257 305 364
#     4  11  22  43  69  87 120 168 215 257 304 364
#
# _framework density 22.142375999999999
#
# number of rings (size 3 to 8) (size 9 to 14) (size 15 to 20)
#    0.000    1.714    4.286    1.286    0.000    2.857 
#    2.571    2.143    0.000    0.000    0.000    0.000 
#    0.000    0.000    0.000    0.000    0.000    0.000 
#
# Total GULP energy -77993.490051 kJ/mol
# GULP energy per Si atom -5570.963575 kJ/mol
# Density = 2.209198 g / cm^3
# Si number density = 22.142376 Si / 1000 Ang^3
#
#
#
# Elastic Constant Matrix: (Units=GPa)
#
#
# Indices 1 2 3 4 5 6 
#
# 1 101.5695 21.4181 69.5654 9.5635 25.4638 -6.6562
# 2 21.4181 59.7638 26.3790 12.7602 8.2879 -9.2493
# 3 69.5654 26.3790 171.4859 18.3659 37.2256 14.9774
# 4 9.5635 12.7602 18.3659 30.1291 4.0482 -1.0409
# 5 25.4638 8.2879 37.2256 4.0482 38.8055 18.3797
# 6 -6.6562 -9.2493 14.9774 -1.0409 18.3797 33.6147
#
#
#
# Elastic Compliance Matrix: (Units=1/GPa)
#
#
# Indices 1 2 3 4 5 6 
#
# 1 0.017529 -0.000230 -0.005549 -0.000038 -0.012025 0.012454
# 2 -0.000230 0.021618 -0.001950 -0.006630 -0.006767 0.010266
# 3 -0.005549 -0.001950 0.009718 -0.003119 -0.002792 -0.004535
# 4 -0.000038 -0.006630 -0.003119 0.037910 0.000178 0.000634
# 5 -0.012025 -0.006767 -0.002792 0.000178 0.052876 -0.031905
# 6 0.012454 0.010266 -0.004535 0.000634 -0.031905 0.054525
#
#
# Mechanical properties :
#
#
# Convention : Reuss Voigt Hill
#
# Bulk Modulus (GPa) = 29.93206 63.06047 46.49627
# Shear Modulus (GPa) = 22.64804 34.87365 28.76084
#
# Velocity S-wave (km/s) = 3.20165 3.97290 3.60794
# Velocity P-wave (km/s) = 5.21678 7.04177 6.19683
#
# Compressibility (1/GPa) = 0.03340899
#
# Stress axis : x y z
#
# Youngs Moduli (GPa) = 57.04964 46.25678 102.89801
#
# Poissons Ratio (x) = 0.01062 0.57094
# Poissons Ratio (y) = 0.01310 0.20065
# Poissons Ratio (z) = 0.31655 0.09020
#
# Static dielectric constant tensor:
#      x y z
#    x 1.865410 -0.010750 0.050030 
#    y -0.010750 1.813660 -0.027950 
#    z 0.050030 -0.027950 1.942650 
# 
# From -- ./inp_files/239679.got.cif
#   From: 2010.05.17/outbox.cif.g08.bks.cpg/sg2_120_cif.got.tgz:239679.got - 2010.06.03 11:33:40.
