data_PCOD9092610
_publ_section_title
;
Structure prediction by ZEFSAII (Michael W. Deem and Ramdas Pophale) SiO2 
 PCOD9092610
Probable space group: P -1
;
_chemical_formula_sum "Si O2"
_cell_formula_units_Z 14
_cell_length_a 19.087676
_cell_length_b 8.631429
_cell_length_c 14.625968
_cell_angle_alpha 50.625640
_cell_angle_beta 20.715153
_cell_angle_gamma 52.045950
_cell_volume 656.818726
_symmetry_space_group_name_H-M "P -1"
_symmetry_group_IT_number 2
_symmetry_cell_setting 'triclinic'
loop_
_space_group_symop_operation_xyz
x,y,z
-x,-y,-z
loop_
_atom_site_type_symbol
_atom_site_label
_atom_site_fract_x
_atom_site_fract_y
_atom_site_fract_z
Si Si1 0.696666 0.410109 0.011087
Si Si2 0.523569 0.027187 0.735342
Si Si3 0.485304 0.486927 0.631012
Si Si4 0.630356 0.885823 0.465799
Si Si5 0.874467 0.704731 0.100973
Si Si6 0.901240 0.051620 0.790623
Si Si7 0.323188 0.141255 0.208950
O O1 0.700653 0.437074 0.106739
O O2 0.495099 0.299517 0.279722
O O3 0.861613 0.257320 0.820544
O O4 0.683106 0.630293 0.902483
O O5 0.621634 0.020345 0.517466
O O6 0.636078 0.877192 0.725242
O O7 0.529530 0.250833 0.684982
O O8 0.294042 0.978877 0.020055
O O9 0.500000 0.500000 0.500000
O O10 0.656724 0.625756 0.395989
O O11 0.850565 0.818742 0.184700
O O12 0.500000 0.000000 0.500000
O O13 0.000000 0.500000 0.000000
O O14 0.911667 0.867213 0.918199
O O15 0.108223 0.059976 0.483196
O O16 0.500000 0.000000 0.000000
#
# Coordination Sequence:
#
# PCOD9092610 Si02
#       7
#     2   2   2   2   2   2   2
#     4  10  22  42  67  91 135 178 208 280 327 383
#     4  11  22  43  70  99 130 180 218 266 334 396
#     4  11  20  38  68  99 128 168 216 260 341 390
#     4  10  19  41  70  95 131 171 211 268 339 391
#     4  11  22  38  64  99 135 166 210 279 329 390
#     4  11  24  44  67  94 133 175 226 266 330 397
#     4  12  26  45  66  96 135 172 230 279 320 386
#
# _framework density 21.314862000000002
#
# number of rings (size 3 to 8) (size 9 to 14) (size 15 to 20)
#    0.000    1.143    5.714    2.143    2.000    2.857 
#    2.571    1.429    0.000    0.000    0.000    0.000 
#    0.000    0.000    0.000    0.000    0.000    0.000 
#
# Total GULP energy -78035.363229 kJ/mol
# GULP energy per Si atom -5573.954516 kJ/mol
# Density = 2.126635 g / cm^3
# Si number density = 21.314862 Si / 1000 Ang^3
#
#
#
# Elastic Constant Matrix: (Units=GPa)
#
#
# Indices 1 2 3 4 5 6 
#
# 1 47.3908 20.6034 1.6759 -4.0250 17.4234 -10.4744
# 2 20.6034 154.0384 55.6736 -2.8255 4.5077 -5.8436
# 3 1.6759 55.6736 82.0122 -6.3412 -1.6811 -9.6777
# 4 -4.0250 -2.8255 -6.3412 42.7321 4.2659 6.3947
# 5 17.4234 4.5077 -1.6811 4.2659 20.4328 1.0729
# 6 -10.4744 -5.8436 -9.6777 6.3947 1.0729 29.3860
#
#
#
# Elastic Compliance Matrix: (Units=1/GPa)
#
#
# Indices 1 2 3 4 5 6 
#
# 1 0.039236 -0.005082 0.004056 0.005182 -0.033842 0.014419
# 2 -0.005082 0.009379 -0.006515 -0.000723 0.001985 -0.002007
# 3 0.004056 -0.006515 0.017297 0.001822 -0.001268 0.005496
# 4 0.005182 -0.000723 0.001822 0.025472 -0.009275 -0.002901
# 5 -0.033842 0.001985 -0.001268 -0.009275 0.079874 -0.012983
# 6 0.014419 -0.002007 0.005496 -0.002901 -0.012983 0.041686
#
#
# Mechanical properties :
#
#
# Convention : Reuss Voigt Hill
#
# Bulk Modulus (GPa) = 19.67313 48.81634 34.24473
# Shear Modulus (GPa) = 20.41084 32.20942 26.31013
#
# Velocity S-wave (km/s) = 3.09785 3.89154 3.51715
# Velocity P-wave (km/s) = 4.69525 6.56843 5.70919
#
# Compressibility (1/GPa) = 0.05083076
#
# Stress axis : x y z
#
# Youngs Moduli (GPa) = 25.48679 106.62343 57.81498
#
# Poissons Ratio (x) = 0.54183 -0.23452
# Poissons Ratio (y) = 0.12952 0.37666
# Poissons Ratio (z) = -0.10338 0.69465
#
# Static dielectric constant tensor:
#      x y z
#    x 1.805720 0.053740 0.062180 
#    y 0.053740 1.889380 0.108850 
#    z 0.062180 0.108850 1.845410 
# 
# From -- ./inp_files/185553.got.cif
#   From: 2010.05.17/outbox.cif.g08.bks.cpg/sg2_93_cif.got.tgz:185553.got - 2010.06.03 11:33:40.
