data_PCOD9092499
_publ_section_title
;
Structure prediction by ZEFSAII (Michael W. Deem and Ramdas Pophale) SiO2 
 PCOD9092499
Probable space group: P -1
;
_chemical_formula_sum "Si O2"
_cell_formula_units_Z 12
_cell_length_a 8.843534
_cell_length_b 5.519970
_cell_length_c 14.817314
_cell_angle_alpha 116.267680
_cell_angle_beta 126.718438
_cell_angle_gamma 93.812887
_cell_volume 461.487972
_symmetry_space_group_name_H-M "P -1"
_symmetry_group_IT_number 2
_symmetry_cell_setting 'triclinic'
loop_
_space_group_symop_operation_xyz
x,y,z
-x,-y,-z
loop_
_atom_site_type_symbol
_atom_site_label
_atom_site_fract_x
_atom_site_fract_y
_atom_site_fract_z
Si Si1 0.734155 0.381467 0.780860
Si Si2 0.144590 0.340426 0.568777
Si Si3 0.788689 0.523980 0.006587
Si Si4 0.962524 0.832667 0.806909
Si Si5 0.347069 0.192272 0.447275
Si Si6 0.308575 0.660980 0.863974
O O1 0.771399 0.672147 0.782088
O O2 0.987990 0.485145 0.903382
O O3 0.621228 0.096114 0.626217
O O4 0.650074 0.305809 0.840386
O O5 0.294717 0.285795 0.540890
O O6 0.295660 0.530986 0.737944
O O7 0.000000 0.500000 0.500000
O O8 0.000000 0.000000 0.500000
O O9 0.691591 0.493923 0.065436
O O10 0.852718 0.852863 0.040274
O O11 0.880164 0.914433 0.700890
O O12 0.072944 0.635893 0.781291
O O13 0.500000 0.500000 0.500000
O O14 0.500000 0.000000 0.000000
#
# Coordination Sequence:
#
# PCOD9092499 Si02
#       6
#     2   2   2   2   2   2
#     4   9  19  37  63  93 131 172 225 292 364 425
#     4  12  26  52  80 105 151 209 249 308 380 453
#     4   9  19  37  63  93 131 172 225 292 364 425
#     4  10  19  41  66  94 132 183 229 304 364 438
#     4  11  25  42  68 102 142 187 253 301 366 445
#     4  11  25  42  68 102 142 187 253 301 366 445
#
# _framework density 26.002845000000001
#
# number of rings (size 3 to 8) (size 9 to 14) (size 15 to 20)
#    0.000    1.667    1.667    3.500    2.333    2.667 
#    0.000    0.000    0.000    0.000    0.000    0.000 
#    0.000    0.000    0.000    0.000    0.000    0.000 
#
# Total GULP energy -66802.083430 kJ/mol
# GULP energy per Si atom -5566.840286 kJ/mol
# Density = 2.594366 g / cm^3
# Si number density = 26.002845 Si / 1000 Ang^3
#
#
#
# Elastic Constant Matrix: (Units=GPa)
#
#
# Indices 1 2 3 4 5 6 
#
# 1 101.8849 32.4824 39.8302 -8.2723 -28.8026 21.4699
# 2 32.4824 95.5105 44.2727 27.4728 -27.9895 41.8448
# 3 39.8302 44.2727 203.8720 -13.1283 -58.3029 41.6935
# 4 -8.2723 27.4728 -13.1283 41.9566 15.5801 2.5525
# 5 -28.8026 -27.9895 -58.3029 15.5801 55.9614 -14.2951
# 6 21.4699 41.8448 41.6935 2.5525 -14.2951 46.5776
#
#
#
# Elastic Compliance Matrix: (Units=1/GPa)
#
#
# Indices 1 2 3 4 5 6 
#
# 1 0.012558 -0.003803 -0.000267 0.003930 0.002809 -0.001486
# 2 -0.003803 0.036047 0.001669 -0.029717 0.019850 -0.024404
# 3 -0.000267 0.001669 0.007991 -0.001171 0.007798 -0.006072
# 4 0.003930 -0.029717 -0.001171 0.051860 -0.024523 0.015566
# 5 0.002809 0.019850 0.007798 -0.024523 0.041091 -0.012153
# 6 -0.001486 -0.024404 -0.006072 0.015566 -0.012153 0.044931
#
#
# Mechanical properties :
#
#
# Convention : Reuss Voigt Hill
#
# Bulk Modulus (GPa) = 19.30753 70.49311 44.90032
# Shear Modulus (GPa) = 23.08975 47.87791 35.48383
#
# Velocity S-wave (km/s) = 2.98312 4.29564 3.69807
# Velocity P-wave (km/s) = 4.39393 7.19528 5.96148
#
# Compressibility (1/GPa) = 0.05179326
#
# Stress axis : x y z
#
# Youngs Moduli (GPa) = 79.62795 27.74170 125.13825
#
# Poissons Ratio (x) = 0.10551 0.03345
# Poissons Ratio (y) = 0.30285 -0.20887
# Poissons Ratio (z) = 0.02128 -0.04630
#
# Static dielectric constant tensor:
#      x y z
#    x 2.218360 -0.148840 -0.096380 
#    y -0.148840 2.336730 -0.030020 
#    z -0.096380 -0.030020 2.246780 
# 
# From -- ./inp_files/23269.got.cif
#   From: 2010.05.17/outbox.cif.g08.bks.cpg/sg2_12_cif.got.tgz:23269.got - 2010.06.03 11:33:40.
