data_PCOD9092769
_publ_section_title
;
Structure prediction by ZEFSAII (Michael W. Deem and Ramdas Pophale) SiO2 
 PCOD9092769
Probable space group: P -1
;
_chemical_formula_sum "Si O2"
_cell_formula_units_Z 16
_cell_length_a 12.355270
_cell_length_b 10.572656
_cell_length_c 13.763974
_cell_angle_alpha 62.898324
_cell_angle_beta 32.604487
_cell_angle_gamma 85.735384
_cell_volume 659.015609
_symmetry_space_group_name_H-M "P -1"
_symmetry_group_IT_number 2
_symmetry_cell_setting 'triclinic'
loop_
_space_group_symop_operation_xyz
x,y,z
-x,-y,-z
loop_
_atom_site_type_symbol
_atom_site_label
_atom_site_fract_x
_atom_site_fract_y
_atom_site_fract_z
Si Si1 0.762938 0.904144 0.635723
Si Si2 0.592256 0.522304 0.648552
Si Si3 0.503013 0.923031 0.183428
Si Si4 0.878756 0.391440 0.530969
Si Si5 0.669165 0.500176 0.967375
Si Si6 0.072251 0.054460 0.723479
Si Si7 0.907624 0.688932 0.029557
Si Si8 0.903951 0.421766 0.247252
O O1 0.577957 0.952069 0.785281
O O2 0.877077 0.974194 0.415634
O O3 0.564377 0.680821 0.851408
O O4 0.000000 0.000000 0.500000
O O5 0.453069 0.439722 0.888940
O O6 0.369564 0.400840 0.779947
O O7 0.823673 0.513406 0.472755
O O8 0.706638 0.732908 0.487067
O O9 0.326257 0.755439 0.454097
O O10 0.397337 0.814855 0.197825
O O11 0.802584 0.019933 0.937246
O O12 0.000000 0.500000 0.500000
O O13 0.084867 0.374686 0.334528
O O14 0.817940 0.466579 0.945759
O O15 0.049441 0.904391 0.859712
O O16 0.862993 0.565255 0.196942
O O17 0.064868 0.663364 0.841981
#
# Coordination Sequence:
#
# PCOD9092769 Si02
#       8
#     2   2   2   2   2   2   2   2
#     4  11  25  41  63  91 127 170 214 258 317 375
#     4  10  22  42  61  93 127 164 211 261 309 373
#     4  11  23  41  63  92 129 165 209 264 318 375
#     4  11  24  38  63  90 123 170 212 261 317 371
#     4   9  22  42  59  86 128 160 206 265 301 380
#     4  11  23  41  66  93 130 167 209 263 311 378
#     4  10  19  42  68  92 127 166 214 258 317 378
#     4   9  20  41  66  90 126 168 203 266 321 368
#
# _framework density 24.278635999999999
#
# number of rings (size 3 to 8) (size 9 to 14) (size 15 to 20)
#    0.000    1.750    2.500    0.750    5.250    1.500 
#    2.250    3.125    0.000    0.000    0.000    0.000 
#    0.000    0.000    0.000    0.000    0.000    0.000 
#
# Total GULP energy -89480.148173 kJ/mol
# GULP energy per Si atom -5592.509261 kJ/mol
# Density = 2.422338 g / cm^3
# Si number density = 24.278636 Si / 1000 Ang^3
#
#
#
# Elastic Constant Matrix: (Units=GPa)
#
#
# Indices 1 2 3 4 5 6 
#
# 1 44.6246 -7.3221 -5.4251 2.1985 5.2528 -8.0493
# 2 -7.3221 103.4041 5.7696 9.3543 3.1944 -15.7270
# 3 -5.4251 5.7696 85.6132 10.3404 1.0094 -3.7358
# 4 2.1985 9.3543 10.3404 43.3345 0.9386 -5.0896
# 5 5.2528 3.1944 1.0094 0.9386 20.7551 1.2518
# 6 -8.0493 -15.7270 -3.7358 -5.0896 1.2518 30.5623
#
#
#
# Elastic Compliance Matrix: (Units=1/GPa)
#
#
# Indices 1 2 3 4 5 6 
#
# 1 0.025786 0.003420 0.002041 -0.001324 -0.007628 0.008893
# 2 0.003420 0.011144 -0.000006 -0.001756 -0.002891 0.006460
# 3 0.002041 -0.000006 0.012232 -0.002809 -0.001080 0.001606
# 4 -0.001324 -0.001756 -0.002809 0.024498 -0.000517 0.002505
# 5 -0.007628 -0.002891 -0.001080 -0.000517 0.050982 -0.005803
# 6 0.008893 0.006460 0.001606 0.002505 -0.005803 0.039238
#
#
# Mechanical properties :
#
#
# Convention : Reuss Voigt Hill
#
# Bulk Modulus (GPa) = 16.64668 24.40966 20.52817
# Shear Modulus (GPa) = 28.90271 34.97168 31.93720
#
# Velocity S-wave (km/s) = 3.45405 3.79942 3.63084
# Velocity P-wave (km/s) = 4.77270 5.41509 5.10401
#
# Compressibility (1/GPa) = 0.06007203
#
# Stress axis : x y z
#
# Youngs Moduli (GPa) = 38.78135 89.73380 81.75070
#
# Poissons Ratio (x) = -0.30688 -0.16688
# Poissons Ratio (y) = -0.13263 0.00051
# Poissons Ratio (z) = -0.07917 0.00056
#
# Static dielectric constant tensor:
#      x y z
#    x 2.028550 -0.004030 0.092360 
#    y -0.004030 1.939550 -0.006410 
#    z 0.092360 -0.006410 1.944840 
# 
# From -- ./inp_files/282057.got.cif
#   From: 2010.05.17/outbox.cif.g08.bks.cpg/sg2_142_cif.got.tgz:282057.got - 2010.06.03 11:33:40.
