data_PCOD9092563
_publ_section_title
;
Structure prediction by ZEFSAII (Michael W. Deem and Ramdas Pophale) SiO2 
 PCOD9092563
Probable space group: P -1
;
_chemical_formula_sum "Si O2"
_cell_formula_units_Z 12
_cell_length_a 11.298770
_cell_length_b 10.664740
_cell_length_c 14.265217
_cell_angle_alpha 40.604926
_cell_angle_beta 152.193280
_cell_angle_gamma 143.726804
_cell_volume 467.747051
_symmetry_space_group_name_H-M "P -1"
_symmetry_group_IT_number 2
_symmetry_cell_setting 'triclinic'
loop_
_space_group_symop_operation_xyz
x,y,z
-x,-y,-z
loop_
_atom_site_type_symbol
_atom_site_label
_atom_site_fract_x
_atom_site_fract_y
_atom_site_fract_z
Si Si1 0.566485 0.014594 0.341158
Si Si2 0.393026 0.339195 0.106388
Si Si3 0.815120 0.659490 0.367897
Si Si4 0.353464 0.409572 0.328167
Si Si5 0.989292 0.553697 0.104208
Si Si6 0.523376 0.910826 0.966942
O O1 0.369866 0.104795 0.203162
O O2 0.478718 0.969219 0.196499
O O3 0.862774 0.231336 0.437405
O O4 0.600274 0.804576 0.514142
O O5 0.640320 0.455262 0.293712
O O6 0.500000 0.500000 0.000000
O O7 0.091575 0.323027 0.940480
O O8 0.629247 0.595368 0.368312
O O9 0.782201 0.851169 0.183002
O O10 0.251003 0.502398 0.292174
O O11 0.102342 0.366609 0.100440
O O12 0.749966 0.316365 0.096461
O O13 0.500000 0.000000 0.000000
#
# Coordination Sequence:
#
# PCOD9092563 Si02
#       6
#     2   2   2   2   2   2
#     4  12  22  41  74  99 127 177 231 266 328 407
#     4  10  19  41  68  96 135 181 214 272 338 394
#     4  10  23  41  66 100 137 172 219 275 338 385
#     4   9  21  40  65 103 130 174 222 278 319 399
#     4   9  19  40  64  92 142 173 209 279 338 378
#     4  10  21  39  63  95 134 171 217 272 332 388
#
# _framework density 25.654892
#
# number of rings (size 3 to 8) (size 9 to 14) (size 15 to 20)
#    0.000    2.333    3.333    1.500    0.000    5.333 
#    0.000   14.167    0.000    5.000    0.000    0.000 
#    0.000    1.333    0.000    0.000    0.000    0.000 
#
# Total GULP energy -67023.925008 kJ/mol
# GULP energy per Si atom -5585.327084 kJ/mol
# Density = 2.559650 g / cm^3
# Si number density = 25.654892 Si / 1000 Ang^3
#
#
#
# Elastic Constant Matrix: (Units=GPa)
#
#
# Indices 1 2 3 4 5 6 
#
# 1 151.8555 38.4589 62.2424 -18.8507 25.6638 -21.3884
# 2 38.4589 98.8721 39.7428 -17.9364 21.7099 -25.3668
# 3 62.2424 39.7428 136.3964 -39.2593 11.8848 -8.6789
# 4 -18.8507 -17.9364 -39.2593 57.1466 -4.6498 5.2573
# 5 25.6638 21.7099 11.8848 -4.6498 53.4314 -6.0087
# 6 -21.3884 -25.3668 -8.6789 5.2573 -6.0087 38.5694
#
#
#
# Elastic Compliance Matrix: (Units=1/GPa)
#
#
# Indices 1 2 3 4 5 6 
#
# 1 0.009176 -0.000629 -0.003580 -0.000188 -0.002986 0.003430
# 2 -0.000629 0.014599 -0.002693 0.001478 -0.004023 0.007819
# 3 -0.003580 -0.002693 0.011289 0.005956 0.000604 -0.001934
# 4 -0.000188 0.001478 0.005956 0.022066 -0.000005 -0.000801
# 5 -0.002986 -0.004023 0.000604 -0.000005 0.021559 -0.000807
# 6 0.003430 0.007819 -0.001934 -0.000801 -0.000807 0.032520
#
#
# Mechanical properties :
#
#
# Convention : Reuss Voigt Hill
#
# Bulk Modulus (GPa) = 47.03863 74.22360 60.63112
# Shear Modulus (GPa) = 37.85049 46.27479 42.06264
#
# Velocity S-wave (km/s) = 3.84522 4.25165 4.05354
# Velocity P-wave (km/s) = 6.17165 7.28673 6.75225
#
# Compressibility (1/GPa) = 0.02125912
#
# Stress axis : x y z
#
# Youngs Moduli (GPa) = 108.97732 68.49975 88.58413
#
# Poissons Ratio (x) = 0.04307 0.31713
# Poissons Ratio (y) = 0.06852 0.23860
# Poissons Ratio (z) = 0.39014 0.18450
#
# Static dielectric constant tensor:
#      x y z
#    x 2.103670 0.038860 0.019100 
#    y 0.038860 2.166600 0.054200 
#    z 0.019100 0.054200 2.092580 
# 
# From -- ./inp_files/516654.got.cif
#   From: 2010.05.17/outbox.cif.g08.bks.cpg/sg2_259_cif.got.tgz:516654.got - 2010.06.03 11:33:40.
