data_PCOD9092080
_publ_section_title
;
Structure prediction by ZEFSAII (Michael W. Deem and Ramdas Pophale) SiO2 
 PCOD9092080
Probable space group: P -1
;
_chemical_formula_sum "Si O2"
_cell_formula_units_Z 16
_cell_length_a 11.048386
_cell_length_b 7.961710
_cell_length_c 18.083677
_cell_angle_alpha 55.052067
_cell_angle_beta 127.098101
_cell_angle_gamma 81.000415
_cell_volume 666.332756
_symmetry_space_group_name_H-M "P -1"
_symmetry_group_IT_number 2
_symmetry_cell_setting 'triclinic'
loop_
_space_group_symop_operation_xyz
x,y,z
-x,-y,-z
loop_
_atom_site_type_symbol
_atom_site_label
_atom_site_fract_x
_atom_site_fract_y
_atom_site_fract_z
Si Si1 0.871359 0.557565 0.695995
Si Si2 0.046017 0.123614 0.278383
Si Si3 0.266006 0.173862 0.701014
Si Si4 0.559831 0.197378 0.608489
Si Si5 0.215133 0.628197 0.150245
Si Si6 0.615901 0.542351 0.905820
Si Si7 0.411379 0.437293 0.646616
Si Si8 0.648515 0.053658 0.050885
O O1 0.648890 0.728009 0.519633
O O2 0.806709 0.530365 0.758844
O O3 0.107924 0.206980 0.840225
O O4 0.933527 0.731592 0.685095
O O5 0.205210 0.056224 0.288480
O O6 0.170133 0.783499 0.436155
O O7 0.790795 0.369056 0.085083
O O8 0.376828 0.284824 0.726929
O O9 0.284187 0.022717 0.818968
O O10 0.000000 0.500000 0.500000
O O11 0.401232 0.915137 0.750958
O O12 0.500000 0.500000 0.500000
O O13 0.567968 0.173966 0.705114
O O14 0.450286 0.513213 0.283943
O O15 0.240921 0.548287 0.093498
O O16 0.000000 0.000000 0.000000
O O17 0.532369 0.393152 0.905481
O O18 0.500000 0.000000 0.000000
#
# Coordination Sequence:
#
# PCOD9092080 Si02
#       8
#     2   2   2   2   2   2   2   2
#     4  12  24  42  73 109 147 190 239 298 366 438
#     4  11  24  43  72 109 144 188 237 292 375 445
#     4  12  28  49  73 101 143 195 249 298 351 431
#     4  10  19  40  66 102 144 184 228 287 365 432
#     4  12  25  43  72 113 152 183 236 307 375 428
#     4  12  27  48  76 106 145 189 242 307 366 432
#     4  11  25  45  71 105 145 194 242 300 360 428
#     4  12  26  50  73 102 143 198 248 293 354 430
#
# _framework density 24.012027
#
# number of rings (size 3 to 8) (size 9 to 14) (size 15 to 20)
#    0.000    0.500    3.750    6.000    3.500    2.500 
#    0.000    1.875    0.000    0.000    0.000    0.000 
#    0.000    0.000    0.000    0.000    0.000    0.000 
#
# Total GULP energy -89549.974647 kJ/mol
# GULP energy per Si atom -5596.873415 kJ/mol
# Density = 2.395738 g / cm^3
# Si number density = 24.012027 Si / 1000 Ang^3
#
#
#
# Elastic Constant Matrix: (Units=GPa)
#
#
# Indices 1 2 3 4 5 6 
#
# 1 107.4010 40.5131 21.2057 -8.5503 -12.9491 10.0310
# 2 40.5131 118.5811 19.0541 -6.0402 11.3134 -7.2003
# 3 21.2057 19.0541 69.0494 -0.6731 15.6966 -12.9794
# 4 -8.5503 -6.0402 -0.6731 38.4975 -2.1434 7.6835
# 5 -12.9491 11.3134 15.6966 -2.1434 40.1184 4.3820
# 6 10.0310 -7.2003 -12.9794 7.6835 4.3820 36.2928
#
#
#
# Elastic Compliance Matrix: (Units=1/GPa)
#
#
# Indices 1 2 3 4 5 6 
#
# 1 0.015692 -0.005555 -0.007766 0.005225 0.011114 -0.010665
# 2 -0.005555 0.010998 0.000913 -0.000798 -0.005831 0.004917
# 3 -0.007766 0.000913 0.021897 -0.004448 -0.012953 0.012664
# 4 0.005225 -0.000798 -0.004448 0.029314 0.006328 -0.010163
# 5 0.011114 -0.005831 -0.012953 0.006328 0.037168 -0.014688
# 6 -0.010665 0.004917 0.012664 -0.010163 -0.014688 0.039931
#
#
# Mechanical properties :
#
#
# Convention : Reuss Voigt Hill
#
# Bulk Modulus (GPa) = 42.06841 50.73081 46.39961
# Shear Modulus (GPa) = 26.63246 37.26563 31.94905
#
# Velocity S-wave (km/s) = 3.33397 3.94376 3.65162
# Velocity P-wave (km/s) = 5.69019 6.47386 6.09463
#
# Compressibility (1/GPa) = 0.02377081
#
# Stress axis : x y z
#
# Youngs Moduli (GPa) = 63.72772 90.92212 45.66796
#
# Poissons Ratio (x) = 0.50506 0.35468
# Poissons Ratio (y) = 0.35400 -0.04170
# Poissons Ratio (z) = 0.49494 -0.08302
#
# Static dielectric constant tensor:
#      x y z
#    x 1.918840 -0.000130 0.011230 
#    y -0.000130 1.973140 0.014920 
#    z 0.011230 0.014920 1.922220 
# 
# From -- ./inp_files/593489.got.cif
#   From: 2010.05.17/outbox.cif.g08.bks.cpg/sg2_297_cif.got.tgz:593489.got - 2010.06.03 11:33:40.
