data_PCOD9092915
_publ_section_title
;
Structure prediction by ZEFSAII (Michael W. Deem and Ramdas Pophale) SiO2 
 PCOD9092915
Probable space group: P -1
;
_chemical_formula_sum "Si O2"
_cell_formula_units_Z 12
_cell_length_a 6.482621
_cell_length_b 16.084123
_cell_length_c 5.348816
_cell_angle_alpha 76.829997
_cell_angle_beta 106.386666
_cell_angle_gamma 112.018675
_cell_volume 491.332119
_symmetry_space_group_name_H-M "P -1"
_symmetry_group_IT_number 2
_symmetry_cell_setting 'triclinic'
loop_
_space_group_symop_operation_xyz
x,y,z
-x,-y,-z
loop_
_atom_site_type_symbol
_atom_site_label
_atom_site_fract_x
_atom_site_fract_y
_atom_site_fract_z
Si Si1 0.177596 0.620138 0.792733
Si Si2 0.057306 0.609458 0.245433
Si Si3 0.880558 0.187883 0.016020
Si Si4 0.370330 0.894621 0.490965
Si Si5 0.615644 0.756248 0.637325
Si Si6 0.683591 0.599971 0.459567
O O1 0.413520 0.699678 0.792727
O O2 0.160939 0.577821 0.545067
O O3 0.924466 0.629582 0.684475
O O4 0.163499 0.571330 0.079998
O O5 0.794026 0.596842 0.224913
O O6 0.152309 0.717538 0.149002
O O7 0.743200 0.146461 0.252129
O O8 0.143115 0.211139 0.164952
O O9 0.809118 0.125796 0.786777
O O10 0.545219 0.843839 0.494944
O O11 0.500000 0.000000 0.500000
O O12 0.613079 0.686838 0.455923
O O13 0.500000 0.500000 0.500000
#
# Coordination Sequence:
#
# PCOD9092915 Si02
#       6
#     2   2   2   2   2   2
#     4  10  22  42  65 102 137 182 240 286 342 416
#     4  10  19  44  64  95 143 176 227 295 332 408
#     4  12  23  47  72 105 143 182 241 288 353 431
#     4  12  28  47  72 109 145 176 237 301 349 432
#     4  12  23  45  79  98 142 202 227 290 371 407
#     4  10  24  43  68 106 145 182 242 296 340 422
#
# _framework density 24.423397000000001
#
# number of rings (size 3 to 8) (size 9 to 14) (size 15 to 20)
#    1.000    0.000    5.000    1.500    0.000    8.000 
#    0.000    0.833    0.000    1.000    0.000    0.000 
#    0.000    0.000    0.000    0.000    0.000    0.000 
#
# Total GULP energy -66818.160864 kJ/mol
# GULP energy per Si atom -5568.180072 kJ/mol
# Density = 2.436781 g / cm^3
# Si number density = 24.423397 Si / 1000 Ang^3
#
#
#
# Elastic Constant Matrix: (Units=GPa)
#
#
# Indices 1 2 3 4 5 6 
#
# 1 79.2650 84.7235 21.3469 -63.3046 41.2032 33.2691
# 2 84.7235 200.5847 45.4244 16.6876 3.0654 7.0843
# 3 21.3469 45.4244 112.0126 -22.8761 3.2354 26.3228
# 4 -63.3046 16.6876 -22.8761 -25.3545 64.8848 34.7134
# 5 41.2032 3.0654 3.2354 64.8848 15.5223 -34.9178
# 6 33.2691 7.0843 26.3228 34.7134 -34.9178 12.0709
#
#
#
# Elastic Compliance Matrix: (Units=1/GPa)
#
#
# Indices 1 2 3 4 5 6 
#
# 1 0.009227 -0.003269 -0.002624 -0.003622 0.004494 0.005625
# 2 -0.003269 0.006723 -0.001045 0.000643 -0.003130 -0.003561
# 3 -0.002624 -0.001045 0.010311 -0.001246 0.002658 -0.003367
# 4 -0.003622 0.000643 -0.001246 0.007345 0.007400 0.012605
# 5 0.004494 -0.003130 0.002658 0.007400 0.011441 -0.004529
# 6 0.005625 -0.003561 -0.003367 0.012605 -0.004529 0.027423
#
#
# Mechanical properties :
#
#
# Convention : Reuss Voigt Hill
#
# Bulk Modulus (GPa) = 80.73955 77.20577 78.97266
# Shear Modulus (GPa) = 55.26382 16.47223 35.86802
#
# Velocity S-wave (km/s) = 4.76199 2.59982 3.83638
# Velocity P-wave (km/s) = 7.96024 6.37904 7.21310
#
# Compressibility (1/GPa) = 0.01238550
#
# Stress axis : x y z
#
# Youngs Moduli (GPa) = 108.37321 148.74299 96.98143
#
# Poissons Ratio (x) = 0.48627 0.25449
# Poissons Ratio (y) = 0.35429 0.10132
# Poissons Ratio (z) = 0.28439 0.15540
#
# Static dielectric constant tensor:
#      x y z
#    x 2.025480 -0.010820 -0.070140 
#    y -0.010820 1.992740 0.100120 
#    z -0.070140 0.100120 2.216350 
# 
# From -- ./inp_files/7758.got.cif
#   From: 2010.05.17/outbox.cif.g08.bks.cpg/sg2_4_cif.got.tgz:7758.got - 2010.06.03 11:33:40.
