data_PCOD9092672
_publ_section_title
;
Structure prediction by ZEFSAII (Michael W. Deem and Ramdas Pophale) SiO2 
 PCOD9092672
Probable space group: P -1
;
_chemical_formula_sum "Si O2"
_cell_formula_units_Z 16
_cell_length_a 15.444699
_cell_length_b 14.501291
_cell_length_c 12.562365
_cell_angle_alpha 142.649991
_cell_angle_beta 151.624626
_cell_angle_gamma 29.278672
_cell_volume 649.346948
_symmetry_space_group_name_H-M "P -1"
_symmetry_group_IT_number 2
_symmetry_cell_setting 'triclinic'
loop_
_space_group_symop_operation_xyz
x,y,z
-x,-y,-z
loop_
_atom_site_type_symbol
_atom_site_label
_atom_site_fract_x
_atom_site_fract_y
_atom_site_fract_z
Si Si1 0.477863 0.474222 0.780646
Si Si2 0.266276 0.661594 0.515461
Si Si3 0.895953 0.646617 0.192099
Si Si4 0.685304 0.753643 0.713944
Si Si5 0.161750 0.324828 0.592869
Si Si6 0.851517 0.232798 0.122386
Si Si7 0.630117 0.043481 0.763757
Si Si8 0.501722 0.753800 0.718036
O O1 0.437312 0.590970 0.736859
O O2 0.405832 0.338082 0.543699
O O3 0.302475 0.613673 0.809817
O O4 0.728820 0.343239 0.981376
O O5 0.281351 0.796172 0.576562
O O6 0.363754 0.465170 0.378305
O O7 0.028681 0.731156 0.374535
O O8 0.879061 0.639571 0.293904
O O9 0.069085 0.424201 0.141395
O O10 0.658764 0.753071 0.974713
O O11 0.504706 0.854336 0.707541
O O12 0.719717 0.887775 0.808538
O O13 0.417847 0.240722 0.765027
O O14 0.000000 0.500000 0.500000
O O15 0.096359 0.183607 0.362175
O O16 0.813417 0.072484 0.948376
O O17 0.500000 0.000000 0.500000
#
# Coordination Sequence:
#
# PCOD9092672 Si02
#       8
#     2   2   2   2   2   2   2   2
#     4   9  17  34  64  87 119 156 204 252 299 358
#     4   9  17  33  55  94 121 146 207 262 294 346
#     4  10  20  38  64  92 117 158 215 255 291 365
#     4  10  19  42  60  93 128 157 203 261 306 357
#     4  12  25  40  65  95 121 165 216 249 301 382
#     4  11  21  39  62  90 121 166 204 250 307 371
#     4  12  26  43  61  90 135 164 193 261 319 366
#     4   9  19  33  63  91 118 161 203 256 303 355
#
# _framework density 24.640139000000001
#
# number of rings (size 3 to 8) (size 9 to 14) (size 15 to 20)
#    0.000    2.000    3.750    3.750    3.500    0.500 
#    0.000    5.625    0.000    1.500    0.000    0.000 
#    0.000    0.000    0.000    0.000    0.000    0.000 
#
# Total GULP energy -89485.275719 kJ/mol
# GULP energy per Si atom -5592.829732 kJ/mol
# Density = 2.458406 g / cm^3
# Si number density = 24.640139 Si / 1000 Ang^3
#
#
#
# Elastic Constant Matrix: (Units=GPa)
#
#
# Indices 1 2 3 4 5 6 
#
# 1 140.4198 14.6313 46.3242 14.9159 12.8060 11.2095
# 2 14.6313 44.3499 -0.0007 10.3736 3.0972 10.8795
# 3 46.3242 -0.0007 93.8435 1.2944 -0.8333 8.8655
# 4 14.9159 10.3736 1.2944 18.6115 0.0380 8.9907
# 5 12.8060 3.0972 -0.8333 0.0380 48.0276 3.7865
# 6 11.2095 10.8795 8.8655 8.9907 3.7865 35.6582
#
#
#
# Elastic Compliance Matrix: (Units=1/GPa)
#
#
# Indices 1 2 3 4 5 6 
#
# 1 0.009807 -0.001582 -0.004828 -0.006941 -0.002641 0.000631
# 2 -0.001582 0.027066 0.001416 -0.011434 -0.000885 -0.005136
# 3 -0.004828 0.001416 0.013320 0.003772 0.001689 -0.003356
# 4 -0.006941 -0.011434 0.003772 0.072078 0.003687 -0.013832
# 5 -0.002641 -0.000885 0.001689 0.003687 0.021811 -0.002565
# 6 0.000631 -0.005136 -0.003356 -0.013832 -0.002565 0.034007
#
#
# Mechanical properties :
#
#
# Convention : Reuss Voigt Hill
#
# Bulk Modulus (GPa) = 24.87314 44.50253 34.68784
# Shear Modulus (GPa) = 24.81648 34.97002 29.89325
#
# Velocity S-wave (km/s) = 3.17702 3.77135 3.48687
# Velocity P-wave (km/s) = 4.85535 6.08805 5.50630
#
# Compressibility (1/GPa) = 0.04020401
#
# Stress axis : x y z
#
# Youngs Moduli (GPa) = 101.96728 36.94669 75.07773
#
# Poissons Ratio (x) = 0.05846 0.36251
# Poissons Ratio (y) = 0.16133 -0.10633
# Poissons Ratio (z) = 0.49234 -0.05233
#
# Static dielectric constant tensor:
#      x y z
#    x 2.005620 -0.019470 0.000460 
#    y -0.019470 2.009920 0.060000 
#    z 0.000460 0.060000 1.954130 
# 
# From -- ./inp_files/455126.got.cif
#   From: 2010.05.17/outbox.cif.g08.bks.cpg/sg2_228_cif.got.tgz:455126.got - 2010.06.03 11:33:40.
