data_PCOD9092070
_publ_section_title
;
Structure prediction by ZEFSAII (Michael W. Deem and Ramdas Pophale) SiO2 
 PCOD9092070
Probable space group: P -1
;
_chemical_formula_sum "Si O2"
_cell_formula_units_Z 14
_cell_length_a 7.591428
_cell_length_b 6.978035
_cell_length_c 15.092453
_cell_angle_alpha 108.061186
_cell_angle_beta 43.270724
_cell_angle_gamma 95.929414
_cell_volume 511.730581
_symmetry_space_group_name_H-M "P -1"
_symmetry_group_IT_number 2
_symmetry_cell_setting 'triclinic'
loop_
_space_group_symop_operation_xyz
x,y,z
-x,-y,-z
loop_
_atom_site_type_symbol
_atom_site_label
_atom_site_fract_x
_atom_site_fract_y
_atom_site_fract_z
Si Si1 0.779295 0.312050 0.470201
Si Si2 0.672312 0.649048 0.768076
Si Si3 0.465129 0.750326 0.039572
Si Si4 0.318352 0.409110 0.767129
Si Si5 0.990715 0.704070 0.291604
Si Si6 0.764745 0.908130 0.113811
Si Si7 0.536598 0.792310 0.588732
O O1 0.664054 0.558124 0.535403
O O2 0.593549 0.270622 0.612689
O O3 0.698880 0.216160 0.394883
O O4 0.091352 0.280202 0.361885
O O5 0.420963 0.595023 0.803069
O O6 0.823144 0.436576 0.727258
O O7 0.567764 0.788209 0.910314
O O8 0.161119 0.821878 0.183904
O O9 0.621304 0.830863 0.072052
O O10 0.500000 0.500000 0.000000
O O11 0.172077 0.288345 0.872799
O O12 0.143962 0.438210 0.746213
O O13 0.767592 0.845740 0.449670
O O14 0.573867 0.070138 0.268565
O O15 0.000000 0.000000 0.000000
#
# Coordination Sequence:
#
# PCOD9092070 Si02
#       7
#     2   2   2   2   2   2   2
#     4   9  19  39  66  98 125 170 217 263 316 392
#     4  10  19  40  65  96 133 163 213 271 313 377
#     4  10  20  42  64  92 130 174 210 258 324 378
#     4  11  22  39  68  98 121 173 225 254 323 387
#     4   9  20  38  64  93 124 166 213 261 315 378
#     4  12  25  42  65  97 133 173 211 270 330 376
#     4   9  20  40  64  95 135 166 211 268 327 374
#
# _framework density 27.358148
#
# number of rings (size 3 to 8) (size 9 to 14) (size 15 to 20)
#    0.000    2.000    2.857    2.143    0.000    5.714 
#    2.571    0.714    3.143    0.000    0.000    0.000 
#    0.000    0.000    0.000    0.000    0.000    0.000 
#
# Total GULP energy -78433.498459 kJ/mol
# GULP energy per Si atom -5602.392747 kJ/mol
# Density = 2.729588 g / cm^3
# Si number density = 27.358148 Si / 1000 Ang^3
#
#
#
# Elastic Constant Matrix: (Units=GPa)
#
#
# Indices 1 2 3 4 5 6 
#
# 1 104.1128 52.7031 44.6071 8.0681 15.4789 27.3884
# 2 52.7031 90.2771 82.0227 -15.5103 -2.6555 18.0174
# 3 44.6071 82.0227 204.8671 -15.0059 10.2652 27.0211
# 4 8.0681 -15.5103 -15.0059 77.0536 10.6676 0.1863
# 5 15.4789 -2.6555 10.2652 10.6676 47.0130 6.7793
# 6 27.3884 18.0174 27.0211 0.1863 6.7793 59.2329
#
#
#
# Elastic Compliance Matrix: (Units=1/GPa)
#
#
# Indices 1 2 3 4 5 6 
#
# 1 0.016553 -0.010560 0.001246 -0.002911 -0.005020 -0.004426
# 2 -0.010560 0.025109 -0.007774 0.003857 0.005699 0.000127
# 3 0.001246 -0.007774 0.008073 0.000217 -0.002428 -0.001617
# 4 -0.002911 0.003857 0.000217 0.014402 -0.002179 0.000278
# 5 -0.005020 0.005699 -0.002428 -0.002179 0.024428 -0.001094
# 6 -0.004426 0.000127 -0.001617 0.000278 -0.001094 0.019753
#
#
# Mechanical properties :
#
#
# Convention : Reuss Voigt Hill
#
# Bulk Modulus (GPa) = 64.26503 84.21363 74.23933
# Shear Modulus (GPa) = 33.85696 51.32149 42.58923
#
# Velocity S-wave (km/s) = 3.52169 4.33588 3.94982
# Velocity P-wave (km/s) = 6.33069 7.47765 6.92795
#
# Compressibility (1/GPa) = 0.01556056
#
# Stress axis : x y z
#
# Youngs Moduli (GPa) = 60.41237 39.82566 123.86741
#
# Poissons Ratio (x) = 0.42054 -0.15430
# Poissons Ratio (y) = 0.63793 0.96290
# Poissons Ratio (z) = -0.07526 0.30959
#
# Static dielectric constant tensor:
#      x y z
#    x 2.068550 -0.037630 -0.013060 
#    y -0.037630 2.278660 -0.032370 
#    z -0.013060 -0.032370 2.183140 
# 
# From -- ./inp_files/556465.got.cif
#   From: 2010.05.17/outbox.cif.g08.bks.cpg/sg2_279_cif.got.tgz:556465.got - 2010.06.03 11:33:40.
