data_PCOD9092999
_publ_section_title
;
Structure prediction by ZEFSAII (Michael W. Deem and Ramdas Pophale) SiO2 
 PCOD9092999
Probable space group: P -1
;
_chemical_formula_sum "Si O2"
_cell_formula_units_Z 16
_cell_length_a 11.247485
_cell_length_b 15.547562
_cell_length_c 16.535117
_cell_angle_alpha 162.284305
_cell_angle_beta 103.972383
_cell_angle_gamma 69.348062
_cell_volume 776.653258
_symmetry_space_group_name_H-M "P -1"
_symmetry_group_IT_number 2
_symmetry_cell_setting 'triclinic'
loop_
_space_group_symop_operation_xyz
x,y,z
-x,-y,-z
loop_
_atom_site_type_symbol
_atom_site_label
_atom_site_fract_x
_atom_site_fract_y
_atom_site_fract_z
Si Si1 0.630464 0.766003 0.222894
Si Si2 0.818431 0.430071 0.382292
Si Si3 0.462349 0.343603 0.278142
Si Si4 0.913293 0.738032 0.816963
Si Si5 0.741958 0.873713 0.185504
Si Si6 0.553027 0.531574 0.146920
Si Si7 0.565397 0.597562 0.391148
Si Si8 0.814924 0.406573 0.630134
O O1 0.655037 0.548656 0.110913
O O2 0.747445 0.722627 0.139453
O O3 0.569603 0.122180 0.562153
O O4 0.512246 0.702797 0.100001
O O5 0.853017 0.626830 0.631317
O O6 0.681155 0.630078 0.491974
O O7 0.935813 0.321123 0.236378
O O8 0.828811 0.111345 0.141950
O O9 0.500000 0.500000 0.500000
O O10 0.541652 0.336933 0.203767
O O11 0.307454 0.511934 0.379851
O O12 0.500000 0.000000 0.000000
O O13 0.912201 0.525565 0.702899
O O14 0.583249 0.118707 0.375622
O O15 0.834011 0.063945 0.356352
O O16 0.768697 0.624929 0.896767
O O17 0.604811 0.495455 0.214295
#
# Coordination Sequence:
#
# PCOD9092999 Si02
#       8
#     2   2   2   2   2   2   2   2
#     4   9  16  31  44  69  97 127 151 179 236 288
#     4  10  21  35  53  67  94 126 164 209 234 270
#     4  11  20  28  41  62  92 121 143 181 229 273
#     4  10  21  37  50  68  91 130 169 199 237 271
#     4  10  20  30  49  72  99 122 149 192 237 289
#     4   9  18  28  48  66  97 126 152 190 227 286
#     4  10  20  33  48  74  96 123 160 195 239 279
#     4  11  20  32  47  68  94 125 160 191 226 286
#
# _framework density 20.601213999999999
#
# number of rings (size 3 to 8) (size 9 to 14) (size 15 to 20)
#    0.000    2.000    0.000    6.000    0.000    5.000 
#    0.000    0.000    0.000    0.000    0.000    1.750 
#    0.000    0.000    0.000    0.750    0.000    0.000 
#
# Total GULP energy -89219.975409 kJ/mol
# GULP energy per Si atom -5576.248463 kJ/mol
# Density = 2.055432 g / cm^3
# Si number density = 20.601214 Si / 1000 Ang^3
#
#
#
# Elastic Constant Matrix: (Units=GPa)
#
#
# Indices 1 2 3 4 5 6 
#
# 1 53.7991 25.9752 2.5622 3.3655 5.9350 31.3143
# 2 25.9752 83.2506 15.2864 -2.6845 3.6568 47.2754
# 3 2.5622 15.2864 110.9849 -6.2436 12.9748 11.8608
# 4 3.3655 -2.6845 -6.2436 21.9787 13.4652 3.6081
# 5 5.9350 3.6568 12.9748 13.4652 20.7764 3.7325
# 6 31.3143 47.2754 11.8608 3.6081 3.7325 41.0872
#
#
#
# Elastic Compliance Matrix: (Units=1/GPa)
#
#
# Indices 1 2 3 4 5 6 
#
# 1 0.043117 0.019096 0.006254 0.020823 -0.022950 -0.056383
# 2 0.019096 0.047856 0.005239 0.031168 -0.024479 -0.071643
# 3 0.006254 0.005239 0.013000 0.017884 -0.019847 -0.014316
# 4 0.020823 0.031168 0.017884 0.113181 -0.085342 -0.059082
# 5 -0.022950 -0.024479 -0.019847 -0.085342 0.118049 0.048157
# 6 -0.056383 -0.071643 -0.014316 -0.059082 0.048157 0.154690
#
#
# Mechanical properties :
#
#
# Convention : Reuss Voigt Hill
#
# Bulk Modulus (GPa) = 6.05498 37.29801 21.67649
# Shear Modulus (GPa) = 10.33561 30.38252 20.35907
#
# Velocity S-wave (km/s) = 2.24229 3.84447 3.14705
# Velocity P-wave (km/s) = 3.10634 6.15229 4.87340
#
# Compressibility (1/GPa) = 0.16515337
#
# Stress axis : x y z
#
# Youngs Moduli (GPa) = 23.19260 20.89604 76.92060
#
# Poissons Ratio (x) = -0.39903 -0.48110
# Poissons Ratio (y) = -0.44289 -0.40301
# Poissons Ratio (z) = -0.14506 -0.10948
#
# Static dielectric constant tensor:
#      x y z
#    x 1.802980 0.064280 0.022480 
#    y 0.064280 1.847530 0.134660 
#    z 0.022480 0.134660 1.876260 
# 
# From -- ./inp_files/522048.got.cif
#   From: 2010.05.17/outbox.cif.g08.bks.cpg/sg2_262_cif.got.tgz:522048.got - 2010.06.03 11:33:40.
