data_PCOD9092233
_publ_section_title
;
Structure prediction by ZEFSAII (Michael W. Deem and Ramdas Pophale) SiO2 
 PCOD9092233
Probable space group: P -1
;
_chemical_formula_sum "Si O2"
_cell_formula_units_Z 16
_cell_length_a 8.130594
_cell_length_b 8.743549
_cell_length_c 24.778431
_cell_angle_alpha 146.343172
_cell_angle_beta 51.825305
_cell_angle_gamma 114.175924
_cell_volume 744.880077
_symmetry_space_group_name_H-M "P -1"
_symmetry_group_IT_number 2
_symmetry_cell_setting 'triclinic'
loop_
_space_group_symop_operation_xyz
x,y,z
-x,-y,-z
loop_
_atom_site_type_symbol
_atom_site_label
_atom_site_fract_x
_atom_site_fract_y
_atom_site_fract_z
Si Si1 0.312080 0.486854 0.990758
Si Si2 0.592913 0.671533 0.903547
Si Si3 0.141662 0.725223 0.543040
Si Si4 0.656185 0.572948 0.743378
Si Si5 0.701581 0.006757 0.500059
Si Si6 0.398099 0.522502 0.586960
Si Si7 0.007438 0.926692 0.747923
Si Si8 0.224433 0.067836 0.961623
O O1 0.116780 0.757323 0.119909
O O2 0.500000 0.500000 0.000000
O O3 0.413911 0.528628 0.924472
O O4 0.239171 0.206995 0.941047
O O5 0.688189 0.519852 0.785207
O O6 0.748358 0.705792 0.931099
O O7 0.500000 0.000000 0.000000
O O8 0.115518 0.949609 0.565630
O O9 0.389795 0.536607 0.436527
O O10 0.000000 0.500000 0.500000
O O11 0.088917 0.887196 0.658050
O O12 0.660563 0.282120 0.626866
O O13 0.836966 0.730411 0.732518
O O14 0.425052 0.794843 0.846283
O O15 0.500000 0.000000 0.500000
O O16 0.724169 0.726164 0.448753
O O17 0.500000 0.500000 0.500000
O O18 0.214526 0.810607 0.709605
O O19 0.000000 0.000000 0.000000
#
# Coordination Sequence:
#
# PCOD9092233 Si02
#       8
#     2   2   2   2   2   2   2   2
#     4  10  19  40  68  92 126 170 219 257 317 394
#     4   9  18  39  63  92 125 163 214 260 316 392
#     4  10  20  40  65  93 124 167 219 263 312 390
#     4  11  21  41  67  91 129 177 210 267 337 373
#     4  10  22  43  66  93 128 166 223 267 316 392
#     4   9  22  41  60  93 128 163 212 270 318 378
#     4  11  20  39  67  90 130 173 210 271 328 375
#     4  10  22  40  65  97 131 162 221 270 310 388
#
# _framework density 21.479968
#
# number of rings (size 3 to 8) (size 9 to 14) (size 15 to 20)
#    0.000    2.000    5.000    0.000    0.000    3.500 
#    9.000    6.250    5.500    0.000    0.000    0.000 
#    0.000    0.000    0.000    0.000    0.000    0.000 
#
# Total GULP energy -89281.507124 kJ/mol
# GULP energy per Si atom -5580.094195 kJ/mol
# Density = 2.143108 g / cm^3
# Si number density = 21.479968 Si / 1000 Ang^3
#
#
#
# Elastic Constant Matrix: (Units=GPa)
#
#
# Indices 1 2 3 4 5 6 
#
# 1 54.8755 32.2788 33.2385 -1.7690 -13.4716 7.1927
# 2 32.2788 184.7480 27.1549 -9.1492 -0.5948 -5.7088
# 3 33.2385 27.1549 64.8085 -14.4799 -6.4741 -12.2302
# 4 -1.7690 -9.1492 -14.4799 26.2681 -6.4288 0.3428
# 5 -13.4716 -0.5948 -6.4741 -6.4288 43.8559 -7.1889
# 6 7.1927 -5.7088 -12.2302 0.3428 -7.1889 33.5950
#
#
#
# Elastic Compliance Matrix: (Units=1/GPa)
#
#
# Indices 1 2 3 4 5 6 
#
# 1 0.036466 -0.004134 -0.021665 -0.009749 0.003987 -0.015445
# 2 -0.004134 0.006252 0.000212 0.001851 -0.000574 0.001883
# 3 -0.021665 0.000212 0.034301 0.018273 0.004014 0.017834
# 4 -0.009749 0.001851 0.018273 0.050144 0.008787 0.010423
# 5 0.003987 -0.000574 0.004014 0.008787 0.026912 0.006179
# 6 -0.015445 0.001883 0.017834 0.010423 0.006179 0.041102
#
#
# Mechanical properties :
#
#
# Convention : Reuss Voigt Hill
#
# Bulk Modulus (GPa) = 38.69018 54.41958 46.55488
# Shear Modulus (GPa) = 19.61043 34.86110 27.23576
#
# Velocity S-wave (km/s) = 3.02481 4.03297 3.56471
# Velocity P-wave (km/s) = 5.50005 6.86123 6.21800
#
# Compressibility (1/GPa) = 0.02584635
#
# Stress axis : x y z
#
# Youngs Moduli (GPa) = 27.42264 159.95161 29.15326
#
# Poissons Ratio (x) = 0.66127 0.63160
# Poissons Ratio (y) = 0.11337 -0.00619
# Poissons Ratio (z) = 0.59411 -0.03398
#
# Static dielectric constant tensor:
#      x y z
#    x 1.813800 -0.030610 -0.011670 
#    y -0.030610 1.831080 0.003160 
#    z -0.011670 0.003160 1.768480 
# 
# From -- ./inp_files/357357.got.cif
#   From: 2010.05.17/outbox.cif.g08.bks.cpg/sg2_179_cif.got.tgz:357357.got - 2010.06.03 11:33:40.
