data_PCOD9092920
_publ_section_title
;
Structure prediction by ZEFSAII (Michael W. Deem and Ramdas Pophale) SiO2 
 PCOD9092920
Probable space group: P -1
;
_chemical_formula_sum "Si O2"
_cell_formula_units_Z 14
_cell_length_a 15.359145
_cell_length_b 9.824626
_cell_length_c 13.809075
_cell_angle_alpha 110.299134
_cell_angle_beta 146.581399
_cell_angle_gamma 43.954815
_cell_volume 595.397564
_symmetry_space_group_name_H-M "P -1"
_symmetry_group_IT_number 2
_symmetry_cell_setting 'triclinic'
loop_
_space_group_symop_operation_xyz
x,y,z
-x,-y,-z
loop_
_atom_site_type_symbol
_atom_site_label
_atom_site_fract_x
_atom_site_fract_y
_atom_site_fract_z
Si Si1 0.306877 0.242512 0.668482
Si Si2 0.432649 0.094013 0.351293
Si Si3 0.466889 0.196884 0.134161
Si Si4 0.509100 0.690818 0.015954
Si Si5 0.984197 0.090554 0.329416
Si Si6 0.079409 0.702769 0.027335
Si Si7 0.294049 0.818013 0.351782
O O1 0.442639 0.295066 0.824934
O O2 0.000000 0.500000 0.500000
O O3 0.328048 0.155940 0.561207
O O4 0.523779 0.974178 0.863733
O O5 0.456120 0.252387 0.409339
O O6 0.500000 0.000000 0.500000
O O7 0.139449 0.227855 0.093863
O O8 0.247464 0.461439 0.056198
O O9 0.422348 0.252905 0.993622
O O10 0.779756 0.010737 0.412617
O O11 0.733408 0.390473 0.136855
O O12 0.180186 0.900392 0.756989
O O13 0.127036 0.927023 0.324009
O O14 0.293080 0.655497 0.265850
O O15 0.889406 0.948683 0.839520
#
# Coordination Sequence:
#
# PCOD9092920 Si02
#       7
#     2   2   2   2   2   2   2
#     4  12  24  45  72  98 139 187 231 286 357 406
#     4  10  22  43  70 102 136 181 235 283 344 422
#     4  12  24  44  68 102 142 175 238 291 342 422
#     4  11  24  43  68 100 136 184 230 288 351 409
#     4  11  22  43  69  94 142 175 235 286 348 417
#     4  10  23  39  70  99 135 183 231 278 359 406
#     4  10  19  44  66  94 136 184 221 289 343 412
#
# _framework density 23.513701999999999
#
# number of rings (size 3 to 8) (size 9 to 14) (size 15 to 20)
#    0.000    1.143    4.286    1.714    2.000    1.143 
#    2.571    0.000    0.000    0.000    0.000    0.000 
#    0.000    0.000    0.000    0.000    0.000    0.000 
#
# Total GULP energy -78074.157058 kJ/mol
# GULP energy per Si atom -5576.725504 kJ/mol
# Density = 2.346018 g / cm^3
# Si number density = 23.513702 Si / 1000 Ang^3
#
#
#
# Elastic Constant Matrix: (Units=GPa)
#
#
# Indices 1 2 3 4 5 6 
#
# 1 107.1713 52.1499 14.3504 0.1723 2.0185 -15.3847
# 2 52.1499 151.8832 25.2914 14.1376 15.1680 -13.7520
# 3 14.3504 25.2914 88.5261 10.8010 19.3816 -15.7031
# 4 0.1723 14.1376 10.8010 28.9160 -5.9303 -8.5953
# 5 2.0185 15.1680 19.3816 -5.9303 32.7408 5.0398
# 6 -15.3847 -13.7520 -15.7031 -8.5953 5.0398 27.6954
#
#
#
# Elastic Compliance Matrix: (Units=1/GPa)
#
#
# Indices 1 2 3 4 5 6 
#
# 1 0.012147 -0.004102 -0.000669 0.004067 0.001464 0.005327
# 2 -0.004102 0.009117 0.000119 -0.005042 -0.005216 0.001700
# 3 -0.000669 0.000119 0.016448 -0.005918 -0.012271 0.009410
# 4 0.004067 -0.005042 -0.005918 0.044100 0.012370 0.007836
# 5 0.001464 -0.005216 -0.012271 0.012370 0.044370 -0.012970
# 6 0.005327 0.001700 0.009410 0.007836 -0.012970 0.050038
#
#
# Mechanical properties :
#
#
# Convention : Reuss Voigt Hill
#
# Bulk Modulus (GPa) = 35.20022 59.01822 47.10922
# Shear Modulus (GPa) = 25.64187 34.92304 30.28245
#
# Velocity S-wave (km/s) = 3.30587 3.85804 3.59258
# Velocity P-wave (km/s) = 5.43822 6.70820 6.10632
#
# Compressibility (1/GPa) = 0.02840891
#
# Stress axis : x y z
#
# Youngs Moduli (GPa) = 82.32501 109.68911 60.79626
#
# Poissons Ratio (x) = 0.44991 0.04067
# Poissons Ratio (y) = 0.33767 -0.00724
# Poissons Ratio (z) = 0.05507 -0.01306
#
# Static dielectric constant tensor:
#      x y z
#    x 1.893000 0.069780 0.001170 
#    y 0.069780 1.897460 0.029830 
#    z 0.001170 0.029830 2.037190 
# 
# From -- ./inp_files/522097.got.cif
#   From: 2010.05.17/outbox.cif.g08.bks.cpg/sg2_262_cif.got.tgz:522097.got - 2010.06.03 11:33:40.
