data_PCOD9092883
_publ_section_title
;
Structure prediction by ZEFSAII (Michael W. Deem and Ramdas Pophale) SiO2 
 PCOD9092883
Probable space group: P -1
;
_chemical_formula_sum "Si O2"
_cell_formula_units_Z 16
_cell_length_a 13.007861
_cell_length_b 11.848270
_cell_length_c 7.929159
_cell_angle_alpha 64.400488
_cell_angle_beta 94.988334
_cell_angle_gamma 47.055722
_cell_volume 658.550278
_symmetry_space_group_name_H-M "P -1"
_symmetry_group_IT_number 2
_symmetry_cell_setting 'triclinic'
loop_
_space_group_symop_operation_xyz
x,y,z
-x,-y,-z
loop_
_atom_site_type_symbol
_atom_site_label
_atom_site_fract_x
_atom_site_fract_y
_atom_site_fract_z
Si Si1 0.720801 0.472234 0.577719
Si Si2 0.042932 0.317146 0.670447
Si Si3 0.156621 0.768934 0.895255
Si Si4 0.682530 0.138283 0.034850
Si Si5 0.160546 0.304674 0.036448
Si Si6 0.755191 0.175746 0.647359
Si Si7 0.339619 0.383257 0.975015
Si Si8 0.444045 0.849695 0.504841
O O1 0.677576 0.388418 0.524948
O O2 0.574438 0.712205 0.454033
O O3 0.879212 0.389131 0.571666
O O4 0.787738 0.352701 0.844137
O O5 0.000000 0.500000 0.500000
O O6 0.202915 0.093538 0.750840
O O7 0.090562 0.280601 0.898531
O O8 0.262959 0.794958 0.888890
O O9 0.209688 0.621354 0.851586
O O10 0.953955 0.991747 0.740052
O O11 0.486350 0.287706 0.931769
O O12 0.735458 0.128940 0.858752
O O13 0.242087 0.350437 0.938136
O O14 0.305291 0.091882 0.300477
O O15 0.000000 0.500000 0.000000
O O16 0.652506 0.190013 0.493029
O O17 0.446288 0.246925 0.248834
#
# Coordination Sequence:
#
# PCOD9092883 Si02
#       8
#     2   2   2   2   2   2   2   2
#     4  10  20  39  66 102 123 174 226 278 320 398
#     4  12  26  43  68  98 134 170 224 279 340 392
#     4  10  19  43  70  94 132 182 224 268 331 405
#     4  11  22  42  68  99 133 172 220 285 336 375
#     4  12  26  47  67  91 135 189 225 261 333 414
#     4  11  19  41  74  95 131 176 230 270 328 401
#     4  11  26  40  66 102 140 173 221 279 334 385
#     4  11  23  40  66  97 133 175 227 269 324 405
#
# _framework density 24.29579
#
# number of rings (size 3 to 8) (size 9 to 14) (size 15 to 20)
#    0.000    1.000    3.750    4.125    3.500    1.500 
#    0.000    1.875    0.000    0.000    0.000    0.000 
#    0.000    0.000    0.000    0.000    0.000    0.000 
#
# Total GULP energy -89665.650564 kJ/mol
# GULP energy per Si atom -5604.103160 kJ/mol
# Density = 2.424049 g / cm^3
# Si number density = 24.295790 Si / 1000 Ang^3
#
#
#
# Elastic Constant Matrix: (Units=GPa)
#
#
# Indices 1 2 3 4 5 6 
#
# 1 146.6204 43.0481 2.7462 -6.7034 -3.3694 -0.0045
# 2 43.0481 118.8548 38.4349 -36.8008 -15.9444 -10.9157
# 3 2.7462 38.4349 73.9836 -16.1363 -10.9085 0.6844
# 4 -6.7034 -36.8008 -16.1363 40.7215 4.5184 5.3468
# 5 -3.3694 -15.9444 -10.9085 4.5184 31.7193 -5.9182
# 6 -0.0045 -10.9157 0.6844 5.3468 -5.9182 49.4855
#
#
#
# Elastic Compliance Matrix: (Units=1/GPa)
#
#
# Indices 1 2 3 4 5 6 
#
# 1 0.007857 -0.003901 0.001318 -0.001541 -0.000600 -0.000783
# 2 -0.003901 0.015628 -0.004989 0.010589 0.004766 0.002942
# 3 0.001318 -0.004989 0.017000 0.002282 0.002923 -0.001232
# 4 -0.001541 0.010589 0.002282 0.034879 0.000718 -0.001379
# 5 -0.000600 0.004766 0.002923 0.000718 0.035733 0.005207
# 6 -0.000783 0.002942 -0.001232 -0.001379 0.005207 0.021645
#
#
# Mechanical properties :
#
#
# Convention : Reuss Voigt Hill
#
# Bulk Modulus (GPa) = 39.46370 56.43524 47.94947
# Shear Modulus (GPa) = 31.98290 41.40057 36.69173
#
# Velocity S-wave (km/s) = 3.63215 4.13246 3.89036
# Velocity P-wave (km/s) = 5.81965 6.78590 6.32127
#
# Compressibility (1/GPa) = 0.02533974
#
# Stress axis : x y z
#
# Youngs Moduli (GPa) = 127.27781 63.98655 58.82505
#
# Poissons Ratio (x) = 0.24963 -0.07752
# Poissons Ratio (y) = 0.49655 0.29348
# Poissons Ratio (z) = -0.16773 0.31923
#
# Static dielectric constant tensor:
#      x y z
#    x 1.884320 -0.011350 -0.005880 
#    y -0.011350 1.931040 0.038350 
#    z -0.005880 0.038350 2.006910 
# 
# From -- ./inp_files/262070.got.cif
#   From: 2010.05.17/outbox.cif.g08.bks.cpg/sg2_132_cif.got.tgz:262070.got - 2010.06.03 11:33:40.
