data_PCOD9092100
_publ_section_title
;
Structure prediction by ZEFSAII (Michael W. Deem and Ramdas Pophale) SiO2 
 PCOD9092100
Probable space group: P -1
;
_chemical_formula_sum "Si O2"
_cell_formula_units_Z 14
_cell_length_a 8.164750
_cell_length_b 15.992897
_cell_length_c 10.846651
_cell_angle_alpha 31.819569
_cell_angle_beta 124.542094
_cell_angle_gamma 133.552316
_cell_volume 540.576923
_symmetry_space_group_name_H-M "P -1"
_symmetry_group_IT_number 2
_symmetry_cell_setting 'triclinic'
loop_
_space_group_symop_operation_xyz
x,y,z
-x,-y,-z
loop_
_atom_site_type_symbol
_atom_site_label
_atom_site_fract_x
_atom_site_fract_y
_atom_site_fract_z
Si Si1 0.682241 0.854261 0.468837
Si Si2 0.612606 0.676934 0.236210
Si Si3 0.031004 0.147538 0.632338
Si Si4 0.735451 0.421401 0.483085
Si Si5 0.392316 0.137593 0.296480
Si Si6 0.125455 0.561047 0.846214
Si Si7 0.250145 0.758227 0.039701
O O1 0.825432 0.805404 0.493530
O O2 0.421545 0.701013 0.538629
O O3 0.731929 0.882672 0.599088
O O4 0.711969 0.043221 0.196638
O O5 0.500000 0.500000 0.500000
O O6 0.810411 0.825700 0.217359
O O7 0.691240 0.590219 0.271407
O O8 0.423192 0.733743 0.052175
O O9 0.943744 0.294687 0.421287
O O10 0.816804 0.949862 0.778050
O O11 0.672662 0.286597 0.742022
O O12 0.000000 0.500000 0.500000
O O13 0.606965 0.336144 0.144453
O O14 0.500000 0.000000 0.500000
O O15 0.004250 0.385865 0.926599
O O16 0.000000 0.500000 0.000000
#
# Coordination Sequence:
#
# PCOD9092100 Si02
#       7
#     2   2   2   2   2   2   2
#     4  12  23  40  67  97 128 168 214 268 316 377
#     4  10  19  40  66  89 128 175 203 258 322 380
#     4  11  21  42  67  90 132 169 214 258 322 377
#     4  11  22  38  62  94 129 167 214 260 313 374
#     4  10  24  41  64  94 126 168 212 265 319 376
#     4  11  22  43  68  89 125 173 214 260 320 385
#     4  11  21  40  64  94 127 167 215 255 324 375
#
# _framework density 25.898257000000001
#
# number of rings (size 3 to 8) (size 9 to 14) (size 15 to 20)
#    0.000    1.143    5.714    3.429    2.000    0.000 
#    0.000    9.286    0.000    0.000    0.000    0.000 
#    0.000    0.000    0.000    0.000    0.000    0.000 
#
# Total GULP energy -78392.990243 kJ/mol
# GULP energy per Si atom -5599.499303 kJ/mol
# Density = 2.583931 g / cm^3
# Si number density = 25.898257 Si / 1000 Ang^3
#
#
#
# Elastic Constant Matrix: (Units=GPa)
#
#
# Indices 1 2 3 4 5 6 
#
# 1 84.5936 26.1554 17.8933 -14.3904 14.4574 5.6748
# 2 26.1554 232.5545 30.8807 -17.1511 0.2646 12.5884
# 3 17.8933 30.8807 57.3631 -12.0282 4.9942 1.1211
# 4 -14.3904 -17.1511 -12.0282 41.3760 -5.8516 -8.7463
# 5 14.4574 0.2646 4.9942 -5.8516 33.8898 -1.1522
# 6 5.6748 12.5884 1.1211 -8.7463 -1.1522 47.0156
#
#
#
# Elastic Compliance Matrix: (Units=1/GPa)
#
#
# Indices 1 2 3 4 5 6 
#
# 1 0.014135 -0.000948 -0.002853 0.002753 -0.005161 -0.000999
# 2 -0.000948 0.004812 -0.002146 0.000961 0.000818 -0.000924
# 3 -0.002853 -0.002146 0.020416 0.004159 -0.001017 0.001181
# 4 0.002753 0.000961 0.004159 0.028169 0.003226 0.004630
# 5 -0.005161 0.000818 -0.001017 0.003226 0.032472 0.001824
# 6 -0.000999 -0.000924 0.001181 0.004630 0.001824 0.022515
#
#
# Mechanical properties :
#
#
# Convention : Reuss Voigt Hill
#
# Bulk Modulus (GPa) = 36.40539 58.26332 47.33435
# Shear Modulus (GPa) = 34.82677 44.42839 39.62758
#
# Velocity S-wave (km/s) = 3.67107 4.14635 3.91593
# Velocity P-wave (km/s) = 5.66185 6.74306 6.22597
#
# Compressibility (1/GPa) = 0.02746846
#
# Stress axis : x y z
#
# Youngs Moduli (GPa) = 70.74609 207.82899 48.98230
#
# Poissons Ratio (x) = 0.19702 0.13973
# Poissons Ratio (y) = 0.06707 0.10512
# Poissons Ratio (z) = 0.20182 0.44603
#
# Static dielectric constant tensor:
#      x y z
#    x 2.212090 -0.041330 -0.141800 
#    y -0.041330 2.019770 0.029080 
#    z -0.141800 0.029080 2.039890 
# 
# From -- ./inp_files/181373.got.cif
#   From: 2010.05.17/outbox.cif.g08.bks.cpg/sg2_91_cif.got.tgz:181373.got - 2010.06.03 11:33:40.
