data_PCOD9092607
_publ_section_title
;
Structure prediction by ZEFSAII (Michael W. Deem and Ramdas Pophale) SiO2 
 PCOD9092607
Probable space group: P -1
;
_chemical_formula_sum "Si O2"
_cell_formula_units_Z 10
_cell_length_a 13.088031
_cell_length_b 8.916094
_cell_length_c 6.893370
_cell_angle_alpha 126.981418
_cell_angle_beta 101.136180
_cell_angle_gamma 44.383902
_cell_volume 407.119380
_symmetry_space_group_name_H-M "P -1"
_symmetry_group_IT_number 2
_symmetry_cell_setting 'triclinic'
loop_
_space_group_symop_operation_xyz
x,y,z
-x,-y,-z
loop_
_atom_site_type_symbol
_atom_site_label
_atom_site_fract_x
_atom_site_fract_y
_atom_site_fract_z
Si Si1 0.700693 0.505161 0.170672
Si Si2 0.925991 0.680006 0.412682
Si Si3 0.985640 0.237217 0.830073
Si Si4 0.363778 0.032039 0.271170
Si Si5 0.663478 0.228932 0.238275
O O1 0.697347 0.676083 0.465788
O O2 0.669644 0.358071 0.157993
O O3 0.552024 0.759789 0.174392
O O4 0.862412 0.269652 0.918449
O O5 0.018828 0.719337 0.368137
O O6 0.737911 0.960539 0.611962
O O7 0.000000 0.500000 0.500000
O O8 0.933082 0.500228 0.124303
O O9 0.173702 0.953395 0.726256
O O10 0.333293 0.988499 0.013376
O O11 0.500000 0.500000 0.500000
#
# Coordination Sequence:
#
# PCOD9092607 Si02
#       5
#     2   2   2   2   2
#     4  10  23  43  67 100 134 170 227 277 324 400
#     4  10  19  41  70  94 127 178 216 272 335 393
#     4  10  22  40  66 101 130 169 230 269 332 399
#     4  10  22  44  67  93 135 177 219 273 332 395
#     4  12  24  42  65  98 139 178 218 275 333 394
#
# _framework density 24.562821
#
# number of rings (size 3 to 8) (size 9 to 14) (size 15 to 20)
#    0.000    1.600    2.000    2.400    0.000    2.400 
#    7.200    2.000    0.000    0.000    0.000    0.000 
#    0.000    0.000    0.000    0.000    0.000    0.000 
#
# Total GULP energy -55878.634490 kJ/mol
# GULP energy per Si atom -5587.863449 kJ/mol
# Density = 2.450691 g / cm^3
# Si number density = 24.562821 Si / 1000 Ang^3
#
#
#
# Elastic Constant Matrix: (Units=GPa)
#
#
# Indices 1 2 3 4 5 6 
#
# 1 92.6465 20.3857 73.4110 13.1671 -23.9166 -19.5405
# 2 20.3857 71.8684 47.5976 5.2009 -7.0967 -24.7218
# 3 73.4110 47.5976 159.2622 14.9992 -20.3829 0.0507
# 4 13.1671 5.2009 14.9992 31.5721 -8.7049 -5.7809
# 5 -23.9166 -7.0967 -20.3829 -8.7049 47.7303 13.9521
# 6 -19.5405 -24.7218 0.0507 -5.7809 13.9521 37.2521
#
#
#
# Elastic Compliance Matrix: (Units=1/GPa)
#
#
# Indices 1 2 3 4 5 6 
#
# 1 0.023350 0.007642 -0.012608 -0.001360 0.002468 0.016202
# 2 0.007642 0.027920 -0.012555 0.001472 -0.004236 0.024369
# 3 -0.012608 -0.012555 0.016513 -0.002666 0.003231 -0.016592
# 4 -0.001360 0.001472 -0.002666 0.035035 0.003505 0.004391
# 5 0.002468 -0.004236 0.003231 0.003505 0.026796 -0.011013
# 6 0.016202 0.024369 -0.016592 0.004391 -0.011013 0.056344
#
#
# Mechanical properties :
#
#
# Convention : Reuss Voigt Hill
#
# Bulk Modulus (GPa) = 30.54358 67.39618 48.96988
# Shear Modulus (GPa) = 21.55966 35.46977 28.51472
#
# Velocity S-wave (km/s) = 2.96587 3.80418 3.41088
# Velocity P-wave (km/s) = 4.91838 6.84058 5.95752
#
# Compressibility (1/GPa) = 0.03274010
#
# Stress axis : x y z
#
# Youngs Moduli (GPa) = 42.82580 35.81688 60.55866
#
# Poissons Ratio (x) = -0.27372 0.76355
# Poissons Ratio (y) = -0.32729 0.76034
# Poissons Ratio (z) = 0.53996 0.44970
#
# Static dielectric constant tensor:
#      x y z
#    x 2.090700 0.021060 0.068590 
#    y 0.021060 1.974180 0.014890 
#    z 0.068590 0.014890 1.970900 
# 
# From -- ./inp_files/16685.got.cif
#   From: 2010.05.17/outbox.cif.g08.bks.cpg/sg2_9_cif.got.tgz:16685.got - 2010.06.03 11:33:40.
