data_PCOD9092424
_publ_section_title
;
Structure prediction by ZEFSAII (Michael W. Deem and Ramdas Pophale) SiO2 
 PCOD9092424
Probable space group: P -1
;
_chemical_formula_sum "Si O2"
_cell_formula_units_Z 14
_cell_length_a 11.025426
_cell_length_b 12.967308
_cell_length_c 10.499215
_cell_angle_alpha 41.039032
_cell_angle_beta 96.036549
_cell_angle_gamma 125.268291
_cell_volume 633.715373
_symmetry_space_group_name_H-M "P -1"
_symmetry_group_IT_number 2
_symmetry_cell_setting 'triclinic'
loop_
_space_group_symop_operation_xyz
x,y,z
-x,-y,-z
loop_
_atom_site_type_symbol
_atom_site_label
_atom_site_fract_x
_atom_site_fract_y
_atom_site_fract_z
Si Si1 0.464381 0.417217 0.429633
Si Si2 0.408369 0.115819 0.515105
Si Si3 0.539244 0.952409 0.789715
Si Si4 0.217585 0.348790 0.930447
Si Si5 0.220936 0.463164 0.349969
Si Si6 0.137755 0.505971 0.570994
Si Si7 0.830320 0.021224 0.609522
O O1 0.500000 0.500000 0.500000
O O2 0.400201 0.182059 0.595295
O O3 0.664581 0.631568 0.182068
O O4 0.304616 0.377432 0.400754
O O5 0.424368 0.945635 0.682787
O O6 0.608732 0.383422 0.236592
O O7 0.238796 0.013383 0.508060
O O8 0.685761 0.217681 0.621019
O O9 0.662789 0.937373 0.752530
O O10 0.388019 0.743086 0.068450
O O11 0.091430 0.348337 0.835230
O O12 0.143456 0.138142 0.208190
O O13 0.184968 0.441076 0.517178
O O14 0.024558 0.296666 0.411951
O O15 0.000000 0.500000 0.500000
#
# Coordination Sequence:
#
# PCOD9092424 Si02
#       7
#     2   2   2   2   2   2   2
#     4  10  19  41  64  91 124 162 218 255 317 375
#     4   9  22  41  67  91 128 175 209 261 319 369
#     4  11  22  43  64  92 130 171 207 270 314 375
#     4   9  21  40  66  89 127 169 207 262 316 369
#     4  12  24  38  64  95 128 170 212 262 323 374
#     4  11  22  43  64  98 126 164 220 263 322 375
#     4  12  23  41  65  95 131 167 218 256 313 388
#
# _framework density 22.091937999999999
#
# number of rings (size 3 to 8) (size 9 to 14) (size 15 to 20)
#    0.857    0.571    4.286    1.286    0.000    1.714 
#    5.143    0.000    0.000    0.000    0.000    0.000 
#    0.000    0.000    0.000    0.000    0.000    0.000 
#
# Total GULP energy -77995.683553 kJ/mol
# GULP energy per Si atom -5571.120254 kJ/mol
# Density = 2.204166 g / cm^3
# Si number density = 22.091938 Si / 1000 Ang^3
#
#
#
# Elastic Constant Matrix: (Units=GPa)
#
#
# Indices 1 2 3 4 5 6 
#
# 1 107.6227 25.9255 23.3734 9.8041 29.2987 30.0433
# 2 25.9255 103.3979 6.8131 1.7084 6.0482 19.5572
# 3 23.3734 6.8131 30.0834 -4.5364 12.4417 19.3511
# 4 9.8041 1.7084 -4.5364 11.6288 1.6933 7.4537
# 5 29.2987 6.0482 12.4417 1.6933 27.0050 4.5160
# 6 30.0433 19.5572 19.3511 7.4537 4.5160 34.7104
#
#
#
# Elastic Compliance Matrix: (Units=1/GPa)
#
#
# Indices 1 2 3 4 5 6 
#
# 1 0.017834 -0.001235 -0.000002 -0.005056 -0.016837 -0.011463
# 2 -0.001235 0.012086 0.012294 0.014463 -0.005431 -0.014994
# 3 -0.000002 0.012294 0.145240 0.133258 -0.059840 -0.108727
# 4 -0.005056 0.014463 0.133258 0.224346 -0.053264 -0.119311
# 5 -0.016837 -0.005431 -0.059840 -0.053264 0.078695 0.052193
# 6 -0.011463 -0.014994 -0.108727 -0.119311 0.052193 0.126625
#
#
# Mechanical properties :
#
#
# Convention : Reuss Voigt Hill
#
# Bulk Modulus (GPa) = 5.06910 39.25866 22.16388
# Shear Modulus (GPa) = 7.71048 27.00164 17.35606
#
# Velocity S-wave (km/s) = 1.87023 3.49985 2.80595
# Velocity P-wave (km/s) = 2.63879 5.84304 4.53345
#
# Compressibility (1/GPa) = 0.19727366
#
# Stress axis : x y z
#
# Youngs Moduli (GPa) = 56.07384 82.74271 6.88517
#
# Poissons Ratio (x) = 0.10218 0.00001
# Poissons Ratio (y) = 0.06925 -0.08465
# Poissons Ratio (z) = 0.00011 -1.01725
#
# Static dielectric constant tensor:
#      x y z
#    x 1.877260 0.034850 0.024620 
#    y 0.034850 1.841360 0.034320 
#    z 0.024620 0.034320 1.827910 
# 
# From -- ./inp_files/430943.got.cif
#   From: 2010.05.17/outbox.cif.g08.bks.cpg/sg2_216_cif.got.tgz:430943.got - 2010.06.03 11:33:40.
