data_PCOD9092526
_publ_section_title
;
Structure prediction by ZEFSAII (Michael W. Deem and Ramdas Pophale) SiO2 
 PCOD9092526
Probable space group: P -1
;
_chemical_formula_sum "Si O2"
_cell_formula_units_Z 16
_cell_length_a 10.073281
_cell_length_b 10.008975
_cell_length_c 12.983775
_cell_angle_alpha 33.663730
_cell_angle_beta 96.768594
_cell_angle_gamma 107.997953
_cell_volume 665.600740
_symmetry_space_group_name_H-M "P -1"
_symmetry_group_IT_number 2
_symmetry_cell_setting 'triclinic'
loop_
_space_group_symop_operation_xyz
x,y,z
-x,-y,-z
loop_
_atom_site_type_symbol
_atom_site_label
_atom_site_fract_x
_atom_site_fract_y
_atom_site_fract_z
Si Si1 0.954540 0.586242 0.725689
Si Si2 0.011002 0.242506 0.613715
Si Si3 0.297010 0.137044 0.214036
Si Si4 0.318118 0.563089 0.085962
Si Si5 0.574605 0.542789 0.260916
Si Si6 0.285326 0.797791 0.632343
Si Si7 0.859961 0.983270 0.066129
Si Si8 0.540025 0.947992 0.313100
O O1 0.958388 0.715788 0.531646
O O2 0.842079 0.619930 0.773619
O O3 0.116883 0.666871 0.730230
O O4 0.888327 0.280439 0.894533
O O5 0.127379 0.170482 0.732015
O O6 0.000000 0.500000 0.500000
O O7 0.857470 0.999824 0.765245
O O8 0.336867 0.433848 0.061717
O O9 0.413057 0.057748 0.214767
O O10 0.290830 0.990693 0.415756
O O11 0.433071 0.551480 0.187952
O O12 0.342731 0.865957 0.875137
O O13 0.651212 0.402595 0.281456
O O14 0.701643 0.821424 0.111304
O O15 0.528694 0.362403 0.476041
O O16 0.384038 0.956668 0.631042
O O17 0.000000 0.000000 0.000000
#
# Coordination Sequence:
#
# PCOD9092526 Si02
#       8
#     2   2   2   2   2   2   2   2
#     4  11  27  44  63 105 137 173 221 278 333 396
#     4  11  23  43  70  99 131 172 226 278 326 387
#     4  10  21  40  68 100 132 174 223 278 326 396
#     4  12  26  41  65 103 139 175 217 274 346 389
#     4  11  23  44  68  95 134 171 223 283 321 396
#     4  10  19  41  67  94 134 168 225 273 326 389
#     4  12  24  43  73  96 126 176 228 272 325 397
#     4  11  22  39  68  99 131 176 224 267 335 391
#
# _framework density 24.038436000000001
#
# number of rings (size 3 to 8) (size 9 to 14) (size 15 to 20)
#    0.000    1.000    5.000    2.625    3.500    5.000 
#    0.000    1.250    0.000    0.000    0.000    0.000 
#    0.000    0.000    0.000    0.000    0.000    0.000 
#
# Total GULP energy -89529.822254 kJ/mol
# GULP energy per Si atom -5595.613891 kJ/mol
# Density = 2.398372 g / cm^3
# Si number density = 24.038436 Si / 1000 Ang^3
#
#
#
# Elastic Constant Matrix: (Units=GPa)
#
#
# Indices 1 2 3 4 5 6 
#
# 1 82.4382 15.1926 10.8503 5.9699 -22.8869 19.7971
# 2 15.1926 48.4140 3.4919 -13.3779 0.1614 20.2053
# 3 10.8503 3.4919 82.9301 -6.8116 -9.4581 2.4041
# 4 5.9699 -13.3779 -6.8116 39.6066 5.0298 -9.9402
# 5 -22.8869 0.1614 -9.4581 5.0298 38.3782 -2.5283
# 6 19.7971 20.2053 2.4041 -9.9402 -2.5283 37.1637
#
#
#
# Elastic Compliance Matrix: (Units=1/GPa)
#
#
# Indices 1 2 3 4 5 6 
#
# 1 0.019165 -0.004452 -0.001423 -0.008408 0.011596 -0.009157
# 2 -0.004452 0.029187 -0.000169 0.008177 -0.004656 -0.011616
# 3 -0.001423 -0.000169 0.012646 0.002270 0.002023 0.000777
# 4 -0.008408 0.008177 0.002270 0.032744 -0.008248 0.008083
# 5 0.011596 -0.004656 0.002023 -0.008248 0.034330 -0.003647
# 6 -0.009157 -0.011616 0.000777 0.008083 -0.003647 0.039965
#
#
# Mechanical properties :
#
#
# Convention : Reuss Voigt Hill
#
# Bulk Modulus (GPa) = 20.44534 30.31686 25.38110
# Shear Modulus (GPa) = 25.45444 35.31286 30.38365
#
# Velocity S-wave (km/s) = 3.25761 3.83693 3.55908
# Velocity P-wave (km/s) = 4.76163 5.68055 5.24127
#
# Compressibility (1/GPa) = 0.04891090
#
# Stress axis : x y z
#
# Youngs Moduli (GPa) = 52.17800 34.26157 79.07487
#
# Poissons Ratio (x) = 0.15253 0.11250
# Poissons Ratio (y) = 0.23230 0.01338
# Poissons Ratio (z) = 0.07423 0.00580
#
# Static dielectric constant tensor:
#      x y z
#    x 2.895700 -0.205240 -0.149990 
#    y -0.205240 1.910030 0.017720 
#    z -0.149990 0.017720 1.970760 
# 
# From -- ./inp_files/272862.got.cif
#   From: 2010.05.17/outbox.cif.g08.bks.cpg/sg2_137_cif.got.tgz:272862.got - 2010.06.03 11:33:40.
