data_PCOD9092167
_publ_section_title
;
Structure prediction by ZEFSAII (Michael W. Deem and Ramdas Pophale) SiO2 
 PCOD9092167
Probable space group: P -1
;
_chemical_formula_sum "Si O2"
_cell_formula_units_Z 16
_cell_length_a 15.294399
_cell_length_b 22.355408
_cell_length_c 16.820161
_cell_angle_alpha 21.575883
_cell_angle_beta 151.141537
_cell_angle_gamma 159.927618
_cell_volume 725.700883
_symmetry_space_group_name_H-M "P -1"
_symmetry_group_IT_number 2
_symmetry_cell_setting 'triclinic'
loop_
_space_group_symop_operation_xyz
x,y,z
-x,-y,-z
loop_
_atom_site_type_symbol
_atom_site_label
_atom_site_fract_x
_atom_site_fract_y
_atom_site_fract_z
Si Si1 0.947682 0.795579 0.478321
Si Si2 0.086644 0.267975 0.781095
Si Si3 0.925777 0.446002 0.208881
Si Si4 0.830487 0.349168 0.684992
Si Si5 0.801695 0.725569 0.962526
Si Si6 0.555995 0.380099 0.773685
Si Si7 0.578517 0.778626 0.963830
Si Si8 0.383226 0.887759 0.958887
O O1 0.809533 0.647384 0.632048
O O2 0.700594 0.679809 0.370029
O O3 0.088990 0.731808 0.630915
O O4 0.118011 0.064483 0.282885
O O5 0.133302 0.487956 0.551721
O O6 0.123470 0.200029 0.977887
O O7 0.288577 0.311251 0.830475
O O8 0.801618 0.050065 0.796051
O O9 0.644956 0.335145 0.135900
O O10 0.080152 0.518788 0.322918
O O11 0.084438 0.679508 0.995336
O O12 0.014300 0.308999 0.871700
O O13 0.535400 0.109551 0.750813
O O14 0.500000 0.500000 0.000000
O O15 0.539406 0.286504 0.961556
O O16 0.552709 0.244720 0.867475
O O17 0.500000 0.000000 0.000000
#
# Coordination Sequence:
#
# PCOD9092167 Si02
#       8
#     2   2   2   2   2   2   2   2
#     4  10  21  39  66  96 118 164 212 253 314 369
#     4  11  25  42  63  89 126 174 208 255 317 376
#     4  10  23  39  66  97 122 163 212 264 311 366
#     4  11  22  42  65  90 128 170 208 252 322 378
#     4  12  25  43  63  94 133 162 210 262 312 378
#     4  10  19  40  67  89 125 165 211 256 314 373
#     4  11  23  42  63  93 128 160 217 266 303 369
#     4   9  19  38  62  92 126 160 204 258 313 370
#
# _framework density 22.047651999999999
#
# number of rings (size 3 to 8) (size 9 to 14) (size 15 to 20)
#    0.000    1.500    2.500    1.875    3.500    3.500 
#    2.250    0.625    0.000    0.000    0.000    0.000 
#    0.000    0.000    0.000    0.000    0.000    0.000 
#
# Total GULP energy -89311.051841 kJ/mol
# GULP energy per Si atom -5581.940740 kJ/mol
# Density = 2.199747 g / cm^3
# Si number density = 22.047652 Si / 1000 Ang^3
#
#
#
# Elastic Constant Matrix: (Units=GPa)
#
#
# Indices 1 2 3 4 5 6 
#
# 1 64.5968 -1.4147 13.6102 -3.0573 8.6148 10.3815
# 2 -1.4147 89.0240 26.0633 -24.9558 3.8688 15.4468
# 3 13.6102 26.0633 99.5980 -33.6717 8.3280 11.3140
# 4 -3.0573 -24.9558 -33.6717 22.9875 -8.8724 -6.3990
# 5 8.6148 3.8688 8.3280 -8.8724 14.8128 0.4568
# 6 10.3815 15.4468 11.3140 -6.3990 0.4568 21.5409
#
#
#
# Elastic Compliance Matrix: (Units=1/GPa)
#
#
# Indices 1 2 3 4 5 6 
#
# 1 0.019827 0.000746 -0.004539 -0.012620 -0.016390 -0.011108
# 2 0.000746 0.019084 0.005071 0.029791 0.009824 -0.008066
# 3 -0.004539 0.005071 0.023185 0.044405 0.014900 -0.000751
# 4 -0.012620 0.029791 0.044405 0.172084 0.077331 0.010876
# 5 -0.016390 0.009824 0.014900 0.077331 0.111997 0.013626
# 6 -0.011108 -0.008066 -0.000751 0.010876 0.013626 0.060898
#
#
# Mechanical properties :
#
#
# Convention : Reuss Voigt Hill
#
# Bulk Modulus (GPa) = 15.46738 36.63736 26.05237
# Shear Modulus (GPa) = 11.73515 26.19891 18.96703
#
# Velocity S-wave (km/s) = 2.30959 3.45089 2.93623
# Velocity P-wave (km/s) = 3.76071 5.70365 4.83087
#
# Compressibility (1/GPa) = 0.06465219
#
# Stress axis : x y z
#
# Youngs Moduli (GPa) = 50.43632 52.39910 43.13081
#
# Poissons Ratio (x) = -0.03908 0.19576
# Poissons Ratio (y) = -0.03762 -0.21870
# Poissons Ratio (z) = 0.22891 -0.26570
#
# Static dielectric constant tensor:
#      x y z
#    x 1.851170 0.013290 -0.023870 
#    y 0.013290 1.782680 -0.033880 
#    z -0.023870 -0.033880 1.813530 
# 
# From -- ./inp_files/257358.got.cif
#   From: 2010.05.17/outbox.cif.g08.bks.cpg/sg2_129_cif.got.tgz:257358.got - 2010.06.03 11:33:40.
