data_PCOD9092453
_publ_section_title
;
Structure prediction by ZEFSAII (Michael W. Deem and Ramdas Pophale) SiO2 
 PCOD9092453
Probable space group: P -1
;
_chemical_formula_sum "Si O2"
_cell_formula_units_Z 16
_cell_length_a 5.139752
_cell_length_b 23.202580
_cell_length_c 7.999805
_cell_angle_alpha 62.681501
_cell_angle_beta 90.172750
_cell_angle_gamma 59.905438
_cell_volume 698.816116
_symmetry_space_group_name_H-M "P -1"
_symmetry_group_IT_number 2
_symmetry_cell_setting 'triclinic'
loop_
_space_group_symop_operation_xyz
x,y,z
-x,-y,-z
loop_
_atom_site_type_symbol
_atom_site_label
_atom_site_fract_x
_atom_site_fract_y
_atom_site_fract_z
Si Si1 0.847472 0.572745 0.030106
Si Si2 0.796743 0.965183 0.230066
Si Si3 0.347493 0.570355 0.275027
Si Si4 0.460186 0.253633 0.249386
Si Si5 0.564275 0.098810 0.520723
Si Si6 0.835926 0.738480 0.124848
Si Si7 0.245429 0.885029 0.028165
Si Si8 0.062616 0.149325 0.198240
O O1 0.594476 0.576316 0.153647
O O2 0.128808 0.562021 0.156635
O O3 0.680575 0.657048 0.820720
O O4 0.000000 0.500000 0.000000
O O5 0.062959 0.942984 0.401310
O O6 0.007268 0.913795 0.141755
O O7 0.560764 0.941392 0.309894
O O8 0.646304 0.055321 0.060818
O O9 0.500000 0.500000 0.500000
O O10 0.116656 0.649903 0.275489
O O11 0.419823 0.191634 0.430138
O O12 0.831812 0.203133 0.276784
O O13 0.306985 0.262902 0.053464
O O14 0.411157 0.099319 0.342422
O O15 0.538568 0.794543 0.166264
O O16 0.973249 0.789544 0.019676
O O17 0.068599 0.893569 0.842480
#
# Coordination Sequence:
#
# PCOD9092453 Si02
#       8
#     2   2   2   2   2   2   2   2
#     4  11  23  43  69  99 135 177 211 260 337 401
#     4  11  26  43  61  93 136 164 210 279 331 370
#     4  11  23  44  68 100 137 168 219 275 316 381
#     4   9  19  41  66  91 129 170 215 258 321 384
#     4  11  23  42  64  94 126 166 212 277 317 366
#     4   9  20  39  68  91 125 175 222 250 322 394
#     4  10  25  42  64  90 128 178 214 258 332 397
#     4  10  19  41  65  93 117 174 221 258 309 391
#
# _framework density 22.895866000000002
#
# number of rings (size 3 to 8) (size 9 to 14) (size 15 to 20)
#    0.000    1.750    2.500    0.750    3.500    2.000 
#    2.250    0.000    0.000    0.000    0.000    0.000 
#    0.000    0.000    0.000    0.000    0.000    0.000 
#
# Total GULP energy -89382.393182 kJ/mol
# GULP energy per Si atom -5586.399574 kJ/mol
# Density = 2.284375 g / cm^3
# Si number density = 22.895866 Si / 1000 Ang^3
#
#
#
# Elastic Constant Matrix: (Units=GPa)
#
#
# Indices 1 2 3 4 5 6 
#
# 1 126.8095 22.4675 30.1802 -8.4900 -8.2556 -6.3004
# 2 22.4675 157.5160 31.9516 -27.1679 -5.0830 -9.1955
# 3 30.1802 31.9516 62.4404 -26.0259 3.1933 -4.4410
# 4 -8.4900 -27.1679 -26.0259 39.1783 2.0552 2.8251
# 5 -8.2556 -5.0830 3.1933 2.0552 36.1636 -1.6841
# 6 -6.3004 -9.1955 -4.4410 2.8251 -1.6841 27.9245
#
#
#
# Elastic Compliance Matrix: (Units=1/GPa)
#
#
# Indices 1 2 3 4 5 6 
#
# 1 0.009300 -0.000451 -0.005102 -0.001936 0.002690 0.001496
# 2 -0.000451 0.007594 -0.002097 0.003594 0.001027 0.001764
# 3 -0.005102 -0.002097 0.026059 0.014954 -0.004587 0.000513
# 4 -0.001936 0.003594 0.014954 0.037777 -0.003446 -0.000905
# 5 0.002690 0.001027 -0.004587 -0.003446 0.029119 0.002321
# 6 0.001496 0.001764 0.000513 -0.000905 0.002321 0.037042
#
#
# Mechanical properties :
#
#
# Convention : Reuss Voigt Hill
#
# Bulk Modulus (GPa) = 36.16363 57.32940 46.74652
# Shear Modulus (GPa) = 29.16972 38.13106 33.65039
#
# Velocity S-wave (km/s) = 3.57321 4.08537 3.83784
# Velocity P-wave (km/s) = 5.73174 6.88093 6.33246
#
# Compressibility (1/GPa) = 0.02765209
#
# Stress axis : x y z
#
# Youngs Moduli (GPa) = 107.52733 131.67670 38.37492
#
# Poissons Ratio (x) = 0.05943 0.19580
# Poissons Ratio (y) = 0.04853 0.08047
# Poissons Ratio (z) = 0.54863 0.27611
#
# Static dielectric constant tensor:
#      x y z
#    x 1.909090 -0.015760 -0.003610 
#    y -0.015760 1.892820 -0.002130 
#    z -0.003610 -0.002130 1.905380 
# 
# From -- ./inp_files/143105.got.cif
#   From: 2010.05.17/outbox.cif.g08.bks.cpg/sg2_72_cif.got.tgz:143105.got - 2010.06.03 11:33:40.
