data_PCOD9092364
_publ_section_title
;
Structure prediction by ZEFSAII (Michael W. Deem and Ramdas Pophale) SiO2 
 PCOD9092364
Probable space group: P -1
;
_chemical_formula_sum "Si O2"
_cell_formula_units_Z 16
_cell_length_a 6.557940
_cell_length_b 25.832174
_cell_length_c 7.618409
_cell_angle_alpha 46.076127
_cell_angle_beta 115.614904
_cell_angle_gamma 137.273778
_cell_volume 622.776012
_symmetry_space_group_name_H-M "P -1"
_symmetry_group_IT_number 2
_symmetry_cell_setting 'triclinic'
loop_
_space_group_symop_operation_xyz
x,y,z
-x,-y,-z
loop_
_atom_site_type_symbol
_atom_site_label
_atom_site_fract_x
_atom_site_fract_y
_atom_site_fract_z
Si Si1 0.696759 0.648393 0.701980
Si Si2 0.933077 0.554641 0.157120
Si Si3 0.260633 0.267776 0.129467
Si Si4 0.365789 0.918316 0.498793
Si Si5 0.208279 0.744216 0.246145
Si Si6 0.839483 0.543247 0.548054
Si Si7 0.350265 0.173007 0.108933
Si Si8 0.846411 0.143345 0.805031
O O1 0.403236 0.553366 0.722884
O O2 0.596132 0.661336 0.819180
O O3 0.883401 0.747129 0.430531
O O4 0.904475 0.624620 0.888110
O O5 0.989480 0.578304 0.327822
O O6 0.150028 0.537957 0.206469
O O7 0.429223 0.246681 0.118065
O O8 0.973982 0.168005 0.352351
O O9 0.086120 0.284646 0.893716
O O10 0.565810 0.888096 0.649397
O O11 0.320434 0.927471 0.255941
O O12 0.500000 0.000000 0.500000
O O13 0.057906 0.640776 0.514797
O O14 0.333726 0.833868 0.206798
O O15 0.457784 0.779885 0.109566
O O16 0.500000 0.500000 0.500000
O O17 0.007298 0.120451 0.047242
#
# Coordination Sequence:
#
# PCOD9092364 Si02
#       8
#     2   2   2   2   2   2   2   2
#     4  10  19  41  60  92 124 159 221 267 315 372
#     4  10  22  36  58  85 125 161 211 275 314 366
#     4   9  20  40  65  91 122 166 209 252 312 379
#     4  10  23  42  65  99 131 156 203 256 312 385
#     4  10  20  40  62  89 122 164 217 252 307 375
#     4  11  22  38  56  87 123 172 211 262 324 371
#     4  10  22  41  67  91 123 171 203 257 316 368
#     4  10  22  40  65  91 123 163 212 253 307 385
#
# _framework density 25.691423
#
# number of rings (size 3 to 8) (size 9 to 14) (size 15 to 20)
#    0.000    2.000    1.250    1.500    0.000    7.000 
#    0.000   13.750    0.000    0.000    0.000    0.000 
#    0.000    0.000    0.000    0.000    0.000    0.000 
#
# Total GULP energy -89568.337349 kJ/mol
# GULP energy per Si atom -5598.021084 kJ/mol
# Density = 2.563295 g / cm^3
# Si number density = 25.691423 Si / 1000 Ang^3
#
#
#
# Elastic Constant Matrix: (Units=GPa)
#
#
# Indices 1 2 3 4 5 6 
#
# 1 132.1077 30.1781 36.3066 3.4089 25.4452 -30.8179
# 2 30.1781 138.9344 0.4834 7.0401 5.1420 -32.4569
# 3 36.3066 0.4834 44.4164 11.9160 11.2661 -10.8712
# 4 3.4089 7.0401 11.9160 30.0506 -7.6793 1.4119
# 5 25.4452 5.1420 11.2661 -7.6793 48.8767 2.0450
# 6 -30.8179 -32.4569 -10.8712 1.4119 2.0450 50.5369
#
#
#
# Elastic Compliance Matrix: (Units=1/GPa)
#
#
# Indices 1 2 3 4 5 6 
#
# 1 0.011947 -0.001258 -0.007534 0.000548 -0.004475 0.005023
# 2 -0.001258 0.009251 0.004294 -0.004611 -0.002297 0.006320
# 3 -0.007534 0.004294 0.036973 -0.017193 -0.008042 0.006922
# 4 0.000548 -0.004611 -0.017193 0.044423 0.011479 -0.008032
# 5 -0.004475 -0.002297 -0.008042 0.011479 0.026996 -0.007347
# 6 0.005023 0.006320 0.006922 -0.008032 -0.007347 0.028920
#
#
# Mechanical properties :
#
#
# Convention : Reuss Voigt Hill
#
# Bulk Modulus (GPa) = 20.33571 49.93271 35.13421
# Shear Modulus (GPa) = 27.18902 42.45887 34.82394
#
# Velocity S-wave (km/s) = 3.25667 4.06969 3.68566
# Velocity P-wave (km/s) = 4.69827 6.44677 5.64068
#
# Compressibility (1/GPa) = 0.04917458
#
# Stress axis : x y z
#
# Youngs Moduli (GPa) = 83.70329 108.09687 27.04681
#
# Poissons Ratio (x) = 0.13594 0.20378
# Poissons Ratio (y) = 0.10526 -0.11614
# Poissons Ratio (z) = 0.63066 -0.46416
#
# Static dielectric constant tensor:
#      x y z
#    x 2.070730 -0.002890 -0.019520 
#    y -0.002890 2.028540 -0.052800 
#    z -0.019520 -0.052800 2.026920 
# 
# From -- ./inp_files/53804.got.cif
#   From: 2010.05.17/outbox.cif.g08.bks.cpg/sg2_27_cif.got.tgz:53804.got - 2010.06.03 11:33:40.
