data_PCOD9092535
_publ_section_title
;
Structure prediction by ZEFSAII (Michael W. Deem and Ramdas Pophale) SiO2 
 PCOD9092535
Probable space group: P -1
;
_chemical_formula_sum "Si O2"
_cell_formula_units_Z 14
_cell_length_a 8.489565
_cell_length_b 11.533477
_cell_length_c 7.333512
_cell_angle_alpha 62.043804
_cell_angle_beta 51.208407
_cell_angle_gamma 82.599765
_cell_volume 479.974207
_symmetry_space_group_name_H-M "P -1"
_symmetry_group_IT_number 2
_symmetry_cell_setting 'triclinic'
loop_
_space_group_symop_operation_xyz
x,y,z
-x,-y,-z
loop_
_atom_site_type_symbol
_atom_site_label
_atom_site_fract_x
_atom_site_fract_y
_atom_site_fract_z
Si Si1 0.529736 0.140227 0.481923
Si Si2 0.840868 0.753786 0.177352
Si Si3 0.694727 0.437258 0.117872
Si Si4 0.816799 0.463403 0.420268
Si Si5 0.128039 0.793248 0.244637
Si Si6 0.737715 0.728440 0.849641
Si Si7 0.760581 0.010436 0.687397
O O1 0.318076 0.159266 0.713900
O O2 0.696917 0.419623 0.350236
O O3 0.500000 0.000000 0.500000
O O4 0.697969 0.120517 0.523487
O O5 0.840483 0.734130 0.974837
O O6 0.764761 0.601217 0.422515
O O7 0.059165 0.813334 0.074620
O O8 0.598452 0.287083 0.225812
O O9 0.616153 0.572712 0.034637
O O10 0.062820 0.514806 0.154188
O O11 0.791915 0.339440 0.667077
O O12 0.909564 0.761316 0.542225
O O13 0.256787 0.928951 0.145830
O O14 0.639833 0.857997 0.837761
O O15 0.000000 0.000000 0.500000
#
# Coordination Sequence:
#
# PCOD9092535 Si02
#       7
#     2   2   2   2   2   2   2
#     4  12  25  43  64 100 137 174 215 276 339 389
#     4  11  24  39  67 102 133 167 225 271 330 389
#     4   9  19  40  69  96 129 177 218 267 327 390
#     4   9  18  38  69  99 127 171 228 268 315 393
#     4  10  19  41  67  99 135 174 216 270 324 392
#     4   9  21  40  66  96 130 170 217 268 324 385
#     4  10  21  40  66  89 131 178 213 262 329 390
#
# _framework density 29.168236
#
# number of rings (size 3 to 8) (size 9 to 14) (size 15 to 20)
#    0.000    2.000    1.429    3.000    4.000    3.429 
#    2.571    6.429    0.000    0.000    0.000    0.000 
#    0.000    0.000    0.000    0.000    0.000    0.000 
#
# Total GULP energy -78500.311227 kJ/mol
# GULP energy per Si atom -5607.165088 kJ/mol
# Density = 2.910185 g / cm^3
# Si number density = 29.168236 Si / 1000 Ang^3
#
#
#
# Elastic Constant Matrix: (Units=GPa)
#
#
# Indices 1 2 3 4 5 6 
#
# 1 83.4123 81.3005 42.3998 -6.2787 11.9172 -11.6600
# 2 81.3005 250.1890 68.8263 -49.7577 5.2937 -7.3117
# 3 42.3998 68.8263 137.3504 -36.7941 12.8995 -1.9476
# 4 -6.2787 -49.7577 -36.7941 73.5446 2.7967 4.0486
# 5 11.9172 5.2937 12.8995 2.7967 43.8262 -5.1972
# 6 -11.6600 -7.3117 -1.9476 4.0486 -5.1972 70.1290
#
#
#
# Elastic Compliance Matrix: (Units=1/GPa)
#
#
# Indices 1 2 3 4 5 6 
#
# 1 0.020795 -0.006403 -0.004135 -0.004659 -0.003045 0.002718
# 2 -0.006403 0.006973 -0.000552 0.003895 0.000751 -0.000522
# 3 -0.004135 -0.000552 0.010243 0.004531 -0.002218 -0.000887
# 4 -0.004659 0.003895 0.004531 0.018252 -0.001872 -0.001435
# 5 -0.003045 0.000751 -0.002218 -0.001872 0.024497 0.001434
# 6 0.002718 -0.000522 -0.000887 -0.001435 0.001434 0.014821
#
#
# Mechanical properties :
#
#
# Convention : Reuss Voigt Hill
#
# Bulk Modulus (GPa) = 63.16120 95.11164 79.13642
# Shear Modulus (GPa) = 40.63755 56.06162 48.34959
#
# Velocity S-wave (km/s) = 3.73663 4.38883 4.07579
# Velocity P-wave (km/s) = 6.34961 7.63945 7.02420
#
# Compressibility (1/GPa) = 0.01583250
#
# Stress axis : x y z
#
# Youngs Moduli (GPa) = 48.08749 143.40967 97.62490
#
# Poissons Ratio (x) = 0.91824 0.40364
# Poissons Ratio (y) = 0.30790 0.05390
# Poissons Ratio (z) = 0.19882 0.07918
#
# Static dielectric constant tensor:
#      x y z
#    x 2.322410 0.025320 -0.063570 
#    y 0.025320 2.212440 0.023070 
#    z -0.063570 0.023070 2.288260 
# 
# From -- ./inp_files/384324.got.cif
#   From: 2010.05.17/outbox.cif.g08.bks.cpg/sg2_193_cif.got.tgz:384324.got - 2010.06.03 11:33:40.
