data_PCOD9092192
_publ_section_title
;
Structure prediction by ZEFSAII (Michael W. Deem and Ramdas Pophale) SiO2 
 PCOD9092192
Probable space group: P -1
;
_chemical_formula_sum "Si O2"
_cell_formula_units_Z 16
_cell_length_a 8.953053
_cell_length_b 9.581817
_cell_length_c 9.744052
_cell_angle_alpha 80.117934
_cell_angle_beta 103.176052
_cell_angle_gamma 114.245849
_cell_volume 739.238616
_symmetry_space_group_name_H-M "P -1"
_symmetry_group_IT_number 2
_symmetry_cell_setting 'triclinic'
loop_
_space_group_symop_operation_xyz
x,y,z
-x,-y,-z
loop_
_atom_site_type_symbol
_atom_site_label
_atom_site_fract_x
_atom_site_fract_y
_atom_site_fract_z
Si Si1 0.735360 0.358029 0.273960
Si Si2 0.779971 0.672807 0.773853
Si Si3 0.149957 0.885126 0.759057
Si Si4 0.600830 0.737032 0.958133
Si Si5 0.061825 0.564578 0.156767
Si Si6 0.581838 0.813842 0.238561
Si Si7 0.716313 0.098611 0.914812
Si Si8 0.512128 0.348303 0.471310
O O1 0.785182 0.210104 0.315429
O O2 0.580506 0.324013 0.141418
O O3 0.672270 0.381857 0.405552
O O4 0.900078 0.493613 0.230117
O O5 0.716950 0.664589 0.918585
O O6 0.808166 0.517246 0.769721
O O7 0.644177 0.711728 0.653932
O O8 0.955151 0.807630 0.754711
O O9 0.231118 0.065091 0.718490
O O10 0.226376 0.864271 0.923510
O O11 0.693328 0.922066 0.918247
O O12 0.583947 0.711103 0.123739
O O13 0.151241 0.748882 0.156394
O O14 0.000000 0.500000 0.000000
O O15 0.463218 0.897447 0.147486
O O16 0.509576 0.750848 0.381314
O O17 0.500000 0.500000 0.500000
#
# Coordination Sequence:
#
# PCOD9092192 Si02
#       8
#     2   2   2   2   2   2   2   2
#     4  10  20  41  66  88 124 168 211 250 318 374
#     4  10  23  41  64  93 135 158 208 265 323 369
#     4  10  19  40  67  94 123 158 213 269 306 368
#     4  10  20  40  68  98 123 163 211 271 312 365
#     4  11  20  38  67  95 123 165 209 261 315 374
#     4  11  21  38  67  91 127 167 211 252 315 379
#     4  11  19  37  67 101 127 152 221 266 310 362
#     4  11  26  44  57  89 135 171 205 259 317 381
#
# _framework density 21.643892999999998
#
# number of rings (size 3 to 8) (size 9 to 14) (size 15 to 20)
#    0.000    1.500    5.000    1.500    0.000    4.000 
#    2.250    8.750    0.000    0.000    0.000    0.000 
#    0.000    0.000    0.000    0.000    0.000    0.000 
#
# Total GULP energy -89308.767418 kJ/mol
# GULP energy per Si atom -5581.797964 kJ/mol
# Density = 2.159463 g / cm^3
# Si number density = 21.643893 Si / 1000 Ang^3
#
#
#
# Elastic Constant Matrix: (Units=GPa)
#
#
# Indices 1 2 3 4 5 6 
#
# 1 110.3941 28.2573 44.3439 -4.3719 -35.3951 13.4447
# 2 28.2573 91.2510 21.4159 -5.9351 -19.6459 20.4584
# 3 44.3439 21.4159 103.3046 -13.0339 -39.3777 4.8482
# 4 -4.3719 -5.9351 -13.0339 19.1635 2.9324 -5.5326
# 5 -35.3951 -19.6459 -39.3777 2.9324 39.7400 -3.3267
# 6 13.4447 20.4584 4.8482 -5.5326 -3.3267 27.1800
#
#
#
# Elastic Compliance Matrix: (Units=1/GPa)
#
#
# Indices 1 2 3 4 5 6 
#
# 1 0.013645 -0.000674 -0.002044 -0.001379 0.009478 -0.004998
# 2 -0.000674 0.014665 -0.000006 0.000653 0.005769 -0.009865
# 3 -0.002044 -0.000006 0.017312 0.009530 0.014767 0.001675
# 4 -0.001379 0.000653 0.009530 0.061120 0.004994 0.011543
# 5 0.009478 0.005769 0.014767 0.004994 0.050345 -0.004486
# 6 -0.004998 -0.009865 0.001675 0.011543 -0.004486 0.048191
#
#
# Mechanical properties :
#
#
# Convention : Reuss Voigt Hill
#
# Bulk Modulus (GPa) = 24.89287 54.77599 39.83443
# Shear Modulus (GPa) = 22.30959 31.27888 26.79424
#
# Velocity S-wave (km/s) = 3.21402 3.80565 3.52228
# Velocity P-wave (km/s) = 5.02984 6.68382 5.91493
#
# Compressibility (1/GPa) = 0.04017214
#
# Stress axis : x y z
#
# Youngs Moduli (GPa) = 73.28674 68.18811 57.76505
#
# Poissons Ratio (x) = 0.04598 0.11808
# Poissons Ratio (y) = 0.04942 0.00037
# Poissons Ratio (z) = 0.14981 0.00044
#
# Static dielectric constant tensor:
#      x y z
#    x 1.786990 0.013460 0.042290 
#    y 0.013460 1.660270 0.218170 
#    z 0.042290 0.218170 1.784030 
# 
# From -- ./inp_files/187680.got.cif
#   From: 2010.05.17/outbox.cif.g08.bks.cpg/sg2_94_cif.got.tgz:187680.got - 2010.06.03 11:33:40.
