data_PCOD9092490
_publ_section_title
;
Structure prediction by ZEFSAII (Michael W. Deem and Ramdas Pophale) SiO2 
 PCOD9092490
Probable space group: P -1
;
_chemical_formula_sum "Si O2"
_cell_formula_units_Z 16
_cell_length_a 16.920546
_cell_length_b 9.157111
_cell_length_c 11.936308
_cell_angle_alpha 95.004595
_cell_angle_beta 52.531136
_cell_angle_gamma 137.633621
_cell_volume 727.759487
_symmetry_space_group_name_H-M "P -1"
_symmetry_group_IT_number 2
_symmetry_cell_setting 'triclinic'
loop_
_space_group_symop_operation_xyz
x,y,z
-x,-y,-z
loop_
_atom_site_type_symbol
_atom_site_label
_atom_site_fract_x
_atom_site_fract_y
_atom_site_fract_z
Si Si1 0.015719 0.860420 0.536288
Si Si2 0.214336 0.819763 0.093406
Si Si3 0.412753 0.798756 0.817654
Si Si4 0.828706 0.467185 0.484743
Si Si5 0.764335 0.683938 0.197038
Si Si6 0.799726 0.735414 0.426665
Si Si7 0.609191 0.701262 0.142381
Si Si8 0.430474 0.231570 0.137405
O O1 0.846497 0.544168 0.604254
O O2 0.038729 0.936200 0.650973
O O3 0.217408 0.031186 0.341101
O O4 0.000000 0.000000 0.500000
O O5 0.998130 0.562798 0.319741
O O6 0.386353 0.093819 0.050330
O O7 0.264191 0.725298 0.996809
O O8 0.238665 0.973003 0.986247
O O9 0.310536 0.570021 0.795862
O O10 0.499661 0.800263 0.836638
O O11 0.607512 0.132119 0.627051
O O12 0.879390 0.674791 0.379967
O O13 0.728366 0.662717 0.357412
O O14 0.664964 0.673076 0.198103
O O15 0.000000 0.000000 0.000000
O O16 0.608313 0.510242 0.657268
O O17 0.587568 0.565512 0.043709
#
# Coordination Sequence:
#
# PCOD9092490 Si02
#       8
#     2   2   2   2   2   2   2   2
#     4   8  17  34  63  97 122 159 209 249 309 379
#     4  11  21  40  65  97 129 168 208 257 320 377
#     4  11  24  44  61  96 132 165 212 264 317 373
#     4  10  21  40  66  96 132 163 206 259 321 380
#     4  11  25  45  62  89 126 166 223 264 309 381
#     4  10  19  41  66  92 125 171 211 262 314 369
#     4  10  20  40  66  94 123 168 217 260 311 378
#     4   9  20  37  63  95 134 167 204 258 318 377
#
# _framework density 21.985284
#
# number of rings (size 3 to 8) (size 9 to 14) (size 15 to 20)
#    0.000    2.000    1.250    1.875    0.000    2.500 
#   18.000    1.250    0.000    0.000    0.000    0.000 
#    0.000    0.000    0.000    0.000    0.000    0.000 
#
# Total GULP energy -89374.639039 kJ/mol
# GULP energy per Si atom -5585.914940 kJ/mol
# Density = 2.193524 g / cm^3
# Si number density = 21.985284 Si / 1000 Ang^3
#
#
#
# Elastic Constant Matrix: (Units=GPa)
#
#
# Indices 1 2 3 4 5 6 
#
# 1 75.7909 38.3009 11.4575 20.3325 -11.2836 0.9205
# 2 38.3009 140.0342 37.9629 10.3667 5.7588 18.6868
# 3 11.4575 37.9629 64.5312 6.4073 -20.4626 -1.5416
# 4 20.3325 10.3667 6.4073 32.5219 3.9489 2.5649
# 5 -11.2836 5.7588 -20.4626 3.9489 34.1101 6.1290
# 6 0.9205 18.6868 -1.5416 2.5649 6.1290 31.1717
#
#
#
# Elastic Compliance Matrix: (Units=1/GPa)
#
#
# Indices 1 2 3 4 5 6 
#
# 1 0.021887 -0.007556 0.006328 -0.014374 0.013486 0.002728
# 2 -0.007556 0.012853 -0.009973 0.004309 -0.010008 -0.006362
# 3 0.006328 -0.009973 0.027845 -0.009096 0.020848 0.003818
# 4 -0.014374 0.004309 -0.009096 0.042252 -0.015277 -0.003081
# 5 0.013486 -0.010008 0.020848 -0.015277 0.050095 -0.001960
# 6 0.002728 -0.006362 0.003818 -0.003081 -0.001960 0.036642
#
#
# Mechanical properties :
#
#
# Convention : Reuss Voigt Hill
#
# Bulk Modulus (GPa) = 24.88642 50.64432 37.76537
# Shear Modulus (GPa) = 21.99054 32.40308 27.19681
#
# Velocity S-wave (km/s) = 3.16609 3.84324 3.52098
# Velocity P-wave (km/s) = 4.97088 6.54061 5.80901
#
# Compressibility (1/GPa) = 0.04018255
#
# Stress axis : x y z
#
# Youngs Moduli (GPa) = 45.68918 77.80249 35.91302
#
# Poissons Ratio (x) = 0.58790 -0.22726
# Poissons Ratio (y) = 0.34524 0.35816
# Poissons Ratio (z) = -0.28912 0.77593
#
# Static dielectric constant tensor:
#      x y z
#    x 1.870270 0.002930 0.037270 
#    y 0.002930 1.836870 0.003490 
#    z 0.037270 0.003490 1.851900 
# 
# From -- ./inp_files/243436.got.cif
#   From: 2010.05.17/outbox.cif.g08.bks.cpg/sg2_122_cif.got.tgz:243436.got - 2010.06.03 11:33:40.
