data_PCOD9092675
_publ_section_title
;
Structure prediction by ZEFSAII (Michael W. Deem and Ramdas Pophale) SiO2 
 PCOD9092675
Probable space group: P -1
;
_chemical_formula_sum "Si O2"
_cell_formula_units_Z 16
_cell_length_a 13.508434
_cell_length_b 25.046818
_cell_length_c 7.276626
_cell_angle_alpha 62.092216
_cell_angle_beta 79.774732
_cell_angle_gamma 25.464617
_cell_volume 714.861780
_symmetry_space_group_name_H-M "P -1"
_symmetry_group_IT_number 2
_symmetry_cell_setting 'triclinic'
loop_
_space_group_symop_operation_xyz
x,y,z
-x,-y,-z
loop_
_atom_site_type_symbol
_atom_site_label
_atom_site_fract_x
_atom_site_fract_y
_atom_site_fract_z
Si Si1 0.756440 0.467372 0.152161
Si Si2 0.416436 0.223025 0.119250
Si Si3 0.084341 0.216151 0.143949
Si Si4 0.852029 0.476844 0.751051
Si Si5 0.305994 0.972672 0.990972
Si Si6 0.371805 0.162445 0.559171
Si Si7 0.725411 0.330777 0.808928
Si Si8 0.649521 0.182651 0.856896
O O1 0.464501 0.613148 0.120161
O O2 0.917705 0.319931 0.227623
O O3 0.025087 0.341065 0.389638
O O4 0.690751 0.552344 0.875774
O O5 0.636048 0.054086 0.201093
O O6 0.554110 0.210630 0.045038
O O7 0.093048 0.393201 0.852876
O O8 0.400418 0.207655 0.355269
O O9 0.427291 0.000084 0.356713
O O10 0.038200 0.309565 0.925294
O O11 0.899307 0.271984 0.997573
O O12 0.600218 0.630332 0.435139
O O13 0.492588 0.908205 0.170518
O O14 0.406574 0.846721 0.195226
O O15 0.964183 0.171120 0.842650
O O16 0.500000 0.500000 0.500000
O O17 0.000000 0.000000 0.000000
#
# Coordination Sequence:
#
# PCOD9092675 Si02
#       8
#     2   2   2   2   2   2   2   2
#     4   9  21  36  62  89 118 160 200 240 304 358
#     4   9  21  39  67  86 119 160 198 254 297 349
#     4   9  21  35  64  84 122 154 197 244 300 358
#     4   9  20  38  64  88 112 163 204 242 296 354
#     4   9  24  38  59  89 120 156 200 248 299 348
#     4  10  19  42  62  94 117 156 204 245 306 351
#     4  11  23  37  54  92 128 157 195 247 303 358
#     4  10  22  41  62  87 121 158 204 245 301 358
#
# _framework density 22.381948999999999
#
# number of rings (size 3 to 8) (size 9 to 14) (size 15 to 20)
#    1.500    1.000    0.000    1.125    3.500    3.000 
#    0.000    7.500    0.000    0.000    0.000    0.000 
#    0.000    0.000    0.000    0.000    0.000    0.000 
#
# Total GULP energy -89171.846989 kJ/mol
# GULP energy per Si atom -5573.240437 kJ/mol
# Density = 2.233101 g / cm^3
# Si number density = 22.381949 Si / 1000 Ang^3
#
#
#
# Elastic Constant Matrix: (Units=GPa)
#
#
# Indices 1 2 3 4 5 6 
#
# 1 36.2190 16.9202 -2.6644 4.1922 -2.3443 -22.8222
# 2 16.9202 84.8987 10.1485 7.1328 10.5253 -24.8499
# 3 -2.6644 10.1485 56.1789 -11.2032 -11.2342 -16.1012
# 4 4.1922 7.1328 -11.2032 15.4954 -0.6088 -0.5321
# 5 -2.3443 10.5253 -11.2342 -0.6088 16.7551 0.1960
# 6 -22.8222 -24.8499 -16.1012 -0.5321 0.1960 40.1114
#
#
#
# Elastic Compliance Matrix: (Units=1/GPa)
#
#
# Indices 1 2 3 4 5 6 
#
# 1 0.055590 -0.006548 0.019900 0.004562 0.024984 0.035499
# 2 -0.006548 0.019119 -0.009382 -0.014444 -0.019791 0.004258
# 3 0.019900 -0.009382 0.039895 0.029950 0.036261 0.021744
# 4 0.004562 -0.014444 0.029950 0.093136 0.033098 0.006744
# 5 0.024984 -0.019791 0.036261 0.033098 0.100934 0.016456
# 6 0.035499 0.004258 0.021744 0.006744 0.016456 0.056504
#
#
# Mechanical properties :
#
#
# Convention : Reuss Voigt Hill
#
# Bulk Modulus (GPa) = 8.16040 25.12279 16.64159
# Shear Modulus (GPa) = 12.56009 24.66520 18.61265
#
# Velocity S-wave (km/s) = 2.37147 3.32326 2.88686
# Velocity P-wave (km/s) = 3.33952 5.09650 4.30852
#
# Compressibility (1/GPa) = 0.12254303
#
# Stress axis : x y z
#
# Youngs Moduli (GPa) = 17.98875 52.30503 25.06595
#
# Poissons Ratio (x) = 0.34249 -0.49880
# Poissons Ratio (y) = 0.11779 0.23517
# Poissons Ratio (z) = -0.35797 0.49072
#
# Static dielectric constant tensor:
#      x y z
#    x 1.891690 0.143550 -0.034700 
#    y 0.143550 2.377860 0.025210 
#    z -0.034700 0.025210 1.800100 
# 
# From -- ./inp_files/284721.got.cif
#   From: 2010.05.17/outbox.cif.g08.bks.cpg/sg2_143_cif.got.tgz:284721.got - 2010.06.03 11:33:40.
