data_PCOD9092372
_publ_section_title
;
Structure prediction by ZEFSAII (Michael W. Deem and Ramdas Pophale) SiO2 
 PCOD9092372
Probable space group: P -1
;
_chemical_formula_sum "Si O2"
_cell_formula_units_Z 14
_cell_length_a 7.293016
_cell_length_b 15.435992
_cell_length_c 15.845057
_cell_angle_alpha 156.322727
_cell_angle_beta 81.857913
_cell_angle_gamma 109.417400
_cell_volume 609.959408
_symmetry_space_group_name_H-M "P -1"
_symmetry_group_IT_number 2
_symmetry_cell_setting 'triclinic'
loop_
_space_group_symop_operation_xyz
x,y,z
-x,-y,-z
loop_
_atom_site_type_symbol
_atom_site_label
_atom_site_fract_x
_atom_site_fract_y
_atom_site_fract_z
Si Si1 0.377576 0.197407 0.510285
Si Si2 0.465472 0.957441 0.864444
Si Si3 0.545837 0.181168 0.740084
Si Si4 0.249857 0.418846 0.424790
Si Si5 0.718247 0.703574 0.865210
Si Si6 0.783989 0.741462 0.252114
Si Si7 0.879192 0.956164 0.762366
O O1 0.556797 0.413314 0.633575
O O2 0.360346 0.314349 0.703546
O O3 0.160243 0.094057 0.378389
O O4 0.425640 0.976488 0.328996
O O5 0.263044 0.674653 0.625690
O O6 0.680158 0.982782 0.833110
O O7 0.500000 0.000000 0.000000
O O8 0.411010 0.149965 0.996735
O O9 0.334319 0.204438 0.768455
O O10 0.500000 0.000000 0.500000
O O11 0.750460 0.468267 0.985953
O O12 0.500000 0.500000 0.500000
O O13 0.183940 0.258550 0.201049
O O14 0.130933 0.269866 0.383355
O O15 0.899448 0.804933 0.013918
O O16 0.000000 0.000000 0.500000
#
# Coordination Sequence:
#
# PCOD9092372 Si02
#       7
#     2   2   2   2   2   2   2
#     4  11  24  43  62  97 139 163 215 289 325 404
#     4  11  21  40  65  86 129 179 225 281 327 384
#     4   9  22  44  69  94 134 168 208 276 337 400
#     4  10  19  41  61  87 131 172 230 278 323 390
#     4  12  24  42  63  92 136 177 224 278 333 396
#     4  10  23  44  74 101 126 173 225 261 344 427
#     4  11  24  42  61  96 133 178 227 277 339 390
#
# _framework density 22.952348000000001
#
# number of rings (size 3 to 8) (size 9 to 14) (size 15 to 20)
#    0.000    1.429    5.714    0.429    2.000    7.429 
#    2.571    0.000    0.000    0.000    0.000    0.000 
#    0.000    0.000    0.000    0.000    0.000    0.000 
#
# Total GULP energy -78108.930463 kJ/mol
# GULP energy per Si atom -5579.209319 kJ/mol
# Density = 2.290011 g / cm^3
# Si number density = 22.952348 Si / 1000 Ang^3
#
#
#
# Elastic Constant Matrix: (Units=GPa)
#
#
# Indices 1 2 3 4 5 6 
#
# 1 75.2995 34.0585 54.3784 15.4931 14.2512 -26.9323
# 2 34.0585 74.5108 31.8239 1.7886 -4.3286 -25.8424
# 3 54.3784 31.8239 148.5443 21.9667 11.2395 -16.2230
# 4 15.4931 1.7886 21.9667 47.3868 -12.9991 -5.7617
# 5 14.2512 -4.3286 11.2395 -12.9991 45.5688 -0.8205
# 6 -26.9323 -25.8424 -16.2230 -5.7617 -0.8205 34.2112
#
#
#
# Elastic Compliance Matrix: (Units=1/GPa)
#
#
# Indices 1 2 3 4 5 6 
#
# 1 0.028567 -0.006330 -0.005756 -0.007545 -0.010025 0.013466
# 2 -0.006330 0.021420 -0.002338 0.005442 0.006344 0.011157
# 3 -0.005756 -0.002338 0.009715 -0.003306 -0.001803 -0.002291
# 4 -0.007545 0.005442 -0.003306 0.028337 0.011806 0.001658
# 5 -0.010025 0.006344 -0.001803 0.011806 0.029472 -0.001260
# 6 0.013466 0.011157 -0.002291 0.001658 -0.001260 0.047422
#
#
# Mechanical properties :
#
#
# Convention : Reuss Voigt Hill
#
# Bulk Modulus (GPa) = 32.41095 59.87513 46.14304
# Shear Modulus (GPa) = 24.50163 37.30628 30.90395
#
# Velocity S-wave (km/s) = 3.27081 4.03597 3.67337
# Velocity P-wave (km/s) = 5.33065 6.91825 6.17568
#
# Compressibility (1/GPa) = 0.03085377
#
# Stress axis : x y z
#
# Youngs Moduli (GPa) = 35.00569 46.68431 102.93004
#
# Poissons Ratio (x) = 0.29551 0.59251
# Poissons Ratio (y) = 0.22158 0.24066
# Poissons Ratio (z) = 0.20151 0.10915
#
# Static dielectric constant tensor:
#      x y z
#    x 1.876920 0.019300 -0.023570 
#    y 0.019300 1.869880 -0.006560 
#    z -0.023570 -0.006560 1.971110 
# 
# From -- ./inp_files/561965.got.cif
#   From: 2010.05.17/outbox.cif.g08.bks.cpg/sg2_281_cif.got.tgz:561965.got - 2010.06.03 11:33:40.
