data_PCOD9092943
_publ_section_title
;
Structure prediction by ZEFSAII (Michael W. Deem and Ramdas Pophale) SiO2 
 PCOD9092943
Probable space group: P -1
;
_chemical_formula_sum "Si O2"
_cell_formula_units_Z 16
_cell_length_a 9.013041
_cell_length_b 17.861012
_cell_length_c 11.257023
_cell_angle_alpha 142.888173
_cell_angle_beta 140.457434
_cell_angle_gamma 39.644193
_cell_volume 636.894097
_symmetry_space_group_name_H-M "P -1"
_symmetry_group_IT_number 2
_symmetry_cell_setting 'triclinic'
loop_
_space_group_symop_operation_xyz
x,y,z
-x,-y,-z
loop_
_atom_site_type_symbol
_atom_site_label
_atom_site_fract_x
_atom_site_fract_y
_atom_site_fract_z
Si Si1 0.775567 0.326838 0.968751
Si Si2 0.393618 0.325730 0.130641
Si Si3 0.016970 0.946195 0.140497
Si Si4 0.626211 0.450511 0.773852
Si Si5 0.100805 0.764881 0.516602
Si Si6 0.905565 0.517103 0.621958
Si Si7 0.404765 0.967749 0.211304
Si Si8 0.333969 0.242412 0.609806
O O1 0.958928 0.170228 0.899524
O O2 0.685194 0.402201 0.883758
O O3 0.523543 0.313673 0.846304
O O4 0.928680 0.403720 0.222709
O O5 0.354165 0.417869 0.106421
O O6 0.672120 0.300019 0.327611
O O7 0.192811 0.414832 0.220455
O O8 0.415234 0.175570 0.919357
O O9 0.263160 0.933977 0.195444
O O10 0.917169 0.086155 0.326188
O O11 0.814291 0.960684 0.931105
O O12 0.828913 0.328187 0.670314
O O13 0.352183 0.457005 0.572805
O O14 0.826887 0.783780 0.418075
O O15 0.100389 0.360172 0.546035
O O16 0.478115 0.094188 0.450158
#
# Coordination Sequence:
#
# PCOD9092943 Si02
#       8
#     2   2   2   2   2   2   2   2
#     4  12  29  42  63 114 143 181 222 285 353 413
#     4  10  19  44  76 105 127 180 247 280 334 412
#     4   9  21  43  64 102 144 172 235 284 332 413
#     4  11  23  45  75 100 137 184 228 287 351 398
#     4   9  18  43  76  96 129 189 237 280 332 407
#     4  11  24  47  70 100 144 183 226 288 337 413
#     4   9  21  41  78  99 127 191 232 280 338 402
#     4  11  22  45  70 103 138 181 231 283 340 408
#
# _framework density 25.121917
#
# number of rings (size 3 to 8) (size 9 to 14) (size 15 to 20)
#    0.000    1.750    2.500    1.875    1.750    5.500 
#    6.750    1.875    0.000    0.000    0.000    0.000 
#    0.000    0.000    0.000    0.000    0.000    0.000 
#
# Total GULP energy -89445.236003 kJ/mol
# GULP energy per Si atom -5590.327250 kJ/mol
# Density = 2.506474 g / cm^3
# Si number density = 25.121917 Si / 1000 Ang^3
#
#
#
# Elastic Constant Matrix: (Units=GPa)
#
#
# Indices 1 2 3 4 5 6 
#
# 1 88.5620 42.1611 49.3617 18.9556 -8.7026 -2.2198
# 2 42.1611 145.4847 50.0460 20.9077 -11.5868 23.8876
# 3 49.3617 50.0460 77.7581 17.0655 19.9811 1.7190
# 4 18.9556 20.9077 17.0655 55.8145 -12.6896 7.8084
# 5 -8.7026 -11.5868 19.9811 -12.6896 39.4269 3.4273
# 6 -2.2198 23.8876 1.7190 7.8084 3.4273 35.7547
#
#
#
# Elastic Compliance Matrix: (Units=1/GPa)
#
#
# Indices 1 2 3 4 5 6 
#
# 1 0.023001 0.001286 -0.019861 0.001468 0.016022 -0.000333
# 2 0.001286 0.013128 -0.012842 0.002772 0.012400 -0.009867
# 3 -0.019861 -0.012842 0.045399 -0.012093 -0.036037 0.011260
# 4 0.001468 0.002772 -0.012093 0.024847 0.015972 -0.008136
# 5 0.016022 0.012400 -0.036037 0.015972 0.057210 -0.014529
# 6 -0.000333 -0.009867 0.011260 -0.008136 -0.014529 0.037168
#
#
# Mechanical properties :
#
#
# Convention : Reuss Voigt Hill
#
# Bulk Modulus (GPa) = 53.49365 66.10473 59.79919
# Shear Modulus (GPa) = 18.53097 37.54828 28.03963
#
# Velocity S-wave (km/s) = 2.71890 3.87025 3.34450
# Velocity P-wave (km/s) = 5.58538 6.80753 6.22651
#
# Compressibility (1/GPa) = 0.01869381
#
# Stress axis : x y z
#
# Youngs Moduli (GPa) = 43.47679 76.17317 22.02691
#
# Poissons Ratio (x) = -0.09796 0.43747
# Poissons Ratio (y) = -0.05591 0.28288
# Poissons Ratio (z) = 0.86348 0.97824
#
# Static dielectric constant tensor:
#      x y z
#    x 1.998860 -0.051870 -0.033240 
#    y -0.051870 2.022870 -0.014710 
#    z -0.033240 -0.014710 1.997560 
# 
# From -- ./inp_files/403445.got.cif
#   From: 2010.05.17/outbox.cif.g08.bks.cpg/sg2_202_cif.got.tgz:403445.got - 2010.06.03 11:33:40.
