data_PCOD9092613
_publ_section_title
;
Structure prediction by ZEFSAII (Michael W. Deem and Ramdas Pophale) SiO2 
 PCOD9092613
Probable space group: P -1
;
_chemical_formula_sum "Si O2"
_cell_formula_units_Z 16
_cell_length_a 9.362573
_cell_length_b 18.627341
_cell_length_c 18.662878
_cell_angle_alpha 152.224047
_cell_angle_beta 152.276455
_cell_angle_gamma 41.819062
_cell_volume 694.722066
_symmetry_space_group_name_H-M "P -1"
_symmetry_group_IT_number 2
_symmetry_cell_setting 'triclinic'
loop_
_space_group_symop_operation_xyz
x,y,z
-x,-y,-z
loop_
_atom_site_type_symbol
_atom_site_label
_atom_site_fract_x
_atom_site_fract_y
_atom_site_fract_z
Si Si1 0.718815 0.906945 0.843341
Si Si2 0.239976 0.579913 0.491904
Si Si3 0.680753 0.779111 0.568662
Si Si4 0.247383 0.934065 0.768889
Si Si5 0.178236 0.923919 0.193128
Si Si6 0.316599 0.453215 0.073431
Si Si7 0.582573 0.381573 0.990224
Si Si8 0.742710 0.353914 0.283902
O O1 0.585531 0.777905 0.609101
O O2 0.419768 0.968411 0.799075
O O3 0.902826 0.863716 0.957985
O O4 0.000000 0.000000 0.000000
O O5 0.500000 0.500000 0.500000
O O6 0.183306 0.745191 0.580204
O O7 0.365550 0.613312 0.657033
O O8 0.912078 0.462344 0.242657
O O9 0.538917 0.623111 0.325853
O O10 0.054395 0.781461 0.736321
O O11 0.624326 0.929016 0.631676
O O12 0.960659 0.013063 0.740205
O O13 0.500000 0.000000 0.000000
O O14 0.366506 0.784077 0.163840
O O15 0.323799 0.374434 0.930370
O O16 0.463347 0.341231 0.093640
O O17 0.000000 0.500000 0.000000
O O18 0.500000 0.500000 0.000000
O O19 0.000000 0.500000 0.500000
#
# Coordination Sequence:
#
# PCOD9092613 Si02
#       8
#     2   2   2   2   2   2   2   2
#     4   9  19  32  62 102 130 163 208 280 337 382
#     4  12  24  40  70 103 131 175 233 278 337 397
#     4  10  19  41  70  96 130 172 227 284 331 392
#     4  10  20  37  60  98 136 163 221 279 330 400
#     4  10  20  41  65  94 132 171 227 281 335 399
#     4  11  25  44  67  97 139 183 224 269 347 412
#     4  12  27  47  64  97 140 180 221 282 347 410
#     4  10  20  39  70  95 132 171 227 274 334 383
#
# _framework density 23.030795000000001
#
# number of rings (size 3 to 8) (size 9 to 14) (size 15 to 20)
#    0.000    1.500    3.750    2.250    7.000    0.000 
#    0.000    3.125    0.000    0.000    0.000    0.000 
#    0.000    0.000    0.000    0.000    0.000    0.000 
#
# Total GULP energy -89277.036466 kJ/mol
# GULP energy per Si atom -5579.814779 kJ/mol
# Density = 2.297838 g / cm^3
# Si number density = 23.030795 Si / 1000 Ang^3
#
#
#
# Elastic Constant Matrix: (Units=GPa)
#
#
# Indices 1 2 3 4 5 6 
#
# 1 190.6491 67.5340 4.9395 9.0761 -28.8099 -40.7769
# 2 67.5340 154.8002 11.8177 23.4909 -6.8036 -19.8017
# 3 4.9395 11.8177 23.8309 21.9287 1.9404 -8.7153
# 4 9.0761 23.4909 21.9287 36.9396 -2.3007 -6.6657
# 5 -28.8099 -6.8036 1.9404 -2.3007 32.5103 6.7181
# 6 -40.7769 -19.8017 -8.7153 -6.6657 6.7181 43.5134
#
#
#
# Elastic Compliance Matrix: (Units=1/GPa)
#
#
# Indices 1 2 3 4 5 6 
#
# 1 0.008272 -0.002776 0.000690 0.000730 0.005544 0.005883
# 2 -0.002776 0.008473 0.002465 -0.006073 -0.001480 0.001046
# 3 0.000690 0.002465 0.103427 -0.061199 -0.012484 0.015036
# 4 0.000730 -0.006073 -0.061199 0.066645 0.008881 -0.005499
# 5 0.005544 -0.001480 -0.012484 0.008881 0.037225 -0.002365
# 6 0.005883 0.001046 0.015036 -0.005499 -0.002365 0.031504
#
#
# Mechanical properties :
#
#
# Convention : Reuss Voigt Hill
#
# Bulk Modulus (GPa) = 8.26927 59.76250 34.01589
# Shear Modulus (GPa) = 16.94350 41.59192 29.26771
#
# Velocity S-wave (km/s) = 2.71530 4.25423 3.56871
# Velocity P-wave (km/s) = 3.66453 7.08072 5.63761
#
# Compressibility (1/GPa) = 0.12092961
#
# Stress axis : x y z
#
# Youngs Moduli (GPa) = 120.88964 118.01866 9.66870
#
# Poissons Ratio (x) = 0.32763 -0.00667
# Poissons Ratio (y) = 0.33560 -0.02383
# Poissons Ratio (z) = -0.08343 -0.29090
#
# Static dielectric constant tensor:
#      x y z
#    x 1.891880 -0.000090 0.052110 
#    y -0.000090 1.984100 0.229150 
#    z 0.052110 0.229150 2.348670 
# 
# From -- ./inp_files/562110.got.cif
#   From: 2010.05.17/outbox.cif.g08.bks.cpg/sg2_282_cif.got.tgz:562110.got - 2010.06.03 11:33:40.
