data_PCOD9092469
_publ_section_title
;
Structure prediction by ZEFSAII (Michael W. Deem and Ramdas Pophale) SiO2 
 PCOD9092469
Probable space group: P -1
;
_chemical_formula_sum "Si O2"
_cell_formula_units_Z 16
_cell_length_a 20.573060
_cell_length_b 9.699274
_cell_length_c 9.249831
_cell_angle_alpha 40.783513
_cell_angle_beta 149.100118
_cell_angle_gamma 137.708441
_cell_volume 596.437356
_symmetry_space_group_name_H-M "P -1"
_symmetry_group_IT_number 2
_symmetry_cell_setting 'triclinic'
loop_
_space_group_symop_operation_xyz
x,y,z
-x,-y,-z
loop_
_atom_site_type_symbol
_atom_site_label
_atom_site_fract_x
_atom_site_fract_y
_atom_site_fract_z
Si Si1 0.210719 0.479680 0.929908
Si Si2 0.030088 0.039839 0.855506
Si Si3 0.045294 0.454191 0.923694
Si Si4 0.650246 0.223787 0.264096
Si Si5 0.809184 0.583033 0.488654
Si Si6 0.763115 0.961685 0.258544
Si Si7 0.518455 0.127315 0.585379
Si Si8 0.415371 0.389924 0.600162
O O1 0.346034 0.450912 0.278056
O O2 0.149982 0.255076 0.904947
O O3 0.110735 0.478958 0.871298
O O4 0.236716 0.694171 0.706684
O O5 0.904572 0.072320 0.505133
O O6 0.000000 0.000000 0.000000
O O7 0.038839 0.800760 0.010305
O O8 0.944969 0.593465 0.658664
O O9 0.158534 0.499360 0.225672
O O10 0.695291 0.404713 0.332640
O O11 0.596640 0.994313 0.425767
O O12 0.779592 0.817525 0.264907
O O13 0.699558 0.776675 0.400820
O O14 0.659773 0.102314 0.930332
O O15 0.524808 0.260099 0.912361
O O16 0.500000 0.000000 0.500000
O O17 0.527341 0.381423 0.389561
#
# Coordination Sequence:
#
# PCOD9092469 Si02
#       8
#     2   2   2   2   2   2   2   2
#     4  11  22  44  68 103 144 190 224 293 359 415
#     4   9  17  39  69 103 138 182 231 287 355 420
#     4   9  20  38  72 101 139 187 230 287 351 418
#     4  11  26  42  68 103 142 186 240 286 353 425
#     4  10  19  41  66 102 135 181 233 285 345 414
#     4  10  20  43  74 108 140 183 237 294 354 423
#     4  11  25  43  71 107 138 188 243 294 350 420
#     4  11  22  45  71  98 143 190 229 295 352 415
#
# _framework density 26.825951
#
# number of rings (size 3 to 8) (size 9 to 14) (size 15 to 20)
#    0.000    1.750    3.750    1.875    0.000    4.000 
#    6.750    3.750    0.000    0.000    0.000    2.625 
#    0.000    0.000    0.000    0.000    0.000    0.000 
#
# Total GULP energy -89654.178217 kJ/mol
# GULP energy per Si atom -5603.386139 kJ/mol
# Density = 2.676489 g / cm^3
# Si number density = 26.825951 Si / 1000 Ang^3
#
#
#
# Elastic Constant Matrix: (Units=GPa)
#
#
# Indices 1 2 3 4 5 6 
#
# 1 84.8313 33.6238 10.7106 0.8846 -9.2507 13.1501
# 2 33.6238 136.8206 13.6726 8.6935 -8.1416 16.6074
# 3 10.7106 13.6726 93.0749 14.3622 -6.0252 -1.9058
# 4 0.8846 8.6935 14.3622 42.5554 -6.1661 -5.1402
# 5 -9.2507 -8.1416 -6.0252 -6.1661 37.1900 0.4452
# 6 13.1501 16.6074 -1.9058 -5.1402 0.4452 46.0916
#
#
#
# Elastic Compliance Matrix: (Units=1/GPa)
#
#
# Indices 1 2 3 4 5 6 
#
# 1 0.013794 -0.002799 -0.001168 0.000730 0.002785 -0.002921
# 2 -0.002799 0.008519 -0.000675 -0.001637 0.000818 -0.002489
# 3 -0.001168 -0.000675 0.011593 -0.003550 0.000844 0.000652
# 4 0.000730 -0.001637 -0.003550 0.025897 0.003505 0.003089
# 5 0.002785 0.000818 0.000844 0.003505 0.028490 -0.000939
# 6 -0.002921 -0.002489 0.000652 0.003089 -0.000939 0.023807
#
#
# Mechanical properties :
#
#
# Convention : Reuss Voigt Hill
#
# Bulk Modulus (GPa) = 40.61502 47.86011 44.23756
# Shear Modulus (GPa) = 38.58283 42.28206 40.43244
#
# Velocity S-wave (km/s) = 3.79656 3.97440 3.88650
# Velocity P-wave (km/s) = 5.86443 6.24026 6.05526
#
# Compressibility (1/GPa) = 0.02462143
#
# Stress axis : x y z
#
# Youngs Moduli (GPa) = 72.49550 117.38481 86.25676
#
# Poissons Ratio (x) = 0.32859 0.10078
# Poissons Ratio (y) = 0.20294 0.05821
# Poissons Ratio (z) = 0.08470 0.07921
#
# Static dielectric constant tensor:
#      x y z
#    x 2.161350 0.016440 0.001870 
#    y 0.016440 2.097040 0.018060 
#    z 0.001870 0.018060 2.091620 
# 
# From -- ./inp_files/346006.got.cif
#   From: 2010.05.17/outbox.cif.g08.bks.cpg/sg2_174_cif.got.tgz:346006.got - 2010.06.03 11:33:40.
