data_PCOD9092311
_publ_section_title
;
Structure prediction by ZEFSAII (Michael W. Deem and Ramdas Pophale) SiO2 
 PCOD9092311
Probable space group: P -1
;
_chemical_formula_sum "Si O2"
_cell_formula_units_Z 14
_cell_length_a 9.754619
_cell_length_b 9.499855
_cell_length_c 11.214381
_cell_angle_alpha 101.821914
_cell_angle_beta 51.554558
_cell_angle_gamma 133.566805
_cell_volume 542.002904
_symmetry_space_group_name_H-M "P -1"
_symmetry_group_IT_number 2
_symmetry_cell_setting 'triclinic'
loop_
_space_group_symop_operation_xyz
x,y,z
-x,-y,-z
loop_
_atom_site_type_symbol
_atom_site_label
_atom_site_fract_x
_atom_site_fract_y
_atom_site_fract_z
Si Si1 0.673622 0.661087 0.214670
Si Si2 0.209989 0.692986 0.047600
Si Si3 0.856684 0.540537 0.517322
Si Si4 0.237826 0.419146 0.092250
Si Si5 0.232682 0.970697 0.258665
Si Si6 0.897902 0.014958 0.343033
Si Si7 0.646524 0.365999 0.334648
O O1 0.404533 0.564163 0.297011
O O2 0.816252 0.670795 0.029258
O O3 0.830350 0.875920 0.238846
O O4 0.602430 0.495406 0.320878
O O5 0.208667 0.850715 0.134738
O O6 0.911402 0.475707 0.147964
O O7 0.279720 0.613995 0.094785
O O8 0.461031 0.836293 0.851611
O O9 0.747432 0.431396 0.427872
O O10 0.000000 0.500000 0.500000
O O11 0.056977 0.786990 0.419650
O O12 0.500000 0.500000 0.000000
O O13 0.012618 0.231140 0.267995
O O14 0.110856 0.050472 0.305161
O O15 0.635531 0.868891 0.533904
#
# Coordination Sequence:
#
# PCOD9092311 Si02
#       7
#     2   2   2   2   2   2   2
#     4  11  22  42  70  96 131 177 219 269 330 391
#     4  10  22  39  65  94 132 175 211 271 320 394
#     4  10  20  36  69 102 127 165 228 278 313 386
#     4  12  27  40  62 100 144 166 218 275 328 387
#     4  10  19  40  71  92 129 174 221 259 332 393
#     4  11  20  45  71  96 126 179 219 270 330 391
#     4  10  21  43  69  93 130 170 227 271 325 390
#
# _framework density 25.830120999999998
#
# number of rings (size 3 to 8) (size 9 to 14) (size 15 to 20)
#    0.000    1.429    5.714    1.286    4.000    1.143 
#    5.143    2.857    0.000    0.000    0.000    0.000 
#    0.000    0.000    0.000    0.000    0.000    0.000 
#
# Total GULP energy -78378.823253 kJ/mol
# GULP energy per Si atom -5598.487375 kJ/mol
# Density = 2.577133 g / cm^3
# Si number density = 25.830121 Si / 1000 Ang^3
#
#
#
# Elastic Constant Matrix: (Units=GPa)
#
#
# Indices 1 2 3 4 5 6 
#
# 1 111.9794 33.7566 20.3467 5.5227 -33.0580 -10.4078
# 2 33.7566 72.7496 37.2820 -14.8687 -3.5851 -10.4071
# 3 20.3467 37.2820 175.7363 3.8118 -15.3016 -4.1588
# 4 5.5227 -14.8687 3.8118 44.7260 5.2128 -1.5898
# 5 -33.0580 -3.5851 -15.3016 5.2128 53.9074 -8.8692
# 6 -10.4078 -10.4071 -4.1588 -1.5898 -8.8692 57.1193
#
#
#
# Elastic Compliance Matrix: (Units=1/GPa)
#
#
# Indices 1 2 3 4 5 6 
#
# 1 0.014277 -0.007320 0.000902 -0.005283 0.009472 0.002657
# 2 -0.007320 0.021125 -0.004211 0.008913 -0.004861 0.001702
# 3 0.000902 -0.004211 0.006749 -0.002365 0.002451 0.000203
# 4 -0.005283 0.008913 -0.002365 0.026870 -0.005863 0.000327
# 5 0.009472 -0.004861 0.002451 -0.005863 0.026106 0.004909
# 6 0.002657 0.001702 0.000203 0.000327 0.004909 0.019088
#
#
# Mechanical properties :
#
#
# Convention : Reuss Voigt Hill
#
# Bulk Modulus (GPa) = 47.85881 60.35954 54.10917
# Shear Modulus (GPa) = 35.10363 49.08919 42.09641
#
# Velocity S-wave (km/s) = 3.69049 4.36416 4.04138
# Velocity P-wave (km/s) = 6.06037 6.98664 6.53993
#
# Compressibility (1/GPa) = 0.02089480
#
# Stress axis : x y z
#
# Youngs Moduli (GPa) = 70.04436 47.33629 148.17766
#
# Poissons Ratio (x) = 0.34648 -0.13367
# Poissons Ratio (y) = 0.51270 0.62390
# Poissons Ratio (z) = -0.06319 0.19931
#
# Static dielectric constant tensor:
#      x y z
#    x 2.046670 0.101850 0.055730 
#    y 0.101850 2.012720 0.088550 
#    z 0.055730 0.088550 2.073890 
# 
# From -- ./inp_files/494610.got.cif
#   From: 2010.05.17/outbox.cif.g08.bks.cpg/sg2_248_cif.got.tgz:494610.got - 2010.06.03 11:33:40.
