data_PCOD9092655
_publ_section_title
;
Structure prediction by ZEFSAII (Michael W. Deem and Ramdas Pophale) SiO2 
 PCOD9092655
Probable space group: P -1
;
_chemical_formula_sum "Si O2"
_cell_formula_units_Z 16
_cell_length_a 22.105357
_cell_length_b 12.410782
_cell_length_c 12.058117
_cell_angle_alpha 145.604039
_cell_angle_beta 156.976743
_cell_angle_gamma 27.415939
_cell_volume 595.114939
_symmetry_space_group_name_H-M "P -1"
_symmetry_group_IT_number 2
_symmetry_cell_setting 'triclinic'
loop_
_space_group_symop_operation_xyz
x,y,z
-x,-y,-z
loop_
_atom_site_type_symbol
_atom_site_label
_atom_site_fract_x
_atom_site_fract_y
_atom_site_fract_z
Si Si1 0.179027 0.633424 0.360109
Si Si2 0.694791 0.234164 0.109910
Si Si3 0.876798 0.706731 0.752258
Si Si4 0.569174 0.911508 0.703301
Si Si5 0.962947 0.804828 0.752191
Si Si6 0.512594 0.400483 0.273469
Si Si7 0.535832 0.159722 0.319342
Si Si8 0.806204 0.383381 0.241691
O O1 0.179033 0.760391 0.576654
O O2 0.008403 0.324640 0.971194
O O3 0.325330 0.351783 0.387716
O O4 0.271876 0.704974 0.483131
O O5 0.800015 0.188593 0.130426
O O6 0.500000 0.500000 0.000000
O O7 0.645501 0.053165 0.903732
O O8 0.996680 0.689329 0.831381
O O9 0.860192 0.494797 0.520624
O O10 0.658121 0.933946 0.569536
O O11 0.592893 0.873397 0.844879
O O12 0.073273 0.676597 0.717391
O O13 0.742653 0.922442 0.458196
O O14 0.000000 0.000000 0.000000
O O15 0.474354 0.265635 0.183984
O O16 0.438765 0.653635 0.415685
O O17 0.404691 0.433588 0.006670
#
# Coordination Sequence:
#
# PCOD9092655 Si02
#       8
#     2   2   2   2   2   2   2   2
#     4  11  25  48  79 111 154 206 253 313 381 455
#     4  12  25  52  76 107 158 204 255 315 372 452
#     4  11  25  48  74 114 153 192 257 322 381 446
#     4  10  24  50  80 113 146 207 255 308 384 454
#     4  11  22  43  71 111 148 196 242 314 392 448
#     4  10  19  41  74 109 151 195 240 322 377 446
#     4   9  20  39  73 113 146 190 255 302 390 454
#     4  12  25  46  74 105 155 199 241 318 380 440
#
# _framework density 26.885563999999999
#
# number of rings (size 3 to 8) (size 9 to 14) (size 15 to 20)
#    0.000    1.250    3.750    1.125    3.500    1.000 
#    9.000    3.750    5.500    0.000    0.000    0.000 
#    0.000    0.000    0.000    0.000    0.000    0.000 
#
# Total GULP energy -89728.725935 kJ/mol
# GULP energy per Si atom -5608.045371 kJ/mol
# Density = 2.682437 g / cm^3
# Si number density = 26.885564 Si / 1000 Ang^3
#
#
#
# Elastic Constant Matrix: (Units=GPa)
#
#
# Indices 1 2 3 4 5 6 
#
# 1 193.2068 49.7883 63.4841 -0.6809 9.9128 27.9847
# 2 49.7883 87.8857 29.6113 5.0282 7.9998 2.5424
# 3 63.4841 29.6113 158.0895 5.5453 -14.2920 8.1253
# 4 -0.6809 5.0282 5.5453 32.0295 9.3666 13.3326
# 5 9.9128 7.9998 -14.2920 9.3666 36.8648 6.0051
# 6 27.9847 2.5424 8.1253 13.3326 6.0051 53.1474
#
#
#
# Elastic Compliance Matrix: (Units=1/GPa)
#
#
# Indices 1 2 3 4 5 6 
#
# 1 0.007606 -0.003289 -0.002589 0.003569 -0.002581 -0.004056
# 2 -0.003289 0.014071 -0.001583 -0.002134 -0.002587 0.002128
# 3 -0.002589 -0.001583 0.008182 -0.002786 0.004865 0.000337
# 4 0.003569 -0.002134 -0.002786 0.039199 -0.009897 -0.010067
# 5 -0.002581 -0.002587 0.004865 -0.009897 0.032862 -0.000491
# 6 -0.004056 0.002128 0.000337 -0.010067 -0.000491 0.023379
#
#
# Mechanical properties :
#
#
# Convention : Reuss Voigt Hill
#
# Bulk Modulus (GPa) = 66.94490 80.54992 73.74741
# Shear Modulus (GPa) = 34.43530 44.16156 39.29843
#
# Velocity S-wave (km/s) = 3.58272 4.05727 3.82736
# Velocity P-wave (km/s) = 6.48603 7.20929 6.85720
#
# Compressibility (1/GPa) = 0.01493766
#
# Stress axis : x y z
#
# Youngs Moduli (GPa) = 131.46920 71.06763 122.22276
#
# Poissons Ratio (x) = 0.23373 0.31638
# Poissons Ratio (y) = 0.43238 0.19353
# Poissons Ratio (z) = 0.34032 0.11253
#
# Static dielectric constant tensor:
#      x y z
#    x 2.148810 -0.024050 0.024690 
#    y -0.024050 2.132820 -0.000580 
#    z 0.024690 -0.000580 2.031340 
# 
# From -- ./inp_files/462316.got.cif
#   From: 2010.05.17/outbox.cif.g08.bks.cpg/sg2_232_cif.got.tgz:462316.got - 2010.06.03 11:33:40.
