data_PCOD9092511
_publ_section_title
;
Structure prediction by ZEFSAII (Michael W. Deem and Ramdas Pophale) SiO2 
 PCOD9092511
Probable space group: P -1
;
_chemical_formula_sum "Si O2"
_cell_formula_units_Z 16
_cell_length_a 14.605587
_cell_length_b 11.689109
_cell_length_c 8.412826
_cell_angle_alpha 100.766309
_cell_angle_beta 141.545890
_cell_angle_gamma 64.505712
_cell_volume 776.814766
_symmetry_space_group_name_H-M "P -1"
_symmetry_group_IT_number 2
_symmetry_cell_setting 'triclinic'
loop_
_space_group_symop_operation_xyz
x,y,z
-x,-y,-z
loop_
_atom_site_type_symbol
_atom_site_label
_atom_site_fract_x
_atom_site_fract_y
_atom_site_fract_z
Si Si1 0.360087 0.883109 0.330037
Si Si2 0.676317 0.375089 0.716101
Si Si3 0.196623 0.351934 0.554572
Si Si4 0.962459 0.268511 0.862228
Si Si5 0.173686 0.091127 0.380437
Si Si6 0.979755 0.971420 0.286859
Si Si7 0.281171 0.314401 0.306911
Si Si8 0.197014 0.473480 0.911625
O O1 0.338111 0.757445 0.323470
O O2 0.548330 0.822711 0.506637
O O3 0.324442 0.982562 0.454396
O O4 0.210020 0.957327 0.019040
O O5 0.500000 0.500000 0.500000
O O6 0.784064 0.371497 0.707459
O O7 0.762499 0.404017 0.993184
O O8 0.210075 0.204936 0.534850
O O9 0.273074 0.363823 0.491534
O O10 0.257453 0.387884 0.811147
O O11 0.001741 0.458952 0.318243
O O12 0.957081 0.183805 0.687556
O O13 0.028986 0.167560 0.074639
O O14 0.106189 0.310007 0.053710
O O15 0.097200 0.018523 0.365070
O O16 0.000000 0.000000 0.500000
O O17 0.277221 0.389131 0.157708
#
# Coordination Sequence:
#
# PCOD9092511 Si02
#       8
#     2   2   2   2   2   2   2   2
#     4  11  22  42  67  94 124 167 216 263 320 383
#     4  12  21  40  68  93 124 173 215 257 318 389
#     4  10  23  40  64  94 129 166 215 265 317 382
#     4  10  21  40  66  89 124 171 212 253 325 379
#     4  10  19  41  67  85 124 166 208 261 320 378
#     4  11  22  38  65  97 128 164 212 266 321 384
#     4  11  23  41  66  93 131 169 213 266 320 381
#     4  11  22  40  65  93 128 173 216 254 324 379
#
# _framework density 20.596931000000001
#
# number of rings (size 3 to 8) (size 9 to 14) (size 15 to 20)
#    0.000    1.250    6.250    1.125    1.750    4.500 
#    4.500    1.250    0.000    0.000    0.000    0.000 
#    0.000    0.000    0.000    0.000    0.000    0.000 
#
# Total GULP energy -89189.936572 kJ/mol
# GULP energy per Si atom -5574.371036 kJ/mol
# Density = 2.055005 g / cm^3
# Si number density = 20.596931 Si / 1000 Ang^3
#
#
#
# Elastic Constant Matrix: (Units=GPa)
#
#
# Indices 1 2 3 4 5 6 
#
# 1 99.5886 44.9869 39.6961 6.6339 3.8880 -23.5470
# 2 44.9869 118.0799 38.0796 14.5977 -7.0429 -39.8883
# 3 39.6961 38.0796 49.4835 -0.8212 7.1087 -17.7732
# 4 6.6339 14.5977 -0.8212 34.2577 -13.1531 -0.7382
# 5 3.8880 -7.0429 7.1087 -13.1531 34.1147 0.2396
# 6 -23.5470 -39.8883 -17.7732 -0.7382 0.2396 40.3351
#
#
#
# Elastic Compliance Matrix: (Units=1/GPa)
#
#
# Indices 1 2 3 4 5 6 
#
# 1 0.015790 -0.001177 -0.010430 -0.003159 -0.001111 0.003407
# 2 -0.001177 0.016323 -0.007865 -0.005537 0.002925 0.011870
# 3 -0.010430 -0.007865 0.036469 0.003761 -0.006601 0.002311
# 4 -0.003159 -0.005537 0.003761 0.037038 0.012749 -0.005061
# 5 -0.001111 0.002925 -0.006601 0.012749 0.036339 -0.000648
# 6 0.003407 0.011870 0.002311 -0.005061 -0.000648 0.039449
#
#
# Mechanical properties :
#
#
# Convention : Reuss Voigt Hill
#
# Bulk Modulus (GPa) = 33.74197 56.96413 45.35305
# Shear Modulus (GPa) = 21.71734 31.36747 26.54240
#
# Velocity S-wave (km/s) = 3.25067 3.90669 3.59368
# Velocity P-wave (km/s) = 5.52329 6.93299 6.26790
#
# Compressibility (1/GPa) = 0.02963668
#
# Stress axis : x y z
#
# Youngs Moduli (GPa) = 63.33198 61.26508 27.42037
#
# Poissons Ratio (x) = 0.07210 0.28600
# Poissons Ratio (y) = 0.07454 0.21567
# Poissons Ratio (z) = 0.66057 0.48187
#
# Static dielectric constant tensor:
#      x y z
#    x 1.787100 -0.011790 0.060560 
#    y -0.011790 1.873990 -0.098640 
#    z 0.060560 -0.098640 1.884800 
# 
# From -- ./inp_files/307827.got.cif
#   From: 2010.05.17/outbox.cif.g08.bks.cpg/sg2_154_cif.got.tgz:307827.got - 2010.06.03 11:33:40.
