data_PCOD9092111
_publ_section_title
;
Structure prediction by ZEFSAII (Michael W. Deem and Ramdas Pophale) SiO2 
 PCOD9092111
Probable space group: P -1
;
_chemical_formula_sum "Si O2"
_cell_formula_units_Z 13
_cell_length_a 9.051372
_cell_length_b 17.439675
_cell_length_c 7.247372
_cell_angle_alpha 65.189365
_cell_angle_beta 110.266643
_cell_angle_gamma 148.435852
_cell_volume 543.417290
_symmetry_space_group_name_H-M "P -1"
_symmetry_group_IT_number 2
_symmetry_cell_setting 'triclinic'
loop_
_space_group_symop_operation_xyz
x,y,z
-x,-y,-z
loop_
_atom_site_type_symbol
_atom_site_label
_atom_site_fract_x
_atom_site_fract_y
_atom_site_fract_z
Si Si1 0.972643 0.292076 0.147915
Si Si2 0.389060 0.332697 0.425733
Si Si3 0.009967 0.030092 0.691449
Si Si4 0.636359 0.011406 0.713843
Si Si5 0.612369 0.722820 0.941719
Si Si6 0.000000 0.500000 0.000000
Si Si7 0.155623 0.343067 0.764890
O O1 0.133801 0.287533 0.331179
O O2 0.011887 0.401977 0.136390
O O3 0.637644 0.128100 0.139895
O O4 0.103572 0.352302 0.939471
O O5 0.293956 0.213098 0.636127
O O6 0.436170 0.315913 0.258384
O O7 0.672645 0.509208 0.419292
O O8 0.776656 0.991669 0.702355
O O9 0.000000 0.000000 0.500000
O O10 0.921185 0.906806 0.889664
O O11 0.868017 0.176898 0.732266
O O12 0.500000 0.000000 0.500000
O O13 0.346597 0.655583 0.965241
O O14 0.644135 0.648485 0.132384
#
# Coordination Sequence:
#
# PCOD9092111 Si02
#       7
#     2   2   2   2   2   1   2
#     4  11  21  40  66  96 128 166 214 268 319 378
#     4  10  19  40  66  91 128 170 207 258 326 384
#     4  10  22  39  63  90 131 166 206 260 331 375
#     4  12  25  42  64  91 129 175 216 264 322 379
#     4  10  20  37  65  97 126 166 208 266 317 381
#     4  12  18  34  68  98 126 160 214 266 320 366
#     4  11  23  41  66  96 127 170 220 261 314 385
#
# _framework density 23.922681999999998
#
# number of rings (size 3 to 8) (size 9 to 14) (size 15 to 20)
#    0.000    1.231    6.154    1.385    0.000    1.231 
#    0.000    0.000    0.000    2.769    0.000    0.000 
#    0.000    0.000    0.000    0.000    0.000    0.000 
#
# Total GULP energy -72372.995286 kJ/mol
# GULP energy per Si atom -5567.153484 kJ/mol
# Density = 2.386823 g / cm^3
# Si number density = 23.922682 Si / 1000 Ang^3
#
#
#
# Elastic Constant Matrix: (Units=GPa)
#
#
# Indices 1 2 3 4 5 6 
#
# 1 71.7886 34.3107 21.7985 -3.9773 2.7531 6.3934
# 2 34.3107 161.1896 53.6071 -50.9567 0.5914 4.4856
# 3 21.7985 53.6071 67.7043 -34.2243 1.1605 -6.5578
# 4 -3.9773 -50.9567 -34.2243 57.8470 -2.2303 3.7493
# 5 2.7531 0.5914 1.1605 -2.2303 23.1704 -7.8178
# 6 6.3934 4.4856 -6.5578 3.7493 -7.8178 23.7052
#
#
#
# Elastic Compliance Matrix: (Units=1/GPa)
#
#
# Indices 1 2 3 4 5 6 
#
# 1 0.017821 -0.003027 -0.006433 -0.004985 -0.004457 -0.006694
# 2 -0.003027 0.010491 -0.004265 0.006727 -0.000223 -0.003486
# 3 -0.006433 -0.004265 0.026690 0.011127 0.003784 0.009413
# 4 -0.004985 0.006727 0.011127 0.029595 0.002470 -0.000716
# 5 -0.004457 -0.000223 0.003784 0.002470 0.049940 0.018370
# 6 -0.006694 -0.003486 0.009413 -0.000716 0.018370 0.053426
#
#
# Mechanical properties :
#
#
# Convention : Reuss Voigt Hill
#
# Bulk Modulus (GPa) = 36.29589 57.79055 47.04322
# Shear Modulus (GPa) = 22.26201 33.67561 27.96881
#
# Velocity S-wave (km/s) = 3.05385 3.75598 3.42297
# Velocity P-wave (km/s) = 5.25736 6.55893 5.94388
#
# Compressibility (1/GPa) = 0.02755133
#
# Stress axis : x y z
#
# Youngs Moduli (GPa) = 56.11397 95.31649 37.46716
#
# Poissons Ratio (x) = 0.28855 0.24102
# Poissons Ratio (y) = 0.16987 0.15981
# Poissons Ratio (z) = 0.36097 0.40656
#
# Static dielectric constant tensor:
#      x y z
#    x 1.888960 -0.010260 -0.053960 
#    y -0.010260 2.267280 -0.084720 
#    z -0.053960 -0.084720 1.939930 
# 
# From -- ./inp_files/150446.got.cif
#   From: 2010.05.17/outbox.cif.g08.bks.cpg/sg2_76_cif.got.tgz:150446.got - 2010.06.03 11:33:40.
