data_PCOD9092067
_publ_section_title
;
Structure prediction by ZEFSAII (Michael W. Deem and Ramdas Pophale) SiO2 
 PCOD9092067
Probable space group: P -1
;
_chemical_formula_sum "Si O2"
_cell_formula_units_Z 16
_cell_length_a 9.253132
_cell_length_b 11.104552
_cell_length_c 20.435418
_cell_angle_alpha 31.099140
_cell_angle_beta 62.050617
_cell_angle_gamma 81.678182
_cell_volume 792.217957
_symmetry_space_group_name_H-M "P -1"
_symmetry_group_IT_number 2
_symmetry_cell_setting 'triclinic'
loop_
_space_group_symop_operation_xyz
x,y,z
-x,-y,-z
loop_
_atom_site_type_symbol
_atom_site_label
_atom_site_fract_x
_atom_site_fract_y
_atom_site_fract_z
Si Si1 0.299291 0.326036 0.165946
Si Si2 0.416469 0.305589 0.964245
Si Si3 0.230456 0.672028 0.857490
Si Si4 0.579367 0.483724 0.709932
Si Si5 0.764006 0.289583 0.654169
Si Si6 0.869783 0.127986 0.337003
Si Si7 0.610485 0.111788 0.630914
Si Si8 0.357761 0.743013 0.595946
O O1 0.371313 0.502880 0.134541
O O2 0.098059 0.264013 0.209569
O O3 0.267969 0.030317 0.324094
O O4 0.500000 0.500000 0.000000
O O5 0.311831 0.480408 0.907564
O O6 0.474016 0.289341 0.885785
O O7 0.292194 0.016347 0.166161
O O8 0.241128 0.875625 0.703445
O O9 0.375793 0.865231 0.794948
O O10 0.000000 0.500000 0.000000
O O11 0.669082 0.380198 0.686688
O O12 0.411634 0.519890 0.699735
O O13 0.759770 0.809725 0.535921
O O14 0.671720 0.282047 0.606172
O O15 0.000000 0.500000 0.500000
O O16 0.848412 0.320627 0.303577
O O17 0.640721 0.218513 0.500358
O O18 0.500000 0.000000 0.500000
#
# Coordination Sequence:
#
# PCOD9092067 Si02
#       8
#     2   2   2   2   2   2   2   2
#     4  11  21  36  65 101 133 159 216 286 335 390
#     4  11  24  45  67  95 135 177 219 283 338 384
#     4  11  22  36  72 102 131 168 216 281 346 398
#     4  11  23  43  67  94 135 180 223 270 331 404
#     4  12  28  44  66  93 135 189 233 268 325 402
#     4  11  20  39  68 102 130 169 215 275 347 401
#     4  11  22  41  64  97 134 169 218 276 336 388
#     4  10  19  40  65  96 129 164 215 273 336 395
#
# _framework density 20.196463000000001
#
# number of rings (size 3 to 8) (size 9 to 14) (size 15 to 20)
#    0.000    1.000    5.000    4.875    1.750    3.500 
#    0.000    0.000    0.000    2.250    0.000    0.000 
#    0.000    0.000    0.000    0.000    0.000    0.000 
#
# Total GULP energy -89074.821825 kJ/mol
# GULP energy per Si atom -5567.176364 kJ/mol
# Density = 2.015049 g / cm^3
# Si number density = 20.196463 Si / 1000 Ang^3
#
#
#
# Elastic Constant Matrix: (Units=GPa)
#
#
# Indices 1 2 3 4 5 6 
#
# 1 126.2131 50.9822 19.1837 7.1021 -10.8727 4.2812
# 2 50.9822 112.7814 20.1695 17.3433 -8.4782 10.3082
# 3 19.1837 20.1695 46.4066 14.2568 -2.4532 4.8715
# 4 7.1021 17.3433 14.2568 27.8766 0.2763 10.3528
# 5 -10.8727 -8.4782 -2.4532 0.2763 35.7883 7.7331
# 6 4.2812 10.3082 4.8715 10.3528 7.7331 28.0105
#
#
#
# Elastic Compliance Matrix: (Units=1/GPa)
#
#
# Indices 1 2 3 4 5 6 
#
# 1 0.010106 -0.004113 -0.002701 0.001615 0.002055 -0.000725
# 2 -0.004113 0.012140 -0.001761 -0.004755 0.002048 -0.002341
# 3 -0.002701 -0.001761 0.027193 -0.012413 0.000556 0.000766
# 4 0.001615 -0.004755 -0.012413 0.050470 0.001449 -0.015392
# 5 0.002055 0.002048 0.000556 0.001449 0.031314 -0.010345
# 6 -0.000725 -0.002341 0.000766 -0.015392 -0.010345 0.045085
#
#
# Mechanical properties :
#
#
# Convention : Reuss Voigt Hill
#
# Bulk Modulus (GPa) = 30.97081 51.78577 41.37829
# Shear Modulus (GPa) = 24.48321 31.33946 27.91134
#
# Velocity S-wave (km/s) = 3.48552 3.94347 3.72155
# Velocity P-wave (km/s) = 5.61841 6.81405 6.24491
#
# Compressibility (1/GPa) = 0.03228847
#
# Stress axis : x y z
#
# Youngs Moduli (GPa) = 98.95386 82.37254 36.77355
#
# Poissons Ratio (x) = 0.33877 0.09934
# Poissons Ratio (y) = 0.40696 0.06477
# Poissons Ratio (z) = 0.26731 0.14509
#
# Static dielectric constant tensor:
#      x y z
#    x 1.740220 0.006250 -0.002980 
#    y 0.006250 1.798880 0.041810 
#    z -0.002980 0.041810 1.819640 
# 
# From -- ./inp_files/588850.got.cif
#   From: 2010.05.17/outbox.cif.g08.bks.cpg/sg2_295_cif.got.tgz:588850.got - 2010.06.03 11:33:40.
