data_PCOD9092674
_publ_section_title
;
Structure prediction by ZEFSAII (Michael W. Deem and Ramdas Pophale) SiO2 
 PCOD9092674
Probable space group: P -1
;
_chemical_formula_sum "Si O2"
_cell_formula_units_Z 16
_cell_length_a 9.767172
_cell_length_b 16.474646
_cell_length_c 8.469789
_cell_angle_alpha 90.623864
_cell_angle_beta 45.880577
_cell_angle_gamma 65.308253
_cell_volume 788.130628
_symmetry_space_group_name_H-M "P -1"
_symmetry_group_IT_number 2
_symmetry_cell_setting 'triclinic'
loop_
_space_group_symop_operation_xyz
x,y,z
-x,-y,-z
loop_
_atom_site_type_symbol
_atom_site_label
_atom_site_fract_x
_atom_site_fract_y
_atom_site_fract_z
Si Si1 0.351065 0.841390 0.644082
Si Si2 0.156016 0.043136 0.375283
Si Si3 0.618467 0.470873 0.159065
Si Si4 0.351539 0.657539 0.595342
Si Si5 0.869165 0.447017 0.632408
Si Si6 0.066581 0.236927 0.323333
Si Si7 0.185732 0.008043 0.010125
Si Si8 0.584686 0.895599 0.225730
O O1 0.413367 0.732292 0.598945
O O2 0.547275 0.840633 0.390846
O O3 0.294180 0.898824 0.855492
O O4 0.098178 0.918021 0.759228
O O5 0.045324 0.161163 0.447406
O O6 0.331689 0.994435 0.378482
O O7 0.285053 0.001432 0.101994
O O8 0.000000 0.000000 0.500000
O O9 0.554988 0.560598 0.330632
O O10 0.713012 0.377854 0.198793
O O11 0.371741 0.501004 0.278656
O O12 0.785514 0.455865 0.880987
O O13 0.138668 0.716459 0.642701
O O14 0.000000 0.500000 0.500000
O O15 0.030711 0.329413 0.448283
O O16 0.299387 0.173977 0.024864
O O17 0.260284 0.066366 0.846741
#
# Coordination Sequence:
#
# PCOD9092674 Si02
#       8
#     2   2   2   2   2   2   2   2
#     4  11  21  36  60  83 118 158 198 235 299 358
#     4  11  20  39  60  86 120 163 201 238 296 356
#     4   9  22  42  65  86 124 151 193 263 293 357
#     4  10  19  42  62  88 118 161 201 237 307 355
#     4  10  22  44  63  92 120 152 200 253 310 349
#     4  10  21  38  61  88 121 157 203 245 295 364
#     4  10  21  37  52  86 116 152 195 248 282 344
#     4  11  21  39  59  85 122 161 195 247 293 349
#
# _framework density 20.301203000000001
#
# number of rings (size 3 to 8) (size 9 to 14) (size 15 to 20)
#    0.000    1.750    3.750    1.875    1.750    1.000 
#    9.000    1.875    0.000    0.000    0.000    0.000 
#    0.000    0.000    0.000    0.000    0.000    0.000 
#
# Total GULP energy -89222.164822 kJ/mol
# GULP energy per Si atom -5576.385301 kJ/mol
# Density = 2.025500 g / cm^3
# Si number density = 20.301203 Si / 1000 Ang^3
#
#
#
# Elastic Constant Matrix: (Units=GPa)
#
#
# Indices 1 2 3 4 5 6 
#
# 1 29.5306 24.3891 8.6287 0.6044 10.3316 19.9765
# 2 24.3891 152.6486 43.6634 -7.1659 12.9304 29.3861
# 3 8.6287 43.6634 52.1067 -9.5662 11.5551 16.5188
# 4 0.6044 -7.1659 -9.5662 25.7848 6.1145 2.3590
# 5 10.3316 12.9304 11.5551 6.1145 27.9463 3.6712
# 6 19.9765 29.3861 16.5188 2.3590 3.6712 39.8755
#
#
#
# Elastic Compliance Matrix: (Units=1/GPa)
#
#
# Indices 1 2 3 4 5 6 
#
# 1 0.063926 -0.004682 0.010203 0.009449 -0.023657 -0.031183
# 2 -0.004682 0.009573 -0.006548 0.000487 0.000170 -0.002042
# 3 0.010203 -0.006548 0.033832 0.015625 -0.016347 -0.013721
# 4 0.009449 0.000487 0.015625 0.050285 -0.019507 -0.012744
# 5 -0.023657 0.000170 -0.016347 -0.019507 0.053543 0.014722
# 6 -0.031183 -0.002042 -0.013721 -0.012744 0.014722 0.047287
#
#
# Mechanical properties :
#
#
# Convention : Reuss Voigt Hill
#
# Bulk Modulus (GPa) = 9.49860 43.07205 26.28532
# Shear Modulus (GPa) = 16.91521 29.22830 23.07176
#
# Velocity S-wave (km/s) = 2.88967 3.79850 3.37482
# Velocity P-wave (km/s) = 3.97776 6.36401 5.30675
#
# Compressibility (1/GPa) = 0.10527865
#
# Stress axis : x y z
#
# Youngs Moduli (GPa) = 15.64315 104.45522 29.55776
#
# Poissons Ratio (x) = 0.48904 -0.30159
# Poissons Ratio (y) = 0.07324 0.19354
# Poissons Ratio (z) = -0.15961 0.68397
#
# Static dielectric constant tensor:
#      x y z
#    x 1.739990 0.000980 -0.017610 
#    y 0.000980 1.762340 -0.012350 
#    z -0.017610 -0.012350 1.772140 
# 
# From -- ./inp_files/270110.got.cif
#   From: 2010.05.17/outbox.cif.g08.bks.cpg/sg2_136_cif.got.tgz:270110.got - 2010.06.03 11:33:40.
