data_PCOD9092890
_publ_section_title
;
Structure prediction by ZEFSAII (Michael W. Deem and Ramdas Pophale) SiO2 
 PCOD9092890
Probable space group: P -1
;
_chemical_formula_sum "Si O2"
_cell_formula_units_Z 16
_cell_length_a 11.187727
_cell_length_b 17.480722
_cell_length_c 9.152589
_cell_angle_alpha 87.502479
_cell_angle_beta 122.137804
_cell_angle_gamma 44.478486
_cell_volume 744.379909
_symmetry_space_group_name_H-M "P -1"
_symmetry_group_IT_number 2
_symmetry_cell_setting 'triclinic'
loop_
_space_group_symop_operation_xyz
x,y,z
-x,-y,-z
loop_
_atom_site_type_symbol
_atom_site_label
_atom_site_fract_x
_atom_site_fract_y
_atom_site_fract_z
Si Si1 0.740288 0.257064 0.405552
Si Si2 0.869218 0.279454 0.100770
Si Si3 0.230199 0.585011 0.713030
Si Si4 0.861472 0.636071 0.314211
Si Si5 0.730076 0.646548 0.913515
Si Si6 0.842672 0.992515 0.548941
Si Si7 0.162780 0.798033 0.181480
Si Si8 0.277035 0.875685 0.053597
O O1 0.738968 0.345244 0.343863
O O2 0.456286 0.342158 0.176654
O O3 0.766746 0.245180 0.599692
O O4 0.003516 0.092399 0.501795
O O5 0.881722 0.350661 0.198748
O O6 0.119148 0.107588 0.340063
O O7 0.551489 0.398937 0.933594
O O8 0.858691 0.269658 0.921314
O O9 0.020117 0.635731 0.474076
O O10 0.533963 0.788608 0.137637
O O11 0.000000 0.500000 0.500000
O O12 0.864173 0.620423 0.146608
O O13 0.477039 0.823169 0.678284
O O14 0.000000 0.500000 0.000000
O O15 0.044159 0.951322 0.783123
O O16 0.362532 0.765907 0.228378
O O17 0.867363 0.985875 0.966497
#
# Coordination Sequence:
#
# PCOD9092890 Si02
#       8
#     2   2   2   2   2   2   2   2
#     4  11  22  42  70  99 139 182 218 273 347 413
#     4   9  21  41  69  88 125 188 222 266 321 418
#     4  10  24  44  68  95 134 179 232 270 346 405
#     4  12  26  43  67 101 133 175 228 288 333 394
#     4  12  27  41  68 109 139 167 226 294 335 386
#     4  10  19  43  71  93 132 187 228 261 336 418
#     4  10  20  35  67  99 123 174 226 275 320 401
#     4  10  20  38  68  96 132 175 232 272 325 406
#
# _framework density 21.494399000000001
#
# number of rings (size 3 to 8) (size 9 to 14) (size 15 to 20)
#    0.000    1.500    2.500    2.625    7.000    0.500 
#    0.000    6.250    0.000    0.000    0.000    0.000 
#    0.000    0.000    0.000    0.000    0.000    0.000 
#
# Total GULP energy -89284.782293 kJ/mol
# GULP energy per Si atom -5580.298893 kJ/mol
# Density = 2.144548 g / cm^3
# Si number density = 21.494399 Si / 1000 Ang^3
#
#
#
# Elastic Constant Matrix: (Units=GPa)
#
#
# Indices 1 2 3 4 5 6 
#
# 1 30.7445 38.6208 22.9751 4.3399 -7.6757 -4.3685
# 2 38.6208 156.4044 69.8923 19.1542 5.9320 -15.2805
# 3 22.9751 69.8923 131.2827 21.2155 -1.1952 -5.2566
# 4 4.3399 19.1542 21.2155 55.8256 -4.5670 -8.6108
# 5 -7.6757 5.9320 -1.1952 -4.5670 28.4081 -0.5297
# 6 -4.3685 -15.2805 -5.2566 -8.6108 -0.5297 35.3001
#
#
#
# Elastic Compliance Matrix: (Units=1/GPa)
#
#
# Indices 1 2 3 4 5 6 
#
# 1 0.055944 -0.013422 -0.002915 0.003128 0.018331 0.001717
# 2 -0.013422 0.012103 -0.003758 -0.001836 -0.006561 0.002472
# 3 -0.002915 -0.003758 0.010513 -0.002644 -0.000005 -0.001067
# 4 0.003128 -0.001836 -0.002644 0.020321 0.004463 0.004222
# 5 0.018331 -0.006561 -0.000005 0.004463 0.042263 0.001150
# 6 0.001717 0.002472 -0.001067 0.004222 0.001150 0.030499
#
#
# Mechanical properties :
#
#
# Convention : Reuss Voigt Hill
#
# Bulk Modulus (GPa) = 26.06283 64.60089 45.33186
# Shear Modulus (GPa) = 22.25959 36.36967 29.31463
#
# Velocity S-wave (km/s) = 3.22156 4.11792 3.69701
# Velocity P-wave (km/s) = 5.09801 7.26152 6.27373
#
# Compressibility (1/GPa) = 0.03836883
#
# Stress axis : x y z
#
# Youngs Moduli (GPa) = 17.87505 82.62596 95.12434
#
# Poissons Ratio (x) = 1.10903 0.27725
# Poissons Ratio (y) = 0.23992 0.35750
# Poissons Ratio (z) = 0.05210 0.31053
#
# Static dielectric constant tensor:
#      x y z
#    x 1.861010 -0.016550 -0.034340 
#    y -0.016550 1.860290 -0.003620 
#    z -0.034340 -0.003620 1.800340 
# 
# From -- ./inp_files/279555.got.cif
#   From: 2010.05.17/outbox.cif.g08.bks.cpg/sg2_140_cif.got.tgz:279555.got - 2010.06.03 11:33:40.
