data_PCOD9092548
_publ_section_title
;
Structure prediction by ZEFSAII (Michael W. Deem and Ramdas Pophale) SiO2 
 PCOD9092548
Probable space group: P -1
;
_chemical_formula_sum "Si O2"
_cell_formula_units_Z 16
_cell_length_a 7.871068
_cell_length_b 9.333221
_cell_length_c 11.939487
_cell_angle_alpha 69.285594
_cell_angle_beta 63.457987
_cell_angle_gamma 84.620673
_cell_volume 731.767909
_symmetry_space_group_name_H-M "P -1"
_symmetry_group_IT_number 2
_symmetry_cell_setting 'triclinic'
loop_
_space_group_symop_operation_xyz
x,y,z
-x,-y,-z
loop_
_atom_site_type_symbol
_atom_site_label
_atom_site_fract_x
_atom_site_fract_y
_atom_site_fract_z
Si Si1 0.613935 0.481750 0.085869
Si Si2 0.738053 0.209163 0.228886
Si Si3 0.226996 0.137850 0.299224
Si Si4 0.624581 0.070469 0.089545
Si Si5 0.155619 0.066118 0.594640
Si Si6 0.032915 0.636129 0.361993
Si Si7 0.054320 0.436637 0.190515
Si Si8 0.444539 0.765419 0.165673
O O1 0.580296 0.325677 0.209136
O O2 0.557326 0.621332 0.138002
O O3 0.500000 0.500000 0.000000
O O4 0.827273 0.493425 0.969617
O O5 0.780443 0.142062 0.110838
O O6 0.879698 0.327383 0.223348
O O7 0.713127 0.050618 0.348711
O O8 0.414699 0.102057 0.187978
O O9 0.232781 0.096893 0.438956
O O10 0.179347 0.312677 0.247799
O O11 0.049100 0.031735 0.329467
O O12 0.600702 0.887681 0.138777
O O13 0.635621 0.151407 0.944048
O O14 0.109361 0.228353 0.617944
O O15 0.017473 0.560783 0.262730
O O16 0.249779 0.708343 0.300496
O O17 0.000000 0.500000 0.500000
#
# Coordination Sequence:
#
# PCOD9092548 Si02
#       8
#     2   2   2   2   2   2   2   2
#     4  12  21  42  67  94 130 173 218 264 322 392
#     4  11  25  39  63  99 132 171 210 269 329 377
#     4  10  19  41  68  91 126 176 214 257 316 395
#     4  11  22  42  66  96 128 170 218 267 318 385
#     4  10  23  40  64  97 130 167 217 263 321 387
#     4  12  23  41  67  98 130 168 218 267 320 385
#     4  11  22  39  66  99 128 168 217 263 327 384
#     4  11  24  39  69  97 122 170 227 261 316 385
#
# _framework density 21.864856
#
# number of rings (size 3 to 8) (size 9 to 14) (size 15 to 20)
#    0.000    1.000    6.250    0.375    0.000    1.500 
#    0.000    3.125    0.000    3.000    0.000    0.000 
#    0.000    0.000    0.000    0.000    0.000    0.000 
#
# Total GULP energy -89256.710340 kJ/mol
# GULP energy per Si atom -5578.544396 kJ/mol
# Density = 2.181509 g / cm^3
# Si number density = 21.864856 Si / 1000 Ang^3
#
#
#
# Elastic Constant Matrix: (Units=GPa)
#
#
# Indices 1 2 3 4 5 6 
#
# 1 58.1183 28.8183 22.8895 -7.2704 16.7442 -2.0563
# 2 28.8183 155.0423 9.2832 -20.8500 14.4720 -11.8837
# 3 22.8895 9.2832 62.0804 -30.5234 -3.9308 -13.9151
# 4 -7.2704 -20.8500 -30.5234 34.2020 -3.2217 4.6780
# 5 16.7442 14.4720 -3.9308 -3.2217 33.0285 -6.4807
# 6 -2.0563 -11.8837 -13.9151 4.6780 -6.4807 30.4046
#
#
#
# Elastic Compliance Matrix: (Units=1/GPa)
#
#
# Indices 1 2 3 4 5 6 
#
# 1 0.033973 -0.006441 -0.025866 -0.019999 -0.022117 -0.013695
# 2 -0.006441 0.008739 0.007299 0.009968 0.002313 0.005280
# 3 -0.025866 0.007299 0.054699 0.046855 0.025788 0.024425
# 4 -0.019999 0.009968 0.046855 0.072546 0.021855 0.017484
# 5 -0.022117 0.002313 0.025788 0.021855 0.049278 0.018351
# 6 -0.013695 0.005280 0.024425 0.017484 0.018351 0.046427
#
#
# Mechanical properties :
#
#
# Convention : Reuss Voigt Hill
#
# Bulk Modulus (GPa) = 21.09916 44.13590 32.61753
# Shear Modulus (GPa) = 15.08404 33.81037 24.44720
#
# Velocity S-wave (km/s) = 2.62940 3.93661 3.34744
# Velocity P-wave (km/s) = 4.34616 6.39470 5.46723
#
# Compressibility (1/GPa) = 0.04739526
#
# Stress axis : x y z
#
# Youngs Moduli (GPa) = 29.43522 114.42626 18.28193
#
# Poissons Ratio (x) = 0.73697 0.47288
# Poissons Ratio (y) = 0.18958 -0.13344
# Poissons Ratio (z) = 0.76137 -0.83517
#
# Static dielectric constant tensor:
#      x y z
#    x 1.903660 0.035230 -0.016830 
#    y 0.035230 1.863340 -0.005830 
#    z -0.016830 -0.005830 1.791740 
# 
# From -- ./inp_files/243626.got.cif
#   From: 2010.05.17/outbox.cif.g08.bks.cpg/sg2_122_cif.got.tgz:243626.got - 2010.06.03 11:33:40.
