data_PCOD9092492
_publ_section_title
;
Structure prediction by ZEFSAII (Michael W. Deem and Ramdas Pophale) SiO2 
 PCOD9092492
Probable space group: P -1
;
_chemical_formula_sum "Si O2"
_cell_formula_units_Z 16
_cell_length_a 14.058241
_cell_length_b 7.005426
_cell_length_c 8.544864
_cell_angle_alpha 55.497196
_cell_angle_beta 84.605765
_cell_angle_gamma 107.966574
_cell_volume 619.713012
_symmetry_space_group_name_H-M "P -1"
_symmetry_group_IT_number 2
_symmetry_cell_setting 'triclinic'
loop_
_space_group_symop_operation_xyz
x,y,z
-x,-y,-z
loop_
_atom_site_type_symbol
_atom_site_label
_atom_site_fract_x
_atom_site_fract_y
_atom_site_fract_z
Si Si1 0.301956 0.197025 0.938630
Si Si2 0.217100 0.462255 0.019835
Si Si3 0.486467 0.676827 0.558998
Si Si4 0.999530 0.751867 0.697649
Si Si5 0.384679 0.912187 0.273707
Si Si6 0.662275 0.580613 0.702957
Si Si7 0.170017 0.091867 0.724824
Si Si8 0.826753 0.395616 0.366438
O O1 0.208147 0.197873 0.061534
O O2 0.382929 0.120427 0.055304
O O3 0.372487 0.490615 0.735268
O O4 0.247083 0.045793 0.859195
O O5 0.317127 0.512561 0.090007
O O6 0.122083 0.430801 0.162990
O O7 0.211676 0.625222 0.798102
O O8 0.500000 0.500000 0.500000
O O9 0.478286 0.922969 0.370204
O O10 0.577330 0.697052 0.656121
O O11 0.066539 0.641279 0.638357
O O12 0.061002 0.852283 0.807001
O O13 0.000000 0.000000 0.500000
O O14 0.372749 0.671231 0.280530
O O15 0.271556 0.813685 0.425232
O O16 0.765946 0.794756 0.499546
O O17 0.151403 0.326225 0.694279
#
# Coordination Sequence:
#
# PCOD9092492 Si02
#       8
#     2   2   2   2   2   2   2   2
#     4  11  22  41  66  94 134 168 219 268 330 398
#     4  11  23  43  61  94 133 170 214 280 326 382
#     4  10  19  41  66  92 132 171 216 270 331 394
#     4  12  24  40  67  97 130 173 224 271 327 396
#     4  10  21  41  64  95 129 175 213 271 326 392
#     4  10  21  40  65  91 130 171 215 271 333 383
#     4  10  22  44  64  96 134 173 215 275 326 390
#     4  10  23  44  63  92 139 173 218 274 327 391
#
# _framework density 25.818401999999999
#
# number of rings (size 3 to 8) (size 9 to 14) (size 15 to 20)
#    0.000    1.500    6.250    1.125    1.750    5.000 
#    2.250    0.625    0.000    0.000    0.000    0.000 
#    0.000    0.000    0.000    0.000    0.000    0.000 
#
# Total GULP energy -89483.213266 kJ/mol
# GULP energy per Si atom -5592.700829 kJ/mol
# Density = 2.575964 g / cm^3
# Si number density = 25.818402 Si / 1000 Ang^3
#
#
#
# Elastic Constant Matrix: (Units=GPa)
#
#
# Indices 1 2 3 4 5 6 
#
# 1 137.8992 22.4264 27.1575 -2.4906 25.3259 -29.2126
# 2 22.4264 58.5419 3.8133 3.0100 2.6680 -11.6697
# 3 27.1575 3.8133 92.0934 -0.7280 31.2215 -16.2316
# 4 -2.4906 3.0100 -0.7280 30.1228 -1.4179 4.7605
# 5 25.3259 2.6680 31.2215 -1.4179 50.5119 6.9676
# 6 -29.2126 -11.6697 -16.2316 4.7605 6.9676 45.4550
#
#
#
# Elastic Compliance Matrix: (Units=1/GPa)
#
#
# Indices 1 2 3 4 5 6 
#
# 1 0.010175 -0.002201 0.000473 -0.000351 -0.006273 0.007141
# 2 -0.002201 0.018907 0.000995 -0.002777 -0.001176 0.004266
# 3 0.000473 0.000995 0.015932 -0.001493 -0.011302 0.008137
# 4 -0.000351 -0.002777 -0.001493 0.034424 0.002975 -0.005533
# 5 -0.006273 -0.001176 -0.011302 0.002975 0.031946 -0.013577
# 6 0.007141 0.004266 0.008137 -0.005533 -0.013577 0.033251
#
#
# Mechanical properties :
#
#
# Convention : Reuss Voigt Hill
#
# Bulk Modulus (GPa) = 22.96364 43.92544 33.44454
# Shear Modulus (GPa) = 31.12991 40.89375 36.01183
#
# Velocity S-wave (km/s) = 3.47612 3.98414 3.73877
# Velocity P-wave (km/s) = 5.00248 6.18180 5.62314
#
# Compressibility (1/GPa) = 0.04354711
#
# Stress axis : x y z
#
# Youngs Moduli (GPa) = 98.28052 52.89065 62.76801
#
# Poissons Ratio (x) = 0.11642 -0.02969
# Poissons Ratio (y) = 0.21634 -0.06245
# Poissons Ratio (z) = -0.04649 -0.05262
#
# Static dielectric constant tensor:
#      x y z
#    x 2.074450 0.003210 0.046080 
#    y 0.003210 2.091930 0.045260 
#    z 0.046080 0.045260 2.061880 
# 
# From -- ./inp_files/242127.got.cif
#   From: 2010.05.17/outbox.cif.g08.bks.cpg/sg2_122_cif.got.tgz:242127.got - 2010.06.03 11:33:40.
