data_PCOD9092881
_publ_section_title
;
Structure prediction by ZEFSAII (Michael W. Deem and Ramdas Pophale) SiO2 
 PCOD9092881
Probable space group: P -1
;
_chemical_formula_sum "Si O2"
_cell_formula_units_Z 14
_cell_length_a 25.587981
_cell_length_b 7.926162
_cell_length_c 16.862482
_cell_angle_alpha 125.359565
_cell_angle_beta 162.685689
_cell_angle_gamma 44.583909
_cell_volume 624.956686
_symmetry_space_group_name_H-M "P -1"
_symmetry_group_IT_number 2
_symmetry_cell_setting 'triclinic'
loop_
_space_group_symop_operation_xyz
x,y,z
-x,-y,-z
loop_
_atom_site_type_symbol
_atom_site_label
_atom_site_fract_x
_atom_site_fract_y
_atom_site_fract_z
Si Si1 0.786458 0.062605 0.757059
Si Si2 0.288626 0.673847 0.680497
Si Si3 0.945028 0.324264 0.331926
Si Si4 0.495541 0.612448 0.251959
Si Si5 0.268856 0.242379 0.281558
Si Si6 0.723658 0.481790 0.891744
Si Si7 0.870396 0.741355 0.077570
O O1 0.742432 0.238454 0.818824
O O2 0.547780 0.260034 0.413313
O O3 0.786112 0.838426 0.738781
O O4 0.000000 0.000000 0.000000
O O5 0.383795 0.544985 0.696739
O O6 0.141140 0.002156 0.551207
O O7 0.105158 0.639242 0.429005
O O8 0.500000 0.500000 0.000000
O O9 0.000000 0.500000 0.500000
O O10 0.690103 0.424056 0.008680
O O11 0.911145 0.375217 0.202625
O O12 0.682848 0.554086 0.571634
O O13 0.327301 0.944791 0.094801
O O14 0.500000 0.000000 0.500000
O O15 0.092986 0.298445 0.974506
O O16 0.791957 0.577903 0.945195
#
# Coordination Sequence:
#
# PCOD9092881 Si02
#       7
#     2   2   2   2   2   2   2
#     4  11  24  40  70 111 149 185 232 299 358 430
#     4  11  27  46  72 104 133 188 257 293 347 438
#     4  11  28  48  71  99 144 190 232 309 371 412
#     4  10  23  44  72  98 139 183 237 294 350 438
#     4  10  19  43  70 101 145 187 235 280 360 434
#     4  11  24  43  67 104 149 182 237 291 369 426
#     4  10  23  42  74 102 140 194 231 292 357 435
#
# _framework density 22.401551999999999
#
# number of rings (size 3 to 8) (size 9 to 14) (size 15 to 20)
#    0.000    1.429    2.857    2.571    8.000    4.571 
#    0.000    0.000    0.000    0.000    0.000    0.000 
#    0.000    0.000    0.000    0.000    0.000    0.000 
#
# Total GULP energy -78097.041082 kJ/mol
# GULP energy per Si atom -5578.360077 kJ/mol
# Density = 2.235057 g / cm^3
# Si number density = 22.401552 Si / 1000 Ang^3
#
#
#
# Elastic Constant Matrix: (Units=GPa)
#
#
# Indices 1 2 3 4 5 6 
#
# 1 75.0124 33.0174 45.3453 -3.4252 1.0322 4.8964
# 2 33.0174 107.7148 47.3143 19.0313 -0.8846 -9.2887
# 3 45.3453 47.3143 155.2325 3.7883 -14.7050 -0.1078
# 4 -3.4252 19.0313 3.7883 37.6722 -4.2478 0.6791
# 5 1.0322 -0.8846 -14.7050 -4.2478 54.5244 5.3204
# 6 4.8964 -9.2887 -0.1078 0.6791 5.3204 35.1538
#
#
#
# Elastic Compliance Matrix: (Units=1/GPa)
#
#
# Indices 1 2 3 4 5 6 
#
# 1 0.018473 -0.005041 -0.004049 0.004615 -0.000785 -0.003888
# 2 -0.005041 0.013682 -0.002650 -0.007349 -0.001425 0.004667
# 3 -0.004049 -0.002650 0.008655 0.000385 0.002445 -0.000487
# 4 0.004615 -0.007349 0.000385 0.031003 0.002662 -0.003585
# 5 -0.000785 -0.001425 0.002445 0.002662 0.019518 -0.003265
# 6 -0.003888 0.004667 -0.000487 -0.003585 -0.003265 0.030783
#
#
# Mechanical properties :
#
#
# Convention : Reuss Voigt Hill
#
# Bulk Modulus (GPa) = 57.70744 65.47932 61.59338
# Shear Modulus (GPa) = 33.03153 39.62225 36.32689
#
# Velocity S-wave (km/s) = 3.84411 4.21019 4.03131
# Velocity P-wave (km/s) = 6.74680 7.27513 7.01594
#
# Compressibility (1/GPa) = 0.01732879
#
# Stress axis : x y z
#
# Youngs Moduli (GPa) = 54.13273 73.08802 115.54648
#
# Poissons Ratio (x) = 0.36842 0.46790
# Poissons Ratio (y) = 0.27287 0.30622
# Poissons Ratio (z) = 0.21921 0.19370
#
# Static dielectric constant tensor:
#      x y z
#    x 1.887610 0.056710 -0.002330 
#    y 0.056710 1.845980 -0.064470 
#    z -0.002330 -0.064470 1.907100 
# 
# From -- ./inp_files/540521.got.cif
#   From: 2010.05.17/outbox.cif.g08.bks.cpg/sg2_271_cif.got.tgz:540521.got - 2010.06.03 11:33:40.
