data_PCOD9092964
_publ_section_title
;
Structure prediction by ZEFSAII (Michael W. Deem and Ramdas Pophale) SiO2 
 PCOD9092964
Probable space group: P -1
;
_chemical_formula_sum "Si O2"
_cell_formula_units_Z 16
_cell_length_a 5.788144
_cell_length_b 14.679298
_cell_length_c 16.642892
_cell_angle_alpha 149.014510
_cell_angle_beta 109.924268
_cell_angle_gamma 69.621389
_cell_volume 679.813270
_symmetry_space_group_name_H-M "P -1"
_symmetry_group_IT_number 2
_symmetry_cell_setting 'triclinic'
loop_
_space_group_symop_operation_xyz
x,y,z
-x,-y,-z
loop_
_atom_site_type_symbol
_atom_site_label
_atom_site_fract_x
_atom_site_fract_y
_atom_site_fract_z
Si Si1 0.248491 0.468863 0.223156
Si Si2 0.759007 0.899006 0.983522
Si Si3 0.192719 0.722242 0.147451
Si Si4 0.693607 0.704631 0.135725
Si Si5 0.867889 0.770114 0.385657
Si Si6 0.389484 0.456764 0.539401
Si Si7 0.357639 0.779485 0.384095
Si Si8 0.963070 0.781453 0.745160
O O1 0.396626 0.543845 0.371246
O O2 0.365267 0.564240 0.234133
O O3 0.967381 0.563402 0.261564
O O4 0.271234 0.259676 0.079061
O O5 0.876552 0.816121 0.852414
O O6 0.926966 0.045850 0.144355
O O7 0.500000 0.000000 0.000000
O O8 0.398778 0.760483 0.135283
O O9 0.261732 0.814515 0.309035
O O10 0.894706 0.756747 0.134319
O O11 0.251676 0.509208 0.007916
O O12 0.766242 0.775430 0.286452
O O13 0.635259 0.827882 0.458734
O O14 0.133835 0.847768 0.469810
O O15 0.500000 0.500000 0.500000
O O16 0.256092 0.280096 0.380800
O O17 0.178384 0.618306 0.653368
#
# Coordination Sequence:
#
# PCOD9092964 Si02
#       8
#     2   2   2   2   2   2   2   2
#     4  10  20  28  47  62  94 116 152 196 235 276
#     4  11  20  35  47  71  88 118 152 200 239 286
#     4   8  12  20  33  50  77 111 144 173 209 262
#     4   8  12  20  33  50  77 111 144 173 209 262
#     4   8  16  25  37  60  84 114 147 182 224 271
#     4  11  20  35  47  71  88 118 152 200 239 286
#     4   8  16  25  37  60  84 114 147 182 224 271
#     4  10  22  32  54  66  90 114 156 196 246 284
#
# _framework density 23.535874
#
# number of rings (size 3 to 8) (size 9 to 14) (size 15 to 20)
#    0.750    2.000    2.500    0.000    1.750    0.000 
#    0.000    0.000    0.000    0.000    0.000    0.000 
#    0.000    0.000    0.000    4.500    0.000   50.250 
#
# Total GULP energy -89185.136460 kJ/mol
# GULP energy per Si atom -5574.071029 kJ/mol
# Density = 2.348230 g / cm^3
# Si number density = 23.535874 Si / 1000 Ang^3
#
#
#
# Elastic Constant Matrix: (Units=GPa)
#
#
# Indices 1 2 3 4 5 6 
#
# 1 234.5130 33.7959 40.6542 11.8935 2.4764 -16.7235
# 2 33.7959 74.2067 27.3383 13.3061 20.2340 8.5423
# 3 40.6542 27.3383 76.4137 14.0279 23.9791 7.3115
# 4 11.8935 13.3061 14.0279 33.2375 5.0612 6.6033
# 5 2.4764 20.2340 23.9791 5.0612 38.0822 6.6709
# 6 -16.7235 8.5423 7.3115 6.6033 6.6709 16.2257
#
#
#
# Elastic Compliance Matrix: (Units=1/GPa)
#
#
# Indices 1 2 3 4 5 6 
#
# 1 0.005933 -0.002701 -0.003294 -0.001707 0.001776 0.008986
# 2 -0.002701 0.018690 -0.001772 -0.003192 -0.006865 -0.007704
# 3 -0.003294 -0.001772 0.019802 -0.003826 -0.009788 -0.005804
# 4 -0.001707 -0.003192 -0.003826 0.036048 0.001839 -0.013782
# 5 0.001776 -0.006865 -0.009788 0.001839 0.036762 -0.006007
# 6 0.008986 -0.007704 -0.005804 -0.013782 -0.006007 0.085641
#
#
# Mechanical properties :
#
#
# Convention : Reuss Voigt Hill
#
# Bulk Modulus (GPa) = 34.61306 65.41227 50.01266
# Shear Modulus (GPa) = 21.92580 36.39876 29.16228
#
# Velocity S-wave (km/s) = 3.05551 3.93685 3.52384
# Velocity P-wave (km/s) = 5.21408 6.96549 6.15242
#
# Compressibility (1/GPa) = 0.02889083
#
# Stress axis : x y z
#
# Youngs Moduli (GPa) = 168.54618 53.50438 50.49903
#
# Poissons Ratio (x) = 0.14453 0.16634
# Poissons Ratio (y) = 0.45528 0.08949
# Poissons Ratio (z) = 0.55519 0.09482
#
# Static dielectric constant tensor:
#      x y z
#    x 1.942830 0.002960 0.022570 
#    y 0.002960 1.856490 0.021660 
#    z 0.022570 0.021660 1.942380 
# 
# From -- ./inp_files/54564.got.cif
#   From: 2010.05.17/outbox.cif.g08.bks.cpg/sg2_28_cif.got.tgz:54564.got - 2010.06.03 11:33:40.
