data_PCOD9092113
_publ_section_title
;
Structure prediction by ZEFSAII (Michael W. Deem and Ramdas Pophale) SiO2 
 PCOD9092113
Probable space group: P -1
;
_chemical_formula_sum "Si O2"
_cell_formula_units_Z 16
_cell_length_a 8.060210
_cell_length_b 13.215126
_cell_length_c 13.439207
_cell_angle_alpha 58.584000
_cell_angle_beta 62.445438
_cell_angle_gamma 109.788185
_cell_volume 696.057802
_symmetry_space_group_name_H-M "P -1"
_symmetry_group_IT_number 2
_symmetry_cell_setting 'triclinic'
loop_
_space_group_symop_operation_xyz
x,y,z
-x,-y,-z
loop_
_atom_site_type_symbol
_atom_site_label
_atom_site_fract_x
_atom_site_fract_y
_atom_site_fract_z
Si Si1 0.164841 0.972108 0.517104
Si Si2 0.896915 0.075490 0.032102
Si Si3 0.347548 0.920160 0.190588
Si Si4 0.062634 0.386107 0.192577
Si Si5 0.791410 0.696546 0.361140
Si Si6 0.140387 0.375985 0.941675
Si Si7 0.579632 0.224455 0.101299
Si Si8 0.476707 0.250486 0.453514
O O1 0.979880 0.763330 0.671992
O O2 0.452639 0.115045 0.296858
O O3 0.259905 0.056859 0.556475
O O4 0.000000 0.000000 0.500000
O O5 0.075547 0.209869 0.009754
O O6 0.546381 0.929775 0.199890
O O7 0.015193 0.210207 0.838496
O O8 0.000000 0.000000 0.000000
O O9 0.001994 0.734256 0.364291
O O10 0.384883 0.068247 0.152809
O O11 0.500000 0.000000 0.000000
O O12 0.076731 0.373393 0.075664
O O13 0.773807 0.317814 0.343012
O O14 0.353014 0.604362 0.021095
O O15 0.500000 0.500000 0.500000
O O16 0.686499 0.772695 0.394933
O O17 0.898425 0.323461 0.967956
O O18 0.433828 0.588326 0.719144
#
# Coordination Sequence:
#
# PCOD9092113 Si02
#       8
#     2   2   2   2   2   2   2   2
#     4  12  25  39  60  96 132 170 217 279 345 398
#     4  10  22  39  64  96 131 181 227 270 335 409
#     4   9  21  41  68  92 132 179 216 273 345 400
#     4  11  23  40  68  96 123 182 227 272 341 408
#     4  11  22  40  67  96 128 173 223 278 339 398
#     4  10  19  40  66  91 129 175 226 279 333 402
#     4  10  20  41  65  91 133 168 218 277 338 397
#     4  11  21  40  65  94 129 170 228 277 335 403
#
# _framework density 22.986595999999999
#
# number of rings (size 3 to 8) (size 9 to 14) (size 15 to 20)
#    0.000    1.500    3.750    1.875    3.500    1.500 
#    0.000    0.625    0.000    0.000    0.000    0.000 
#    0.000    0.000    0.000    0.000    0.000    0.000 
#
# Total GULP energy -89112.707323 kJ/mol
# GULP energy per Si atom -5569.544208 kJ/mol
# Density = 2.293428 g / cm^3
# Si number density = 22.986596 Si / 1000 Ang^3
#
#
#
# Elastic Constant Matrix: (Units=GPa)
#
#
# Indices 1 2 3 4 5 6 
#
# 1 64.2523 18.8540 29.8489 -17.3188 -10.1764 -10.1778
# 2 18.8540 138.2087 34.4279 -6.2721 -4.7699 -9.7954
# 3 29.8489 34.4279 81.4786 -13.9281 4.7723 -2.3202
# 4 -17.3188 -6.2721 -13.9281 48.8714 -2.8430 -2.0430
# 5 -10.1764 -4.7699 4.7723 -2.8430 31.6492 -7.5939
# 6 -10.1778 -9.7954 -2.3202 -2.0430 -7.5939 26.2615
#
#
#
# Elastic Compliance Matrix: (Units=1/GPa)
#
#
# Indices 1 2 3 4 5 6 
#
# 1 0.026210 0.000486 -0.008811 0.008249 0.013989 0.014247
# 2 0.000486 0.008509 -0.003745 0.000536 0.002997 0.003940
# 3 -0.008811 -0.003745 0.017482 0.000737 -0.007240 -0.005303
# 4 0.008249 0.000536 0.000737 0.024348 0.006549 0.007250
# 5 0.013989 0.002997 -0.007240 0.006549 0.042728 0.018764
# 6 0.014247 0.003940 -0.005303 0.007250 0.018764 0.050591
#
#
# Mechanical properties :
#
#
# Convention : Reuss Voigt Hill
#
# Bulk Modulus (GPa) = 35.63567 50.02233 42.82900
# Shear Modulus (GPa) = 24.58673 34.74367 29.66520
#
# Velocity S-wave (km/s) = 3.27404 3.89199 3.59631
# Velocity P-wave (km/s) = 5.46158 6.48117 5.99310
#
# Compressibility (1/GPa) = 0.02806177
#
# Stress axis : x y z
#
# Youngs Moduli (GPa) = 38.15351 117.52239 57.20070
#
# Poissons Ratio (x) = -0.05714 0.50398
# Poissons Ratio (y) = -0.01855 0.21423
# Poissons Ratio (z) = 0.33616 0.44015
#
# Static dielectric constant tensor:
#      x y z
#    x 2.077530 0.009250 0.114430 
#    y 0.009250 1.952460 -0.035850 
#    z 0.114430 -0.035850 1.778250 
# 
# From -- ./inp_files/500143.got.cif
#   From: 2010.05.17/outbox.cif.g08.bks.cpg/sg2_251_cif.got.tgz:500143.got - 2010.06.03 11:33:40.
