data_PCOD9092643
_publ_section_title
;
Structure prediction by ZEFSAII (Michael W. Deem and Ramdas Pophale) SiO2 
 PCOD9092643
Probable space group: P -1
;
_chemical_formula_sum "Si O2"
_cell_formula_units_Z 16
_cell_length_a 15.658184
_cell_length_b 12.547682
_cell_length_c 7.551330
_cell_angle_alpha 68.149548
_cell_angle_beta 80.483388
_cell_angle_gamma 30.925167
_cell_volume 669.824219
_symmetry_space_group_name_H-M "P -1"
_symmetry_group_IT_number 2
_symmetry_cell_setting 'triclinic'
loop_
_space_group_symop_operation_xyz
x,y,z
-x,-y,-z
loop_
_atom_site_type_symbol
_atom_site_label
_atom_site_fract_x
_atom_site_fract_y
_atom_site_fract_z
Si Si1 0.086389 0.008545 0.872034
Si Si2 0.164285 0.517607 0.291314
Si Si3 0.640980 0.316113 0.315755
Si Si4 0.991498 0.502473 0.209121
Si Si5 0.630660 0.882210 0.280804
Si Si6 0.524040 0.717733 0.751533
Si Si7 0.326826 0.829209 0.216110
Si Si8 0.355461 0.012610 0.296960
O O1 0.945870 0.264819 0.691847
O O2 0.199183 0.840406 0.769645
O O3 0.196860 0.939044 0.038043
O O4 0.000000 0.000000 0.000000
O O5 0.302737 0.266863 0.479060
O O6 0.277774 0.471787 0.156428
O O7 0.023711 0.591790 0.216648
O O8 0.531014 0.350377 0.210376
O O9 0.516905 0.565510 0.251303
O O10 0.699883 0.195933 0.561704
O O11 0.806978 0.667405 0.236048
O O12 0.176109 0.222235 0.345793
O O13 0.000000 0.500000 0.000000
O O14 0.590527 0.060681 0.231669
O O15 0.450401 0.022733 0.205125
O O16 0.494419 0.787978 0.512638
O O17 0.323931 0.968016 0.168175
#
# Coordination Sequence:
#
# PCOD9092643 Si02
#       8
#     2   2   2   2   2   2   2   2
#     4  12  26  44  66 102 139 174 231 287 339 409
#     4  11  22  41  65  97 128 170 224 278 338 400
#     4  10  23  44  73  94 131 184 228 279 349 403
#     4  12  24  38  59  98 138 171 219 277 336 400
#     4  11  22  41  70  95 131 182 224 271 342 405
#     4  10  19  41  72  93 127 175 227 275 331 412
#     4  10  23  45  68  99 134 178 230 281 341 407
#     4  10  21  41  63  98 136 168 223 279 329 406
#
# _framework density 23.886866000000001
#
# number of rings (size 3 to 8) (size 9 to 14) (size 15 to 20)
#    0.000    1.250    2.500    3.750    3.500    2.000 
#    6.750    0.000    0.000    0.000    0.000    0.000 
#    0.000    0.000    0.000    0.000    0.000    0.000 
#
# Total GULP energy -89235.543899 kJ/mol
# GULP energy per Si atom -5577.221494 kJ/mol
# Density = 2.383250 g / cm^3
# Si number density = 23.886866 Si / 1000 Ang^3
#
#
#
# Elastic Constant Matrix: (Units=GPa)
#
#
# Indices 1 2 3 4 5 6 
#
# 1 73.2711 65.6631 1.4757 14.1391 9.1322 4.1943
# 2 65.6631 168.8935 15.1510 18.7085 -9.8368 2.8631
# 3 1.4757 15.1510 43.3397 8.1673 8.6647 1.4937
# 4 14.1391 18.7085 8.1673 39.4365 -3.2230 -7.0365
# 5 9.1322 -9.8368 8.6647 -3.2230 23.6339 -1.9810
# 6 4.1943 2.8631 1.4937 -7.0365 -1.9810 42.4053
#
#
#
# Elastic Compliance Matrix: (Units=1/GPa)
#
#
# Indices 1 2 3 4 5 6 
#
# 1 0.029393 -0.012444 0.009619 -0.009290 -0.021746 -0.004963
# 2 -0.012444 0.011886 -0.006555 0.001465 0.012483 0.001485
# 3 0.009619 -0.006555 0.030720 -0.008986 -0.019267 -0.003982
# 4 -0.009290 0.001465 -0.008986 0.032131 0.012467 0.007050
# 5 -0.021746 0.012483 -0.019267 0.012467 0.065270 0.007105
# 6 -0.004963 0.001485 -0.003982 0.007050 0.007105 0.025615
#
#
# Mechanical properties :
#
#
# Convention : Reuss Voigt Hill
#
# Bulk Modulus (GPa) = 18.78290 50.00932 34.39611
# Shear Modulus (GPa) = 21.59638 34.64277 28.11957
#
# Velocity S-wave (km/s) = 3.01011 3.81239 3.43475
# Velocity P-wave (km/s) = 4.46781 6.35299 5.49189
#
# Compressibility (1/GPa) = 0.05323993
#
# Stress axis : x y z
#
# Youngs Moduli (GPa) = 34.02168 84.12991 32.55210
#
# Poissons Ratio (x) = 1.04689 -0.31311
# Poissons Ratio (y) = 0.42336 0.21337
# Poissons Ratio (z) = -0.32724 0.55144
#
# Static dielectric constant tensor:
#      x y z
#    x 1.940370 -0.026410 0.019990 
#    y -0.026410 1.979440 -0.092440 
#    z 0.019990 -0.092440 2.055100 
# 
# From -- ./inp_files/307332.got.cif
#   From: 2010.05.17/outbox.cif.g08.bks.cpg/sg2_154_cif.got.tgz:307332.got - 2010.06.03 11:33:40.
