data_PCOD9092136
_publ_section_title
;
Structure prediction by ZEFSAII (Michael W. Deem and Ramdas Pophale) SiO2 
 PCOD9092136
Probable space group: P -1
;
_chemical_formula_sum "Si O2"
_cell_formula_units_Z 14
_cell_length_a 16.296983
_cell_length_b 10.802534
_cell_length_c 9.450472
_cell_angle_alpha 134.662704
_cell_angle_beta 152.386027
_cell_angle_gamma 53.400707
_cell_volume 546.702309
_symmetry_space_group_name_H-M "P -1"
_symmetry_group_IT_number 2
_symmetry_cell_setting 'triclinic'
loop_
_space_group_symop_operation_xyz
x,y,z
-x,-y,-z
loop_
_atom_site_type_symbol
_atom_site_label
_atom_site_fract_x
_atom_site_fract_y
_atom_site_fract_z
Si Si1 0.849403 0.079346 0.245200
Si Si2 0.661850 0.603174 0.245295
Si Si3 0.016368 0.523689 0.212445
Si Si4 0.464326 0.016199 0.623953
Si Si5 0.612340 0.167091 0.376870
Si Si6 0.944793 0.997712 0.750922
Si Si7 0.287558 0.369179 0.966885
O O1 0.878423 0.286223 0.451399
O O2 0.877859 0.004533 0.072525
O O3 0.000000 0.000000 0.500000
O O4 0.666439 0.021709 0.991581
O O5 0.847193 0.600895 0.609396
O O6 0.607821 0.799559 0.304703
O O7 0.690144 0.536228 0.075141
O O8 0.500000 0.500000 0.000000
O O9 0.830190 0.534757 0.021046
O O10 0.000000 0.500000 0.000000
O O11 0.500000 0.000000 0.500000
O O12 0.371100 0.865222 0.455120
O O13 0.817014 0.148208 0.629800
O O14 0.483353 0.318957 0.272403
O O15 0.500000 0.000000 0.000000
O O16 0.832163 0.813682 0.394518
O O17 0.000000 0.000000 0.000000
#
# Coordination Sequence:
#
# PCOD9092136 Si02
#       7
#     2   2   2   2   2   2   2
#     4  11  24  40  65  99 132 169 221 276 331 401
#     4  12  25  46  69  95 142 183 227 279 344 408
#     4  11  26  46  67  97 138 181 226 278 348 405
#     4  12  24  40  69 103 134 174 224 283 336 402
#     4  10  19  40  66  95 130 172 220 272 340 389
#     4  10  20  36  62 102 131 161 214 281 338 388
#     4  10  23  44  69  94 136 184 227 279 336 410
#
# _framework density 25.608086
#
# number of rings (size 3 to 8) (size 9 to 14) (size 15 to 20)
#    0.000    1.143    4.286    3.857    4.000    0.000 
#    0.000    0.714    3.143    0.000    0.000    0.000 
#    0.000    0.000    0.000    0.000    0.000    0.000 
#
# Total GULP energy -78402.386918 kJ/mol
# GULP energy per Si atom -5600.170494 kJ/mol
# Density = 2.554980 g / cm^3
# Si number density = 25.608086 Si / 1000 Ang^3
#
#
#
# Elastic Constant Matrix: (Units=GPa)
#
#
# Indices 1 2 3 4 5 6 
#
# 1 213.2529 33.0244 57.1666 -18.9496 -18.8046 -27.5596
# 2 33.0244 96.9169 47.5695 -17.3141 -6.8484 -31.4170
# 3 57.1666 47.5695 95.5000 -34.5349 -4.5740 -23.9763
# 4 -18.9496 -17.3141 -34.5349 55.2328 -0.9578 3.1740
# 5 -18.8046 -6.8484 -4.5740 -0.9578 65.1478 -8.3461
# 6 -27.5596 -31.4170 -23.9763 3.1740 -8.3461 45.2631
#
#
#
# Elastic Compliance Matrix: (Units=1/GPa)
#
#
# Indices 1 2 3 4 5 6 
#
# 1 0.005945 0.000477 -0.002935 0.000230 0.001913 0.002733
# 2 0.000477 0.016193 -0.005475 0.001344 0.002631 0.009021
# 3 -0.002935 -0.005475 0.019319 0.009130 0.000595 0.004116
# 4 0.000230 0.001344 0.009130 0.024083 0.001786 0.004549
# 5 0.001913 0.002631 0.000595 0.001786 0.017057 0.006326
# 6 0.002733 0.009021 0.004116 0.004549 0.006326 0.033046
#
#
# Mechanical properties :
#
#
# Convention : Reuss Voigt Hill
#
# Bulk Modulus (GPa) = 39.07718 75.68785 57.38251
# Shear Modulus (GPa) = 35.70464 50.98937 43.34700
#
# Velocity S-wave (km/s) = 3.73805 4.46706 4.11872
# Velocity P-wave (km/s) = 5.82439 7.49844 6.71380
#
# Compressibility (1/GPa) = 0.02559039
#
# Stress axis : x y z
#
# Youngs Moduli (GPa) = 168.22217 61.75542 51.76380
#
# Poissons Ratio (x) = -0.02947 0.15194
# Poissons Ratio (y) = -0.08027 0.28339
# Poissons Ratio (z) = 0.49378 0.33809
#
# Static dielectric constant tensor:
#      x y z
#    x 2.097950 0.058620 -0.071920 
#    y 0.058620 1.874510 -0.028790 
#    z -0.071920 -0.028790 2.119350 
# 
# From -- ./inp_files/333854.got.cif
#   From: 2010.05.17/outbox.cif.g08.bks.cpg/sg2_167_cif.got.tgz:333854.got - 2010.06.03 11:33:40.
