data_PCOD9092227
_publ_section_title
;
Structure prediction by ZEFSAII (Michael W. Deem and Ramdas Pophale) SiO2 
 PCOD9092227
Probable space group: P -1
;
_chemical_formula_sum "Si O2"
_cell_formula_units_Z 14
_cell_length_a 11.981342
_cell_length_b 13.100380
_cell_length_c 11.531896
_cell_angle_alpha 31.822876
_cell_angle_beta 37.526698
_cell_angle_gamma 55.801917
_cell_volume 545.015661
_symmetry_space_group_name_H-M "P -1"
_symmetry_group_IT_number 2
_symmetry_cell_setting 'triclinic'
loop_
_space_group_symop_operation_xyz
x,y,z
-x,-y,-z
loop_
_atom_site_type_symbol
_atom_site_label
_atom_site_fract_x
_atom_site_fract_y
_atom_site_fract_z
Si Si1 0.054341 0.716926 0.308851
Si Si2 0.965574 0.802224 0.968664
Si Si3 0.748884 0.443472 0.330379
Si Si4 0.392204 0.852406 0.086926
Si Si5 0.353576 0.754445 0.636492
Si Si6 0.918891 0.102072 0.569348
Si Si7 0.258855 0.175929 0.633955
O O1 0.840378 0.740047 0.467120
O O2 0.000000 0.500000 0.500000
O O3 0.202580 0.732583 0.278099
O O4 0.181360 0.926360 0.932375
O O5 0.840149 0.664582 0.099788
O O6 0.837088 0.776544 0.213631
O O7 0.153831 0.735692 0.882156
O O8 0.025322 0.040680 0.649115
O O9 0.584878 0.320093 0.680465
O O10 0.677546 0.398634 0.300525
O O11 0.910051 0.324555 0.325791
O O12 0.305178 0.986024 0.115321
O O13 0.558740 0.015486 0.717659
O O14 0.512640 0.739282 0.611508
O O15 0.000000 0.000000 0.500000
#
# Coordination Sequence:
#
# PCOD9092227 Si02
#       7
#     2   2   2   2   2   2   2
#     4  10  19  40  68  83 118 164 208 253 304 358
#     4  12  21  40  62  88 129 166 200 253 305 364
#     4  10  22  35  63  91 124 163 207 242 305 374
#     4   9  20  40  60  89 122 161 202 251 304 356
#     4  11  21  38  63  93 127 159 207 249 308 370
#     4  10  20  37  60  87 124 165 196 244 310 356
#     4  10  23  40  60  90 121 161 204 254 309 356
#
# _framework density 25.687332999999999
#
# number of rings (size 3 to 8) (size 9 to 14) (size 15 to 20)
#    0.857    0.857    4.286    1.714    0.000    0.571 
#    0.000   13.571    0.000    5.143    0.000    0.000 
#    0.000    0.000    0.000    0.000    0.000    0.000 
#
# Total GULP energy -78040.451051 kJ/mol
# GULP energy per Si atom -5574.317932 kJ/mol
# Density = 2.562887 g / cm^3
# Si number density = 25.687333 Si / 1000 Ang^3
#
#
#
# Elastic Constant Matrix: (Units=GPa)
#
#
# Indices 1 2 3 4 5 6 
#
# 1 93.0855 19.2564 29.5587 -23.8745 -36.2463 2.4569
# 2 19.2564 117.2436 35.4534 -16.3398 -12.0700 6.5022
# 3 29.5587 35.4534 76.3449 -12.9036 -31.0615 8.0388
# 4 -23.8745 -16.3398 -12.9036 41.0953 3.6338 -9.8134
# 5 -36.2463 -12.0700 -31.0615 3.6338 43.9143 -1.2911
# 6 2.4569 6.5022 8.0388 -9.8134 -1.2911 37.5061
#
#
#
# Elastic Compliance Matrix: (Units=1/GPa)
#
#
# Indices 1 2 3 4 5 6 
#
# 1 0.019208 -0.000411 0.000517 0.010261 0.015314 0.001914
# 2 -0.000411 0.010223 -0.004545 0.002444 -0.000951 -0.000165
# 3 0.000517 -0.004545 0.021581 0.003430 0.014086 -0.002489
# 4 0.010261 0.002444 0.003430 0.033260 0.009026 0.007182
# 5 0.015314 -0.000951 0.014086 0.009026 0.044368 0.000032
# 6 0.001914 -0.000165 -0.002489 0.007182 0.000032 0.028979
#
#
# Mechanical properties :
#
#
# Convention : Reuss Voigt Hill
#
# Bulk Modulus (GPa) = 23.73282 50.57900 37.15591
# Shear Modulus (GPa) = 27.69452 37.99684 32.84568
#
# Velocity S-wave (km/s) = 3.28707 3.85022 3.57973
# Velocity P-wave (km/s) = 4.86473 6.28479 5.61979
#
# Compressibility (1/GPa) = 0.04213574
#
# Stress axis : x y z
#
# Youngs Moduli (GPa) = 52.06214 97.82023 46.33607
#
# Poissons Ratio (x) = 0.04018 -0.02397
# Poissons Ratio (y) = 0.02138 0.21059
# Poissons Ratio (z) = -0.02694 0.44458
#
# Static dielectric constant tensor:
#      x y z
#    x 2.148630 -0.003130 0.048340 
#    y -0.003130 2.071260 -0.012540 
#    z 0.048340 -0.012540 2.091950 
# 
# From -- ./inp_files/534084.got.cif
#   From: 2010.05.17/outbox.cif.g08.bks.cpg/sg2_268_cif.got.tgz:534084.got - 2010.06.03 11:33:40.
