data_PCOD9092539
_publ_section_title
;
Structure prediction by ZEFSAII (Michael W. Deem and Ramdas Pophale) SiO2 
 PCOD9092539
Probable space group: P -1
;
_chemical_formula_sum "Si O2"
_cell_formula_units_Z 16
_cell_length_a 18.403133
_cell_length_b 8.354873
_cell_length_c 19.116901
_cell_angle_alpha 45.545893
_cell_angle_beta 23.265974
_cell_angle_gamma 47.277400
_cell_volume 822.329025
_symmetry_space_group_name_H-M "P -1"
_symmetry_group_IT_number 2
_symmetry_cell_setting 'triclinic'
loop_
_space_group_symop_operation_xyz
x,y,z
-x,-y,-z
loop_
_atom_site_type_symbol
_atom_site_label
_atom_site_fract_x
_atom_site_fract_y
_atom_site_fract_z
Si Si1 0.347479 0.299929 0.262295
Si Si2 0.500494 0.707664 0.720983
Si Si3 0.914426 0.267216 0.148089
Si Si4 0.919418 0.078806 0.359223
Si Si5 0.247122 0.753341 0.131035
Si Si6 0.235223 0.457854 0.584847
Si Si7 0.482459 0.837050 0.498421
Si Si8 0.098484 0.800902 0.090591
O O1 0.412356 0.379923 0.256126
O O2 0.252510 0.513403 0.237801
O O3 0.214102 0.111097 0.450352
O O4 0.540499 0.207007 0.081933
O O5 0.608282 0.572475 0.604372
O O6 0.524266 0.976266 0.613668
O O7 0.280207 0.708961 0.914518
O O8 0.902631 0.177734 0.265192
O O9 0.706954 0.273576 0.299528
O O10 0.045646 0.070951 0.051351
O O11 0.000000 0.500000 0.000000
O O12 0.859719 0.290506 0.396676
O O13 0.127624 0.951515 0.218762
O O14 0.149685 0.745308 0.143511
O O15 0.342002 0.352678 0.591939
O O16 0.079527 0.306625 0.744552
O O17 0.500000 0.000000 0.500000
#
# Coordination Sequence:
#
# PCOD9092539 Si02
#       8
#     2   2   2   2   2   2   2   2
#     4  10  19  41  68  88 117 157 206 260 311 369
#     4  10  20  38  64  82 118 165 206 247 306 372
#     4  11  23  40  61  92 123 162 217 260 301 360
#     4  11  23  38  60  90 125 157 202 260 303 368
#     4   9  21  39  67  93 114 155 207 260 315 363
#     4  11  24  38  57  88 130 164 206 247 311 371
#     4  10  20  39  59  83 122 167 204 244 301 366
#     4  10  21  40  61  86 124 161 206 258 306 370
#
# _framework density 19.456931999999998
#
# number of rings (size 3 to 8) (size 9 to 14) (size 15 to 20)
#    0.000    1.750    3.750    1.125    1.750    7.000 
#    0.000    2.500    0.000    4.500    0.000    0.000 
#    0.000    0.000    0.000    0.000    0.000    0.000 
#
# Total GULP energy -89312.434819 kJ/mol
# GULP energy per Si atom -5582.027176 kJ/mol
# Density = 1.941265 g / cm^3
# Si number density = 19.456932 Si / 1000 Ang^3
#
#
#
# Elastic Constant Matrix: (Units=GPa)
#
#
# Indices 1 2 3 4 5 6 
#
# 1 41.6736 35.9739 35.9095 8.0467 -13.3285 -15.5181
# 2 35.9739 127.6614 62.6866 28.1645 0.3441 -9.6719
# 3 35.9095 62.6866 108.8604 11.2111 3.1589 -5.6849
# 4 8.0467 28.1645 11.2111 35.6257 -0.9315 8.1965
# 5 -13.3285 0.3441 3.1589 -0.9315 24.5307 7.2800
# 6 -15.5181 -9.6719 -5.6849 8.1965 7.2800 25.1489
#
#
#
# Elastic Compliance Matrix: (Units=1/GPa)
#
#
# Indices 1 2 3 4 5 6 
#
# 1 0.065513 -0.005728 -0.016418 -0.011244 0.028481 0.029931
# 2 -0.005728 0.014573 -0.005041 -0.010044 -0.004700 0.005565
# 3 -0.016418 -0.005041 0.017025 0.003681 -0.008868 -0.006853
# 4 -0.011244 -0.010044 0.003681 0.043158 0.002548 -0.024772
# 5 0.028481 -0.004700 -0.008868 0.002548 0.058755 -0.004077
# 6 0.029931 0.005565 -0.006853 -0.024772 -0.004077 0.068077
#
#
# Mechanical properties :
#
#
# Convention : Reuss Voigt Hill
#
# Bulk Modulus (GPa) = 23.39837 60.81502 42.10670
# Shear Modulus (GPa) = 14.89346 26.63607 20.76477
#
# Velocity S-wave (km/s) = 2.76969 3.70398 3.27037
# Velocity P-wave (km/s) = 4.72018 7.04391 5.99570
#
# Compressibility (1/GPa) = 0.04273801
#
# Stress axis : x y z
#
# Youngs Moduli (GPa) = 15.26415 68.62204 58.73761
#
# Poissons Ratio (x) = 0.39305 0.96434
# Poissons Ratio (y) = 0.08743 0.29608
# Poissons Ratio (z) = 0.25060 0.34591
#
# Static dielectric constant tensor:
#      x y z
#    x 1.706210 -0.023300 0.033150 
#    y -0.023300 1.680030 0.020720 
#    z 0.033150 0.020720 1.702070 
# 
# From -- ./inp_files/443897.got.cif
#   From: 2010.05.17/outbox.cif.g08.bks.cpg/sg2_222_cif.got.tgz:443897.got - 2010.06.03 11:33:40.
