data_PCOD9092945
_publ_section_title
;
Structure prediction by ZEFSAII (Michael W. Deem and Ramdas Pophale) SiO2 
 PCOD9092945
Probable space group: P -1
;
_chemical_formula_sum "Si O2"
_cell_formula_units_Z 16
_cell_length_a 6.888991
_cell_length_b 9.157005
_cell_length_c 15.743051
_cell_angle_alpha 101.043559
_cell_angle_beta 58.826439
_cell_angle_gamma 96.945690
_cell_volume 833.693883
_symmetry_space_group_name_H-M "P -1"
_symmetry_group_IT_number 2
_symmetry_cell_setting 'triclinic'
loop_
_space_group_symop_operation_xyz
x,y,z
-x,-y,-z
loop_
_atom_site_type_symbol
_atom_site_label
_atom_site_fract_x
_atom_site_fract_y
_atom_site_fract_z
Si Si1 0.619213 0.784125 0.395625
Si Si2 0.731050 0.001316 0.055701
Si Si3 0.066269 0.429851 0.616767
Si Si4 0.103099 0.727183 0.536880
Si Si5 0.681999 0.431915 0.847956
Si Si6 0.515486 0.828597 0.232205
Si Si7 0.961450 0.022014 0.611187
Si Si8 0.465401 0.741838 0.981618
O O1 0.357129 0.797529 0.481615
O O2 0.619915 0.796590 0.295857
O O3 0.706335 0.633491 0.401505
O O4 0.811033 0.900619 0.396408
O O5 0.652937 0.158956 0.052578
O O6 0.639105 0.957424 0.164650
O O7 0.626320 0.866264 0.006041
O O8 0.000000 0.000000 0.000000
O O9 0.975434 0.329131 0.545793
O O10 0.889279 0.434099 0.735145
O O11 0.103169 0.588547 0.583571
O O12 0.940936 0.851137 0.625711
O O13 0.491425 0.328298 0.832997
O O14 0.603238 0.599027 0.902538
O O15 0.707994 0.336657 0.918909
O O16 0.258288 0.885778 0.307146
O O17 0.000000 0.000000 0.500000
#
# Coordination Sequence:
#
# PCOD9092945 Si02
#       8
#     2   2   2   2   2   2   2   2
#     4  12  21  40  62  89 122 169 206 253 304 365
#     4  10  23  44  63  97 122 153 200 263 310 368
#     4  11  23  40  63  85 133 158 209 253 308 359
#     4  11  24  40  59  93 124 168 205 257 302 360
#     4  10  19  45  61  91 116 170 199 249 306 372
#     4  11  24  39  63  91 124 161 209 250 312 370
#     4  12  22  41  61  89 125 168 210 254 303 365
#     4   9  22  41  70  84 128 155 200 251 318 363
#
# _framework density 19.191696
#
# number of rings (size 3 to 8) (size 9 to 14) (size 15 to 20)
#    0.000    1.250    5.000    0.750    3.500    1.000 
#    2.250    1.875    0.000    0.000    0.000    0.000 
#    0.000    0.000    0.000    0.000    0.000    0.000 
#
# Total GULP energy -89181.198371 kJ/mol
# GULP energy per Si atom -5573.824898 kJ/mol
# Density = 1.914802 g / cm^3
# Si number density = 19.191696 Si / 1000 Ang^3
#
#
#
# Elastic Constant Matrix: (Units=GPa)
#
#
# Indices 1 2 3 4 5 6 
#
# 1 72.3443 28.0385 7.3735 -11.1790 4.8222 -14.1688
# 2 28.0385 142.9182 32.6192 -4.1088 7.0279 -26.7924
# 3 7.3735 32.6192 56.3514 -15.3508 -0.3051 -6.8941
# 4 -11.1790 -4.1088 -15.3508 33.7165 -0.5722 2.5373
# 5 4.8222 7.0279 -0.3051 -0.5722 23.8793 -7.1555
# 6 -14.1688 -26.7924 -6.8941 2.5373 -7.1555 29.4967
#
#
#
# Elastic Compliance Matrix: (Units=1/GPa)
#
#
# Indices 1 2 3 4 5 6 
#
# 1 0.016550 -0.002322 0.001307 0.005373 -0.000874 0.005472
# 2 -0.002322 0.009865 -0.005266 -0.002478 -0.000556 0.006693
# 3 0.001307 -0.005266 0.023616 0.010506 0.002132 0.000978
# 4 0.005373 -0.002478 0.010506 0.035944 0.000591 -0.000163
# 5 -0.000874 -0.000556 0.002132 0.000591 0.045417 0.010541
# 6 0.005472 0.006693 0.000978 -0.000163 0.010541 0.045410
#
#
# Mechanical properties :
#
#
# Convention : Reuss Voigt Hill
#
# Bulk Modulus (GPa) = 26.68867 45.29736 35.99302
# Shear Modulus (GPa) = 24.77040 30.99069 27.88055
#
# Velocity S-wave (km/s) = 3.59651 4.02281 3.81562
# Velocity P-wave (km/s) = 5.58418 6.72541 6.18119
#
# Compressibility (1/GPa) = 0.03746908
#
# Stress axis : x y z
#
# Youngs Moduli (GPa) = 60.42436 101.36628 42.34371
#
# Poissons Ratio (x) = 0.23535 -0.05533
# Poissons Ratio (y) = 0.14029 0.22298
# Poissons Ratio (z) = -0.07896 0.53379
#
# Static dielectric constant tensor:
#      x y z
#    x 1.665420 -0.023150 0.015170 
#    y -0.023150 1.739490 -0.004990 
#    z 0.015170 -0.004990 1.686370 
# 
# From -- ./inp_files/37388.got.cif
#   From: 2010.05.17/outbox.cif.g08.bks.cpg/sg2_19_cif.got.tgz:37388.got - 2010.06.03 11:33:40.
