data_PCOD9092250
_publ_section_title
;
Structure prediction by ZEFSAII (Michael W. Deem and Ramdas Pophale) SiO2 
 PCOD9092250
Probable space group: P -1
;
_chemical_formula_sum "Si O2"
_cell_formula_units_Z 14
_cell_length_a 11.965301
_cell_length_b 11.981961
_cell_length_c 11.570173
_cell_angle_alpha 74.353262
_cell_angle_beta 75.979983
_cell_angle_gamma 143.391091
_cell_volume 572.950577
_symmetry_space_group_name_H-M "P -1"
_symmetry_group_IT_number 2
_symmetry_cell_setting 'triclinic'
loop_
_space_group_symop_operation_xyz
x,y,z
-x,-y,-z
loop_
_atom_site_type_symbol
_atom_site_label
_atom_site_fract_x
_atom_site_fract_y
_atom_site_fract_z
Si Si1 0.597235 0.059330 0.830796
Si Si2 0.100332 0.835374 0.608318
Si Si3 0.049572 0.418472 0.060458
Si Si4 0.775138 0.763756 0.731119
Si Si5 0.209142 0.545750 0.442164
Si Si6 0.200104 0.301630 0.639243
Si Si7 0.282602 0.450293 0.827034
O O1 0.550253 0.128749 0.742137
O O2 0.958425 0.367178 0.641427
O O3 0.406117 0.769152 0.919464
O O4 0.500000 0.000000 0.000000
O O5 0.851653 0.700899 0.750136
O O6 0.959575 0.642867 0.584325
O O7 0.422487 0.197155 0.389993
O O8 0.145979 0.793690 0.716944
O O9 0.063733 0.327462 0.991700
O O10 0.000000 0.500000 0.000000
O O11 0.438102 0.492843 0.851473
O O12 0.000000 0.000000 0.500000
O O13 0.912260 0.972638 0.738755
O O14 0.301133 0.512173 0.487088
O O15 0.500000 0.500000 0.500000
O O16 0.128407 0.260094 0.802003
#
# Coordination Sequence:
#
# PCOD9092250 Si02
#       7
#     2   2   2   2   2   2   2
#     4  11  24  43  64  93 127 171 224 268 320 383
#     4  11  21  43  67  92 130 173 212 264 331 384
#     4  12  28  42  61  98 135 170 222 271 318 389
#     4  10  19  40  68  97 129 167 217 263 325 395
#     4  11  23  41  70  95 123 177 219 263 332 385
#     4  12  21  38  71 100 127 170 216 268 328 390
#     4  11  24  44  65  95 136 171 214 270 326 386
#
# _framework density 24.434916999999999
#
# number of rings (size 3 to 8) (size 9 to 14) (size 15 to 20)
#    0.000    0.857    8.571    0.000    4.000    1.143 
#    0.000    0.714    0.000    0.000    0.000    0.000 
#    0.000    0.000    0.000    0.000    0.000    0.000 
#
# Total GULP energy -78412.392258 kJ/mol
# GULP energy per Si atom -5600.885161 kJ/mol
# Density = 2.437930 g / cm^3
# Si number density = 24.434917 Si / 1000 Ang^3
#
#
#
# Elastic Constant Matrix: (Units=GPa)
#
#
# Indices 1 2 3 4 5 6 
#
# 1 152.3023 6.5878 40.6821 17.7801 9.4966 5.8848
# 2 6.5878 142.7050 22.4701 36.5871 1.9872 -8.9804
# 3 40.6821 22.4701 102.4130 18.9855 6.2651 -1.2629
# 4 17.7801 36.5871 18.9855 36.4964 -14.0379 3.8859
# 5 9.4966 1.9872 6.2651 -14.0379 40.8227 5.1870
# 6 5.8848 -8.9804 -1.2629 3.8859 5.1870 31.8861
#
#
#
# Elastic Compliance Matrix: (Units=1/GPa)
#
#
# Indices 1 2 3 4 5 6 
#
# 1 0.007961 0.001456 -0.002243 -0.005523 -0.003490 0.000093
# 2 0.001456 0.011380 0.000336 -0.015661 -0.007093 0.006012
# 3 -0.002243 0.000336 0.012282 -0.007572 -0.004316 0.002620
# 4 -0.005523 -0.015661 -0.007572 0.061501 0.026324 -0.015468
# 5 -0.003490 -0.007093 -0.004316 0.026324 0.036728 -0.010707
# 6 0.000093 0.006012 0.002620 -0.015468 -0.010707 0.036768
#
#
# Mechanical properties :
#
#
# Convention : Reuss Voigt Hill
#
# Bulk Modulus (GPa) = 32.55168 59.65557 46.10363
# Shear Modulus (GPa) = 28.12740 43.68639 35.90690
#
# Velocity S-wave (km/s) = 3.39649 4.23291 3.83755
# Velocity P-wave (km/s) = 5.36025 6.95392 6.20843
#
# Compressibility (1/GPa) = 0.03072038
#
# Stress axis : x y z
#
# Youngs Moduli (GPa) = 125.61323 87.87704 81.42076
#
# Poissons Ratio (x) = -0.12797 0.18265
# Poissons Ratio (y) = -0.18293 -0.02736
# Poissons Ratio (z) = 0.28179 -0.02953
#
# Static dielectric constant tensor:
#      x y z
#    x 2.005680 0.055160 -0.025020 
#    y 0.055160 1.968840 -0.056420 
#    z -0.025020 -0.056420 1.929690 
# 
# From -- ./inp_files/428130.got.cif
#   From: 2010.05.17/outbox.cif.g08.bks.cpg/sg2_215_cif.got.tgz:428130.got - 2010.06.03 11:33:40.
