data_PCOD9092099
_publ_section_title
;
Structure prediction by ZEFSAII (Michael W. Deem and Ramdas Pophale) SiO2 
 PCOD9092099
Probable space group: P -1
;
_chemical_formula_sum "Si O2"
_cell_formula_units_Z 16
_cell_length_a 23.203701
_cell_length_b 20.485178
_cell_length_c 8.899968
_cell_angle_alpha 36.473984
_cell_angle_beta 33.202992
_cell_angle_gamma 18.576555
_cell_volume 736.543445
_symmetry_space_group_name_H-M "P -1"
_symmetry_group_IT_number 2
_symmetry_cell_setting 'triclinic'
loop_
_space_group_symop_operation_xyz
x,y,z
-x,-y,-z
loop_
_atom_site_type_symbol
_atom_site_label
_atom_site_fract_x
_atom_site_fract_y
_atom_site_fract_z
Si Si1 0.837694 0.230596 0.383011
Si Si2 0.474360 0.028893 0.827021
Si Si3 0.736138 0.555406 0.491169
Si Si4 0.139226 0.186677 0.121706
Si Si5 0.456210 0.441951 0.319104
Si Si6 0.248883 0.496774 0.105376
Si Si7 0.663744 0.206275 0.595107
Si Si8 0.276441 0.218157 0.517988
O O1 0.714819 0.370107 0.540663
O O2 0.710982 0.274950 0.454515
O O3 0.893605 0.294462 0.058968
O O4 0.000000 0.000000 0.500000
O O5 0.360985 0.241149 0.643563
O O6 0.682885 0.841559 0.634074
O O7 0.334961 0.053041 0.030731
O O8 0.500000 0.000000 0.000000
O O9 0.609321 0.602518 0.557104
O O10 0.746719 0.486212 0.757224
O O11 0.951348 0.376815 0.280626
O O12 0.167316 0.033770 0.309905
O O13 0.140167 0.256677 0.837522
O O14 0.629623 0.259631 0.394654
O O15 0.500000 0.500000 0.000000
O O16 0.211557 0.400688 0.341403
O O17 0.464312 0.331396 0.870162
O O18 0.500000 0.000000 0.500000
#
# Coordination Sequence:
#
# PCOD9092099 Si02
#       8
#     2   2   2   2   2   2   2   2
#     4  11  25  43  66  94 127 166 219 276 326 380
#     4  11  22  39  62  94 131 171 219 254 314 392
#     4  12  23  38  66  99 133 164 214 279 320 375
#     4  11  22  40  64  96 132 168 213 267 328 371
#     4  11  24  42  66  96 125 167 225 266 319 393
#     4  11  21  41  68  89 127 178 217 253 326 386
#     4  11  21  43  68  88 126 177 213 263 326 392
#     4  10  19  40  66  89 128 174 213 255 312 402
#
# _framework density 21.723091
#
# number of rings (size 3 to 8) (size 9 to 14) (size 15 to 20)
#    0.000    1.000    5.000    4.875    1.750    1.000 
#    0.000    8.125    0.000    0.000    0.000    0.000 
#    0.000    0.000    0.000    0.000    0.000    0.000 
#
# Total GULP energy -89469.161208 kJ/mol
# GULP energy per Si atom -5591.822575 kJ/mol
# Density = 2.167365 g / cm^3
# Si number density = 21.723091 Si / 1000 Ang^3
#
#
#
# Elastic Constant Matrix: (Units=GPa)
#
#
# Indices 1 2 3 4 5 6 
#
# 1 102.0711 27.9097 50.2154 0.5518 26.5151 24.9826
# 2 27.9097 73.3466 36.8607 -24.3916 2.2956 14.0829
# 3 50.2154 36.8607 127.4392 -17.9952 29.9494 4.8242
# 4 0.5518 -24.3916 -17.9952 40.4521 9.5561 0.2805
# 5 26.5151 2.2956 29.9494 9.5561 44.8513 -4.4211
# 6 24.9826 14.0829 4.8242 0.2805 -4.4211 31.8705
#
#
#
# Elastic Compliance Matrix: (Units=1/GPa)
#
#
# Indices 1 2 3 4 5 6 
#
# 1 0.018145 -0.002369 -0.003987 -0.001217 -0.009045 -0.013817
# 2 -0.002369 0.021497 -0.003126 0.011861 -0.000868 -0.007394
# 3 -0.003987 -0.003126 0.012659 0.005429 -0.006937 0.001581
# 4 -0.001217 0.011861 0.005429 0.037222 -0.012145 -0.007121
# 5 -0.009045 -0.000868 -0.006937 -0.012145 0.036254 0.013660
# 6 -0.013817 -0.007394 0.001581 -0.007121 0.013660 0.047193
#
#
# Mechanical properties :
#
#
# Convention : Reuss Voigt Hill
#
# Bulk Modulus (GPa) = 29.99713 59.20318 44.60016
# Shear Modulus (GPa) = 24.62478 35.95951 30.29215
#
# Velocity S-wave (km/s) = 3.37052 4.07302 3.73831
# Velocity P-wave (km/s) = 5.38387 7.03080 6.26171
#
# Compressibility (1/GPa) = 0.03333652
#
# Stress axis : x y z
#
# Youngs Moduli (GPa) = 55.11248 46.51737 78.99485
#
# Poissons Ratio (x) = 0.11021 0.31499
# Poissons Ratio (y) = 0.13058 0.24690
# Poissons Ratio (z) = 0.21976 0.14539
#
# Static dielectric constant tensor:
#      x y z
#    x 1.831010 -0.050180 -0.006460 
#    y -0.050180 1.812810 -0.015490 
#    z -0.006460 -0.015490 1.797500 
# 
# From -- ./inp_files/355236.got.cif
#   From: 2010.05.17/outbox.cif.g08.bks.cpg/sg2_178_cif.got.tgz:355236.got - 2010.06.03 11:33:40.
