data_PCOD9092668
_publ_section_title
;
Structure prediction by ZEFSAII (Michael W. Deem and Ramdas Pophale) SiO2 
 PCOD9092668
Probable space group: P -1
;
_chemical_formula_sum "Si O2"
_cell_formula_units_Z 14
_cell_length_a 9.349800
_cell_length_b 12.410920
_cell_length_c 9.093583
_cell_angle_alpha 84.657084
_cell_angle_beta 132.692298
_cell_angle_gamma 110.059408
_cell_volume 713.524212
_symmetry_space_group_name_H-M "P -1"
_symmetry_group_IT_number 2
_symmetry_cell_setting 'triclinic'
loop_
_space_group_symop_operation_xyz
x,y,z
-x,-y,-z
loop_
_atom_site_type_symbol
_atom_site_label
_atom_site_fract_x
_atom_site_fract_y
_atom_site_fract_z
Si Si1 0.682645 0.492189 0.233493
Si Si2 0.408979 0.745122 0.662096
Si Si3 0.109271 0.810572 0.937361
Si Si4 0.884608 0.873876 0.014551
Si Si5 0.520107 0.117181 0.589014
Si Si6 0.055802 0.650760 0.648594
Si Si7 0.955523 0.981903 0.640932
O O1 0.585881 0.382813 0.291720
O O2 0.853007 0.453353 0.268837
O O3 0.828673 0.603155 0.416942
O O4 0.500000 0.500000 0.000000
O O5 0.384675 0.777497 0.474270
O O6 0.224557 0.743122 0.644121
O O7 0.637022 0.837826 0.854929
O O8 0.064077 0.704399 0.807502
O O9 0.092104 0.913683 0.811866
O O10 0.330671 0.856716 0.169621
O O11 0.942235 0.788277 0.957595
O O12 0.982078 0.896483 0.241346
O O13 0.000000 0.000000 0.000000
O O14 0.285592 0.096132 0.479073
O O15 0.500000 0.000000 0.500000
O O16 0.000000 0.000000 0.500000
#
# Coordination Sequence:
#
# PCOD9092668 Si02
#       7
#     2   2   2   2   2   2   2
#     4   9  21  45  72  92 126 162 217 283 327 378
#     4  10  21  41  67  89 127 175 209 260 332 376
#     4  11  23  39  62  91 133 166 216 265 321 376
#     4  10  19  42  58  91 135 169 207 261 315 380
#     4  12  23  41  61  93 135 177 210 259 316 389
#     4   9  23  42  66 100 119 160 230 265 322 395
#     4  11  25  39  58  91 133 173 224 259 308 384
#
# _framework density 19.620916000000001
#
# number of rings (size 3 to 8) (size 9 to 14) (size 15 to 20)
#    0.857    0.857    4.286    0.857    4.000    4.000 
#    0.000    1.429    0.000    0.000    0.000    0.000 
#    0.000    0.000    0.000    0.000    0.000    0.000 
#
# Total GULP energy -78000.191047 kJ/mol
# GULP energy per Si atom -5571.442218 kJ/mol
# Density = 1.957626 g / cm^3
# Si number density = 19.620916 Si / 1000 Ang^3
#
#
#
# Elastic Constant Matrix: (Units=GPa)
#
#
# Indices 1 2 3 4 5 6 
#
# 1 87.0981 33.0342 67.7786 6.9202 -26.2596 3.6038
# 2 33.0342 60.3407 50.2196 -0.0188 -5.2540 8.8672
# 3 67.7786 50.2196 200.3727 2.9623 -8.4026 -3.7922
# 4 6.9202 -0.0188 2.9623 37.2707 -0.3110 -3.2143
# 5 -26.2596 -5.2540 -8.4026 -0.3110 43.8969 8.2788
# 6 3.6038 8.8672 -3.7922 -3.2143 8.2788 28.4534
#
#
#
# Elastic Compliance Matrix: (Units=1/GPa)
#
#
# Indices 1 2 3 4 5 6 
#
# 1 0.022485 -0.005526 -0.005738 -0.004139 0.012809 -0.006085
# 2 -0.005526 0.024351 -0.004378 0.000746 0.000179 -0.007440
# 3 -0.005738 -0.004378 0.007962 0.000763 -0.003214 0.004174
# 4 -0.004139 0.000746 0.000763 0.027893 -0.002869 0.004379
# 5 0.012809 0.000179 -0.003214 -0.002869 0.032046 -0.011755
# 6 -0.006085 -0.007440 0.004174 0.004379 -0.011755 0.042706
#
#
# Mechanical properties :
#
#
# Convention : Reuss Voigt Hill
#
# Bulk Modulus (GPa) = 42.52841 72.20848 57.36844
# Shear Modulus (GPa) = 25.43716 35.04281 30.23998
#
# Velocity S-wave (km/s) = 3.60450 4.23069 3.93009
# Velocity P-wave (km/s) = 6.24863 7.79401 7.06371
#
# Compressibility (1/GPa) = 0.02351369
#
# Stress axis : x y z
#
# Youngs Moduli (GPa) = 44.47491 41.06635 125.60125
#
# Poissons Ratio (x) = 0.22694 0.72064
# Poissons Ratio (y) = 0.24577 0.54990
# Poissons Ratio (z) = 0.25517 0.17979
#
# Static dielectric constant tensor:
#      x y z
#    x 1.714030 -0.040280 0.006720 
#    y -0.040280 1.750040 0.002880 
#    z 0.006720 0.002880 1.718670 
# 
# From -- ./inp_files/202279.got.cif
#   From: 2010.05.17/outbox.cif.g08.bks.cpg/sg2_102_cif.got.tgz:202279.got - 2010.06.03 11:33:40.
