data_PCOD9092141
_publ_section_title
;
Structure prediction by ZEFSAII (Michael W. Deem and Ramdas Pophale) SiO2 
 PCOD9092141
Probable space group: P -1
;
_chemical_formula_sum "Si O2"
_cell_formula_units_Z 16
_cell_length_a 5.414978
_cell_length_b 19.664781
_cell_length_c 10.196821
_cell_angle_alpha 35.425381
_cell_angle_beta 86.383809
_cell_angle_gamma 80.115655
_cell_volume 614.399913
_symmetry_space_group_name_H-M "P -1"
_symmetry_group_IT_number 2
_symmetry_cell_setting 'triclinic'
loop_
_space_group_symop_operation_xyz
x,y,z
-x,-y,-z
loop_
_atom_site_type_symbol
_atom_site_label
_atom_site_fract_x
_atom_site_fract_y
_atom_site_fract_z
Si Si1 0.006704 0.656533 0.961500
Si Si2 0.073284 0.995836 0.350634
Si Si3 0.656567 0.195742 0.988828
Si Si4 0.463730 0.796018 0.726340
Si Si5 0.149370 0.371691 0.398560
Si Si6 0.951982 0.367607 0.700165
Si Si7 0.934488 0.851669 0.356502
Si Si8 0.462528 0.837629 0.240362
O O1 0.953791 0.676926 0.087947
O O2 0.085685 0.513479 0.159696
O O3 0.736406 0.716235 0.814521
O O4 0.245944 0.718889 0.831750
O O5 0.360100 0.920365 0.457357
O O6 0.923862 0.914564 0.397582
O O7 0.000000 0.000000 0.500000
O O8 0.953158 0.125688 0.092341
O O9 0.545163 0.171037 0.170423
O O10 0.533845 0.156807 0.925132
O O11 0.673397 0.335290 0.759148
O O12 0.055387 0.334484 0.602767
O O13 0.443429 0.304006 0.498349
O O14 0.027273 0.293214 0.422807
O O15 0.000000 0.500000 0.500000
O O16 0.180469 0.880482 0.233290
O O17 0.677749 0.892315 0.218378
#
# Coordination Sequence:
#
# PCOD9092141 Si02
#       8
#     2   2   2   2   2   2   2   2
#     4  10  21  36  64  92 130 173 215 261 322 378
#     4  10  24  47  68  90 127 176 226 276 314 378
#     4  10  19  40  66  96 133 176 213 265 330 384
#     4  10  23  40  61  94 127 171 231 264 306 371
#     4   9  20  36  62  94 136 165 203 262 330 391
#     4   9  17  34  59  99 135 166 203 260 321 393
#     4  10  23  41  64  95 135 164 215 268 328 386
#     4  10  21  38  65  96 137 159 211 257 340 391
#
# _framework density 26.041668999999999
#
# number of rings (size 3 to 8) (size 9 to 14) (size 15 to 20)
#    0.750    1.500    1.250    0.750    1.750    2.000 
#    0.000   26.875    0.000    0.000    0.000    0.000 
#    0.000    0.000    0.000    0.000    0.000    0.000 
#
# Total GULP energy -89325.301575 kJ/mol
# GULP energy per Si atom -5582.831348 kJ/mol
# Density = 2.598240 g / cm^3
# Si number density = 26.041669 Si / 1000 Ang^3
#
#
#
# Elastic Constant Matrix: (Units=GPa)
#
#
# Indices 1 2 3 4 5 6 
#
# 1 137.5016 61.7432 63.6435 5.5875 30.8923 0.9379
# 2 61.7432 165.6227 45.2874 4.8690 7.9583 35.0211
# 3 63.6435 45.2874 104.1143 -25.3686 15.2557 3.9439
# 4 5.5875 4.8690 -25.3686 41.6613 2.9377 -1.6374
# 5 30.8923 7.9583 15.2557 2.9377 39.2048 -1.3503
# 6 0.9379 35.0211 3.9439 -1.6374 -1.3503 40.0793
#
#
#
# Elastic Compliance Matrix: (Units=1/GPa)
#
#
# Indices 1 2 3 4 5 6 
#
# 1 0.013995 -0.003239 -0.007584 -0.005520 -0.006909 0.002791
# 2 -0.003239 0.009800 -0.002923 -0.002931 0.001636 -0.008264
# 3 -0.007584 -0.002923 0.018888 0.013034 -0.001710 0.001348
# 4 -0.005520 -0.002931 0.013034 0.033306 -0.002531 0.002683
# 5 -0.006909 0.001636 -0.001710 -0.002531 0.031470 -0.000143
# 6 0.002791 -0.008264 0.001348 0.002683 -0.000143 0.032079
#
#
# Mechanical properties :
#
#
# Convention : Reuss Voigt Hill
#
# Bulk Modulus (GPa) = 65.83728 83.17631 74.50680
# Shear Modulus (GPa) = 29.05370 39.96004 34.50687
#
# Velocity S-wave (km/s) = 3.34378 3.92147 3.64409
# Velocity P-wave (km/s) = 6.34383 7.24658 6.81018
#
# Compressibility (1/GPa) = 0.01518896
#
# Stress axis : x y z
#
# Youngs Moduli (GPa) = 71.45262 102.04201 52.94377
#
# Poissons Ratio (x) = 0.33056 0.40154
# Poissons Ratio (y) = 0.23147 0.15477
# Poissons Ratio (z) = 0.54192 0.29830
#
# Static dielectric constant tensor:
#      x y z
#    x 2.049330 0.002070 -0.008590 
#    y 0.002070 2.109050 -0.012750 
#    z -0.008590 -0.012750 2.163380 
# 
# From -- ./inp_files/370031.got.cif
#   From: 2010.05.17/outbox.cif.g08.bks.cpg/sg2_186_cif.got.tgz:370031.got - 2010.06.03 11:33:40.
