data_PCOD9092439
_publ_section_title
;
Structure prediction by ZEFSAII (Michael W. Deem and Ramdas Pophale) SiO2 
 PCOD9092439
Probable space group: P -1
;
_chemical_formula_sum "Si O2"
_cell_formula_units_Z 16
_cell_length_a 11.393753
_cell_length_b 11.498558
_cell_length_c 23.317014
_cell_angle_alpha 146.799552
_cell_angle_beta 149.163297
_cell_angle_gamma 42.074950
_cell_volume 854.335179
_symmetry_space_group_name_H-M "P -1"
_symmetry_group_IT_number 2
_symmetry_cell_setting 'triclinic'
loop_
_space_group_symop_operation_xyz
x,y,z
-x,-y,-z
loop_
_atom_site_type_symbol
_atom_site_label
_atom_site_fract_x
_atom_site_fract_y
_atom_site_fract_z
Si Si1 0.395466 0.656468 0.470902
Si Si2 0.106867 0.397184 0.791647
Si Si3 0.325211 0.525597 0.767080
Si Si4 0.193021 0.740302 0.688144
Si Si5 0.162338 0.401331 0.441603
Si Si6 0.402766 0.156267 0.911386
Si Si7 0.384348 0.126717 0.700169
Si Si8 0.755163 0.128843 0.950505
O O1 0.500000 0.500000 0.500000
O O2 0.599605 0.672691 0.517721
O O3 0.167066 0.572003 0.313782
O O4 0.325478 0.892485 0.562594
O O5 0.204661 0.286827 0.845296
O O6 0.206525 0.246685 0.719668
O O7 0.214249 0.622212 0.924382
O O8 0.337667 0.583360 0.728824
O O9 0.394603 0.285530 0.716299
O O10 0.049157 0.571009 0.680832
O O11 0.470564 0.685043 0.929283
O O12 0.181911 0.625491 0.574979
O O13 0.940445 0.748939 0.615067
O O14 0.297212 0.964056 0.820244
O O15 0.590067 0.061962 0.904507
O O16 0.624666 0.104337 0.825878
O O17 0.000000 0.000000 0.000000
#
# Coordination Sequence:
#
# PCOD9092439 Si02
#       8
#     2   2   2   2   2   2   2   2
#     4  12  26  38  64  97 126 160 212 261 314 366
#     4  11  23  40  59  98 128 162 203 254 319 377
#     4  10  19  41  65  86 121 161 216 243 307 374
#     4   9  22  40  69  88 120 172 210 247 313 363
#     4   9  23  42  61  91 125 160 213 254 306 365
#     4  11  21  39  67  91 121 168 212 247 308 383
#     4  11  22  40  61  92 127 166 201 257 318 367
#     4  11  23  38  62  93 133 158 199 265 317 361
#
# _framework density 18.728013000000001
#
# number of rings (size 3 to 8) (size 9 to 14) (size 15 to 20)
#    0.750    0.750    2.500    3.000    8.750    0.000 
#    0.000    2.500    0.000    2.250    0.000    0.000 
#    0.000    0.000    0.000    0.000    0.000    0.000 
#
# Total GULP energy -89259.652670 kJ/mol
# GULP energy per Si atom -5578.728292 kJ/mol
# Density = 1.868539 g / cm^3
# Si number density = 18.728013 Si / 1000 Ang^3
#
#
#
# Elastic Constant Matrix: (Units=GPa)
#
#
# Indices 1 2 3 4 5 6 
#
# 1 37.7891 20.1241 11.3786 -5.1219 4.8066 8.0788
# 2 20.1241 64.2759 14.1342 -11.6264 9.9929 11.8921
# 3 11.3786 14.1342 84.3593 -13.1138 6.9078 17.2916
# 4 -5.1219 -11.6264 -13.1138 39.2273 -1.1450 10.5568
# 5 4.8066 9.9929 6.9078 -1.1450 22.5927 -1.2540
# 6 8.0788 11.8921 17.2916 10.5568 -1.2540 22.4260
#
#
#
# Elastic Compliance Matrix: (Units=1/GPa)
#
#
# Indices 1 2 3 4 5 6 
#
# 1 0.033814 -0.006800 0.000152 0.005410 -0.004597 -0.011497
# 2 -0.006800 0.024625 0.003834 0.012809 -0.011090 -0.020214
# 3 0.000152 0.003834 0.018719 0.013450 -0.008063 -0.023304
# 4 0.005410 0.012809 0.013450 0.045208 -0.010914 -0.041003
# 5 -0.004597 -0.011090 -0.008063 -0.010914 0.053272 0.021870
# 6 -0.011497 -0.020214 -0.023304 -0.041003 0.021870 0.097945
#
#
# Mechanical properties :
#
#
# Convention : Reuss Voigt Hill
#
# Bulk Modulus (GPa) = 13.98002 30.85535 22.41769
# Shear Modulus (GPa) = 16.49882 26.23502 21.36692
#
# Velocity S-wave (km/s) = 2.97133 3.74685 3.38140
# Velocity P-wave (km/s) = 4.38779 5.93546 5.21931
#
# Compressibility (1/GPa) = 0.07153065
#
# Stress axis : x y z
#
# Youngs Moduli (GPa) = 29.57369 40.60946 53.42195
#
# Poissons Ratio (x) = 0.27614 -0.00814
# Poissons Ratio (y) = 0.20110 -0.20482
# Poissons Ratio (z) = -0.00451 -0.15570
#
# Static dielectric constant tensor:
#      x y z
#    x 1.655810 0.013290 -0.000230 
#    y 0.013290 1.640800 -0.012480 
#    z -0.000230 -0.012480 1.653540 
# 
# From -- ./inp_files/610377.got.cif
#   From: 2010.05.17/outbox.cif.g08.bks.cpg/sg2_306_cif.got.tgz:610377.got - 2010.06.03 11:33:40.
