data_PCOD9092422
_publ_section_title
;
Structure prediction by ZEFSAII (Michael W. Deem and Ramdas Pophale) SiO2 
 PCOD9092422
Probable space group: P -1
;
_chemical_formula_sum "Si O2"
_cell_formula_units_Z 16
_cell_length_a 18.760167
_cell_length_b 29.970268
_cell_length_c 5.124868
_cell_angle_alpha 121.115176
_cell_angle_beta 120.053725
_cell_angle_gamma 15.387932
_cell_volume 654.554762
_symmetry_space_group_name_H-M "P -1"
_symmetry_group_IT_number 2
_symmetry_cell_setting 'triclinic'
loop_
_space_group_symop_operation_xyz
x,y,z
-x,-y,-z
loop_
_atom_site_type_symbol
_atom_site_label
_atom_site_fract_x
_atom_site_fract_y
_atom_site_fract_z
Si Si1 0.235369 0.113643 0.905612
Si Si2 0.097515 0.617307 0.253853
Si Si3 0.678327 0.405416 0.284700
Si Si4 0.581059 0.876757 0.310174
Si Si5 0.025484 0.041820 0.450752
Si Si6 0.023415 0.138661 0.448714
Si Si7 0.447779 0.840401 0.004805
Si Si8 0.441581 0.739944 0.894909
O O1 0.603029 0.984699 0.828527
O O2 0.040863 0.180769 0.769728
O O3 0.057885 0.268712 0.946663
O O4 0.441888 0.974793 0.627806
O O5 0.208266 0.604576 0.538526
O O6 0.344781 0.429041 0.110022
O O7 0.876598 0.721323 0.339167
O O8 0.500000 0.500000 0.500000
O O9 0.919246 0.220527 0.225970
O O10 0.500000 0.500000 0.000000
O O11 0.577797 0.815747 0.067937
O O12 0.202247 0.965450 0.758412
O O13 0.881050 0.175554 0.425057
O O14 0.237656 0.883122 0.177807
O O15 0.768812 0.159769 0.394422
O O16 0.319454 0.938066 0.335553
O O17 0.591582 0.699616 0.919344
#
# Coordination Sequence:
#
# PCOD9092422 Si02
#       8
#     2   2   2   2   2   2   2   2
#     4  10  22  43  68  99 133 175 220 273 335 398
#     4  11  25  43  67 102 140 170 223 276 336 401
#     4  11  26  43  64  98 137 173 210 274 340 396
#     4  11  23  44  73  98 133 178 224 275 332 397
#     4  10  19  41  64  89 129 176 228 274 327 395
#     4   9  20  35  66  90 123 170 229 265 330 395
#     4  10  21  39  67  89 127 178 228 272 327 392
#     4  10  23  40  60  99 130 177 222 276 335 389
#
# _framework density 24.444095999999998
#
# number of rings (size 3 to 8) (size 9 to 14) (size 15 to 20)
#    0.000    1.750    1.250    1.875    3.500    4.500 
#    6.750    0.625    0.000    0.000    0.000    0.000 
#    0.000    0.000    0.000    0.000    0.000    0.000 
#
# Total GULP energy -89368.463185 kJ/mol
# GULP energy per Si atom -5585.528949 kJ/mol
# Density = 2.438846 g / cm^3
# Si number density = 24.444096 Si / 1000 Ang^3
#
#
#
# Elastic Constant Matrix: (Units=GPa)
#
#
# Indices 1 2 3 4 5 6 
#
# 1 184.8662 57.5022 52.4951 4.4341 41.4180 9.4058
# 2 57.5022 116.0493 36.4748 11.7653 21.7152 17.6937
# 3 52.4951 36.4748 90.3512 -12.1990 9.5480 9.3606
# 4 4.4341 11.7653 -12.1990 33.1140 7.0655 9.0000
# 5 41.4180 21.7152 9.5480 7.0655 46.0395 1.9357
# 6 9.4058 17.6937 9.3606 9.0000 1.9357 47.1944
#
#
#
# Elastic Compliance Matrix: (Units=1/GPa)
#
#
# Indices 1 2 3 4 5 6 
#
# 1 0.008298 -0.001881 -0.003535 -0.000540 -0.005766 0.000092
# 2 -0.001881 0.012007 -0.003814 -0.004232 -0.002427 -0.002464
# 3 -0.003535 -0.003814 0.016011 0.008343 0.000490 -0.002652
# 4 -0.000540 -0.004232 0.008343 0.037755 -0.004750 -0.006966
# 5 -0.005766 -0.002427 0.000490 -0.004750 0.028609 0.001694
# 6 0.000092 -0.002464 -0.002652 -0.006966 0.001694 0.023879
#
#
# Mechanical properties :
#
#
# Convention : Reuss Voigt Hill
#
# Bulk Modulus (GPa) = 56.00373 76.02342 66.01357
# Shear Modulus (GPa) = 33.11910 41.58923 37.35417
#
# Velocity S-wave (km/s) = 3.68488 4.12928 3.91339
# Velocity P-wave (km/s) = 6.40821 7.34187 6.89087
#
# Compressibility (1/GPa) = 0.01785595
#
# Stress axis : x y z
#
# Youngs Moduli (GPa) = 120.50543 83.28817 62.45701
#
# Poissons Ratio (x) = 0.15667 0.22080
# Poissons Ratio (y) = 0.22668 0.23819
# Poissons Ratio (z) = 0.42601 0.31764
#
# Static dielectric constant tensor:
#      x y z
#    x 2.041870 0.013200 0.006780 
#    y 0.013200 2.084550 -0.010140 
#    z 0.006780 -0.010140 2.011290 
# 
# From -- ./inp_files/113185.got.cif
#   From: 2010.05.17/outbox.cif.g08.bks.cpg/sg2_57_cif.got.tgz:113185.got - 2010.06.03 11:33:40.
