data_PCOD9092403
_publ_section_title
;
Structure prediction by ZEFSAII (Michael W. Deem and Ramdas Pophale) SiO2 
 PCOD9092403
Probable space group: P -1
;
_chemical_formula_sum "Si O2"
_cell_formula_units_Z 16
_cell_length_a 13.469595
_cell_length_b 13.401920
_cell_length_c 7.363583
_cell_angle_alpha 119.058086
_cell_angle_beta 51.041480
_cell_angle_gamma 86.862990
_cell_volume 766.311299
_symmetry_space_group_name_H-M "P -1"
_symmetry_group_IT_number 2
_symmetry_cell_setting 'triclinic'
loop_
_space_group_symop_operation_xyz
x,y,z
-x,-y,-z
loop_
_atom_site_type_symbol
_atom_site_label
_atom_site_fract_x
_atom_site_fract_y
_atom_site_fract_z
Si Si1 0.796937 0.873079 0.379122
Si Si2 0.681254 0.561233 0.800494
Si Si3 0.992702 0.426554 0.119653
Si Si4 0.560880 0.357294 0.400507
Si Si5 0.362051 0.662863 0.272352
Si Si6 0.821110 0.064067 0.794968
Si Si7 0.314471 0.302310 0.752353
Si Si8 0.165381 0.965994 0.820474
O O1 0.675867 0.829290 0.455279
O O2 0.810444 0.928612 0.219772
O O3 0.773057 0.980567 0.651242
O O4 0.951885 0.729876 0.115276
O O5 0.827867 0.507906 0.465181
O O6 0.704979 0.430907 0.772306
O O7 0.519175 0.611619 0.945637
O O8 0.647777 0.687087 0.074302
O O9 0.000000 0.500000 0.000000
O O10 0.133560 0.409287 0.057038
O O11 0.500000 0.500000 0.500000
O O12 0.606323 0.352192 0.557776
O O13 0.420748 0.335171 0.545308
O O14 0.710277 0.224740 0.030389
O O15 0.262928 0.818913 0.491882
O O16 0.000000 0.000000 0.500000
O O17 0.804359 0.041363 0.007010
O O18 0.000000 0.000000 0.000000
#
# Coordination Sequence:
#
# PCOD9092403 Si02
#       8
#     2   2   2   2   2   2   2   2
#     4  10  24  42  62  96 132 171 223 270 330 406
#     4  10  19  41  63  91 128 168 215 277 329 394
#     4  10  23  40  61  91 135 170 220 275 328 404
#     4  10  23  43  68  97 135 171 223 288 327 404
#     4   9  22  37  66  98 125 168 228 276 334 389
#     4  11  24  43  68 103 134 178 224 274 345 393
#     4   9  23  42  59  95 126 174 219 266 338 393
#     4  11  21  43  65  93 131 171 221 276 327 405
#
# _framework density 20.879241
#
# number of rings (size 3 to 8) (size 9 to 14) (size 15 to 20)
#    0.750    1.250    1.250    1.125    3.500    4.500 
#    6.750    5.625    0.000    0.000    0.000    0.000 
#    0.000    0.000    0.000    0.000    0.000    0.000 
#
# Total GULP energy -89109.236413 kJ/mol
# GULP energy per Si atom -5569.327276 kJ/mol
# Density = 2.083172 g / cm^3
# Si number density = 20.879241 Si / 1000 Ang^3
#
#
#
# Elastic Constant Matrix: (Units=GPa)
#
#
# Indices 1 2 3 4 5 6 
#
# 1 72.8852 35.9301 24.8654 2.7194 11.6011 19.2297
# 2 35.9301 134.1603 51.1760 10.0626 -8.7434 5.6183
# 3 24.8654 51.1760 134.8536 13.1860 -18.2987 8.9651
# 4 2.7194 10.0626 13.1860 37.4619 6.1036 -4.2153
# 5 11.6011 -8.7434 -18.2987 6.1036 36.0323 -0.2930
# 6 19.2297 5.6183 8.9651 -4.2153 -0.2930 39.4117
#
#
#
# Elastic Compliance Matrix: (Units=1/GPa)
#
#
# Indices 1 2 3 4 5 6 
#
# 1 0.020905 -0.004871 -0.002872 0.001391 -0.009678 -0.008775
# 2 -0.004871 0.009944 -0.002362 -0.001843 0.003105 0.001322
# 3 -0.002872 -0.002362 0.010107 -0.003816 0.006123 -0.000924
# 4 0.001391 -0.001843 -0.003816 0.030126 -0.007907 0.003615
# 5 -0.009678 0.003105 0.006123 -0.007907 0.036090 0.002309
# 6 -0.008775 0.001322 -0.000924 0.003615 0.002309 0.030080
#
#
# Mechanical properties :
#
#
# Convention : Reuss Voigt Hill
#
# Bulk Modulus (GPa) = 48.20118 62.87134 55.53626
# Shear Modulus (GPa) = 30.41770 37.90969 34.16369
#
# Velocity S-wave (km/s) = 3.82100 4.26568 4.04945
# Velocity P-wave (km/s) = 6.52706 7.37826 6.96567
#
# Compressibility (1/GPa) = 0.02074638
#
# Stress axis : x y z
#
# Youngs Moduli (GPa) = 47.83554 100.55836 98.94289
#
# Poissons Ratio (x) = 0.48979 0.28418
# Poissons Ratio (y) = 0.23299 0.23372
# Poissons Ratio (z) = 0.13739 0.23753
#
# Static dielectric constant tensor:
#      x y z
#    x 1.622820 -0.117400 0.118030 
#    y -0.117400 1.667120 0.071150 
#    z 0.118030 0.071150 1.747700 
# 
# From -- ./inp_files/305636.got.cif
#   From: 2010.05.17/outbox.cif.g08.bks.cpg/sg2_153_cif.got.tgz:305636.got - 2010.06.03 11:33:40.
