data_PCOD9092948
_publ_section_title
;
Structure prediction by ZEFSAII (Michael W. Deem and Ramdas Pophale) SiO2 
 PCOD9092948
Probable space group: P -1
;
_chemical_formula_sum "Si O2"
_cell_formula_units_Z 16
_cell_length_a 11.103097
_cell_length_b 15.578419
_cell_length_c 6.452671
_cell_angle_alpha 50.132271
_cell_angle_beta 98.198679
_cell_angle_gamma 120.695816
_cell_volume 707.211632
_symmetry_space_group_name_H-M "P -1"
_symmetry_group_IT_number 2
_symmetry_cell_setting 'triclinic'
loop_
_space_group_symop_operation_xyz
x,y,z
-x,-y,-z
loop_
_atom_site_type_symbol
_atom_site_label
_atom_site_fract_x
_atom_site_fract_y
_atom_site_fract_z
Si Si1 0.339275 0.381559 0.586879
Si Si2 0.848311 0.830327 0.444028
Si Si3 0.099180 0.902108 0.127332
Si Si4 0.601406 0.974606 0.844896
Si Si5 0.441591 0.800272 0.463143
Si Si6 0.931333 0.640579 0.285219
Si Si7 0.893579 0.444231 0.255135
Si Si8 0.318768 0.170303 0.231520
O O1 0.500000 0.500000 0.500000
O O2 0.286894 0.311351 0.457465
O O3 0.225951 0.422077 0.552343
O O4 0.321635 0.268457 0.911710
O O5 0.819242 0.865667 0.606791
O O6 0.995767 0.840039 0.400720
O O7 0.861186 0.949300 0.126654
O O8 0.254223 0.922057 0.147889
O O9 0.008204 0.799787 0.078589
O O10 0.538480 0.064796 0.644053
O O11 0.665324 0.935502 0.731857
O O12 0.496160 0.847422 0.165071
O O13 0.275500 0.673816 0.637605
O O14 0.548605 0.772894 0.658599
O O15 0.904888 0.571980 0.164679
O O16 0.034765 0.609764 0.487455
O O17 0.000000 0.500000 0.000000
#
# Coordination Sequence:
#
# PCOD9092948 Si02
#       8
#     2   2   2   2   2   2   2   2
#     4  11  26  44  68  95 137 180 218 279 339 395
#     4  10  23  42  66 100 131 176 218 274 337 398
#     4  10  19  45  67  92 140 167 217 277 335 397
#     4  11  23  44  69 101 135 178 218 285 343 383
#     4  11  25  44  69 100 136 175 227 278 335 407
#     4  10  25  45  66  96 131 180 217 274 340 384
#     4  11  26  45  69  96 131 178 229 277 326 403
#     4  12  24  41  68 104 132 173 227 269 335 406
#
# _framework density 22.624061999999999
#
# number of rings (size 3 to 8) (size 9 to 14) (size 15 to 20)
#    0.000    1.250    3.750    0.375    5.250    5.000 
#    0.000    0.000    0.000    0.000    0.000    0.000 
#    0.000    0.000    0.000    0.000    0.000    0.000 
#
# Total GULP energy -89278.640790 kJ/mol
# GULP energy per Si atom -5579.915049 kJ/mol
# Density = 2.257257 g / cm^3
# Si number density = 22.624062 Si / 1000 Ang^3
#
#
#
# Elastic Constant Matrix: (Units=GPa)
#
#
# Indices 1 2 3 4 5 6 
#
# 1 90.6558 33.5538 10.7470 0.5758 -15.0995 0.7237
# 2 33.5538 113.3559 35.8705 -3.7681 -42.5755 -11.0473
# 3 10.7470 35.8705 45.8309 3.8091 -19.1147 1.0859
# 4 0.5758 -3.7681 3.8091 19.3373 0.2933 -14.1828
# 5 -15.0995 -42.5755 -19.1147 0.2933 39.8283 8.1798
# 6 0.7237 -11.0473 1.0859 -14.1828 8.1798 49.1301
#
#
#
# Elastic Compliance Matrix: (Units=1/GPa)
#
#
# Indices 1 2 3 4 5 6 
#
# 1 0.012609 -0.003673 0.000950 -0.002892 0.001775 -0.002163
# 2 -0.003673 0.018327 -0.008959 0.008738 0.012859 0.004755
# 3 0.000950 -0.008959 0.033720 -0.014794 0.008824 -0.008514
# 4 -0.002892 0.008738 -0.014794 0.074517 -0.004455 0.024588
# 5 0.001775 0.012859 0.008824 -0.004455 0.045050 -0.006116
# 6 -0.002163 0.004755 -0.008514 0.024588 -0.006116 0.029760
#
#
# Mechanical properties :
#
#
# Convention : Reuss Voigt Hill
#
# Bulk Modulus (GPa) = 24.21755 45.57615 34.89685
# Shear Modulus (GPa) = 19.91150 32.97057 26.44103
#
# Velocity S-wave (km/s) = 2.96987 3.82163 3.42235
# Velocity P-wave (km/s) = 4.74212 6.29777 5.57448
#
# Compressibility (1/GPa) = 0.04129238
#
# Stress axis : x y z
#
# Youngs Moduli (GPa) = 79.30895 54.56308 29.65608
#
# Poissons Ratio (x) = 0.20042 -0.02818
# Poissons Ratio (y) = 0.29131 0.26569
# Poissons Ratio (z) = -0.07535 0.48883
#
# Static dielectric constant tensor:
#      x y z
#    x 1.868440 -0.032520 -0.014210 
#    y -0.032520 1.878520 0.012940 
#    z -0.014210 0.012940 1.849670 
# 
# From -- ./inp_files/77183.got.cif
#   From: 2010.05.17/outbox.cif.g08.bks.cpg/sg2_39_cif.got.tgz:77183.got - 2010.06.03 11:33:40.
