data_PCOD9092177
_publ_section_title
;
Structure prediction by ZEFSAII (Michael W. Deem and Ramdas Pophale) SiO2 
 PCOD9092177
Probable space group: P -1
;
_chemical_formula_sum "Si O2"
_cell_formula_units_Z 16
_cell_length_a 12.687416
_cell_length_b 12.197508
_cell_length_c 12.961141
_cell_angle_alpha 111.279905
_cell_angle_beta 37.264931
_cell_angle_gamma 81.154302
_cell_volume 701.863267
_symmetry_space_group_name_H-M "P -1"
_symmetry_group_IT_number 2
_symmetry_cell_setting 'triclinic'
loop_
_space_group_symop_operation_xyz
x,y,z
-x,-y,-z
loop_
_atom_site_type_symbol
_atom_site_label
_atom_site_fract_x
_atom_site_fract_y
_atom_site_fract_z
Si Si1 0.535036 0.833268 0.986026
Si Si2 0.579710 0.165537 0.272517
Si Si3 0.438508 0.801369 0.261915
Si Si4 0.804593 0.140906 0.884484
Si Si5 0.806363 0.489502 0.171733
Si Si6 0.718153 0.863182 0.189883
Si Si7 0.653786 0.461960 0.062758
Si Si8 0.803868 0.760872 0.557686
O O1 0.568802 0.732088 0.022922
O O2 0.279399 0.922270 0.144533
O O3 0.432387 0.011743 0.173604
O O4 0.788128 0.714302 0.668184
O O5 0.476086 0.311124 0.489272
O O6 0.307350 0.270631 0.452938
O O7 0.700502 0.984836 0.170385
O O8 0.774967 0.121342 0.019802
O O9 0.617972 0.797045 0.188503
O O10 0.428073 0.677022 0.275991
O O11 0.120073 0.014645 0.575796
O O12 0.593327 0.357180 0.089592
O O13 0.758469 0.447974 0.088604
O O14 0.000000 0.500000 0.000000
O O15 0.978091 0.318861 0.059824
O O16 0.500000 0.000000 0.500000
O O17 0.902339 0.345918 0.746075
#
# Coordination Sequence:
#
# PCOD9092177 Si02
#       8
#     2   2   2   2   2   2   2   2
#     4  10  22  40  65  93 123 166 210 255 307 364
#     4  11  22  41  65  94 125 165 205 258 311 365
#     4  12  23  40  65  94 124 167 211 247 312 379
#     4  11  26  43  60  90 138 167 199 252 315 373
#     4  12  22  40  67  96 120 158 212 261 309 361
#     4  12  21  38  69  93 118 159 214 262 304 361
#     4  12  24  42  66  92 128 166 206 257 314 371
#     4  10  19  40  67  91 123 160 211 266 303 351
#
# _framework density 22.796465000000001
#
# number of rings (size 3 to 8) (size 9 to 14) (size 15 to 20)
#    0.000    0.750    6.250    1.125    0.000    2.500 
#    0.000    4.375    0.000    0.000    0.000    0.000 
#    0.000    0.000    0.000    0.000    0.000    0.000 
#
# Total GULP energy -89503.175162 kJ/mol
# GULP energy per Si atom -5593.948448 kJ/mol
# Density = 2.274458 g / cm^3
# Si number density = 22.796465 Si / 1000 Ang^3
#
#
#
# Elastic Constant Matrix: (Units=GPa)
#
#
# Indices 1 2 3 4 5 6 
#
# 1 62.2026 11.1129 17.1551 -8.1317 24.0470 -9.6194
# 2 11.1129 144.5164 27.3097 -3.2752 13.2357 -22.3882
# 3 17.1551 27.3097 50.9955 -7.3209 20.0560 -10.8368
# 4 -8.1317 -3.2752 -7.3209 37.5757 -7.4190 6.4924
# 5 24.0470 13.2357 20.0560 -7.4190 22.5676 -6.4002
# 6 -9.6194 -22.3882 -10.8368 6.4924 -6.4002 26.2999
#
#
#
# Elastic Compliance Matrix: (Units=1/GPa)
#
#
# Indices 1 2 3 4 5 6 
#
# 1 0.028218 0.000819 0.003930 -0.000354 -0.032813 0.004740
# 2 0.000819 0.008512 -0.002955 -0.001084 -0.001852 0.006145
# 3 0.003930 -0.002955 0.032822 0.000162 -0.030132 0.005073
# 4 -0.000354 -0.001084 0.000162 0.029253 0.008763 -0.006074
# 5 -0.032813 -0.001852 -0.030132 0.008763 0.109599 -0.001486
# 6 0.004740 0.006145 0.005073 -0.006074 -0.001486 0.048216
#
#
# Mechanical properties :
#
#
# Convention : Reuss Voigt Hill
#
# Bulk Modulus (GPa) = 13.67248 40.98556 27.32902
# Shear Modulus (GPa) = 18.02367 30.76445 24.39406
#
# Velocity S-wave (km/s) = 2.81487 3.67758 3.27476
# Velocity P-wave (km/s) = 4.07128 6.00422 5.12962
#
# Compressibility (1/GPa) = 0.07313963
#
# Stress axis : x y z
#
# Youngs Moduli (GPa) = 35.43803 117.47930 30.46743
#
# Poissons Ratio (x) = -0.09620 -0.11974
# Poissons Ratio (y) = -0.02902 0.09005
# Poissons Ratio (z) = -0.13928 0.34720
#
# Static dielectric constant tensor:
#      x y z
#    x 1.802130 -0.002380 0.002260 
#    y -0.002380 1.898620 0.004580 
#    z 0.002260 0.004580 1.823200 
# 
# From -- ./inp_files/306239.got.cif
#   From: 2010.05.17/outbox.cif.g08.bks.cpg/sg2_154_cif.got.tgz:306239.got - 2010.06.03 11:33:40.
