data_PCOD9092540
_publ_section_title
;
Structure prediction by ZEFSAII (Michael W. Deem and Ramdas Pophale) SiO2 
 PCOD9092540
Probable space group: P -1
;
_chemical_formula_sum "Si O2"
_cell_formula_units_Z 14
_cell_length_a 15.832534
_cell_length_b 9.478170
_cell_length_c 7.021157
_cell_angle_alpha 126.416375
_cell_angle_beta 102.840694
_cell_angle_gamma 45.511747
_cell_volume 569.372490
_symmetry_space_group_name_H-M "P -1"
_symmetry_group_IT_number 2
_symmetry_cell_setting 'triclinic'
loop_
_space_group_symop_operation_xyz
x,y,z
-x,-y,-z
loop_
_atom_site_type_symbol
_atom_site_label
_atom_site_fract_x
_atom_site_fract_y
_atom_site_fract_z
Si Si1 0.895991 0.557504 0.369205
Si Si2 0.987260 0.232773 0.810559
Si Si3 0.615972 0.062909 0.701321
Si Si4 0.178545 0.844131 0.310293
Si Si5 0.464490 0.427853 0.248444
Si Si6 0.834685 0.244918 0.197566
Si Si7 0.436475 0.249524 0.419915
O O1 0.763540 0.850357 0.563021
O O2 0.874582 0.388723 0.299440
O O3 0.000000 0.500000 0.500000
O O4 0.938186 0.465293 0.097598
O O5 0.438989 0.722324 0.999004
O O6 0.867993 0.282674 0.745494
O O7 0.075082 0.991447 0.805681
O O8 0.586465 0.914535 0.656020
O O9 0.540064 0.176871 0.557095
O O10 0.322463 0.665119 0.294452
O O11 0.076593 0.119114 0.581006
O O12 0.166861 0.847985 0.081262
O O13 0.500000 0.500000 0.500000
O O14 0.468235 0.235738 0.206196
O O15 0.694439 0.458109 0.376741
#
# Coordination Sequence:
#
# PCOD9092540 Si02
#       7
#     2   2   2   2   2   2   2
#     4  10  22  38  61  91 126 156 195 261 313 359
#     4  10  21  39  66  87 118 166 210 249 298 367
#     4  10  23  43  65  88 124 168 211 247 311 378
#     4  10  20  37  62  91 118 155 212 253 293 365
#     4  12  25  40  62  96 130 158 207 267 313 357
#     4  10  19  41  68  89 114 166 214 247 301 364
#     4  10  21  42  67  89 121 168 210 254 302 377
#
# _framework density 24.588473
#
# number of rings (size 3 to 8) (size 9 to 14) (size 15 to 20)
#    0.000    1.714    2.857    2.143    4.000    0.571 
#    5.143    0.000    0.000   14.571    0.000    0.000 
#    0.000    0.000    0.000    0.000    0.000    0.000 
#
# Total GULP energy -78435.664273 kJ/mol
# GULP energy per Si atom -5602.547448 kJ/mol
# Density = 2.453251 g / cm^3
# Si number density = 24.588473 Si / 1000 Ang^3
#
#
#
# Elastic Constant Matrix: (Units=GPa)
#
#
# Indices 1 2 3 4 5 6 
#
# 1 91.2240 49.8170 64.0257 1.4203 -7.7536 -19.4314
# 2 49.8170 141.9339 65.6419 -2.3052 -1.2671 -38.8115
# 3 64.0257 65.6419 189.5259 12.3788 -14.8227 -43.3494
# 4 1.4203 -2.3052 12.3788 39.7324 -4.6135 -0.4370
# 5 -7.7536 -1.2671 -14.8227 -4.6135 54.4704 0.4001
# 6 -19.4314 -38.8115 -43.3494 -0.4370 0.4001 58.4432
#
#
#
# Elastic Compliance Matrix: (Units=1/GPa)
#
#
# Indices 1 2 3 4 5 6 
#
# 1 0.015906 -0.003736 -0.004083 0.000614 0.001120 -0.000224
# 2 -0.003736 0.010249 -0.001365 0.001134 -0.000602 0.004564
# 3 -0.004083 -0.001365 0.008268 -0.002303 0.001414 0.003842
# 4 0.000614 0.001134 -0.002303 0.026121 0.001704 -0.000567
# 5 0.001120 -0.000602 0.001414 0.001704 0.019026 0.000903
# 6 -0.000224 0.004564 0.003842 -0.000567 0.000903 0.022907
#
#
# Mechanical properties :
#
#
# Convention : Reuss Voigt Hill
#
# Bulk Modulus (GPa) = 62.28430 86.85032 74.56731
# Shear Modulus (GPa) = 39.62074 46.74249 43.18162
#
# Velocity S-wave (km/s) = 4.01852 4.36477 4.19522
# Velocity P-wave (km/s) = 6.84960 7.79742 7.33883
#
# Compressibility (1/GPa) = 0.01605541
#
# Stress axis : x y z
#
# Youngs Moduli (GPa) = 62.87036 97.56942 120.94556
#
# Poissons Ratio (x) = 0.36448 0.49386
# Poissons Ratio (y) = 0.23486 0.16508
# Poissons Ratio (z) = 0.25672 0.13318
#
# Static dielectric constant tensor:
#      x y z
#    x 2.039370 0.044190 0.032220 
#    y 0.044190 1.893360 0.041170 
#    z 0.032220 0.041170 1.925710 
# 
# From -- ./inp_files/333809.got.cif
#   From: 2010.05.17/outbox.cif.g08.bks.cpg/sg2_167_cif.got.tgz:333809.got - 2010.06.03 11:33:40.
