data_PCOD9092695
_publ_section_title
;
Structure prediction by ZEFSAII (Michael W. Deem and Ramdas Pophale) SiO2 
 PCOD9092695
Probable space group: P -1
;
_chemical_formula_sum "Si O2"
_cell_formula_units_Z 15
_cell_length_a 9.147711
_cell_length_b 18.616613
_cell_length_c 8.645308
_cell_angle_alpha 54.652686
_cell_angle_beta 45.817927
_cell_angle_gamma 38.936880
_cell_volume 661.375396
_symmetry_space_group_name_H-M "P -1"
_symmetry_group_IT_number 2
_symmetry_cell_setting 'triclinic'
loop_
_space_group_symop_operation_xyz
x,y,z
-x,-y,-z
loop_
_atom_site_type_symbol
_atom_site_label
_atom_site_fract_x
_atom_site_fract_y
_atom_site_fract_z
Si Si1 0.596131 0.319085 0.430176
Si Si2 0.275520 0.426000 0.979004
Si Si3 0.752115 0.492325 0.780156
Si Si4 0.500000 0.500000 0.500000
Si Si5 0.223602 0.815830 0.060464
Si Si6 0.614168 0.101251 0.709148
Si Si7 0.923157 0.997486 0.299185
Si Si8 0.014476 0.246729 0.942844
O O1 0.328788 0.429527 0.406058
O O2 0.603405 0.374578 0.510977
O O3 0.599820 0.212693 0.578414
O O4 0.834764 0.275792 0.189192
O O5 0.417229 0.475066 0.753851
O O6 0.477992 0.290026 0.978964
O O7 0.215441 0.450698 0.172786
O O8 0.000000 0.500000 0.000000
O O9 0.500000 0.500000 0.000000
O O10 0.984044 0.357001 0.776192
O O11 0.221201 0.902496 0.845480
O O12 0.036942 0.884113 0.260396
O O13 0.104930 0.774390 0.086651
O O14 0.742270 0.033150 0.537993
O O15 0.319590 0.146221 0.882923
O O16 0.817962 0.024720 0.793019
#
# Coordination Sequence:
#
# PCOD9092695 Si02
#       8
#     2   2   2   1   2   2   2   2
#     4  11  22  43  64  97 142 174 214 276 330 403
#     4  12  25  43  67 101 134 174 215 276 335 402
#     4  10  19  42  64  92 140 172 210 260 344 403
#     4  12  24  38  66 102 134 170 220 270 324 402
#     4  11  22  47  68  93 142 175 213 285 329 388
#     4  11  24  43  70  99 124 176 232 273 321 393
#     4  10  24  44  69  97 131 176 230 274 326 382
#     4  11  22  41  70  93 134 177 216 268 339 389
#
# _framework density 22.680008000000001
#
# number of rings (size 3 to 8) (size 9 to 14) (size 15 to 20)
#    0.000    1.067    6.667    0.800    3.733    1.600 
#    7.200    0.000    0.000    0.000    0.000    0.000 
#    0.000    0.000    0.000    0.000    0.000    0.000 
#
# Total GULP energy -83614.040217 kJ/mol
# GULP energy per Si atom -5574.269348 kJ/mol
# Density = 2.262839 g / cm^3
# Si number density = 22.680008 Si / 1000 Ang^3
#
#
#
# Elastic Constant Matrix: (Units=GPa)
#
#
# Indices 1 2 3 4 5 6 
#
# 1 72.8087 46.6714 37.6178 28.5774 9.8617 0.9689
# 2 46.6714 125.0830 29.0411 11.7137 7.3536 0.3912
# 3 37.6178 29.0411 70.2699 15.1913 5.9054 6.5036
# 4 28.5774 11.7137 15.1913 41.2294 5.5392 13.7952
# 5 9.8617 7.3536 5.9054 5.5392 24.0964 8.8683
# 6 0.9689 0.3912 6.5036 13.7952 8.8683 57.5154
#
#
#
# Elastic Compliance Matrix: (Units=1/GPa)
#
#
# Indices 1 2 3 4 5 6 
#
# 1 0.030843 -0.007303 -0.009879 -0.016708 -0.006197 0.005610
# 2 -0.007303 0.010743 -0.001011 0.002575 -0.000495 -0.000377
# 3 -0.009879 -0.001011 0.020027 0.000482 0.000154 -0.002230
# 4 -0.016708 0.002575 0.000482 0.037850 0.000527 -0.008950
# 5 -0.006197 -0.000495 0.000154 0.000527 0.046691 -0.007235
# 6 0.005610 -0.000377 -0.002230 -0.008950 -0.007235 0.020809
#
#
# Mechanical properties :
#
#
# Convention : Reuss Voigt Hill
#
# Bulk Modulus (GPa) = 39.64039 54.98025 47.31032
# Shear Modulus (GPa) = 23.61180 34.89033 29.25106
#
# Velocity S-wave (km/s) = 3.23008 3.92647 3.59518
# Velocity P-wave (km/s) = 5.60601 6.69705 6.17567
#
# Compressibility (1/GPa) = 0.02522679
#
# Stress axis : x y z
#
# Youngs Moduli (GPa) = 32.42252 93.08013 49.93335
#
# Poissons Ratio (x) = 0.67976 0.49331
# Poissons Ratio (y) = 0.23678 0.05046
# Poissons Ratio (z) = 0.32032 0.09407
#
# Static dielectric constant tensor:
#      x y z
#    x 1.860740 -0.001850 -0.011690 
#    y -0.001850 1.918950 -0.007420 
#    z -0.011690 -0.007420 1.838150 
# 
# From -- ./inp_files/214657.got.cif
#   From: 2010.05.17/outbox.cif.g08.bks.cpg/sg2_108_cif.got.tgz:214657.got - 2010.06.03 11:33:40.
