data_PCOD9092042
_publ_section_title
;
Structure prediction by ZEFSAII (Michael W. Deem and Ramdas Pophale) SiO2 
 PCOD9092042
Probable space group: P -1
;
_chemical_formula_sum "Si O2"
_cell_formula_units_Z 14
_cell_length_a 8.098776
_cell_length_b 9.335984
_cell_length_c 11.366743
_cell_angle_alpha 120.067591
_cell_angle_beta 56.960400
_cell_angle_gamma 105.006184
_cell_volume 623.393945
_symmetry_space_group_name_H-M "P -1"
_symmetry_group_IT_number 2
_symmetry_cell_setting 'triclinic'
loop_
_space_group_symop_operation_xyz
x,y,z
-x,-y,-z
loop_
_atom_site_type_symbol
_atom_site_label
_atom_site_fract_x
_atom_site_fract_y
_atom_site_fract_z
Si Si1 0.347887 0.061183 0.985164
Si Si2 0.377880 0.655259 0.063482
Si Si3 0.791521 0.704758 0.680416
Si Si4 0.848748 0.350480 0.636951
Si Si5 0.203639 0.491467 0.845616
Si Si6 0.625709 0.268119 0.284299
Si Si7 0.500104 0.801659 0.429465
O O1 0.480100 0.190060 0.915534
O O2 0.285268 0.907104 0.868937
O O3 0.191798 0.158975 0.166791
O O4 0.500000 0.000000 0.000000
O O5 0.176168 0.662953 0.219132
O O6 0.500000 0.500000 0.000000
O O7 0.334100 0.610413 0.928009
O O8 0.823990 0.533829 0.668031
O O9 0.585067 0.707657 0.690970
O O10 0.956039 0.725409 0.526351
O O11 0.660647 0.256567 0.624290
O O12 0.228903 0.584559 0.748750
O O13 0.302324 0.308536 0.720413
O O14 0.000000 0.500000 0.000000
O O15 0.577004 0.253895 0.434706
O O16 0.500000 0.000000 0.500000
#
# Coordination Sequence:
#
# PCOD9092042 Si02
#       7
#     2   2   2   2   2   2   2
#     4  10  19  40  65  91 122 165 214 261 319 372
#     4  12  20  42  68  91 130 167 215 269 317 384
#     4  10  21  40  67  96 123 166 222 266 317 389
#     4  11  23  38  66  99 127 166 217 266 325 378
#     4  12  27  44  67  98 131 178 221 265 331 399
#     4  11  23  45  69  90 134 175 216 273 328 392
#     4  12  26  46  64  98 140 173 213 274 335 391
#
# _framework density 22.457708
#
# number of rings (size 3 to 8) (size 9 to 14) (size 15 to 20)
#    0.000    0.857    7.143    1.286    2.000    2.286 
#    0.000    5.000    0.000    0.000    0.000    0.000 
#    0.000    0.000    0.000    0.000    0.000    0.000 
#
# Total GULP energy -78210.943629 kJ/mol
# GULP energy per Si atom -5586.495974 kJ/mol
# Density = 2.240659 g / cm^3
# Si number density = 22.457708 Si / 1000 Ang^3
#
#
#
# Elastic Constant Matrix: (Units=GPa)
#
#
# Indices 1 2 3 4 5 6 
#
# 1 24.7525 9.9187 16.1574 -4.6125 -0.9119 -4.1784
# 2 9.9187 128.2732 65.7089 -0.2763 -21.8138 -7.7921
# 3 16.1574 65.7089 188.2439 -16.0246 -17.2036 -2.9174
# 4 -4.6125 -0.2763 -16.0246 49.7039 -0.1980 11.7394
# 5 -0.9119 -21.8138 -17.2036 -0.1980 35.8153 -8.5369
# 6 -4.1784 -7.7921 -2.9174 11.7394 -8.5369 12.2158
#
#
#
# Elastic Compliance Matrix: (Units=1/GPa)
#
#
# Indices 1 2 3 4 5 6 
#
# 1 0.045697 0.000040 -0.003382 -0.001310 0.004075 0.018955
# 2 0.000040 0.012746 -0.003643 -0.005913 0.010882 0.020561
# 3 -0.003382 -0.003643 0.007058 0.003067 -0.000033 -0.004765
# 4 -0.001310 -0.005913 0.003067 0.030631 -0.011807 -0.041175
# 5 0.004075 0.010882 -0.000033 -0.011807 0.047108 0.052595
# 6 0.018955 0.020561 -0.004765 -0.041175 0.052595 0.176648
#
#
# Mechanical properties :
#
#
# Convention : Reuss Voigt Hill
#
# Bulk Modulus (GPa) = 19.40510 58.31551 38.86031
# Shear Modulus (GPa) = 14.24364 36.17930 25.21147
#
# Velocity S-wave (km/s) = 2.52115 4.01808 3.35419
# Velocity P-wave (km/s) = 4.13937 6.89563 5.68701
#
# Compressibility (1/GPa) = 0.05153284
#
# Stress axis : x y z
#
# Youngs Moduli (GPa) = 21.88328 78.45837 141.67901
#
# Poissons Ratio (x) = -0.00317 0.47912
# Poissons Ratio (y) = -0.00088 0.51608
# Poissons Ratio (z) = 0.07400 0.28579
#
# Static dielectric constant tensor:
#      x y z
#    x 1.846690 0.000410 0.037450 
#    y 0.000410 1.875430 0.030980 
#    z 0.037450 0.030980 1.934620 
# 
# From -- ./inp_files/184881.got.cif
#   From: 2010.05.17/outbox.cif.g08.bks.cpg/sg2_93_cif.got.tgz:184881.got - 2010.06.03 11:33:40.
