data_PCOD9092644
_publ_section_title
;
Structure prediction by ZEFSAII (Michael W. Deem and Ramdas Pophale) SiO2 
 PCOD9092644
Probable space group: P -1
;
_chemical_formula_sum "Si O2"
_cell_formula_units_Z 14
_cell_length_a 8.329285
_cell_length_b 11.446473
_cell_length_c 7.571362
_cell_angle_alpha 81.349358
_cell_angle_beta 74.562644
_cell_angle_gamma 121.496652
_cell_volume 555.286865
_symmetry_space_group_name_H-M "P -1"
_symmetry_group_IT_number 2
_symmetry_cell_setting 'triclinic'
loop_
_space_group_symop_operation_xyz
x,y,z
-x,-y,-z
loop_
_atom_site_type_symbol
_atom_site_label
_atom_site_fract_x
_atom_site_fract_y
_atom_site_fract_z
Si Si1 0.340573 0.397507 0.417548
Si Si2 0.102406 0.855764 0.420985
Si Si3 0.616446 0.842331 0.610618
Si Si4 0.832837 0.230049 0.218717
Si Si5 0.203050 0.027701 0.859220
Si Si6 0.882343 0.484208 0.725976
Si Si7 0.399109 0.835006 0.122780
O O1 0.500000 0.500000 0.500000
O O2 0.419855 0.311701 0.317737
O O3 0.282639 0.485293 0.293654
O O4 0.112625 0.259623 0.584399
O O5 0.073997 0.816389 0.643466
O O6 0.266581 0.824785 0.329315
O O7 0.213697 0.028461 0.337577
O O8 0.406946 0.830704 0.684288
O O9 0.714418 0.902273 0.374681
O O10 0.965294 0.399905 0.196864
O O11 0.833402 0.130986 0.087051
O O12 0.397968 0.150997 0.889164
O O13 0.000000 0.000000 0.000000
O O14 0.760965 0.322114 0.881792
O O15 0.000000 0.500000 0.500000
O O16 0.500000 0.000000 0.000000
#
# Coordination Sequence:
#
# PCOD9092644 Si02
#       7
#     2   2   2   2   2   2   2
#     4  11  22  33  62 102 128 160 216 283 319 371
#     4  10  20  39  64  95 128 171 221 265 322 389
#     4  11  20  39  68  99 127 165 230 277 319 391
#     4  10  19  41  72  95 125 174 226 279 322 386
#     4  11  23  40  63  98 136 174 218 273 333 394
#     4  11  21  42  68  97 130 170 226 273 327 392
#     4  12  24  42  65  93 136 176 212 268 338 400
#
# _framework density 25.212194
#
# number of rings (size 3 to 8) (size 9 to 14) (size 15 to 20)
#    0.000    1.143    5.714    3.000    2.000    0.000 
#    0.000    1.429    3.143    0.000    0.000    0.000 
#    0.000    0.000    0.000    0.000    0.000    0.000 
#
# Total GULP energy -78065.805749 kJ/mol
# GULP energy per Si atom -5576.128982 kJ/mol
# Density = 2.515481 g / cm^3
# Si number density = 25.212194 Si / 1000 Ang^3
#
#
#
# Elastic Constant Matrix: (Units=GPa)
#
#
# Indices 1 2 3 4 5 6 
#
# 1 138.5563 73.3779 23.8527 -6.6333 -39.7664 4.5201
# 2 73.3779 236.0464 37.8255 -26.7146 -14.8625 21.2842
# 3 23.8527 37.8255 63.8011 -8.6331 -10.8586 -1.1197
# 4 -6.6333 -26.7146 -8.6331 29.4074 -10.8566 0.3338
# 5 -39.7664 -14.8625 -10.8586 -10.8566 36.2717 -1.5683
# 6 4.5201 21.2842 -1.1197 0.3338 -1.5683 66.4851
#
#
#
# Elastic Compliance Matrix: (Units=1/GPa)
#
#
# Indices 1 2 3 4 5 6 
#
# 1 0.013253 -0.002428 0.000005 0.006502 0.015491 0.000209
# 2 -0.002428 0.006017 -0.001996 0.004532 0.000484 -0.001806
# 3 0.000005 -0.001996 0.018859 0.006199 0.006736 0.001084
# 4 0.006502 0.004532 0.006199 0.051045 0.026058 -0.001430
# 5 0.015491 0.000484 0.006736 0.026058 0.054571 0.000062
# 6 0.000209 -0.001806 0.001084 -0.001430 0.000062 0.015632
#
#
# Mechanical properties :
#
#
# Convention : Reuss Voigt Hill
#
# Bulk Modulus (GPa) = 34.13947 78.72399 56.43173
# Shear Modulus (GPa) = 28.09317 46.65602 37.37459
#
# Velocity S-wave (km/s) = 3.34169 4.30645 3.85437
# Velocity P-wave (km/s) = 5.33474 7.48463 6.49920
#
# Compressibility (1/GPa) = 0.02929161
#
# Stress axis : x y z
#
# Youngs Moduli (GPa) = 75.45459 166.18479 53.02420
#
# Poissons Ratio (x) = 0.40354 -0.00026
# Poissons Ratio (y) = 0.18322 0.10582
# Poissons Ratio (z) = -0.00037 0.33165
#
# Static dielectric constant tensor:
#      x y z
#    x 2.077650 -0.017940 0.113730 
#    y -0.017940 2.062460 -0.000430 
#    z 0.113730 -0.000430 2.144580 
# 
# From -- ./inp_files/177578.got.cif
#   From: 2010.05.17/outbox.cif.g08.bks.cpg/sg2_89_cif.got.tgz:177578.got - 2010.06.03 11:33:40.
