data_PCOD9092165
_publ_section_title
;
Structure prediction by ZEFSAII (Michael W. Deem and Ramdas Pophale) SiO2 
 PCOD9092165
Probable space group: P -1
;
_chemical_formula_sum "Si O2"
_cell_formula_units_Z 12
_cell_length_a 9.993542
_cell_length_b 10.986733
_cell_length_c 12.997459
_cell_angle_alpha 36.634235
_cell_angle_beta 138.268520
_cell_angle_gamma 123.420715
_cell_volume 562.653597
_symmetry_space_group_name_H-M "P -1"
_symmetry_group_IT_number 2
_symmetry_cell_setting 'triclinic'
loop_
_space_group_symop_operation_xyz
x,y,z
-x,-y,-z
loop_
_atom_site_type_symbol
_atom_site_label
_atom_site_fract_x
_atom_site_fract_y
_atom_site_fract_z
Si Si1 0.904515 0.500488 0.669035
Si Si2 0.358578 0.900071 0.562239
Si Si3 0.633860 0.455257 0.352204
Si Si4 0.939976 0.984827 0.356930
Si Si5 0.641613 0.659606 0.024356
Si Si6 0.200869 0.586858 0.099218
O O1 0.778967 0.428376 0.550420
O O2 0.892202 0.749241 0.480466
O O3 0.815416 0.439090 0.769236
O O4 0.137823 0.396653 0.861544
O O5 0.307374 0.709432 0.592032
O O6 0.144954 0.011355 0.395281
O O7 0.500000 0.000000 0.500000
O O8 0.502410 0.861794 0.770305
O O9 0.654398 0.654847 0.157980
O O10 0.403924 0.460978 0.254845
O O11 0.000000 0.000000 0.500000
O O12 0.793612 0.179661 0.098023
O O13 0.500000 0.500000 0.000000
O O14 0.000000 0.500000 0.000000
#
# Coordination Sequence:
#
# PCOD9092165 Si02
#       6
#     2   2   2   2   2   2
#     4  12  24  43  67  97 134 167 214 273 327 375
#     4  11  23  42  67  97 126 170 224 260 313 394
#     4  11  24  43  66  95 132 168 211 274 328 368
#     4  12  24  41  69  96 127 173 220 261 318 389
#     4  10  19  40  67  89 121 171 213 254 315 383
#     4  12  24  44  67  94 132 173 218 262 319 393
#
# _framework density 21.327508999999999
#
# number of rings (size 3 to 8) (size 9 to 14) (size 15 to 20)
#    0.000    0.667    5.000    6.000    0.000    0.667 
#    3.000    1.667    0.000    0.000    0.000    0.000 
#    0.000    0.000    0.000    0.000    0.000    0.000 
#
# Total GULP energy -66899.207712 kJ/mol
# GULP energy per Si atom -5574.933976 kJ/mol
# Density = 2.127897 g / cm^3
# Si number density = 21.327509 Si / 1000 Ang^3
#
#
#
# Elastic Constant Matrix: (Units=GPa)
#
#
# Indices 1 2 3 4 5 6 
#
# 1 101.8707 -8.3684 -0.3303 11.4723 -1.0145 -13.7196
# 2 -8.3684 35.3860 13.8993 8.0543 -0.6013 -8.8530
# 3 -0.3303 13.8993 60.6961 13.9500 -10.8868 -12.7132
# 4 11.4723 8.0543 13.9500 30.7572 -3.1390 -11.9551
# 5 -1.0145 -0.6013 -10.8868 -3.1390 56.8770 3.0456
# 6 -13.7196 -8.8530 -12.7132 -11.9551 3.0456 24.9626
#
#
#
# Elastic Compliance Matrix: (Units=1/GPa)
#
#
# Indices 1 2 3 4 5 6 
#
# 1 0.011542 0.004786 0.001205 -0.003373 -0.000077 0.007048
# 2 0.004786 0.035004 -0.004946 -0.004806 -0.001312 0.010384
# 3 0.001205 -0.004946 0.020874 -0.005816 0.003304 0.006350
# 4 -0.003373 -0.004806 -0.005816 0.043196 0.000404 0.014118
# 5 -0.000077 -0.001312 0.003304 0.000404 0.018267 -0.000860
# 6 0.007048 0.010384 0.006350 0.014118 -0.000860 0.057717
#
#
# Mechanical properties :
#
#
# Convention : Reuss Voigt Hill
#
# Bulk Modulus (GPa) = 14.38646 23.15047 18.76847
# Shear Modulus (GPa) = 24.07557 35.36951 29.72254
#
# Velocity S-wave (km/s) = 3.36348 4.07676 3.73718
# Velocity P-wave (km/s) = 4.67377 5.74789 5.23844
#
# Compressibility (1/GPa) = 0.06950979
#
# Stress axis : x y z
#
# Youngs Moduli (GPa) = 86.64201 28.56840 47.90637
#
# Poissons Ratio (x) = -0.13673 -0.05771
# Poissons Ratio (y) = -0.41468 0.23692
# Poissons Ratio (z) = -0.10437 0.14129
#
# Static dielectric constant tensor:
#      x y z
#    x 1.713170 0.027820 -0.025460 
#    y 0.027820 1.895610 -0.135140 
#    z -0.025460 -0.135140 1.869020 
# 
# From -- ./inp_files/144557.got.cif
#   From: 2010.05.17/outbox.cif.g08.bks.cpg/sg2_73_cif.got.tgz:144557.got - 2010.06.03 11:33:40.
