data_PCOD9092006
_publ_section_title
;
Structure prediction by ZEFSAII (Michael W. Deem and Ramdas Pophale) SiO2 
 PCOD9092006
Probable space group: P -1
;
_chemical_formula_sum "Si O2"
_cell_formula_units_Z 16
_cell_length_a 11.269395
_cell_length_b 18.548272
_cell_length_c 8.561993
_cell_angle_alpha 49.585765
_cell_angle_beta 121.844681
_cell_angle_gamma 151.537172
_cell_volume 644.981773
_symmetry_space_group_name_H-M "P -1"
_symmetry_group_IT_number 2
_symmetry_cell_setting 'triclinic'
loop_
_space_group_symop_operation_xyz
x,y,z
-x,-y,-z
loop_
_atom_site_type_symbol
_atom_site_label
_atom_site_fract_x
_atom_site_fract_y
_atom_site_fract_z
Si Si1 0.336674 0.107514 0.525370
Si Si2 0.764517 0.099439 0.007101
Si Si3 0.983940 0.622739 0.000845
Si Si4 0.128583 0.625147 0.561862
Si Si5 0.513490 0.476638 0.857964
Si Si6 0.609647 0.399463 0.541177
Si Si7 0.197715 0.113218 0.118332
Si Si8 0.497265 0.830923 0.964880
O O1 0.584349 0.186284 0.532588
O O2 0.484927 0.276684 0.475987
O O3 0.194350 0.960683 0.753955
O O4 0.150850 0.045077 0.354149
O O5 0.954789 0.289387 0.915137
O O6 0.716933 0.020059 0.924168
O O7 0.500000 0.000000 0.000000
O O8 0.770442 0.568135 0.861162
O O9 0.880502 0.461469 0.192803
O O10 0.241885 0.748176 0.912207
O O11 0.000000 0.500000 0.500000
O O12 0.911931 0.577604 0.515547
O O13 0.483450 0.547042 0.621077
O O14 0.301813 0.277373 0.974863
O O15 0.500000 0.500000 0.000000
O O16 0.538206 0.282115 0.789550
O O17 0.410833 0.160303 0.142841
O O18 0.000000 0.000000 0.000000
#
# Coordination Sequence:
#
# PCOD9092006 Si02
#       8
#     2   2   2   2   2   2   2   2
#     4  10  19  40  64  96 132 179 222 262 341 398
#     4   9  19  37  67  98 128 166 228 274 321 395
#     4  10  20  38  65  97 124 170 226 269 310 402
#     4   9  15  33  62  94 122 159 221 276 314 375
#     4  12  23  40  68 101 127 170 236 276 325 394
#     4   9  19  37  66  97 121 168 227 283 320 393
#     4  12  27  44  62  95 146 179 213 276 347 398
#     4   9  22  42  63  95 134 176 214 272 345 390
#
# _framework density 24.806903999999999
#
# number of rings (size 3 to 8) (size 9 to 14) (size 15 to 20)
#    0.000    2.000    2.500    3.000    1.750    2.000 
#    2.250    5.000    0.000    0.000    0.000    0.000 
#    0.000    0.000    0.000    0.000    0.000    0.000 
#
# Total GULP energy -89346.598558 kJ/mol
# GULP energy per Si atom -5584.162410 kJ/mol
# Density = 2.475044 g / cm^3
# Si number density = 24.806904 Si / 1000 Ang^3
#
#
#
# Elastic Constant Matrix: (Units=GPa)
#
#
# Indices 1 2 3 4 5 6 
#
# 1 90.3234 19.2986 33.8515 4.4747 31.9020 5.2160
# 2 19.2986 110.6201 28.8777 10.3857 11.3898 -11.2890
# 3 33.8515 28.8777 109.8985 11.3046 45.7273 4.2192
# 4 4.4747 10.3857 11.3046 34.5327 2.1421 7.0288
# 5 31.9020 11.3898 45.7273 2.1421 39.8649 7.5543
# 6 5.2160 -11.2890 4.2192 7.0288 7.5543 34.6486
#
#
#
# Elastic Compliance Matrix: (Units=1/GPa)
#
#
# Indices 1 2 3 4 5 6 
#
# 1 0.015793 -0.001568 0.001387 -0.001214 -0.013751 0.000187
# 2 -0.001568 0.010654 -0.002150 -0.003238 -0.000026 0.004632
# 3 0.001387 -0.002150 0.019030 -0.004910 -0.022570 0.002690
# 4 -0.001214 -0.003238 -0.004910 0.032984 0.007381 -0.008575
# 5 -0.013751 -0.000026 -0.022570 0.007381 0.063588 -0.010551
# 6 0.000187 0.004632 0.002690 -0.008575 -0.010551 0.034055
#
#
# Mechanical properties :
#
#
# Convention : Reuss Voigt Hill
#
# Bulk Modulus (GPa) = 24.50169 52.76641 38.63405
# Shear Modulus (GPa) = 25.72381 37.06351 31.39366
#
# Velocity S-wave (km/s) = 3.22368 3.86953 3.56128
# Velocity P-wave (km/s) = 4.87387 6.42506 5.70245
#
# Compressibility (1/GPa) = 0.04081350
#
# Stress axis : x y z
#
# Youngs Moduli (GPa) = 63.31972 93.85855 52.54869
#
# Poissons Ratio (x) = 0.14720 -0.07288
# Poissons Ratio (y) = 0.09931 0.11300
# Poissons Ratio (z) = -0.08782 0.20183
#
# Static dielectric constant tensor:
#      x y z
#    x 2.066550 0.033520 -0.037110 
#    y 0.033520 2.013030 0.039210 
#    z -0.037110 0.039210 2.006310 
# 
# From -- ./inp_files/279121.got.cif
#   From: 2010.05.17/outbox.cif.g08.bks.cpg/sg2_140_cif.got.tgz:279121.got - 2010.06.03 11:33:40.
