data_PCOD9092682
_publ_section_title
;
Structure prediction by ZEFSAII (Michael W. Deem and Ramdas Pophale) SiO2 
 PCOD9092682
Probable space group: P -1
;
_chemical_formula_sum "Si O2"
_cell_formula_units_Z 16
_cell_length_a 8.957591
_cell_length_b 13.941602
_cell_length_c 7.292375
_cell_angle_alpha 76.263149
_cell_angle_beta 128.471624
_cell_angle_gamma 83.809430
_cell_volume 652.326644
_symmetry_space_group_name_H-M "P -1"
_symmetry_group_IT_number 2
_symmetry_cell_setting 'triclinic'
loop_
_space_group_symop_operation_xyz
x,y,z
-x,-y,-z
loop_
_atom_site_type_symbol
_atom_site_label
_atom_site_fract_x
_atom_site_fract_y
_atom_site_fract_z
Si Si1 0.717844 0.934336 0.620234
Si Si2 0.086485 0.381107 0.337642
Si Si3 0.436825 0.759722 0.873856
Si Si4 0.359639 0.567026 0.095132
Si Si5 0.708742 0.851827 0.248923
Si Si6 0.248816 0.565849 0.437873
Si Si7 0.960607 0.066408 0.629954
Si Si8 0.833749 0.704533 0.967386
O O1 0.677492 0.913769 0.386456
O O2 0.808366 0.820842 0.830479
O O3 0.500000 0.000000 0.500000
O O4 0.876981 0.995700 0.729366
O O5 0.163450 0.268254 0.543020
O O6 0.197615 0.458729 0.454963
O O7 0.133321 0.362840 0.164049
O O8 0.846463 0.434919 0.151926
O O9 0.228433 0.826421 0.588369
O O10 0.628104 0.712019 0.908363
O O11 0.400580 0.669598 0.007917
O O12 0.507681 0.842185 0.010969
O O13 0.314072 0.582354 0.272334
O O14 0.552798 0.461229 0.272730
O O15 0.840109 0.902565 0.200153
O O16 0.035835 0.656124 0.264685
O O17 0.000000 0.000000 0.500000
#
# Coordination Sequence:
#
# PCOD9092682 Si02
#       8
#     2   2   2   2   2   2   2   2
#     4  10  20  41  64  88 117 160 200 249 301 351
#     4  10  19  42  63  88 119 165 202 239 299 365
#     4  12  22  40  61  94 122 155 199 254 301 353
#     4  10  20  35  64  87 121 158 204 241 296 358
#     4  10  22  39  66  89 119 159 200 244 302 366
#     4  10  21  40  62  90 119 165 203 239 299 365
#     4  10  22  40  65  86 121 159 200 250 300 354
#     4  10  22  37  62  88 128 154 196 258 296 343
#
# _framework density 24.527588000000002
#
# number of rings (size 3 to 8) (size 9 to 14) (size 15 to 20)
#    0.000    1.750    3.750    1.500    1.750    2.500 
#    0.000   10.625    0.000    0.000    0.000    0.000 
#    0.000    0.000    0.000    0.000    0.000    0.000 
#
# Total GULP energy -89638.609423 kJ/mol
# GULP energy per Si atom -5602.413089 kJ/mol
# Density = 2.447176 g / cm^3
# Si number density = 24.527588 Si / 1000 Ang^3
#
#
#
# Elastic Constant Matrix: (Units=GPa)
#
#
# Indices 1 2 3 4 5 6 
#
# 1 134.8853 57.5303 11.8921 -4.0292 16.2366 18.9892
# 2 57.5303 102.2494 38.3310 -8.2521 -0.5298 27.2007
# 3 11.8921 38.3310 69.2991 -9.6172 26.7209 -3.1815
# 4 -4.0292 -8.2521 -9.6172 46.3326 -10.7675 1.8107
# 5 16.2366 -0.5298 26.7209 -10.7675 24.8876 -5.8813
# 6 18.9892 27.2007 -3.1815 1.8107 -5.8813 60.2364
#
#
#
# Elastic Compliance Matrix: (Units=1/GPa)
#
#
# Indices 1 2 3 4 5 6 
#
# 1 0.017352 -0.017947 0.019807 -0.005816 -0.035390 0.000400
# 2 -0.017947 0.037542 -0.038287 0.010573 0.056266 -0.008141
# 3 0.019807 -0.038287 0.064089 -0.012092 -0.086273 0.006370
# 4 -0.005816 0.010573 -0.012092 0.027101 0.028343 -0.001627
# 5 -0.035390 0.056266 -0.086273 0.028343 0.168602 -0.003198
# 6 0.000400 -0.008141 0.006370 -0.001627 -0.003198 0.020225
#
#
# Mechanical properties :
#
#
# Convention : Reuss Voigt Hill
#
# Bulk Modulus (GPa) = 21.67938 57.99339 39.83638
# Shear Modulus (GPa) = 11.81634 39.53667 25.67651
#
# Velocity S-wave (km/s) = 2.19728 4.01924 3.23900
# Velocity P-wave (km/s) = 3.91093 6.72566 5.50136
#
# Compressibility (1/GPa) = 0.04612679
#
# Stress axis : x y z
#
# Youngs Moduli (GPa) = 57.62921 26.63704 15.60327
#
# Poissons Ratio (x) = 0.47807 -0.30905
# Poissons Ratio (y) = 1.03430 0.59741
# Poissons Ratio (z) = -1.14144 1.01986
#
# Static dielectric constant tensor:
#      x y z
#    x 1.943280 -0.026940 -0.022990 
#    y -0.026940 1.912300 0.016020 
#    z -0.022990 0.016020 1.948500 
# 
# From -- ./inp_files/201097.got.cif
#   From: 2010.05.17/outbox.cif.g08.bks.cpg/sg2_101_cif.got.tgz:201097.got - 2010.06.03 11:33:40.
