data_PCOD9092527
_publ_section_title
;
Structure prediction by ZEFSAII (Michael W. Deem and Ramdas Pophale) SiO2 
 PCOD9092527
Probable space group: P -1
;
_chemical_formula_sum "Si O2"
_cell_formula_units_Z 15
_cell_length_a 14.040738
_cell_length_b 11.863286
_cell_length_c 23.308374
_cell_angle_alpha 30.718300
_cell_angle_beta 161.070057
_cell_angle_gamma 149.619365
_cell_volume 614.020282
_symmetry_space_group_name_H-M "P -1"
_symmetry_group_IT_number 2
_symmetry_cell_setting 'triclinic'
loop_
_space_group_symop_operation_xyz
x,y,z
-x,-y,-z
loop_
_atom_site_type_symbol
_atom_site_label
_atom_site_fract_x
_atom_site_fract_y
_atom_site_fract_z
Si Si1 0.500000 0.500000 0.500000
Si Si2 0.137259 0.176060 0.108513
Si Si3 0.234979 0.633117 0.919163
Si Si4 0.122184 0.063983 0.723797
Si Si5 0.088500 0.196948 0.773985
Si Si6 0.428433 0.966563 0.663887
Si Si7 0.309364 0.567557 0.606240
Si Si8 0.991155 0.262671 0.380077
O O1 0.669835 0.558456 0.506039
O O2 0.503463 0.773499 0.387581
O O3 0.278125 0.082964 0.175116
O O4 0.403950 0.269233 0.268013
O O5 0.031691 0.394769 0.934499
O O6 0.894390 0.965196 0.092654
O O7 0.108849 0.671387 0.768692
O O8 0.239418 0.853714 0.862886
O O9 0.578556 0.615837 0.120902
O O10 0.820555 0.049185 0.521440
O O11 0.054097 0.058568 0.754871
O O12 0.351794 0.317985 0.728130
O O13 0.806747 0.304978 0.567470
O O14 0.260586 0.763720 0.702327
O O15 0.000000 0.500000 0.500000
O O16 0.000000 0.000000 0.500000
#
# Coordination Sequence:
#
# PCOD9092527 Si02
#       8
#     1   2   2   2   2   2   2   2
#     4  10  22  44  68  98 122 168 242 270 320 400
#     4  12  25  42  66 104 142 177 225 268 338 405
#     4  12  24  45  66 100 143 173 220 288 340 394
#     4  11  21  43  71  98 138 179 218 277 341 395
#     4  11  24  42  67 106 140 176 222 270 338 416
#     4  11  23  45  70  97 131 180 226 280 327 394
#     4  10  19  41  67  94 137 180 219 260 331 411
#     4  10  23  46  70  95 129 175 235 276 334 393
#
# _framework density 24.42916
#
# number of rings (size 3 to 8) (size 9 to 14) (size 15 to 20)
#    0.000    1.067    8.000    0.800    0.000    5.333 
#    0.000    1.333    0.000    0.000    0.000    0.000 
#    0.000    0.000    0.000    0.000    0.000    0.000 
#
# Total GULP energy -83591.851369 kJ/mol
# GULP energy per Si atom -5572.790091 kJ/mol
# Density = 2.437356 g / cm^3
# Si number density = 24.429160 Si / 1000 Ang^3
#
#
#
# Elastic Constant Matrix: (Units=GPa)
#
#
# Indices 1 2 3 4 5 6 
#
# 1 89.0498 25.6145 5.6336 -40.9621 -8.3922 6.8523
# 2 25.6145 88.0593 7.4825 -39.4199 4.4577 5.4375
# 3 5.6336 7.4825 80.7552 -21.3286 -19.2659 -7.7405
# 4 -40.9621 -39.4199 -21.3286 38.2857 2.8798 -7.4556
# 5 -8.3922 4.4577 -19.2659 2.8798 27.0532 -15.1294
# 6 6.8523 5.4375 -7.7405 -7.4556 -15.1294 50.3179
#
#
#
# Elastic Compliance Matrix: (Units=1/GPa)
#
#
# Indices 1 2 3 4 5 6 
#
# 1 0.041571 0.018264 0.024035 0.077687 0.027611 0.015875
# 2 0.018264 0.030902 0.014865 0.060541 0.009320 0.008233
# 3 0.024035 0.014865 0.036453 0.062680 0.035939 0.020821
# 4 0.077687 0.060541 0.062680 0.210102 0.059653 0.041588
# 5 0.027611 0.009320 0.035939 0.059653 0.082475 0.034398
# 6 0.015875 0.008233 0.020821 0.041588 0.034398 0.036530
#
#
# Mechanical properties :
#
#
# Convention : Reuss Voigt Hill
#
# Bulk Modulus (GPa) = 4.47919 37.25838 20.86878
# Shear Modulus (GPa) = 12.55893 37.74029 25.14961
#
# Velocity S-wave (km/s) = 2.26983 3.93477 3.21205
# Velocity P-wave (km/s) = 2.95076 5.99399 4.72414
#
# Compressibility (1/GPa) = 0.22325485
#
# Stress axis : x y z
#
# Youngs Moduli (GPa) = 24.05497 32.36083 27.43223
#
# Poissons Ratio (x) = -0.59105 -0.65933
# Poissons Ratio (y) = -0.43935 -0.40778
# Poissons Ratio (z) = -0.57816 -0.48104
#
# Static dielectric constant tensor:
#      x y z
#    x 1.996760 0.007670 0.049990 
#    y 0.007670 2.081730 0.105320 
#    z 0.049990 0.105320 2.052020 
# 
# From -- ./inp_files/611952.got.cif
#   From: 2010.05.17/outbox.cif.g08.bks.cpg/sg2_306_cif.got.tgz:611952.got - 2010.06.03 11:33:40.
