data_PCOD9092557
_publ_section_title
;
Structure prediction by ZEFSAII (Michael W. Deem and Ramdas Pophale) SiO2 
 PCOD9092557
Probable space group: P -1
;
_chemical_formula_sum "Si O2"
_cell_formula_units_Z 16
_cell_length_a 9.917645
_cell_length_b 11.792693
_cell_length_c 15.802830
_cell_angle_alpha 108.492679
_cell_angle_beta 114.002423
_cell_angle_gamma 128.756465
_cell_volume 785.224800
_symmetry_space_group_name_H-M "P -1"
_symmetry_group_IT_number 2
_symmetry_cell_setting 'triclinic'
loop_
_space_group_symop_operation_xyz
x,y,z
-x,-y,-z
loop_
_atom_site_type_symbol
_atom_site_label
_atom_site_fract_x
_atom_site_fract_y
_atom_site_fract_z
Si Si1 0.820864 0.981330 0.104938
Si Si2 0.784048 0.518141 0.664929
Si Si3 0.623619 0.431888 0.252797
Si Si4 0.977128 0.773395 0.195401
Si Si5 0.595642 0.707186 0.150732
Si Si6 0.155478 0.717652 0.355570
Si Si7 0.426694 0.251183 0.343582
Si Si8 0.644595 0.729290 0.347412
O O1 0.935985 0.197779 0.177004
O O2 0.133390 0.126934 0.223463
O O3 0.666182 0.844909 0.123758
O O4 0.605134 0.784848 0.927127
O O5 0.872753 0.442459 0.674957
O O6 0.646406 0.452294 0.521568
O O7 0.524780 0.352083 0.630322
O O8 0.574638 0.342997 0.312048
O O9 0.572028 0.537467 0.271649
O O10 0.965267 0.648720 0.363312
O O11 0.866032 0.799269 0.237754
O O12 0.002991 0.664569 0.220269
O O13 0.708254 0.579375 0.014364
O O14 0.286493 0.031165 0.293659
O O15 0.549962 0.728622 0.236487
O O16 0.500000 0.000000 0.500000
O O17 0.000000 0.000000 0.500000
#
# Coordination Sequence:
#
# PCOD9092557 Si02
#       8
#     2   2   2   2   2   2   2   2
#     4  11  23  42  69 104 134 170 220 291 329 388
#     4  12  27  41  65 101 147 169 214 282 344 384
#     4  12  25  43  73  96 132 180 229 263 341 403
#     4  10  19  41  68  95 128 171 224 276 318 394
#     4  10  20  38  71  99 125 168 228 272 329 383
#     4  12  24  48  64  95 137 183 218 275 335 403
#     4  11  23  41  70 101 131 174 223 282 323 399
#     4  12  23  40  67 105 128 173 226 280 322 394
#
# _framework density 20.376332000000001
#
# number of rings (size 3 to 8) (size 9 to 14) (size 15 to 20)
#    0.000    0.750    5.000    4.500    3.500    1.000 
#    0.000    0.625    0.000    0.000    0.000    0.000 
#    0.000    0.000    0.000    0.000    0.000    0.000 
#
# Total GULP energy -89323.096206 kJ/mol
# GULP energy per Si atom -5582.693513 kJ/mol
# Density = 2.032995 g / cm^3
# Si number density = 20.376332 Si / 1000 Ang^3
#
#
#
# Elastic Constant Matrix: (Units=GPa)
#
#
# Indices 1 2 3 4 5 6 
#
# 1 50.2154 23.3063 9.8049 -13.0629 8.6826 -0.3263
# 2 23.3063 102.0435 31.2646 -14.6528 -7.7468 11.8860
# 3 9.8049 31.2646 84.8965 -6.8803 -9.6978 11.9754
# 4 -13.0629 -14.6528 -6.8803 35.1321 3.8328 -8.5020
# 5 8.6826 -7.7468 -9.6978 3.8328 21.8284 -0.7844
# 6 -0.3263 11.8860 11.9754 -8.5020 -0.7844 37.0447
#
#
#
# Elastic Compliance Matrix: (Units=1/GPa)
#
#
# Indices 1 2 3 4 5 6 
#
# 1 0.029023 -0.006074 -0.002889 0.010786 -0.016689 0.005261
# 2 -0.006074 0.013028 -0.002971 0.001314 0.005386 -0.002857
# 3 -0.002889 -0.002971 0.014407 -0.001140 0.006557 -0.003852
# 4 0.010786 0.001314 -0.001140 0.035877 -0.010340 0.008057
# 5 -0.016689 0.005386 0.006557 -0.010340 0.058906 -0.005121
# 6 0.005261 -0.002857 -0.003852 0.008057 -0.005121 0.030944
#
#
# Mechanical properties :
#
#
# Convention : Reuss Voigt Hill
#
# Bulk Modulus (GPa) = 30.68608 40.65631 35.67120
# Shear Modulus (GPa) = 23.05018 30.31968 26.68493
#
# Velocity S-wave (km/s) = 3.36702 3.86163 3.62277
# Velocity P-wave (km/s) = 5.49619 6.31497 5.91975
#
# Compressibility (1/GPa) = 0.03258806
#
# Stress axis : x y z
#
# Youngs Moduli (GPa) = 34.45510 76.75813 69.41057
#
# Poissons Ratio (x) = 0.46627 0.20054
# Poissons Ratio (y) = 0.20930 0.20625
# Poissons Ratio (z) = 0.09955 0.22808
#
# Static dielectric constant tensor:
#      x y z
#    x 1.734400 0.001210 -0.015870 
#    y 0.001210 1.774380 -0.020500 
#    z -0.015870 -0.020500 1.771790 
# 
# From -- ./inp_files/433711.got.cif
#   From: 2010.05.17/outbox.cif.g08.bks.cpg/sg2_217_cif.got.tgz:433711.got - 2010.06.03 11:33:40.
