data_PCOD9092137
_publ_section_title
;
Structure prediction by ZEFSAII (Michael W. Deem and Ramdas Pophale) SiO2 
 PCOD9092137
Probable space group: P -1
;
_chemical_formula_sum "Si O2"
_cell_formula_units_Z 16
_cell_length_a 14.760442
_cell_length_b 10.083574
_cell_length_c 11.899820
_cell_angle_alpha 112.924407
_cell_angle_beta 30.053198
_cell_angle_gamma 100.932959
_cell_volume 774.050324
_symmetry_space_group_name_H-M "P -1"
_symmetry_group_IT_number 2
_symmetry_cell_setting 'triclinic'
loop_
_space_group_symop_operation_xyz
x,y,z
-x,-y,-z
loop_
_atom_site_type_symbol
_atom_site_label
_atom_site_fract_x
_atom_site_fract_y
_atom_site_fract_z
Si Si1 0.766694 0.821906 0.712632
Si Si2 0.354155 0.105096 0.534765
Si Si3 0.067902 0.508980 0.662296
Si Si4 0.954678 0.235056 0.393429
Si Si5 0.781979 0.012772 0.133016
Si Si6 0.675313 0.068384 0.713434
Si Si7 0.296589 0.432331 0.791211
Si Si8 0.744658 0.352244 0.296292
O O1 0.834142 0.669452 0.516391
O O2 0.899211 0.793254 0.669829
O O3 0.774733 0.965891 0.678795
O O4 0.546933 0.857305 0.995144
O O5 0.583390 0.046648 0.288358
O O6 0.288784 0.286271 0.680109
O O7 0.263809 0.038421 0.712219
O O8 0.307255 0.044820 0.447644
O O9 0.089573 0.598824 0.556934
O O10 0.159704 0.575244 0.687680
O O11 0.845827 0.545230 0.944570
O O12 0.772236 0.192983 0.616969
O O13 0.056527 0.117553 0.146523
O O14 0.825475 0.170650 0.146427
O O15 0.516683 0.397388 0.578113
O O16 0.235582 0.576486 0.822071
#
# Coordination Sequence:
#
# PCOD9092137 Si02
#       8
#     2   2   2   2   2   2   2   2
#     4  11  27  48  62  94 129 176 221 262 316 373
#     4  10  19  40  66  95 131 164 204 267 326 373
#     4  12  25  41  67  93 134 170 213 264 318 394
#     4  12  25  43  66  98 128 171 218 265 319 383
#     4  10  21  37  66  98 132 159 208 266 320 384
#     4  11  25  44  71  91 126 173 222 269 310 382
#     4  10  22  40  62  97 134 168 202 267 327 379
#     4  10  23  39  61 100 130 169 212 256 329 380
#
# _framework density 20.670490000000001
#
# number of rings (size 3 to 8) (size 9 to 14) (size 15 to 20)
#    0.000    1.250    2.500    2.625    3.500    3.500 
#    0.000    0.000    0.000    0.000    0.000    0.000 
#    0.000    0.000    0.000    0.000    0.000    0.000 
#
# Total GULP energy -89569.845824 kJ/mol
# GULP energy per Si atom -5598.115364 kJ/mol
# Density = 2.062344 g / cm^3
# Si number density = 20.670490 Si / 1000 Ang^3
#
#
#
# Elastic Constant Matrix: (Units=GPa)
#
#
# Indices 1 2 3 4 5 6 
#
# 1 52.8492 -16.0501 1.4826 -5.0218 -9.2373 -5.7358
# 2 -16.0501 76.4678 25.4040 -20.9673 -5.9092 -3.0386
# 3 1.4826 25.4040 45.3422 -13.7986 -0.7239 4.4211
# 4 -5.0218 -20.9673 -13.7986 25.7803 4.2182 12.8670
# 5 -9.2373 -5.9092 -0.7239 4.2182 13.2146 -1.7003
# 6 -5.7358 -3.0386 4.4211 12.8670 -1.7003 12.5665
#
#
#
# Elastic Compliance Matrix: (Units=1/GPa)
#
#
# Indices 1 2 3 4 5 6 
#
# 1 0.054879 0.013597 -0.072438 -0.143740 0.114208 0.216451
# 2 0.013597 0.023434 -0.015403 -0.000503 0.021975 0.020780
# 3 -0.072438 -0.015403 0.196162 0.379668 -0.235709 -0.526439
# 4 -0.143740 -0.000503 0.379668 0.882511 -0.512445 -1.172251
# 5 0.114208 0.021975 -0.235709 -0.512445 0.408690 0.720364
# 6 0.216451 0.020780 -0.526439 -1.172251 0.720364 1.666354
#
#
# Mechanical properties :
#
#
# Convention : Reuss Voigt Hill
#
# Bulk Modulus (GPa) = 7.93723 21.81469 14.87596
# Shear Modulus (GPa) = 1.46092 21.23381 11.34736
#
# Velocity S-wave (km/s) = 0.84160 3.20855 2.34554
# Velocity P-wave (km/s) = 2.18921 4.92980 3.81415
#
# Compressibility (1/GPa) = 0.12598850
#
# Stress axis : x y z
#
# Youngs Moduli (GPa) = 18.22203 42.67227 5.09784
#
# Poissons Ratio (x) = -0.58023 0.36928
# Poissons Ratio (y) = -0.24777 0.07852
# Poissons Ratio (z) = 1.31996 0.65726
#
# Static dielectric constant tensor:
#      x y z
#    x 1.713930 -0.003010 -0.019020 
#    y -0.003010 1.715910 -0.012780 
#    z -0.019020 -0.012780 1.715990 
# 
# From -- ./inp_files/272462.got.cif
#   From: 2010.05.17/outbox.cif.g08.bks.cpg/sg2_137_cif.got.tgz:272462.got - 2010.06.03 11:33:40.
