data_PCOD9092363
_publ_section_title
;
Structure prediction by ZEFSAII (Michael W. Deem and Ramdas Pophale) SiO2 
 PCOD9092363
Probable space group: P -1
;
_chemical_formula_sum "Si O2"
_cell_formula_units_Z 16
_cell_length_a 9.715928
_cell_length_b 10.941152
_cell_length_c 23.464918
_cell_angle_alpha 27.062730
_cell_angle_beta 144.105896
_cell_angle_gamma 133.451801
_cell_volume 660.041743
_symmetry_space_group_name_H-M "P -1"
_symmetry_group_IT_number 2
_symmetry_cell_setting 'triclinic'
loop_
_space_group_symop_operation_xyz
x,y,z
-x,-y,-z
loop_
_atom_site_type_symbol
_atom_site_label
_atom_site_fract_x
_atom_site_fract_y
_atom_site_fract_z
Si Si1 0.719613 0.795065 0.252766
Si Si2 0.780132 0.394245 0.666601
Si Si3 0.064794 0.719556 0.815543
Si Si4 0.774799 0.824967 0.944104
Si Si5 0.759375 0.950844 0.010199
Si Si6 0.143033 0.087023 0.457202
Si Si7 0.217210 0.594838 0.463130
Si Si8 0.402407 0.116961 0.357744
O O1 0.469591 0.903198 0.096118
O O2 0.668671 0.607717 0.366673
O O3 0.932236 0.619981 0.363674
O O4 0.827536 0.051551 0.208197
O O5 0.760286 0.634295 0.605778
O O6 0.708693 0.489119 0.540368
O O7 0.062852 0.279694 0.804568
O O8 0.683479 0.111810 0.766741
O O9 0.242760 0.445105 0.983914
O O10 0.001956 0.834549 0.682565
O O11 0.821277 0.670769 0.787145
O O12 0.060861 0.837021 0.037071
O O13 0.684067 0.824882 0.977764
O O14 0.360201 0.857192 0.608809
O O15 0.000000 0.000000 0.500000
O O16 0.287317 0.887960 0.379475
O O17 0.500000 0.000000 0.500000
#
# Coordination Sequence:
#
# PCOD9092363 Si02
#       8
#     2   2   2   2   2   2   2   2
#     4  10  22  37  62  90 124 163 206 252 307 366
#     4  10  21  39  60  91 121 159 200 259 303 361
#     4  10  19  41  60  89 120 164 212 250 296 375
#     4   9  19  38  63  84 118 164 211 241 302 380
#     4   9  19  37  60  87 114 170 199 242 306 367
#     4  11  21  38  58  92 130 155 202 261 313 359
#     4  10  22  40  58  93 127 154 209 256 306 365
#     4   9  22  37  64  84 118 174 201 240 312 376
#
# _framework density 24.240888999999999
#
# number of rings (size 3 to 8) (size 9 to 14) (size 15 to 20)
#    0.750    1.500    1.250    0.750    5.250    2.500 
#    2.250    2.500    0.000    0.000    0.000    0.000 
#    0.000    0.000    0.000    0.000    0.000    0.000 
#
# Total GULP energy -89298.438150 kJ/mol
# GULP energy per Si atom -5581.152384 kJ/mol
# Density = 2.418572 g / cm^3
# Si number density = 24.240889 Si / 1000 Ang^3
#
#
#
# Elastic Constant Matrix: (Units=GPa)
#
#
# Indices 1 2 3 4 5 6 
#
# 1 123.6549 1.5051 27.6577 5.2440 1.7355 3.9536
# 2 1.5051 42.9409 3.1005 -10.8824 -2.5898 1.9821
# 3 27.6577 3.1005 82.1806 -6.1394 11.9415 -0.5444
# 4 5.2440 -10.8824 -6.1394 29.6549 1.8104 3.4123
# 5 1.7355 -2.5898 11.9415 1.8104 30.4379 5.6169
# 6 3.9536 1.9821 -0.5444 3.4123 5.6169 20.3582
#
#
#
# Elastic Compliance Matrix: (Units=1/GPa)
#
#
# Indices 1 2 3 4 5 6 
#
# 1 0.008985 -0.000514 -0.003369 -0.002351 0.001225 -0.001729
# 2 -0.000514 0.026277 -0.000505 0.010026 0.002775 -0.004918
# 3 -0.003369 -0.000505 0.014494 0.003534 -0.006153 0.002196
# 4 -0.002351 0.010026 0.003534 0.039401 -0.001523 -0.006609
# 5 0.001225 0.002775 -0.006153 -0.001523 0.037511 -0.010767
# 6 -0.001729 -0.004918 0.002196 -0.006609 -0.010767 0.054072
#
#
# Mechanical properties :
#
#
# Convention : Reuss Voigt Hill
#
# Bulk Modulus (GPa) = 24.40258 34.81143 29.60701
# Shear Modulus (GPa) = 24.60907 30.52440 27.56674
#
# Velocity S-wave (km/s) = 3.18966 3.55239 3.37590
# Velocity P-wave (km/s) = 4.86352 5.58728 5.23792
#
# Compressibility (1/GPa) = 0.04097928
#
# Stress axis : x y z
#
# Youngs Moduli (GPa) = 111.30043 38.05547 68.99427
#
# Poissons Ratio (x) = 0.01955 0.23247
# Poissons Ratio (y) = 0.05718 0.03486
# Poissons Ratio (z) = 0.37502 0.01923
#
# Static dielectric constant tensor:
#      x y z
#    x 2.026440 0.095060 0.040460 
#    y 0.095060 2.001190 0.021110 
#    z 0.040460 0.021110 1.929620 
# 
# From -- ./inp_files/607205.got.cif
#   From: 2010.05.17/outbox.cif.g08.bks.cpg/sg2_304_cif.got.tgz:607205.got - 2010.06.03 11:33:40.
