data_PCOD9092282
_publ_section_title
;
Structure prediction by ZEFSAII (Michael W. Deem and Ramdas Pophale) SiO2 
 PCOD9092282
Probable space group: P -1
;
_chemical_formula_sum "Si O2"
_cell_formula_units_Z 16
_cell_length_a 9.409182
_cell_length_b 8.621344
_cell_length_c 21.441165
_cell_angle_alpha 122.370962
_cell_angle_beta 29.906458
_cell_angle_gamma 125.886154
_cell_volume 700.980099
_symmetry_space_group_name_H-M "P -1"
_symmetry_group_IT_number 2
_symmetry_cell_setting 'triclinic'
loop_
_space_group_symop_operation_xyz
x,y,z
-x,-y,-z
loop_
_atom_site_type_symbol
_atom_site_label
_atom_site_fract_x
_atom_site_fract_y
_atom_site_fract_z
Si Si1 0.518580 0.159686 0.266820
Si Si2 0.388060 0.569108 0.951598
Si Si3 0.270252 0.706831 0.261381
Si Si4 0.066075 0.729308 0.206067
Si Si5 0.000602 0.152703 0.176428
Si Si6 0.025168 0.666301 0.476676
Si Si7 0.406616 0.084292 0.616311
Si Si8 0.367692 0.887968 0.928375
O O1 0.779940 0.217790 0.229448
O O2 0.639283 0.174827 0.153790
O O3 0.268618 0.265643 0.393922
O O4 0.364608 0.932949 0.286434
O O5 0.436938 0.367120 0.872051
O O6 0.352110 0.704553 0.937545
O O7 0.704645 0.679723 0.885459
O O8 0.148454 0.579378 0.096397
O O9 0.094974 0.680529 0.256848
O O10 0.087343 0.609507 0.370564
O O11 0.755998 0.759133 0.309582
O O12 0.324281 0.936259 0.142168
O O13 0.831786 0.074097 0.287334
O O14 0.111632 0.983064 0.066089
O O15 0.311783 0.831864 0.428167
O O16 0.000000 0.500000 0.500000
O O17 0.500000 0.000000 0.500000
#
# Coordination Sequence:
#
# PCOD9092282 Si02
#       8
#     2   2   2   2   2   2   2   2
#     4  11  24  44  66  94 133 172 215 268 329 385
#     4  11  21  41  68 101 133 168 218 269 320 388
#     4  11  24  40  67  94 133 174 213 268 329 378
#     4  10  21  41  65  99 133 172 214 270 325 384
#     4  11  22  40  68 100 128 172 217 265 322 391
#     4  12  28  48  66  93 130 175 222 268 326 391
#     4  12  24  41  70  97 129 171 223 265 329 382
#     4  10  19  40  69  97 132 170 214 265 327 385
#
# _framework density 22.825185000000001
#
# number of rings (size 3 to 8) (size 9 to 14) (size 15 to 20)
#    0.000    1.000    3.750    4.125    3.500    1.000 
#    0.000    5.000    0.000    0.000    0.000    0.000 
#    0.000    0.000    0.000    0.000    0.000    0.000 
#
# Total GULP energy -89640.502293 kJ/mol
# GULP energy per Si atom -5602.531393 kJ/mol
# Density = 2.277323 g / cm^3
# Si number density = 22.825185 Si / 1000 Ang^3
#
#
#
# Elastic Constant Matrix: (Units=GPa)
#
#
# Indices 1 2 3 4 5 6 
#
# 1 134.9090 33.6534 80.3948 -1.9167 7.9779 -38.1141
# 2 33.6534 48.2592 20.5095 26.7637 -8.8335 -22.2845
# 3 80.3948 20.5095 168.1697 29.1384 2.2813 -20.0804
# 4 -1.9167 26.7637 29.1384 13.5579 -4.1773 -3.3103
# 5 7.9779 -8.8335 2.2813 -4.1773 52.0521 -2.2915
# 6 -38.1141 -22.2845 -20.0804 -3.3103 -2.2915 33.2229
#
#
#
# Elastic Compliance Matrix: (Units=1/GPa)
#
#
# Indices 1 2 3 4 5 6 
#
# 1 0.008528 0.013381 -0.000098 -0.020935 0.000019 0.016615
# 2 0.013381 -0.011259 -0.014207 0.056280 0.001394 0.004916
# 3 -0.000098 -0.014207 0.004040 0.017561 -0.001408 -0.005547
# 4 -0.020935 0.056280 0.017561 -0.071556 0.007027 0.017702
# 5 0.000019 0.001394 -0.001408 0.007027 0.020168 0.002197
# 6 0.016615 0.004916 -0.005547 0.017702 0.002197 0.051021
#
#
# Mechanical properties :
#
#
# Convention : Reuss Voigt Hill
#
# Bulk Modulus (GPa) = -1855.34603 68.93926 -893.20339
# Shear Modulus (GPa) = 1915.38007 34.21858 974.79932
#
# Velocity S-wave (km/s) = 28.99955 3.87610 20.68814
# Velocity P-wave (km/s) = 17.51238 7.09231 13.36009
#
# Compressibility (1/GPa) = -0.00053898
#
# Stress axis : x y z
#
# Youngs Moduli (GPa) = 117.25570 -88.82140 247.54522
#
# Poissons Ratio (x) = 1.18849 0.02420
# Poissons Ratio (y) = -1.56897 3.51692
# Poissons Ratio (z) = 0.01146 -1.26190
#
# Static dielectric constant tensor:
#      x y z
#    x 1.824770 0.011540 0.009760 
#    y 0.011540 1.927020 -0.023380 
#    z 0.009760 -0.023380 1.826680 
# 
# From -- ./inp_files/188794.got.cif
#   From: 2010.05.17/outbox.cif.g08.bks.cpg/sg2_95_cif.got.tgz:188794.got - 2010.06.03 11:33:40.
