data_PCOD9092398
_publ_section_title
;
Structure prediction by ZEFSAII (Michael W. Deem and Ramdas Pophale) SiO2 
 PCOD9092398
Probable space group: P -1
;
_chemical_formula_sum "Si O2"
_cell_formula_units_Z 16
_cell_length_a 16.971878
_cell_length_b 23.014508
_cell_length_c 8.981257
_cell_angle_alpha 151.411330
_cell_angle_beta 31.392879
_cell_angle_gamma 147.885850
_cell_volume 804.833268
_symmetry_space_group_name_H-M "P -1"
_symmetry_group_IT_number 2
_symmetry_cell_setting 'triclinic'
loop_
_space_group_symop_operation_xyz
x,y,z
-x,-y,-z
loop_
_atom_site_type_symbol
_atom_site_label
_atom_site_fract_x
_atom_site_fract_y
_atom_site_fract_z
Si Si1 0.066170 0.894551 0.594603
Si Si2 0.351131 0.966365 0.526521
Si Si3 0.690645 0.172663 0.425573
Si Si4 0.531525 0.531502 0.193086
Si Si5 0.664993 0.774202 0.708703
Si Si6 0.805057 0.462599 0.772674
Si Si7 0.746383 0.632756 0.506875
Si Si8 0.969866 0.108284 0.693355
O O1 0.220578 0.911217 0.483851
O O2 0.106576 0.925508 0.424511
O O3 0.915450 0.754593 0.544356
O O4 0.000000 0.000000 0.000000
O O5 0.334650 0.848747 0.403047
O O6 0.530616 0.046703 0.348646
O O7 0.324628 0.082083 0.930942
O O8 0.713131 0.308347 0.616384
O O9 0.858050 0.158955 0.084567
O O10 0.560273 0.681398 0.536541
O O11 0.366462 0.439299 0.336832
O O12 0.500000 0.500000 0.000000
O O13 0.688982 0.500607 0.928134
O O14 0.631518 0.686557 0.714100
O O15 0.848269 0.790612 0.407035
O O16 0.000000 0.500000 0.500000
O O17 0.796536 0.537487 0.106362
O O18 0.000000 0.000000 0.500000
#
# Coordination Sequence:
#
# PCOD9092398 Si02
#       8
#     2   2   2   2   2   2   2   2
#     4  11  21  37  66  92 125 163 219 265 313 379
#     4  11  22  40  63  95 127 169 214 264 326 387
#     4  11  23  40  63  91 131 170 211 266 336 379
#     4  11  24  41  67  99 127 169 226 271 314 392
#     4  10  19  41  63  88 126 168 216 256 325 381
#     4  11  23  44  69  92 133 178 215 268 337 392
#     4  10  21  40  66  92 126 173 215 262 323 389
#     4  11  21  39  62  94 126 170 212 261 318 390
#
# _framework density 19.879895000000001
#
# number of rings (size 3 to 8) (size 9 to 14) (size 15 to 20)
#    0.000    1.250    3.750    5.250    0.000    3.500 
#    0.000    8.750    0.000    0.000    0.000    0.000 
#    0.000    0.000    0.000    0.000    0.000    0.000 
#
# Total GULP energy -89151.958971 kJ/mol
# GULP energy per Si atom -5571.997436 kJ/mol
# Density = 1.983465 g / cm^3
# Si number density = 19.879895 Si / 1000 Ang^3
#
#
#
# Elastic Constant Matrix: (Units=GPa)
#
#
# Indices 1 2 3 4 5 6 
#
# 1 130.5689 46.3291 18.2518 -4.6191 17.3526 8.4450
# 2 46.3291 86.7392 32.1982 -18.7724 12.8271 -0.2593
# 3 18.2518 32.1982 70.8271 -14.7185 -1.4890 -2.4651
# 4 -4.6191 -18.7724 -14.7185 36.3223 4.1144 1.9911
# 5 17.3526 12.8271 -1.4890 4.1144 31.1954 -4.3019
# 6 8.4450 -0.2593 -2.4651 1.9911 -4.3019 27.5135
#
#
#
# Elastic Compliance Matrix: (Units=1/GPa)
#
#
# Indices 1 2 3 4 5 6 
#
# 1 0.010233 -0.004691 -0.000893 -0.000793 -0.004235 -0.003870
# 2 -0.004691 0.018812 -0.005942 0.007476 -0.006459 -0.000466
# 3 -0.000893 -0.005942 0.017940 0.003558 0.003621 0.002134
# 4 -0.000793 0.007476 0.003558 0.033727 -0.007318 -0.002952
# 5 -0.004235 -0.006459 0.003621 -0.007318 0.039343 0.008244
# 6 -0.003870 -0.000466 0.002134 -0.002952 0.008244 0.039223
#
#
# Mechanical properties :
#
#
# Convention : Reuss Voigt Hill
#
# Bulk Modulus (GPa) = 41.78263 53.52150 47.65206
# Shear Modulus (GPa) = 26.27337 31.76330 29.01834
#
# Velocity S-wave (km/s) = 3.63933 4.00154 3.82472
# Velocity P-wave (km/s) = 6.22277 6.95202 6.59748
#
# Compressibility (1/GPa) = 0.02393339
#
# Stress axis : x y z
#
# Youngs Moduli (GPa) = 97.72044 53.15823 55.74185
#
# Poissons Ratio (x) = 0.24938 0.04977
# Poissons Ratio (y) = 0.45843 0.33119
# Poissons Ratio (z) = 0.08726 0.31584
#
# Static dielectric constant tensor:
#      x y z
#    x 1.706470 -0.023810 -0.060550 
#    y -0.023810 1.855990 0.039110 
#    z -0.060550 0.039110 1.738050 
# 
# From -- ./inp_files/338629.got.cif
#   From: 2010.05.17/outbox.cif.g08.bks.cpg/sg2_170_cif.got.tgz:338629.got - 2010.06.03 11:33:40.
