data_PCOD9092514
_publ_section_title
;
Structure prediction by ZEFSAII (Michael W. Deem and Ramdas Pophale) SiO2 
 PCOD9092514
Probable space group: P -1
;
_chemical_formula_sum "Si O2"
_cell_formula_units_Z 10
_cell_length_a 19.069702
_cell_length_b 12.507104
_cell_length_c 13.395687
_cell_angle_alpha 143.897544
_cell_angle_beta 17.763523
_cell_angle_gamma 154.955203
_cell_volume 373.622294
_symmetry_space_group_name_H-M "P -1"
_symmetry_group_IT_number 2
_symmetry_cell_setting 'triclinic'
loop_
_space_group_symop_operation_xyz
x,y,z
-x,-y,-z
loop_
_atom_site_type_symbol
_atom_site_label
_atom_site_fract_x
_atom_site_fract_y
_atom_site_fract_z
Si Si1 0.341753 0.178827 0.795558
Si Si2 0.258475 0.537050 0.345976
Si Si3 0.575007 0.058299 0.217385
Si Si4 0.253775 0.268109 0.433622
Si Si5 0.674288 0.920325 0.619776
O O1 0.631767 0.298678 0.576363
O O2 0.454834 0.445025 0.803563
O O3 0.380467 0.071168 0.568643
O O4 0.964280 0.973927 0.205297
O O5 0.361888 0.740270 0.273248
O O6 0.880991 0.221694 0.607430
O O7 0.500000 0.500000 0.000000
O O8 0.583728 0.158178 0.173385
O O9 0.975772 0.245040 0.840460
O O10 0.417310 0.252265 0.289929
O O11 0.000000 0.000000 0.500000
#
# Coordination Sequence:
#
# PCOD9092514 Si02
#       5
#     2   2   2   2   2
#     4  11  23  44  68  98 134 171 212 274 328 382
#     4  10  19  41  67  88 128 176 208 258 322 384
#     4  12  24  42  70  99 131 170 220 271 328 378
#     4  12  24  45  67  93 138 173 218 266 322 394
#     4  11  24  45  68  97 130 174 219 266 322 393
#
# _framework density 26.764996
#
# number of rings (size 3 to 8) (size 9 to 14) (size 15 to 20)
#    0.000    0.800    6.000    3.600    0.000    1.600 
#    3.600    0.000    0.000    0.000    0.000    0.000 
#    0.000    0.000    0.000    0.000    0.000    0.000 
#
# Total GULP energy -56060.499670 kJ/mol
# GULP energy per Si atom -5606.049967 kJ/mol
# Density = 2.670408 g / cm^3
# Si number density = 26.764996 Si / 1000 Ang^3
#
#
#
# Elastic Constant Matrix: (Units=GPa)
#
#
# Indices 1 2 3 4 5 6 
#
# 1 175.4065 31.2364 21.8391 16.4423 -5.8623 -46.0540
# 2 31.2364 73.7232 10.5668 16.4060 5.4147 -20.2747
# 3 21.8391 10.5668 88.4901 22.8742 1.5805 -8.3702
# 4 16.4423 16.4060 22.8742 39.0385 -0.2197 12.1351
# 5 -5.8623 5.4147 1.5805 -0.2197 38.8777 -2.7355
# 6 -46.0540 -20.2747 -8.3702 12.1351 -2.7355 48.6472
#
#
#
# Elastic Compliance Matrix: (Units=1/GPa)
#
#
# Indices 1 2 3 4 5 6 
#
# 1 0.009313 0.000781 0.000792 -0.008263 0.002022 0.011453
# 2 0.000781 0.019606 0.002275 -0.013843 -0.001894 0.012648
# 3 0.000792 0.002275 0.014658 -0.012126 -0.000354 0.007224
# 4 -0.008263 -0.013843 -0.012126 0.050841 -0.000535 -0.028391
# 5 0.002022 -0.001894 -0.000354 -0.000535 0.026491 0.002688
# 6 0.011453 0.012648 0.007224 -0.028391 0.002688 0.045146
#
#
# Mechanical properties :
#
#
# Convention : Reuss Voigt Hill
#
# Bulk Modulus (GPa) = 19.50466 51.65604 35.58035
# Shear Modulus (GPa) = 28.49829 43.57785 36.03807
#
# Velocity S-wave (km/s) = 3.26661 4.03943 3.67340
# Velocity P-wave (km/s) = 4.64013 6.41075 5.59592
#
# Compressibility (1/GPa) = 0.05126981
#
# Stress axis : x y z
#
# Youngs Moduli (GPa) = 107.38213 51.00600 68.22320
#
# Poissons Ratio (x) = -0.03982 -0.05400
# Poissons Ratio (y) = -0.08383 -0.15520
# Poissons Ratio (z) = -0.08500 -0.11603
#
# Static dielectric constant tensor:
#      x y z
#    x 2.090450 0.049560 0.034680 
#    y 0.049560 2.102370 0.034020 
#    z 0.034680 0.034020 2.138290 
# 
# From -- ./inp_files/166913.got.cif
#   From: 2010.05.17/outbox.cif.g08.bks.cpg/sg2_84_cif.got.tgz:166913.got - 2010.06.03 11:33:40.
