data_PCOD9092391
_publ_section_title
;
Structure prediction by ZEFSAII (Michael W. Deem and Ramdas Pophale) SiO2 
 PCOD9092391
Probable space group: P -1
;
_chemical_formula_sum "Si O2"
_cell_formula_units_Z 16
_cell_length_a 17.575499
_cell_length_b 8.216959
_cell_length_c 13.083790
_cell_angle_alpha 107.514022
_cell_angle_beta 30.161728
_cell_angle_gamma 87.596407
_cell_volume 702.691934
_symmetry_space_group_name_H-M "P -1"
_symmetry_group_IT_number 2
_symmetry_cell_setting 'triclinic'
loop_
_space_group_symop_operation_xyz
x,y,z
-x,-y,-z
loop_
_atom_site_type_symbol
_atom_site_label
_atom_site_fract_x
_atom_site_fract_y
_atom_site_fract_z
Si Si1 0.864304 0.932708 0.140699
Si Si2 0.794917 0.649583 0.075153
Si Si3 0.569921 0.459226 0.028804
Si Si4 0.671586 0.056624 0.591100
Si Si5 0.061896 0.593383 0.333187
Si Si6 0.311822 0.109687 0.952622
Si Si7 0.547981 0.267574 0.405703
Si Si8 0.665374 0.023453 0.824201
O O1 0.821922 0.903655 0.300187
O O2 0.680266 0.129807 0.324755
O O3 0.929147 0.712291 0.966004
O O4 0.000000 0.000000 0.000000
O O5 0.649460 0.837435 0.195632
O O6 0.663168 0.670949 0.321970
O O7 0.897554 0.438364 0.843401
O O8 0.412981 0.700447 0.302662
O O9 0.500000 0.500000 0.000000
O O10 0.777010 0.405381 0.797407
O O11 0.584067 0.255639 0.010547
O O12 0.488518 0.056883 0.803054
O O13 0.735091 0.022646 0.628061
O O14 0.112167 0.357362 0.254858
O O15 0.846762 0.819549 0.636715
O O16 0.335229 0.894719 0.858367
O O17 0.500000 0.500000 0.500000
O O18 0.500000 0.000000 0.000000
#
# Coordination Sequence:
#
# PCOD9092391 Si02
#       8
#     2   2   2   2   2   2   2   2
#     4  11  21  38  62  93 130 170 206 254 316 393
#     4   9  18  38  65  83 130 168 203 243 324 383
#     4   9  19  39  67  86 116 168 216 264 331 378
#     4  10  19  41  63  84 124 170 204 259 328 375
#     4   9  19  38  67  83 122 167 207 262 325 375
#     4   8  16  37  62  78 118 175 200 244 321 374
#     4  11  19  35  60  91 127 167 214 248 300 388
#     4  11  24  40  62  94 123 160 224 279 321 370
#
# _framework density 22.769579
#
# number of rings (size 3 to 8) (size 9 to 14) (size 15 to 20)
#    0.750    1.500    2.500    1.125    0.000    2.000 
#    6.750    6.875    8.250    0.000    0.000    0.000 
#    0.000    0.000    0.000    0.000    0.000    0.000 
#
# Total GULP energy -89093.350009 kJ/mol
# GULP energy per Si atom -5568.334376 kJ/mol
# Density = 2.271775 g / cm^3
# Si number density = 22.769579 Si / 1000 Ang^3
#
#
#
# Elastic Constant Matrix: (Units=GPa)
#
#
# Indices 1 2 3 4 5 6 
#
# 1 88.4180 34.7777 15.7296 3.9409 2.5698 12.5031
# 2 34.7777 117.3801 36.3187 22.4343 -7.5062 23.8052
# 3 15.7296 36.3187 44.3529 17.1092 -14.1656 6.1653
# 4 3.9409 22.4343 17.1092 33.8553 4.8506 1.4940
# 5 2.5698 -7.5062 -14.1656 4.8506 24.0545 -4.9921
# 6 12.5031 23.8052 6.1653 1.4940 -4.9921 42.4721
#
#
#
# Elastic Compliance Matrix: (Units=1/GPa)
#
#
# Indices 1 2 3 4 5 6 
#
# 1 0.014044 -0.003069 -0.006503 0.004917 -0.007811 -0.002561
# 2 -0.003069 0.013823 -0.007697 -0.004651 -0.000111 -0.005576
# 3 -0.006503 -0.007697 0.051322 -0.025165 0.034359 0.003702
# 4 0.004917 -0.004651 -0.025165 0.048576 -0.026596 -0.000023
# 5 -0.007811 -0.000111 0.034359 -0.026596 0.069309 0.006456
# 6 -0.002561 -0.005576 0.003702 -0.000023 0.006456 0.027647
#
#
# Mechanical properties :
#
#
# Convention : Reuss Voigt Hill
#
# Bulk Modulus (GPa) = 22.39583 47.08924 34.74253
# Shear Modulus (GPa) = 18.23876 30.96472 24.60174
#
# Velocity S-wave (km/s) = 2.83329 3.69170 3.29061
# Velocity P-wave (km/s) = 4.53438 6.23677 5.45242
#
# Compressibility (1/GPa) = 0.04465118
#
# Stress axis : x y z
#
# Youngs Moduli (GPa) = 71.20521 72.34505 19.48484
#
# Poissons Ratio (x) = 0.22200 0.12672
# Poissons Ratio (y) = 0.21850 0.14997
# Poissons Ratio (z) = 0.46308 0.55682
#
# Static dielectric constant tensor:
#      x y z
#    x 1.911660 0.010670 0.070290 
#    y 0.010670 1.897960 0.040780 
#    z 0.070290 0.040780 1.918520 
# 
# From -- ./inp_files/537498.got.cif
#   From: 2010.05.17/outbox.cif.g08.bks.cpg/sg2_269_cif.got.tgz:537498.got - 2010.06.03 11:33:40.
