data_PCOD9092022
_publ_section_title
;
Structure prediction by ZEFSAII (Michael W. Deem and Ramdas Pophale) SiO2 
 PCOD9092022
Probable space group: P -1
;
_chemical_formula_sum "Si O2"
_cell_formula_units_Z 14
_cell_length_a 15.937845
_cell_length_b 14.579617
_cell_length_c 7.965245
_cell_angle_alpha 38.905345
_cell_angle_beta 50.450829
_cell_angle_gamma 27.886500
_cell_volume 535.401378
_symmetry_space_group_name_H-M "P -1"
_symmetry_group_IT_number 2
_symmetry_cell_setting 'triclinic'
loop_
_space_group_symop_operation_xyz
x,y,z
-x,-y,-z
loop_
_atom_site_type_symbol
_atom_site_label
_atom_site_fract_x
_atom_site_fract_y
_atom_site_fract_z
Si Si1 0.297033 0.425401 0.368123
Si Si2 0.497036 0.061005 0.129547
Si Si3 0.137477 0.566983 0.999121
Si Si4 0.763510 0.225962 0.417421
Si Si5 0.368950 0.808477 0.050264
Si Si6 0.861077 0.645165 0.121625
Si Si7 0.195135 0.850761 0.905065
O O1 0.476003 0.134278 0.572083
O O2 0.215292 0.489064 0.198507
O O3 0.158101 0.494499 0.574088
O O4 0.320421 0.570015 0.165986
O O5 0.646251 0.921201 0.987568
O O6 0.291900 0.338178 0.000686
O O7 0.589415 0.068142 0.140485
O O8 0.964117 0.649439 0.103507
O O9 0.116700 0.759921 0.707459
O O10 0.562679 0.515021 0.227158
O O11 0.737094 0.150013 0.717480
O O12 0.811398 0.104927 0.347427
O O13 0.265512 0.891502 0.890616
O O14 0.000000 0.500000 0.000000
O O15 0.000000 0.000000 0.000000
#
# Coordination Sequence:
#
# PCOD9092022 Si02
#       7
#     2   2   2   2   2   2   2
#     4   9  22  41  58  91 123 158 208 253 307 368
#     4   9  22  39  66  90 118 167 206 246 321 362
#     4  10  19  40  65  87 122 163 205 258 305 370
#     4   9  22  40  63  93 122 168 209 256 319 362
#     4  10  21  42  66  89 127 162 212 263 302 379
#     4  10  23  36  58  90 126 154 201 252 303 368
#     4  11  24  38  63  95 126 166 206 255 318 373
#
# _framework density 26.148605
#
# number of rings (size 3 to 8) (size 9 to 14) (size 15 to 20)
#    0.857    1.429    0.000    1.286    6.000    2.286 
#    0.000    1.429    0.000    0.000    0.000    0.000 
#    0.000    0.000    0.000    0.000    0.000    0.000 
#
# Total GULP energy -78307.404061 kJ/mol
# GULP energy per Si atom -5593.386004 kJ/mol
# Density = 2.608909 g / cm^3
# Si number density = 26.148605 Si / 1000 Ang^3
#
#
#
# Elastic Constant Matrix: (Units=GPa)
#
#
# Indices 1 2 3 4 5 6 
#
# 1 89.8630 13.3200 29.1406 6.4776 7.3073 -15.7361
# 2 13.3200 148.2709 28.8809 27.1917 3.3864 -2.4507
# 3 29.1406 28.8809 100.6351 19.9782 -2.9976 13.6927
# 4 6.4776 27.1917 19.9782 59.5881 3.8579 -5.5516
# 5 7.3073 3.3864 -2.9976 3.8579 27.0980 12.0636
# 6 -15.7361 -2.4507 13.6927 -5.5516 12.0636 43.4065
#
#
#
# Elastic Compliance Matrix: (Units=1/GPa)
#
#
# Indices 1 2 3 4 5 6 
#
# 1 0.016005 -0.000101 -0.006893 0.002326 -0.010360 0.011148
# 2 -0.000101 0.007641 -0.001786 -0.002716 -0.001153 0.000931
# 3 -0.006893 -0.001786 0.015175 -0.005107 0.009206 -0.010599
# 4 0.002326 -0.002716 -0.005107 0.020558 -0.006818 0.006825
# 5 -0.010360 -0.001153 0.009206 -0.006818 0.051596 -0.021936
# 6 0.011148 0.000931 -0.010599 0.006825 -0.021936 0.037445
#
#
# Mechanical properties :
#
#
# Convention : Reuss Voigt Hill
#
# Bulk Modulus (GPa) = 47.03032 53.49466 50.26249
# Shear Modulus (GPa) = 28.89071 43.84701 36.36886
#
# Velocity S-wave (km/s) = 3.32756 4.09937 3.73346
# Velocity P-wave (km/s) = 5.72611 6.55048 6.15212
#
# Compressibility (1/GPa) = 0.02126288
#
# Stress axis : x y z
#
# Youngs Moduli (GPa) = 62.48050 130.87178 65.89607
#
# Poissons Ratio (x) = 0.01322 0.45421
# Poissons Ratio (y) = 0.00631 0.11766
# Poissons Ratio (z) = 0.43066 0.23368
#
# Static dielectric constant tensor:
#      x y z
#    x 2.071140 0.027150 0.015790 
#    y 0.027150 2.168700 -0.029490 
#    z 0.015790 -0.029490 2.002680 
# 
# From -- ./inp_files/334107.got.cif
#   From: 2010.05.17/outbox.cif.g08.bks.cpg/sg2_168_cif.got.tgz:334107.got - 2010.06.03 11:33:40.
