data_PCOD9092154
_publ_section_title
;
Structure prediction by ZEFSAII (Michael W. Deem and Ramdas Pophale) SiO2 
 PCOD9092154
Probable space group: P -1
;
_chemical_formula_sum "Si O2"
_cell_formula_units_Z 16
_cell_length_a 17.307488
_cell_length_b 9.101843
_cell_length_c 10.598521
_cell_angle_alpha 139.070392
_cell_angle_beta 117.843674
_cell_angle_gamma 91.627019
_cell_volume 728.151615
_symmetry_space_group_name_H-M "P -1"
_symmetry_group_IT_number 2
_symmetry_cell_setting 'triclinic'
loop_
_space_group_symop_operation_xyz
x,y,z
-x,-y,-z
loop_
_atom_site_type_symbol
_atom_site_label
_atom_site_fract_x
_atom_site_fract_y
_atom_site_fract_z
Si Si1 0.317231 0.305828 0.899814
Si Si2 0.737446 0.648103 0.635459
Si Si3 0.258639 0.723629 0.385090
Si Si4 0.485861 0.795546 0.149725
Si Si5 0.113729 0.690490 0.795150
Si Si6 0.326708 0.819158 0.917163
Si Si7 0.509684 0.626888 0.778636
Si Si8 0.117972 0.340435 0.798911
O O1 0.221587 0.336766 0.849991
O O2 0.256785 0.961236 0.608754
O O3 0.408905 0.502527 0.985096
O O4 0.403032 0.431672 0.167668
O O5 0.740470 0.478050 0.643981
O O6 0.725301 0.481664 0.391698
O O7 0.619945 0.602100 0.522415
O O8 0.848131 0.994499 0.934563
O O9 0.381353 0.934006 0.538061
O O10 0.155195 0.518928 0.074619
O O11 0.404235 0.875183 0.130917
O O12 0.496366 0.721656 0.966820
O O13 0.219246 0.786384 0.850947
O O14 0.107152 0.508531 0.789957
O O15 0.000000 0.500000 0.500000
O O16 0.417456 0.086076 0.066572
O O17 0.000000 0.000000 0.500000
#
# Coordination Sequence:
#
# PCOD9092154 Si02
#       8
#     2   2   2   2   2   2   2   2
#     4  11  24  42  70 101 140 178 212 272 334 395
#     4  11  23  42  72 103 135 174 218 269 333 398
#     4  11  23  42  72 101 137 176 214 268 339 396
#     4  10  19  40  67 106 139 168 215 265 334 408
#     4  12  30  47  68  95 129 178 235 281 317 390
#     4  11  21  44  70 100 142 170 216 268 334 397
#     4  10  20  38  71 105 136 175 209 266 334 406
#     4  12  30  49  65  94 133 178 234 278 322 390
#
# _framework density 21.973445999999999
#
# number of rings (size 3 to 8) (size 9 to 14) (size 15 to 20)
#    0.000    1.000    5.000    3.000    8.750    3.000 
#    0.000    0.000    0.000    0.000    0.000    0.000 
#    0.000    0.000    0.000    0.000    0.000    0.000 
#
# Total GULP energy -89418.229564 kJ/mol
# GULP energy per Si atom -5588.639348 kJ/mol
# Density = 2.192343 g / cm^3
# Si number density = 21.973446 Si / 1000 Ang^3
#
#
#
# Elastic Constant Matrix: (Units=GPa)
#
#
# Indices 1 2 3 4 5 6 
#
# 1 32.9662 2.5971 5.7924 4.9957 -3.1401 -7.3870
# 2 2.5971 137.5877 48.2412 4.5387 0.7837 -8.1622
# 3 5.7924 48.2412 154.5618 1.4299 -3.2740 2.8174
# 4 4.9957 4.5387 1.4299 38.8289 -0.8805 9.1134
# 5 -3.1401 0.7837 -3.2740 -0.8805 22.2771 1.3535
# 6 -7.3870 -8.1622 2.8174 9.1134 1.3535 23.1864
#
#
#
# Elastic Compliance Matrix: (Units=1/GPa)
#
#
# Indices 1 2 3 4 5 6 
#
# 1 0.035435 0.001084 -0.001789 -0.008024 0.003475 0.014839
# 2 0.001084 0.008579 -0.002802 -0.002140 -0.000925 0.004601
# 3 -0.001789 -0.002802 0.007480 0.000995 0.001163 -0.002924
# 4 -0.008024 -0.002140 0.000995 0.030681 0.001249 -0.015562
# 5 0.003475 -0.000925 0.001163 0.001249 0.045785 -0.002523
# 6 0.014839 0.004601 -0.002924 -0.015562 -0.002523 0.056095
#
#
# Mechanical properties :
#
#
# Convention : Reuss Voigt Hill
#
# Bulk Modulus (GPa) = 22.48209 48.70856 35.59532
# Shear Modulus (GPa) = 24.28412 34.75751 29.52081
#
# Velocity S-wave (km/s) = 3.32800 3.98149 3.66932
# Velocity P-wave (km/s) = 5.00211 6.58419 5.84691
#
# Compressibility (1/GPa) = 0.04447985
#
# Stress axis : x y z
#
# Youngs Moduli (GPa) = 28.22057 116.56642 133.68684
#
# Poissons Ratio (x) = -0.12630 0.23914
# Poissons Ratio (y) = -0.03058 0.37457
# Poissons Ratio (z) = 0.05048 0.32660
#
# Static dielectric constant tensor:
#      x y z
#    x 1.852440 -0.055420 -0.035340 
#    y -0.055420 1.883470 -0.003180 
#    z -0.035340 -0.003180 1.805670 
# 
# From -- ./inp_files/462572.got.cif
#   From: 2010.05.17/outbox.cif.g08.bks.cpg/sg2_232_cif.got.tgz:462572.got - 2010.06.03 11:33:40.
