data_PCOD9092367
_publ_section_title
;
Structure prediction by ZEFSAII (Michael W. Deem and Ramdas Pophale) SiO2 
 PCOD9092367
Probable space group: P -1
;
_chemical_formula_sum "Si O2"
_cell_formula_units_Z 14
_cell_length_a 7.163380
_cell_length_b 12.745616
_cell_length_c 7.879078
_cell_angle_alpha 72.996835
_cell_angle_beta 63.218053
_cell_angle_gamma 62.402428
_cell_volume 565.943864
_symmetry_space_group_name_H-M "P -1"
_symmetry_group_IT_number 2
_symmetry_cell_setting 'triclinic'
loop_
_space_group_symop_operation_xyz
x,y,z
-x,-y,-z
loop_
_atom_site_type_symbol
_atom_site_label
_atom_site_fract_x
_atom_site_fract_y
_atom_site_fract_z
Si Si1 0.446617 0.080057 0.647268
Si Si2 0.129981 0.017821 0.273614
Si Si3 0.477654 0.389945 0.157157
Si Si4 0.002276 0.533265 0.181318
Si Si5 0.490450 0.332419 0.541897
Si Si6 0.109984 0.210417 0.968097
Si Si7 0.406323 0.780322 0.113368
O O1 0.624710 0.996998 0.748835
O O2 0.483638 0.203858 0.552281
O O3 0.200753 0.124416 0.810103
O O4 0.500000 0.000000 0.500000
O O5 0.208166 0.908086 0.163323
O O6 0.000000 0.000000 0.500000
O O7 0.015136 0.144656 0.173164
O O8 0.565761 0.376829 0.319393
O O9 0.202276 0.430945 0.246348
O O10 0.500000 0.500000 0.000000
O O11 0.577955 0.274838 0.050945
O O12 0.758155 0.571760 0.351446
O O13 0.035694 0.658318 0.097195
O O14 0.000000 0.500000 0.000000
O O15 0.623881 0.301791 0.680537
O O16 0.343152 0.218753 0.945771
#
# Coordination Sequence:
#
# PCOD9092367 Si02
#       7
#     2   2   2   2   2   2   2
#     4   9  19  35  61  87 110 149 197 235 287 347
#     4  10  21  38  58  89 119 148 189 239 302 346
#     4  12  24  38  61  90 121 154 196 246 295 342
#     4  10  19  41  61  84 117 157 201 239 283 350
#     4   9  21  38  62  85 118 154 200 241 283 353
#     4   9  19  37  65  81 113 157 193 232 289 354
#     4   9  20  42  59  86 118 159 197 235 296 350
#
# _framework density 24.737435999999999
#
# number of rings (size 3 to 8) (size 9 to 14) (size 15 to 20)
#    0.000    2.857    2.857    2.143    4.000    2.857 
#    7.714    0.714    0.000    0.000    0.000    0.000 
#    0.000    0.000    0.000    0.000    0.000    0.000 
#
# Total GULP energy -78211.392005 kJ/mol
# GULP energy per Si atom -5586.528000 kJ/mol
# Density = 2.468113 g / cm^3
# Si number density = 24.737436 Si / 1000 Ang^3
#
#
#
# Elastic Constant Matrix: (Units=GPa)
#
#
# Indices 1 2 3 4 5 6 
#
# 1 61.0157 13.9064 -2.7472 13.3786 9.9409 -3.9031
# 2 13.9064 115.3464 54.0793 33.7120 5.3786 -14.2878
# 3 -2.7472 54.0793 150.9643 3.9193 15.0637 3.6754
# 4 13.3786 33.7120 3.9193 51.4124 0.5116 7.3743
# 5 9.9409 5.3786 15.0637 0.5116 24.0159 0.6874
# 6 -3.9031 -14.2878 3.6754 7.3743 0.6874 21.7367
#
#
#
# Elastic Compliance Matrix: (Units=1/GPa)
#
#
# Indices 1 2 3 4 5 6 
#
# 1 0.019552 -0.000246 0.001352 -0.005706 -0.008917 0.005338
# 2 -0.000246 0.017905 -0.006483 -0.013687 -0.000050 0.017466
# 3 0.001352 -0.006483 0.009526 0.004213 -0.004975 -0.006902
# 4 -0.005706 -0.013687 0.004213 0.032706 0.002716 -0.021915
# 5 -0.008917 -0.000050 -0.004975 0.002716 0.048497 -0.003248
# 6 0.005338 0.017466 -0.006902 -0.021915 -0.003248 0.067149
#
#
# Mechanical properties :
#
#
# Convention : Reuss Voigt Hill
#
# Bulk Modulus (GPa) = 27.60326 50.86706 39.23516
# Shear Modulus (GPa) = 22.91832 36.90551 29.91191
#
# Velocity S-wave (km/s) = 3.04709 3.86669 3.48109
# Velocity P-wave (km/s) = 4.85411 6.36730 5.66149
#
# Compressibility (1/GPa) = 0.03622760
#
# Stress axis : x y z
#
# Youngs Moduli (GPa) = 51.14643 55.84999 104.97236
#
# Poissons Ratio (x) = 0.01375 -0.14192
# Poissons Ratio (y) = 0.01259 0.68059
# Poissons Ratio (z) = -0.06915 0.36210
#
# Static dielectric constant tensor:
#      x y z
#    x 2.099740 -0.007340 -0.071740 
#    y -0.007340 1.977100 -0.002620 
#    z -0.071740 -0.002620 2.017450 
# 
# From -- ./inp_files/175875.got.cif
#   From: 2010.05.17/outbox.cif.g08.bks.cpg/sg2_88_cif.got.tgz:175875.got - 2010.06.03 11:33:40.
