data_PCOD9092606
_publ_section_title
;
Structure prediction by ZEFSAII (Michael W. Deem and Ramdas Pophale) SiO2 
 PCOD9092606
Probable space group: P -1
;
_chemical_formula_sum "Si O2"
_cell_formula_units_Z 15
_cell_length_a 11.796123
_cell_length_b 14.601792
_cell_length_c 9.041682
_cell_angle_alpha 107.109603
_cell_angle_beta 111.793905
_cell_angle_gamma 131.302053
_cell_volume 689.096339
_symmetry_space_group_name_H-M "P -1"
_symmetry_group_IT_number 2
_symmetry_cell_setting 'triclinic'
loop_
_space_group_symop_operation_xyz
x,y,z
-x,-y,-z
loop_
_atom_site_type_symbol
_atom_site_label
_atom_site_fract_x
_atom_site_fract_y
_atom_site_fract_z
Si Si1 0.808280 0.483319 0.479231
Si Si2 0.534103 0.847150 0.319654
Si Si3 0.363264 0.493319 0.350084
Si Si4 0.093750 0.783902 0.183139
Si Si5 0.820219 0.636175 0.286773
Si Si6 0.346983 0.277311 0.702118
Si Si7 0.633352 0.182404 0.079259
Si Si8 0.000000 0.500000 0.000000
O O1 0.661593 0.435909 0.514784
O O2 0.858981 0.591745 0.421366
O O3 0.663206 0.292057 0.258683
O O4 0.080519 0.640437 0.739819
O O5 0.707642 0.872126 0.393604
O O6 0.647952 0.987975 0.572143
O O7 0.508877 0.882755 0.167255
O O8 0.261116 0.629767 0.130268
O O9 0.500000 0.500000 0.500000
O O10 0.518088 0.618279 0.338858
O O11 0.087971 0.290834 0.058566
O O12 0.984900 0.724463 0.267424
O O13 0.112748 0.684388 0.116837
O O14 0.839283 0.761034 0.397050
O O15 0.541118 0.426563 0.999232
O O16 0.500000 0.000000 0.000000
#
# Coordination Sequence:
#
# PCOD9092606 Si02
#       8
#     2   2   2   2   2   2   2   1
#     4  11  22  42  68  95 134 176 218 271 340 398
#     4  12  24  44  70 101 133 178 232 274 330 401
#     4  11  22  43  68  98 134 175 218 275 346 396
#     4  11  25  41  69 101 131 178 228 273 332 401
#     4  10  19  41  70  94 127 174 226 272 331 401
#     4  10  21  40  70  95 127 176 223 275 333 397
#     4  11  25  42  65 100 134 174 222 279 332 390
#     4  12  22  44  66  96 136 174 222 276 324 390
#
# _framework density 21.76764
#
# number of rings (size 3 to 8) (size 9 to 14) (size 15 to 20)
#    0.000    1.067    5.333    2.000    0.000    3.733 
#    4.800    2.000    0.000    0.000    0.000    0.000 
#    0.000    0.000    0.000    0.000    0.000    0.000 
#
# Total GULP energy -83572.194634 kJ/mol
# GULP energy per Si atom -5571.479642 kJ/mol
# Density = 2.171810 g / cm^3
# Si number density = 21.767640 Si / 1000 Ang^3
#
#
#
# Elastic Constant Matrix: (Units=GPa)
#
#
# Indices 1 2 3 4 5 6 
#
# 1 145.9880 30.4452 45.0285 -7.7707 -19.8387 -19.0325
# 2 30.4452 63.1643 46.6443 -2.7531 -4.0978 -20.5455
# 3 45.0285 46.6443 117.6894 -7.6493 -4.1878 -24.0044
# 4 -7.7707 -2.7531 -7.6493 35.8301 -3.2770 2.3201
# 5 -19.8387 -4.0978 -4.1878 -3.2770 21.6605 -5.4213
# 6 -19.0325 -20.5455 -24.0044 2.3201 -5.4213 42.7531
#
#
#
# Elastic Compliance Matrix: (Units=1/GPa)
#
#
# Indices 1 2 3 4 5 6 
#
# 1 0.009585 -0.001309 -0.001932 0.002190 0.009397 0.003626
# 2 -0.001309 0.024826 -0.007672 -0.000148 0.003880 0.007540
# 3 -0.001932 -0.007672 0.012927 0.001596 0.000182 0.002647
# 4 0.002190 -0.000148 0.001596 0.029282 0.006992 0.001098
# 5 0.009397 0.003880 0.000182 0.006992 0.059947 0.013372
# 6 0.003626 0.007540 0.002647 0.001098 0.013372 0.031750
#
#
# Mechanical properties :
#
#
# Convention : Reuss Voigt Hill
#
# Bulk Modulus (GPa) = 39.19767 63.45307 51.32537
# Shear Modulus (GPa) = 25.17009 33.69698 29.43353
#
# Velocity S-wave (km/s) = 3.40414 3.93877 3.68117
# Velocity P-wave (km/s) = 5.78769 7.06390 6.45740
#
# Compressibility (1/GPa) = 0.02551172
#
# Stress axis : x y z
#
# Youngs Moduli (GPa) = 104.32949 40.28040 77.35559
#
# Poissons Ratio (x) = 0.05271 0.14948
# Poissons Ratio (y) = 0.13652 0.59350
# Poissons Ratio (z) = 0.20160 0.30905
#
# Static dielectric constant tensor:
#      x y z
#    x 1.782660 -0.058670 0.000590 
#    y -0.058670 1.757740 -0.004830 
#    z 0.000590 -0.004830 1.805930 
# 
# From -- ./inp_files/273848.got.cif
#   From: 2010.05.17/outbox.cif.g08.bks.cpg/sg2_137_cif.got.tgz:273848.got - 2010.06.03 11:33:40.
