data_PCOD9092124
_publ_section_title
;
Structure prediction by ZEFSAII (Michael W. Deem and Ramdas Pophale) SiO2 
 PCOD9092124
Probable space group: P -1
;
_chemical_formula_sum "Si O2"
_cell_formula_units_Z 14
_cell_length_a 11.975225
_cell_length_b 12.052612
_cell_length_c 9.166060
_cell_angle_alpha 130.898845
_cell_angle_beta 42.745837
_cell_angle_gamma 137.695139
_cell_volume 586.081186
_symmetry_space_group_name_H-M "P -1"
_symmetry_group_IT_number 2
_symmetry_cell_setting 'triclinic'
loop_
_space_group_symop_operation_xyz
x,y,z
-x,-y,-z
loop_
_atom_site_type_symbol
_atom_site_label
_atom_site_fract_x
_atom_site_fract_y
_atom_site_fract_z
Si Si1 0.948131 0.405185 0.128043
Si Si2 0.845972 0.305790 0.636461
Si Si3 0.598348 0.642236 0.685521
Si Si4 0.243120 0.292566 0.701999
Si Si5 0.829843 0.981907 0.248598
Si Si6 0.646791 0.194775 0.037313
Si Si7 0.523815 0.682537 0.096334
O O1 0.963032 0.518684 0.350598
O O2 0.748452 0.244212 0.138935
O O3 0.000000 0.500000 0.000000
O O4 0.104183 0.349827 0.954719
O O5 0.778098 0.232196 0.801600
O O6 0.680571 0.338340 0.763100
O O7 0.856054 0.166174 0.409210
O O8 0.459449 0.439359 0.660270
O O9 0.764356 0.695330 0.455711
O O10 0.460459 0.700549 0.793874
O O11 0.648373 0.729735 0.868339
O O12 0.182004 0.108999 0.663876
O O13 0.636661 0.838111 0.231967
O O14 0.000000 0.000000 0.000000
O O15 0.500000 0.000000 0.000000
O O16 0.500000 0.500000 0.000000
#
# Coordination Sequence:
#
# PCOD9092124 Si02
#       7
#     2   2   2   2   2   2   2
#     4  10  19  40  66  93 139 167 217 282 336 403
#     4  10  22  43  63  93 133 180 227 271 332 407
#     4  10  21  39  71 101 128 169 228 273 342 397
#     4  11  21  42  68  99 133 175 224 281 332 404
#     4  12  27  45  63  98 143 181 228 281 337 396
#     4  10  20  38  67 102 133 167 217 283 342 395
#     4  11  21  45  71  96 135 182 226 276 339 408
#
# _framework density 23.887474999999998
#
# number of rings (size 3 to 8) (size 9 to 14) (size 15 to 20)
#    0.000    1.429    5.714    1.286    0.000    4.571 
#    0.000   10.000    0.000    0.000    0.000    0.000 
#    0.000    0.000    0.000    0.000    0.000    0.000 
#
# Total GULP energy -78232.160582 kJ/mol
# GULP energy per Si atom -5588.011470 kJ/mol
# Density = 2.383311 g / cm^3
# Si number density = 23.887475 Si / 1000 Ang^3
#
#
#
# Elastic Constant Matrix: (Units=GPa)
#
#
# Indices 1 2 3 4 5 6 
#
# 1 97.5113 57.3550 36.6455 20.5879 11.3365 26.8575
# 2 57.3550 115.8365 50.0832 26.4443 2.8845 24.0533
# 3 36.6455 50.0832 107.3960 38.1974 13.2949 1.0631
# 4 20.5879 26.4443 38.1974 45.6108 3.9590 11.5967
# 5 11.3365 2.8845 13.2949 3.9590 21.0262 5.4258
# 6 26.8575 24.0533 1.0631 11.5967 5.4258 37.7221
#
#
#
# Elastic Compliance Matrix: (Units=1/GPa)
#
#
# Indices 1 2 3 4 5 6 
#
# 1 0.017325 -0.005701 -0.002614 0.000122 -0.004874 -0.007963
# 2 -0.005701 0.015140 -0.005685 -0.000409 0.006271 -0.006211
# 3 -0.002614 -0.005685 0.018514 -0.012802 -0.009766 0.010304
# 4 0.000122 -0.000409 -0.012802 0.035231 0.004266 -0.010910
# 5 -0.004874 0.006271 -0.009766 0.004266 0.057227 -0.009796
# 6 -0.007963 -0.006211 0.010304 -0.010910 -0.009796 0.040612
#
#
# Mechanical properties :
#
#
# Convention : Reuss Voigt Hill
#
# Bulk Modulus (GPa) = 43.51561 67.65679 55.58620
# Shear Modulus (GPa) = 22.75734 32.64917 27.70325
#
# Velocity S-wave (km/s) = 3.08992 3.70102 3.40919
# Velocity P-wave (km/s) = 5.56656 6.82994 6.23035
#
# Compressibility (1/GPa) = 0.02298026
#
# Stress axis : x y z
#
# Youngs Moduli (GPa) = 57.72011 66.04825 54.01217
#
# Poissons Ratio (x) = 0.37654 0.14120
# Poissons Ratio (y) = 0.32906 0.30703
# Poissons Ratio (z) = 0.15089 0.37545
#
# Static dielectric constant tensor:
#      x y z
#    x 0.819850 0.667560 0.207080 
#    y 0.667560 1.675780 -0.135390 
#    z 0.207080 -0.135390 1.908890 
# 
# From -- ./inp_files/262867.got.cif
#   From: 2010.05.17/outbox.cif.g08.bks.cpg/sg2_132_cif.got.tgz:262867.got - 2010.06.03 11:33:40.
