data_PCOD9092397
_publ_section_title
;
Structure prediction by ZEFSAII (Michael W. Deem and Ramdas Pophale) SiO2 
 PCOD9092397
Probable space group: P -1
;
_chemical_formula_sum "Si O2"
_cell_formula_units_Z 10
_cell_length_a 7.906296
_cell_length_b 7.258736
_cell_length_c 8.337042
_cell_angle_alpha 108.333171
_cell_angle_beta 56.971647
_cell_angle_gamma 98.538961
_cell_volume 380.622671
_symmetry_space_group_name_H-M "P -1"
_symmetry_group_IT_number 2
_symmetry_cell_setting 'triclinic'
loop_
_space_group_symop_operation_xyz
x,y,z
-x,-y,-z
loop_
_atom_site_type_symbol
_atom_site_label
_atom_site_fract_x
_atom_site_fract_y
_atom_site_fract_z
Si Si1 0.794792 0.554828 0.720188
Si Si2 0.628342 0.107546 0.268232
Si Si3 0.005370 0.070090 0.202755
Si Si4 0.328096 0.598296 0.917819
Si Si5 0.256391 0.236103 0.676977
O O1 0.565643 0.536248 0.771783
O O2 0.000000 0.500000 0.500000
O O3 0.826362 0.784366 0.799800
O O4 0.772857 0.444890 0.872096
O O5 0.789006 0.191768 0.336234
O O6 0.682084 0.182059 0.084198
O O7 0.411333 0.198518 0.445318
O O8 0.638747 0.882207 0.256842
O O9 0.942128 0.885434 0.287100
O O10 0.000000 0.000000 0.000000
O O11 0.225082 0.455686 0.804189
#
# Coordination Sequence:
#
# PCOD9092397 Si02
#       5
#     2   2   2   2   2
#     4  11  24  40  62  93 130 162 201 261 312 358
#     4   9  20  37  67  91 116 164 211 247 308 367
#     4  10  19  41  63  87 125 159 204 259 302 359
#     4  11  22  42  64  89 127 165 203 254 312 366
#     4   9  19  39  66  85 124 156 209 254 301 362
#
# _framework density 26.272739000000001
#
# number of rings (size 3 to 8) (size 9 to 14) (size 15 to 20)
#    1.200    0.800    2.000    1.800    0.000    0.800 
#    3.600   10.000    0.000    0.000    0.000    0.000 
#    0.000    0.000    0.000    0.000    0.000    0.000 
#
# Total GULP energy -55729.993623 kJ/mol
# GULP energy per Si atom -5572.999362 kJ/mol
# Density = 2.621294 g / cm^3
# Si number density = 26.272739 Si / 1000 Ang^3
#
#
#
# Elastic Constant Matrix: (Units=GPa)
#
#
# Indices 1 2 3 4 5 6 
#
# 1 64.8408 33.0621 17.7860 -12.6843 -23.9237 11.5727
# 2 33.0621 152.6879 37.5916 -19.8946 12.4106 4.8094
# 3 17.7860 37.5916 138.6019 -32.3204 -32.6773 12.5189
# 4 -12.6843 -19.8946 -32.3204 44.1189 2.5289 -5.7097
# 5 -23.9237 12.4106 -32.6773 2.5289 24.9717 -9.3400
# 6 11.5727 4.8094 12.5189 -5.7097 -9.3400 43.0842
#
#
#
# Elastic Compliance Matrix: (Units=1/GPa)
#
#
# Indices 1 2 3 4 5 6 
#
# 1 0.084804 -0.037586 0.042252 0.030388 0.154640 0.006690
# 2 -0.037586 0.025454 -0.023371 -0.012510 -0.079813 -0.004915
# 3 0.042252 -0.023371 0.036585 0.023390 0.099588 0.005318
# 4 0.030388 -0.012510 0.023390 0.039954 0.063988 0.005604
# 5 0.154640 -0.079813 0.099588 0.063988 0.361127 0.025202
# 6 0.006690 -0.004915 0.005318 0.005604 0.025202 0.026623
#
#
# Mechanical properties :
#
#
# Convention : Reuss Voigt Hill
#
# Bulk Modulus (GPa) = 9.13797 59.22332 34.18064
# Shear Modulus (GPa) = 7.71088 40.28101 23.99595
#
# Velocity S-wave (km/s) = 1.71502 3.91984 3.02543
# Velocity P-wave (km/s) = 2.72166 6.56335 5.02419
#
# Compressibility (1/GPa) = 0.10943355
#
# Stress axis : x y z
#
# Youngs Moduli (GPa) = 11.79185 39.28679 27.33372
#
# Poissons Ratio (x) = 1.47664 -1.15491
# Poissons Ratio (y) = 0.44321 0.63881
# Poissons Ratio (z) = -0.49823 0.91816
#
# Static dielectric constant tensor:
#      x y z
#    x 2.161130 -0.048190 -0.209300 
#    y -0.048190 2.038240 0.029240 
#    z -0.209300 0.029240 2.346180 
# 
# From -- ./inp_files/151199.got.cif
#   From: 2010.05.17/outbox.cif.g08.bks.cpg/sg2_76_cif.got.tgz:151199.got - 2010.06.03 11:33:40.
