data_PCOD9092637
_publ_section_title
;
Structure prediction by ZEFSAII (Michael W. Deem and Ramdas Pophale) SiO2 
 PCOD9092637
Probable space group: P -1
;
_chemical_formula_sum "Si O2"
_cell_formula_units_Z 16
_cell_length_a 9.308227
_cell_length_b 17.060177
_cell_length_c 9.826453
_cell_angle_alpha 42.321653
_cell_angle_beta 135.716891
_cell_angle_gamma 137.745201
_cell_volume 655.635525
_symmetry_space_group_name_H-M "P -1"
_symmetry_group_IT_number 2
_symmetry_cell_setting 'triclinic'
loop_
_space_group_symop_operation_xyz
x,y,z
-x,-y,-z
loop_
_atom_site_type_symbol
_atom_site_label
_atom_site_fract_x
_atom_site_fract_y
_atom_site_fract_z
Si Si1 0.827181 0.462261 0.630871
Si Si2 0.058574 0.134330 0.947461
Si Si3 0.641409 0.117521 0.236374
Si Si4 0.331178 0.550737 0.754003
Si Si5 0.129002 0.924028 0.815579
Si Si6 0.048822 0.282904 0.485989
Si Si7 0.620386 0.850257 0.624244
Si Si8 0.580838 0.803664 0.231068
O O1 0.724014 0.491043 0.386075
O O2 0.845281 0.562517 0.632103
O O3 0.654707 0.315968 0.735415
O O4 0.086205 0.488017 0.743466
O O5 0.297337 0.168620 0.145222
O O6 0.896807 0.125710 0.980162
O O7 0.041518 0.230399 0.701328
O O8 0.000000 0.000000 0.000000
O O9 0.802977 0.136799 0.187289
O O10 0.552829 0.968417 0.416726
O O11 0.452468 0.153541 0.997447
O O12 0.444019 0.708307 0.635763
O O13 0.500000 0.500000 0.000000
O O14 0.869153 0.905873 0.644609
O O15 0.332666 0.069856 0.779564
O O16 0.217876 0.239786 0.576477
O O17 0.800761 0.212622 0.338480
#
# Coordination Sequence:
#
# PCOD9092637 Si02
#       8
#     2   2   2   2   2   2   2   2
#     4  11  29  47  71 107 145 195 244 293 361 434
#     4  10  19  41  72 100 139 183 229 293 368 412
#     4  12  25  41  74 110 141 190 243 291 367 432
#     4  11  26  51  77 103 143 194 247 295 355 436
#     4  10  23  43  73 105 142 183 237 298 362 417
#     4  12  25  49  69 107 153 186 241 300 361 428
#     4  10  22  42  77 102 140 188 233 300 362 417
#     4  12  26  45  71 103 152 191 237 298 359 428
#
# _framework density 24.4038
#
# number of rings (size 3 to 8) (size 9 to 14) (size 15 to 20)
#    0.750    0.250    3.750    2.625    3.500    4.500 
#    0.000    1.875    0.000    0.000    0.000    0.000 
#    0.000    0.000    0.000    0.000    0.000    0.000 
#
# Total GULP energy -89550.820550 kJ/mol
# GULP energy per Si atom -5596.926284 kJ/mol
# Density = 2.434826 g / cm^3
# Si number density = 24.403800 Si / 1000 Ang^3
#
#
#
# Elastic Constant Matrix: (Units=GPa)
#
#
# Indices 1 2 3 4 5 6 
#
# 1 69.6112 24.2963 9.4498 1.4187 -11.8727 -1.4060
# 2 24.2963 147.1837 31.5881 17.8025 -7.1259 11.3088
# 3 9.4498 31.5881 103.7366 27.7728 -2.7002 3.9293
# 4 1.4187 17.8025 27.7728 33.4018 -0.3873 -8.7655
# 5 -11.8727 -7.1259 -2.7002 -0.3873 25.2773 8.8491
# 6 -1.4060 11.3088 3.9293 -8.7655 8.8491 45.5961
#
#
#
# Elastic Compliance Matrix: (Units=1/GPa)
#
#
# Indices 1 2 3 4 5 6 
#
# 1 0.016483 -0.002360 -0.001011 0.001511 0.006949 0.000123
# 2 -0.002360 0.008278 -0.000955 -0.004361 0.002216 -0.003312
# 3 -0.001011 -0.000955 0.013232 -0.011334 0.001701 -0.003444
# 4 0.001511 -0.004361 -0.011334 0.044628 -0.005136 0.011681
# 5 0.006949 0.002216 0.001701 -0.005136 0.047279 -0.010645
# 6 0.000123 -0.003312 -0.003444 0.011681 -0.010645 0.027365
#
#
# Mechanical properties :
#
#
# Convention : Reuss Voigt Hill
#
# Bulk Modulus (GPa) = 34.08193 50.13331 42.10762
# Shear Modulus (GPa) = 28.45781 37.86821 33.16301
#
# Velocity S-wave (km/s) = 3.41856 3.94348 3.69036
# Velocity P-wave (km/s) = 5.43858 6.42826 5.95402
#
# Compressibility (1/GPa) = 0.02934106
#
# Stress axis : x y z
#
# Youngs Moduli (GPa) = 60.66743 120.80240 75.57554
#
# Poissons Ratio (x) = 0.28505 0.07643
# Poissons Ratio (y) = 0.14316 0.07217
# Poissons Ratio (z) = 0.06136 0.11536
#
# Static dielectric constant tensor:
#      x y z
#    x 2.008640 0.023870 -0.004010 
#    y 0.023870 1.870430 -0.016850 
#    z -0.004010 -0.016850 1.981310 
# 
# From -- ./inp_files/402919.got.cif
#   From: 2010.05.17/outbox.cif.g08.bks.cpg/sg2_202_cif.got.tgz:402919.got - 2010.06.03 11:33:40.
