data_PCOD9092584
_publ_section_title
;
Structure prediction by ZEFSAII (Michael W. Deem and Ramdas Pophale) SiO2 
 PCOD9092584
Probable space group: P -1
;
_chemical_formula_sum "Si O2"
_cell_formula_units_Z 14
_cell_length_a 15.774357
_cell_length_b 15.326034
_cell_length_c 5.282504
_cell_angle_alpha 97.622314
_cell_angle_beta 68.569981
_cell_angle_gamma 148.666192
_cell_volume 574.162303
_symmetry_space_group_name_H-M "P -1"
_symmetry_group_IT_number 2
_symmetry_cell_setting 'triclinic'
loop_
_space_group_symop_operation_xyz
x,y,z
-x,-y,-z
loop_
_atom_site_type_symbol
_atom_site_label
_atom_site_fract_x
_atom_site_fract_y
_atom_site_fract_z
Si Si1 0.259492 0.184810 0.111969
Si Si2 0.316574 0.969265 0.158834
Si Si3 0.585347 0.334604 0.786422
Si Si4 0.019752 0.810983 0.192527
Si Si5 0.186240 0.510776 0.899364
Si Si6 0.378075 0.842785 0.774928
Si Si7 0.722416 0.696900 0.356731
O O1 0.223054 0.187094 0.437612
O O2 0.145935 0.003168 0.076634
O O3 0.472882 0.330402 0.938679
O O4 0.220273 0.224596 0.957639
O O5 0.120698 0.854796 0.347909
O O6 0.460297 0.086858 0.275896
O O7 0.307131 0.859544 0.047376
O O8 0.436307 0.128666 0.890615
O O9 0.686677 0.415966 0.442124
O O10 0.728413 0.438953 0.900640
O O11 0.002299 0.706420 0.007043
O O12 0.821806 0.692133 0.337287
O O13 0.201416 0.627846 0.865101
O O14 0.500000 0.000000 0.500000
O O15 0.500000 0.500000 0.500000
#
# Coordination Sequence:
#
# PCOD9092584 Si02
#       7
#     2   2   2   2   2   2   2
#     4  11  24  43  68  93 133 173 216 270 322 378
#     4   9  21  40  65  92 129 168 215 272 322 387
#     4  10  20  40  63  94 125 173 221 262 321 382
#     4  11  25  43  62 100 134 170 215 269 329 377
#     4  11  23  39  65  96 133 169 214 270 319 392
#     4  10  19  41  69  92 124 173 221 259 330 389
#     4  12  25  45  70  96 130 177 220 265 316 386
#
# _framework density 24.383348999999999
#
# number of rings (size 3 to 8) (size 9 to 14) (size 15 to 20)
#    0.000    1.429    1.429    3.857    0.000    2.857 
#    5.143    0.714    0.000    0.000    0.000    0.000 
#    0.000    0.000    0.000    0.000    0.000    0.000 
#
# Total GULP energy -77975.972139 kJ/mol
# GULP energy per Si atom -5569.712296 kJ/mol
# Density = 2.432785 g / cm^3
# Si number density = 24.383349 Si / 1000 Ang^3
#
#
#
# Elastic Constant Matrix: (Units=GPa)
#
#
# Indices 1 2 3 4 5 6 
#
# 1 135.7355 41.5274 8.1314 -12.9236 -23.2344 7.1195
# 2 41.5274 135.5903 8.6859 0.8715 15.9870 -15.5350
# 3 8.1314 8.6859 44.2927 6.4415 -4.4349 -9.1529
# 4 -12.9236 0.8715 6.4415 24.9245 -11.4992 -9.1704
# 5 -23.2344 15.9870 -4.4349 -11.4992 -76.6799 -34.5416
# 6 7.1195 -15.5350 -9.1529 -9.1704 -34.5416 35.2489
#
#
#
# Elastic Compliance Matrix: (Units=1/GPa)
#
#
# Indices 1 2 3 4 5 6 
#
# 1 0.008626 -0.002821 -0.002510 0.002908 -0.001523 -0.004373
# 2 -0.002821 0.008757 -0.000185 0.000284 0.000445 0.004892
# 3 -0.002510 -0.000185 0.024717 -0.006934 -0.001345 0.003722
# 4 0.002908 0.000284 -0.006934 0.040620 -0.007114 0.001334
# 5 -0.001523 0.000445 -0.001345 -0.007114 -0.007339 -0.008887
# 6 -0.004373 0.004892 0.003722 0.001334 -0.008887 0.024013
#
#
# Mechanical properties :
#
#
# Convention : Reuss Voigt Hill
#
# Bulk Modulus (GPa) = 32.18724 48.03419 40.11072
# Shear Modulus (GPa) = 41.39635 13.85030 27.62332
#
# Velocity S-wave (km/s) = 4.12482 2.38591 3.36947
# Velocity P-wave (km/s) = 5.99289 5.22804 5.62348
#
# Compressibility (1/GPa) = 0.03106821
#
# Stress axis : x y z
#
# Youngs Moduli (GPa) = 115.92331 114.19105 40.45800
#
# Poissons Ratio (x) = 0.32218 0.10153
# Poissons Ratio (y) = 0.32707 0.00749
# Poissons Ratio (z) = 0.29092 0.02115
#
# Static dielectric constant tensor:
#      x y z
#    x 1.969190 0.073320 -0.089690 
#    y 0.073320 2.292640 -0.190480 
#    z -0.089690 -0.190480 2.081460 
# 
# From -- ./inp_files/98230.got.cif
#   From: 2010.05.17/outbox.cif.g08.bks.cpg/sg2_50_cif.got.tgz:98230.got - 2010.06.03 11:33:40.
