data_PCOD9092130
_publ_section_title
;
Structure prediction by ZEFSAII (Michael W. Deem and Ramdas Pophale) SiO2 
 PCOD9092130
Probable space group: P -1
;
_chemical_formula_sum "Si O2"
_cell_formula_units_Z 16
_cell_length_a 7.321210
_cell_length_b 9.926164
_cell_length_c 13.974317
_cell_angle_alpha 85.958008
_cell_angle_beta 134.387678
_cell_angle_gamma 71.779171
_cell_volume 623.636325
_symmetry_space_group_name_H-M "P -1"
_symmetry_group_IT_number 2
_symmetry_cell_setting 'triclinic'
loop_
_space_group_symop_operation_xyz
x,y,z
-x,-y,-z
loop_
_atom_site_type_symbol
_atom_site_label
_atom_site_fract_x
_atom_site_fract_y
_atom_site_fract_z
Si Si1 0.317740 0.331850 0.145885
Si Si2 0.055395 0.489641 0.356920
Si Si3 0.272536 0.016096 0.643699
Si Si4 0.572909 0.641821 0.027074
Si Si5 0.468082 0.138915 0.543096
Si Si6 0.577128 0.086556 0.897134
Si Si7 0.868043 0.158794 0.819989
Si Si8 0.611644 0.485423 0.355049
O O1 0.415257 0.156039 0.229740
O O2 0.500436 0.374431 0.283180
O O3 0.461811 0.298322 0.095592
O O4 0.000000 0.500000 0.000000
O O5 0.284405 0.310402 0.425314
O O6 0.220538 0.554329 0.480224
O O7 0.898429 0.567465 0.197138
O O8 0.808353 0.498405 0.340862
O O9 0.289470 0.136045 0.570476
O O10 0.286507 0.089446 0.748522
O O11 0.000000 0.000000 0.500000
O O12 0.412981 0.785816 0.035477
O O13 0.500000 0.500000 0.000000
O O14 0.783657 0.106746 0.694862
O O15 0.500000 0.000000 0.500000
O O16 0.735278 0.102080 0.859206
O O17 0.786593 0.920310 0.032620
O O18 0.675006 0.343816 0.745929
#
# Coordination Sequence:
#
# PCOD9092130 Si02
#       8
#     2   2   2   2   2   2   2   2
#     4  12  27  44  66  98 142 179 215 273 342 403
#     4  10  21  38  71  98 124 167 230 283 323 381
#     4  11  26  44  66  94 137 184 215 261 344 405
#     4  12  25  41  72 102 127 171 231 281 324 392
#     4  10  23  39  67  96 127 168 227 281 323 391
#     4  10  21  39  64  95 133 170 217 274 326 396
#     4   9  18  36  64  98 125 164 216 284 336 363
#     4  10  19  40  66  94 130 173 218 273 332 389
#
# _framework density 25.65598
#
# number of rings (size 3 to 8) (size 9 to 14) (size 15 to 20)
#    0.000    1.500    2.500    1.500    7.000    1.500 
#    0.000    3.125    0.000    0.000    0.000    0.000 
#    0.000    0.000    0.000    0.000    0.000    0.000 
#
# Total GULP energy -89326.848414 kJ/mol
# GULP energy per Si atom -5582.928026 kJ/mol
# Density = 2.559759 g / cm^3
# Si number density = 25.655980 Si / 1000 Ang^3
#
#
#
# Elastic Constant Matrix: (Units=GPa)
#
#
# Indices 1 2 3 4 5 6 
#
# 1 52.6986 -2.1151 10.4257 7.7666 5.4564 2.1296
# 2 -2.1151 141.7388 74.5475 26.0178 5.2221 -5.6998
# 3 10.4257 74.5475 138.3665 4.7574 2.3450 -8.0090
# 4 7.7666 26.0178 4.7574 58.4834 1.0996 -8.1243
# 5 5.4564 5.2221 2.3450 1.0996 25.7839 1.7971
# 6 2.1296 -5.6998 -8.0090 -8.1243 1.7971 29.0410
#
#
#
# Elastic Compliance Matrix: (Units=1/GPa)
#
#
# Indices 1 2 3 4 5 6 
#
# 1 0.020803 0.002636 -0.002932 -0.003986 -0.004314 -0.002665
# 2 0.002636 0.011254 -0.006112 -0.004951 -0.002005 -0.000931
# 3 -0.002932 -0.006112 0.010797 0.002592 0.000579 0.002682
# 4 -0.003986 -0.004951 0.002592 0.020409 0.000341 0.005724
# 5 -0.004314 -0.002005 0.000579 0.000341 0.040197 -0.002310
# 6 -0.002665 -0.000931 0.002682 0.005724 -0.002310 0.036931
#
#
# Mechanical properties :
#
#
# Convention : Reuss Voigt Hill
#
# Bulk Modulus (GPa) = 33.28927 55.39113 44.34020
# Shear Modulus (GPa) = 30.63358 39.32471 34.97915
#
# Velocity S-wave (km/s) = 3.45920 3.91931 3.69642
# Velocity P-wave (km/s) = 5.38128 6.48985 5.96139
#
# Compressibility (1/GPa) = 0.03003971
#
# Stress axis : x y z
#
# Youngs Moduli (GPa) = 48.06905 88.85467 92.61626
#
# Poissons Ratio (x) = -0.23420 0.27152
# Poissons Ratio (y) = -0.12670 0.56605
# Poissons Ratio (z) = 0.14092 0.54306
#
# Static dielectric constant tensor:
#      x y z
#    x 2.024800 -0.105720 0.042560 
#    y -0.105720 2.249200 0.010090 
#    z 0.042560 0.010090 2.040320 
# 
# From -- ./inp_files/500480.got.cif
#   From: 2010.05.17/outbox.cif.g08.bks.cpg/sg2_251_cif.got.tgz:500480.got - 2010.06.03 11:33:40.
