data_PCOD9092811
_publ_section_title
;
Structure prediction by ZEFSAII (Michael W. Deem and Ramdas Pophale) SiO2 
 PCOD9092811
Probable space group: P -1
;
_chemical_formula_sum "Si O2"
_cell_formula_units_Z 16
_cell_length_a 9.299653
_cell_length_b 9.105873
_cell_length_c 21.214465
_cell_angle_alpha 154.303527
_cell_angle_beta 51.472766
_cell_angle_gamma 127.008124
_cell_volume 604.997415
_symmetry_space_group_name_H-M "P -1"
_symmetry_group_IT_number 2
_symmetry_cell_setting 'triclinic'
loop_
_space_group_symop_operation_xyz
x,y,z
-x,-y,-z
loop_
_atom_site_type_symbol
_atom_site_label
_atom_site_fract_x
_atom_site_fract_y
_atom_site_fract_z
Si Si1 0.975301 0.555840 0.893584
Si Si2 0.626987 0.730053 0.204513
Si Si3 0.622837 0.722405 0.979655
Si Si4 0.210035 0.959377 0.070859
Si Si5 0.282892 0.528815 0.572480
Si Si6 0.645128 0.361478 0.638598
Si Si7 0.005481 0.171453 0.414513
Si Si8 0.341068 0.580914 0.718338
O O1 0.009964 0.841554 0.048650
O O2 0.166809 0.588681 0.815159
O O3 0.810039 0.624404 0.920243
O O4 0.955252 0.158929 0.763425
O O5 0.521044 0.605469 0.121129
O O6 0.735301 0.407598 0.065623
O O7 0.478919 0.751336 0.309899
O O8 0.736349 0.100355 0.308283
O O9 0.661078 0.884190 0.961835
O O10 0.561976 0.026387 0.155316
O O11 0.245722 0.263836 0.228749
O O12 0.500000 0.500000 0.500000
O O13 0.159319 0.252941 0.457900
O O14 0.250440 0.490798 0.640931
O O15 0.503397 0.390608 0.630950
O O16 0.804695 0.132336 0.488286
O O17 0.000000 0.500000 0.500000
#
# Coordination Sequence:
#
# PCOD9092811 Si02
#       8
#     2   2   2   2   2   2   2   2
#     4  11  24  41  73 100 145 182 228 282 353 409
#     4  11  21  44  73 102 134 188 225 282 345 415
#     4  10  20  39  71 105 140 168 235 287 343 413
#     4  10  19  42  71 108 129 178 232 286 334 416
#     4  12  29  46  65 100 151 181 231 287 348 405
#     4  11  23  44  80 100 136 179 238 281 342 419
#     4  12  29  49  66 104 142 185 235 287 336 413
#     4  11  23  43  71 107 133 184 228 290 348 407
#
# _framework density 26.446394000000002
#
# number of rings (size 3 to 8) (size 9 to 14) (size 15 to 20)
#    0.000    1.000    3.750    4.500    7.000    1.500 
#    2.250    1.250    0.000    0.000    0.000    0.000 
#    0.000    0.000    0.000    0.000    0.000    0.000 
#
# Total GULP energy -89662.735836 kJ/mol
# GULP energy per Si atom -5603.920990 kJ/mol
# Density = 2.638620 g / cm^3
# Si number density = 26.446394 Si / 1000 Ang^3
#
#
#
# Elastic Constant Matrix: (Units=GPa)
#
#
# Indices 1 2 3 4 5 6 
#
# 1 153.6131 11.2797 25.5297 5.6426 20.7492 -1.2317
# 2 11.2797 89.8892 16.1659 7.7336 -0.3078 -14.7201
# 3 25.5297 16.1659 76.4423 18.6191 11.3286 3.2766
# 4 5.6426 7.7336 18.6191 35.3573 5.9672 -5.5518
# 5 20.7492 -0.3078 11.3286 5.9672 59.4544 6.0595
# 6 -1.2317 -14.7201 3.2766 -5.5518 6.0595 32.4704
#
#
#
# Elastic Compliance Matrix: (Units=1/GPa)
#
#
# Indices 1 2 3 4 5 6 
#
# 1 0.007188 -0.000441 -0.002153 0.000589 -0.002242 0.000809
# 2 -0.000441 0.012669 -0.002721 -0.000370 0.000173 0.005906
# 3 -0.002153 -0.002721 0.016767 -0.008352 -0.001190 -0.004213
# 4 0.000589 -0.000370 -0.008352 0.034246 -0.002774 0.007070
# 5 -0.002242 0.000173 -0.001190 -0.002774 0.018497 -0.003813
# 6 0.000809 0.005906 -0.004213 0.007070 -0.003813 0.035851
#
#
# Mechanical properties :
#
#
# Convention : Reuss Voigt Hill
#
# Bulk Modulus (GPa) = 38.46862 47.32168 42.89515
# Shear Modulus (GPa) = 34.59938 43.25438 38.92688
#
# Velocity S-wave (km/s) = 3.62094 4.04858 3.84072
# Velocity P-wave (km/s) = 5.66208 6.30769 5.99358
#
# Compressibility (1/GPa) = 0.02599522
#
# Stress axis : x y z
#
# Youngs Moduli (GPa) = 139.12534 78.93339 59.63960
#
# Poissons Ratio (x) = 0.03477 0.12841
# Poissons Ratio (y) = 0.06129 0.16226
# Poissons Ratio (z) = 0.29956 0.21476
#
# Static dielectric constant tensor:
#      x y z
#    x 2.049210 0.008220 0.035580 
#    y 0.008220 2.186130 0.017330 
#    z 0.035580 0.017330 2.127980 
# 
# From -- ./inp_files/495532.got.cif
#   From: 2010.05.17/outbox.cif.g08.bks.cpg/sg2_248_cif.got.tgz:495532.got - 2010.06.03 11:33:40.
