data_PCOD9092911
_publ_section_title
;
Structure prediction by ZEFSAII (Michael W. Deem and Ramdas Pophale) SiO2 
 PCOD9092911
Probable space group: P -1
;
_chemical_formula_sum "Si O2"
_cell_formula_units_Z 15
_cell_length_a 11.723502
_cell_length_b 14.008007
_cell_length_c 8.156409
_cell_angle_alpha 132.797999
_cell_angle_beta 135.660454
_cell_angle_gamma 39.759586
_cell_volume 573.020949
_symmetry_space_group_name_H-M "P -1"
_symmetry_group_IT_number 2
_symmetry_cell_setting 'triclinic'
loop_
_space_group_symop_operation_xyz
x,y,z
-x,-y,-z
loop_
_atom_site_type_symbol
_atom_site_label
_atom_site_fract_x
_atom_site_fract_y
_atom_site_fract_z
Si Si1 0.763143 0.743174 0.347610
Si Si2 0.113982 0.179234 0.855754
Si Si3 0.826861 0.989112 0.590130
Si Si4 0.298819 0.428213 0.639165
Si Si5 0.749998 0.261886 0.024355
Si Si6 0.543373 0.785728 0.725124
Si Si7 0.000000 0.500000 0.000000
Si Si8 0.670502 0.116829 0.062746
O O1 0.785296 0.649114 0.425515
O O2 0.881202 0.624308 0.179047
O O3 0.828081 0.864864 0.564943
O O4 0.528795 0.843360 0.185332
O O5 0.066561 0.097830 0.569218
O O6 0.182667 0.064038 0.947929
O O7 0.323246 0.156718 0.008939
O O8 0.974458 0.365040 0.911972
O O9 0.862321 0.112112 0.849821
O O10 0.600595 0.102229 0.431149
O O11 0.522910 0.353781 0.839544
O O12 0.308905 0.381915 0.403149
O O13 0.196627 0.610989 0.771800
O O14 0.756772 0.192414 0.127792
O O15 0.413277 0.789753 0.742584
#
# Coordination Sequence:
#
# PCOD9092911 Si02
#       8
#     2   2   2   2   2   2   1   2
#     4  10  18  33  53  79  99 139 163 213 251 302
#     4  10  18  32  51  81  99 132 164 222 251 300
#     4   9  16  29  52  75 105 128 169 204 257 300
#     4   9  20  31  48  76 114 133 162 206 266 291
#     4   9  19  31  48  81 105 137 166 207 248 312
#     4  10  16  29  49  78 105 131 163 215 249 306
#     4  10  20  32  54  76 108 122 176 212 260 296
#     4  10  17  30  55  76 104 130 172 206 256 290
#
# _framework density 26.177053000000001
#
# number of rings (size 3 to 8) (size 9 to 14) (size 15 to 20)
#    0.000    2.400    4.000    0.800    1.867    2.133 
#    0.000    2.000    0.000    4.000    0.000    0.000 
#    0.000    0.000    0.000    0.000    0.000    0.000 
#
# Total GULP energy -83619.275188 kJ/mol
# GULP energy per Si atom -5574.618346 kJ/mol
# Density = 2.611747 g / cm^3
# Si number density = 26.177053 Si / 1000 Ang^3
#
#
#
# Elastic Constant Matrix: (Units=GPa)
#
#
# Indices 1 2 3 4 5 6 
#
# 1 119.8428 45.3033 42.6718 18.2084 -1.9980 22.5101
# 2 45.3033 162.9045 55.4294 34.8327 4.4990 12.5825
# 3 42.6718 55.4294 131.0438 45.5995 -12.6479 7.8371
# 4 18.2084 34.8327 45.5995 52.2414 -0.7964 15.9352
# 5 -1.9980 4.4990 -12.6479 -0.7964 23.9442 -0.7614
# 6 22.5101 12.5825 7.8371 15.9352 -0.7614 40.6482
#
#
#
# Elastic Compliance Matrix: (Units=1/GPa)
#
#
# Indices 1 2 3 4 5 6 
#
# 1 0.010946 -0.001944 -0.003116 0.001907 -0.000482 -0.005615
# 2 -0.001944 0.008082 -0.002012 -0.003028 -0.002841 0.000097
# 3 -0.003116 -0.002012 0.013621 -0.010574 0.007089 0.004000
# 4 0.001907 -0.003028 -0.010574 0.033054 -0.004111 -0.011115
# 5 -0.000482 -0.002841 0.007089 -0.004111 0.045936 0.002252
# 6 -0.005615 0.000097 0.004000 -0.011115 0.002252 0.031309
#
#
# Mechanical properties :
#
#
# Convention : Reuss Voigt Hill
#
# Bulk Modulus (GPa) = 54.04100 77.84445 65.94273
# Shear Modulus (GPa) = 30.62571 41.39253 36.00912
#
# Velocity S-wave (km/s) = 3.42416 3.98081 3.71293
# Velocity P-wave (km/s) = 6.02680 7.13662 6.60506
#
# Compressibility (1/GPa) = 0.01850447
#
# Stress axis : x y z
#
# Youngs Moduli (GPa) = 91.35913 123.72703 73.41570
#
# Poissons Ratio (x) = 0.24057 0.22877
# Poissons Ratio (y) = 0.17764 0.14770
# Poissons Ratio (z) = 0.28468 0.24892
#
# Static dielectric constant tensor:
#      x y z
#    x 2.055660 -0.037540 -0.027740 
#    y -0.037540 2.195970 -0.109660 
#    z -0.027740 -0.109660 2.096890 
# 
# From -- ./inp_files/255324.got.cif
#   From: 2010.05.17/outbox.cif.g08.bks.cpg/sg2_128_cif.got.tgz:255324.got - 2010.06.03 11:33:40.
