data_PCOD9092611
_publ_section_title
;
Structure prediction by ZEFSAII (Michael W. Deem and Ramdas Pophale) SiO2 
 PCOD9092611
Probable space group: P -1
;
_chemical_formula_sum "Si O2"
_cell_formula_units_Z 16
_cell_length_a 11.785002
_cell_length_b 8.350375
_cell_length_c 14.310199
_cell_angle_alpha 77.359311
_cell_angle_beta 120.445224
_cell_angle_gamma 138.837830
_cell_volume 765.567406
_symmetry_space_group_name_H-M "P -1"
_symmetry_group_IT_number 2
_symmetry_cell_setting 'triclinic'
loop_
_space_group_symop_operation_xyz
x,y,z
-x,-y,-z
loop_
_atom_site_type_symbol
_atom_site_label
_atom_site_fract_x
_atom_site_fract_y
_atom_site_fract_z
Si Si1 0.080226 0.614776 0.622612
Si Si2 0.820541 0.966367 0.289178
Si Si3 0.456472 0.577543 0.669986
Si Si4 0.768623 0.630323 0.702281
Si Si5 0.195957 0.575633 0.089664
Si Si6 0.493435 0.834263 0.819355
Si Si7 0.334086 0.707583 0.446868
Si Si8 0.510742 0.207561 0.969181
O O1 0.264128 0.673037 0.721063
O O2 0.000000 0.500000 0.500000
O O3 0.885266 0.415003 0.634577
O O4 0.153949 0.870908 0.640790
O O5 0.703602 0.700920 0.316526
O O6 0.676106 0.904139 0.155751
O O7 0.040622 0.140590 0.312908
O O8 0.627457 0.643293 0.675176
O O9 0.558120 0.777650 0.770044
O O10 0.338671 0.587738 0.550943
O O11 0.843815 0.598932 0.826954
O O12 0.633800 0.372346 0.620057
O O13 0.285940 0.572977 0.035072
O O14 0.369001 0.870905 0.156612
O O15 0.000000 0.500000 0.000000
O O16 0.495602 0.745294 0.931820
O O17 0.500000 0.000000 0.500000
O O18 0.500000 0.000000 0.000000
#
# Coordination Sequence:
#
# PCOD9092611 Si02
#       8
#     2   2   2   2   2   2   2   2
#     4  11  22  42  70 101 130 185 238 286 337 409
#     4  11  24  44  70 100 138 183 234 281 357 408
#     4  12  25  46  64 101 149 184 217 299 348 415
#     4  11  24  43  67  99 139 181 232 281 353 414
#     4  11  22  42  72 102 135 179 237 295 340 404
#     4  11  23  42  69 102 137 181 239 277 353 416
#     4  11  26  43  70  97 134 183 241 285 338 413
#     4  10  19  41  70  95 132 174 230 287 332 407
#
# _framework density 20.899532000000001
#
# number of rings (size 3 to 8) (size 9 to 14) (size 15 to 20)
#    0.000    1.000    5.000    2.625    3.500    3.500 
#    2.250    1.250    0.000    0.000    0.000    0.000 
#    0.000    0.000    0.000    0.000    0.000    0.000 
#
# Total GULP energy -89430.562099 kJ/mol
# GULP energy per Si atom -5589.410131 kJ/mol
# Density = 2.085196 g / cm^3
# Si number density = 20.899532 Si / 1000 Ang^3
#
#
#
# Elastic Constant Matrix: (Units=GPa)
#
#
# Indices 1 2 3 4 5 6 
#
# 1 134.4541 16.4324 32.4978 11.6276 -4.2557 14.6657
# 2 16.4324 68.3500 18.8029 -10.6422 19.8703 7.6712
# 3 32.4978 18.8029 105.9706 -0.4685 3.1009 3.3557
# 4 11.6276 -10.6422 -0.4685 30.3896 9.3937 2.7048
# 5 -4.2557 19.8703 3.1009 9.3937 35.5298 -0.8025
# 6 14.6657 7.6712 3.3557 2.7048 -0.8025 17.8576
#
#
#
# Elastic Compliance Matrix: (Units=1/GPa)
#
#
# Indices 1 2 3 4 5 6 
#
# 1 0.009620 -0.003418 -0.002354 -0.005942 0.004730 -0.004877
# 2 -0.003418 0.025746 -0.002519 0.017289 -0.019414 -0.011271
# 3 -0.002354 -0.002519 0.010566 0.000020 0.000222 0.001036
# 4 -0.005942 0.017289 0.000020 0.049562 -0.023737 -0.011125
# 5 0.004730 -0.019414 0.000222 -0.023737 0.046053 0.010078
# 6 -0.004877 -0.011271 0.001036 -0.011125 0.010078 0.066788
#
#
# Mechanical properties :
#
#
# Convention : Reuss Voigt Hill
#
# Bulk Modulus (GPa) = 34.07075 49.36012 41.71543
# Shear Modulus (GPa) = 21.30379 32.82485 27.06432
#
# Velocity S-wave (km/s) = 3.19618 3.96738 3.60248
# Velocity P-wave (km/s) = 5.47342 6.68251 6.10795
#
# Compressibility (1/GPa) = 0.02935069
#
# Stress axis : x y z
#
# Youngs Moduli (GPa) = 103.95347 38.84103 94.64261
#
# Poissons Ratio (x) = 0.13276 0.22277
# Poissons Ratio (y) = 0.35532 0.23837
# Poissons Ratio (z) = 0.24469 0.09783
#
# Static dielectric constant tensor:
#      x y z
#    x 1.773590 0.016420 -0.034170 
#    y 0.016420 1.764060 0.003000 
#    z -0.034170 0.003000 1.764930 
# 
# From -- ./inp_files/283076.got.cif
#   From: 2010.05.17/outbox.cif.g08.bks.cpg/sg2_142_cif.got.tgz:283076.got - 2010.06.03 11:33:40.
