data_PCOD9092056
_publ_section_title
;
Structure prediction by ZEFSAII (Michael W. Deem and Ramdas Pophale) SiO2 
 PCOD9092056
Probable space group: P -1
;
_chemical_formula_sum "Si O2"
_cell_formula_units_Z 12
_cell_length_a 13.773505
_cell_length_b 7.396448
_cell_length_c 11.529536
_cell_angle_alpha 126.001621
_cell_angle_beta 42.338506
_cell_angle_gamma 136.952222
_cell_volume 537.095477
_symmetry_space_group_name_H-M "P -1"
_symmetry_group_IT_number 2
_symmetry_cell_setting 'triclinic'
loop_
_space_group_symop_operation_xyz
x,y,z
-x,-y,-z
loop_
_atom_site_type_symbol
_atom_site_label
_atom_site_fract_x
_atom_site_fract_y
_atom_site_fract_z
Si Si1 0.243063 0.377746 0.500903
Si Si2 0.400768 0.543873 0.825567
Si Si3 0.538416 0.779584 0.019395
Si Si4 0.886140 0.865075 0.705815
Si Si5 0.707977 0.251342 0.200281
Si Si6 0.136564 0.054302 0.994381
O O1 0.409854 0.358964 0.348132
O O2 0.182519 0.367580 0.417219
O O3 0.296703 0.631419 0.628058
O O4 0.073737 0.115330 0.603936
O O5 0.420491 0.714596 0.987176
O O6 0.285252 0.552587 0.830530
O O7 0.314493 0.250854 0.844764
O O8 0.735426 0.925966 0.854845
O O9 0.500000 0.500000 0.000000
O O10 0.547441 0.971082 0.184302
O O11 0.884261 0.807741 0.821861
O O12 0.858107 0.194726 0.059785
O O13 0.000000 0.000000 0.000000
#
# Coordination Sequence:
#
# PCOD9092056 Si02
#       6
#     2   2   2   2   2   2
#     4  10  22  39  65  98 131 168 207 261 321 382
#     4  11  22  41  65  94 132 166 209 265 319 375
#     4  10  19  40  65  93 125 166 214 263 306 371
#     4   9  20  41  65  86 135 165 203 269 313 366
#     4  11  23  40  67  96 124 172 214 258 324 379
#     4  11  24  42  66  93 126 166 220 269 306 377
#
# _framework density 22.342396999999998
#
# number of rings (size 3 to 8) (size 9 to 14) (size 15 to 20)
#    0.000    1.667    3.333    2.000    0.000    6.667 
#    0.000    2.500    0.000    0.000    0.000    0.000 
#    0.000    0.000    0.000    0.000    0.000    0.000 
#
# Total GULP energy -66820.246823 kJ/mol
# GULP energy per Si atom -5568.353902 kJ/mol
# Density = 2.229155 g / cm^3
# Si number density = 22.342397 Si / 1000 Ang^3
#
#
#
# Elastic Constant Matrix: (Units=GPa)
#
#
# Indices 1 2 3 4 5 6 
#
# 1 141.2768 14.7629 63.1640 11.9008 28.6753 30.0108
# 2 14.7629 70.7442 60.8512 5.4757 2.4223 9.7061
# 3 63.1640 60.8512 99.8666 12.7653 28.9567 16.8519
# 4 11.9008 5.4757 12.7653 58.4508 26.3799 12.3504
# 5 28.6753 2.4223 28.9567 26.3799 34.3585 6.0574
# 6 30.0108 9.7061 16.8519 12.3504 6.0574 32.9139
#
#
#
# Elastic Compliance Matrix: (Units=1/GPa)
#
#
# Indices 1 2 3 4 5 6 
#
# 1 0.013837 0.009259 -0.012748 0.001482 -0.000973 -0.009196
# 2 0.009259 0.053294 -0.047815 -0.014094 0.039941 -0.001739
# 3 -0.012748 -0.047815 0.059447 0.016276 -0.048244 -0.001941
# 4 0.001482 -0.014094 0.016276 0.034225 -0.038240 -0.011333
# 5 -0.000973 0.039941 -0.048244 -0.038240 0.095246 0.010630
# 6 -0.009196 -0.001739 -0.001941 -0.011333 0.010630 0.042570
#
#
# Mechanical properties :
#
#
# Convention : Reuss Voigt Hill
#
# Bulk Modulus (GPa) = 41.72282 65.49377 53.60830
# Shear Modulus (GPa) = 12.21838 36.68527 24.45183
#
# Velocity S-wave (km/s) = 2.34106 4.05650 3.31178
# Velocity P-wave (km/s) = 5.10120 7.16363 6.21851
#
# Compressibility (1/GPa) = 0.02396770
#
# Stress axis : x y z
#
# Youngs Moduli (GPa) = 72.27083 18.76387 16.82162
#
# Poissons Ratio (x) = -0.17373 0.21445
# Poissons Ratio (y) = -0.66913 0.80433
# Poissons Ratio (z) = 0.92134 0.89720
#
# Static dielectric constant tensor:
#      x y z
#    x 1.822500 0.019490 0.037410 
#    y 0.019490 1.902220 0.014480 
#    z 0.037410 0.014480 1.876520 
# 
# From -- ./inp_files/445136.got.cif
#   From: 2010.05.17/outbox.cif.g08.bks.cpg/sg2_223_cif.got.tgz:445136.got - 2010.06.03 11:33:40.
