data_PCOD9092207
_publ_section_title
;
Structure prediction by ZEFSAII (Michael W. Deem and Ramdas Pophale) SiO2 
 PCOD9092207
Probable space group: P -1
;
_chemical_formula_sum "Si O2"
_cell_formula_units_Z 14
_cell_length_a 7.764457
_cell_length_b 9.278718
_cell_length_c 11.758138
_cell_angle_alpha 119.444155
_cell_angle_beta 100.947945
_cell_angle_gamma 112.760338
_cell_volume 599.218701
_symmetry_space_group_name_H-M "P -1"
_symmetry_group_IT_number 2
_symmetry_cell_setting 'triclinic'
loop_
_space_group_symop_operation_xyz
x,y,z
-x,-y,-z
loop_
_atom_site_type_symbol
_atom_site_label
_atom_site_fract_x
_atom_site_fract_y
_atom_site_fract_z
Si Si1 0.134898 0.905272 0.478209
Si Si2 0.138445 0.559355 0.737224
Si Si3 0.123369 0.426227 0.095841
Si Si4 0.488692 0.847431 0.202994
Si Si5 0.582197 0.856338 0.967679
Si Si6 0.177728 0.946999 0.235398
Si Si7 0.035972 0.193742 0.197150
O O1 0.205958 0.929764 0.365444
O O2 0.995830 0.671315 0.400558
O O3 0.325682 0.027129 0.636104
O O4 0.000000 0.000000 0.500000
O O5 0.389397 0.658911 0.806072
O O6 0.063926 0.690116 0.716086
O O7 0.063042 0.568010 0.861144
O O8 0.308104 0.637464 0.154731
O O9 0.193128 0.347145 0.179440
O O10 0.020493 0.260213 0.921050
O O11 0.380979 0.968675 0.212018
O O12 0.570655 0.809851 0.082656
O O13 0.500000 0.000000 0.000000
O O14 0.832587 0.004061 0.033353
O O15 0.138770 0.116732 0.263969
#
# Coordination Sequence:
#
# PCOD9092207 Si02
#       7
#     2   2   2   2   2   2   2
#     4  12  27  43  60  93 132 176 214 259 316 387
#     4   9  20  42  65  90 133 159 215 256 323 361
#     4  10  21  40  69  99 126 164 212 269 315 369
#     4  12  23  41  68  94 127 172 213 261 321 376
#     4  10  19  40  67  97 123 168 208 264 320 369
#     4  12  20  39  67  96 127 165 214 264 314 380
#     4   9  21  38  66 101 130 157 208 271 323 367
#
# _framework density 23.363755999999999
#
# number of rings (size 3 to 8) (size 9 to 14) (size 15 to 20)
#    0.857    0.571    2.857    3.000    0.000    1.143 
#    0.000   13.571    0.000    0.000    0.000    0.000 
#    0.000    0.000    0.000    0.000    0.000    0.000 
#
# Total GULP energy -78220.216258 kJ/mol
# GULP energy per Si atom -5587.158304 kJ/mol
# Density = 2.331058 g / cm^3
# Si number density = 23.363756 Si / 1000 Ang^3
#
#
#
# Elastic Constant Matrix: (Units=GPa)
#
#
# Indices 1 2 3 4 5 6 
#
# 1 98.3460 48.0626 21.3919 7.1138 18.1878 -12.2210
# 2 48.0626 128.4204 42.9995 6.7867 23.9561 -6.0454
# 3 21.3919 42.9995 93.1043 3.0053 23.1918 -7.0270
# 4 7.1138 6.7867 3.0053 27.9704 -2.6820 -5.1996
# 5 18.1878 23.9561 23.1918 -2.6820 35.7505 -6.2225
# 6 -12.2210 -6.0454 -7.0270 -5.1996 -6.2225 46.0110
#
#
#
# Elastic Compliance Matrix: (Units=1/GPa)
#
#
# Indices 1 2 3 4 5 6 
#
# 1 0.013296 -0.004030 0.000012 -0.002364 -0.003863 0.002214
# 2 -0.004030 0.011126 -0.003340 -0.001801 -0.003513 -0.000797
# 3 0.000012 -0.003340 0.014084 -0.001247 -0.006887 0.000643
# 4 -0.002364 -0.001801 -0.001247 0.038360 0.006828 0.004203
# 5 -0.003863 -0.003513 -0.006887 0.006828 0.037854 0.003351
# 6 0.002214 -0.000797 0.000643 0.004203 0.003351 0.023244
#
#
# Mechanical properties :
#
#
# Convention : Reuss Voigt Hill
#
# Bulk Modulus (GPa) = 42.03241 60.53097 51.28169
# Shear Modulus (GPa) = 31.13117 35.77416 33.45267
#
# Velocity S-wave (km/s) = 3.65424 3.91728 3.78804
# Velocity P-wave (km/s) = 5.98616 6.81354 6.41321
#
# Compressibility (1/GPa) = 0.02379117
#
# Stress axis : x y z
#
# Youngs Moduli (GPa) = 75.21173 89.87558 71.00012
#
# Poissons Ratio (x) = 0.36223 -0.00087
# Poissons Ratio (y) = 0.30313 0.23712
# Poissons Ratio (z) = -0.00092 0.30016
#
# Static dielectric constant tensor:
#      x y z
#    x 2.008610 0.003900 -0.077710 
#    y 0.003900 1.946740 -0.058110 
#    z -0.077710 -0.058110 1.904080 
# 
# From -- ./inp_files/382986.got.cif
#   From: 2010.05.17/outbox.cif.g08.bks.cpg/sg2_192_cif.got.tgz:382986.got - 2010.06.03 11:33:40.
