data_PCOD9092283
_publ_section_title
;
Structure prediction by ZEFSAII (Michael W. Deem and Ramdas Pophale) SiO2 
 PCOD9092283
Probable space group: P -1
;
_chemical_formula_sum "Si O2"
_cell_formula_units_Z 16
_cell_length_a 12.438541
_cell_length_b 7.067478
_cell_length_c 12.968696
_cell_angle_alpha 125.575313
_cell_angle_beta 44.163926
_cell_angle_gamma 107.989780
_cell_volume 634.095301
_symmetry_space_group_name_H-M "P -1"
_symmetry_group_IT_number 2
_symmetry_cell_setting 'triclinic'
loop_
_space_group_symop_operation_xyz
x,y,z
-x,-y,-z
loop_
_atom_site_type_symbol
_atom_site_label
_atom_site_fract_x
_atom_site_fract_y
_atom_site_fract_z
Si Si1 0.951674 0.256794 0.487710
Si Si2 0.474104 0.748015 0.491852
Si Si3 0.883852 0.650611 0.285154
Si Si4 0.571716 0.979075 0.678892
Si Si5 0.753159 0.145350 0.777643
Si Si6 0.875253 0.296913 0.325802
Si Si7 0.983500 0.789716 0.044335
Si Si8 0.669998 0.597998 0.126009
O O1 0.067702 0.460852 0.669970
O O2 0.000000 0.500000 0.500000
O O3 0.874923 0.225956 0.421575
O O4 0.104049 0.054372 0.341815
O O5 0.487712 0.786347 0.617225
O O6 0.305451 0.688265 0.572054
O O7 0.594952 0.573176 0.281775
O O8 0.500000 0.000000 0.500000
O O9 0.741255 0.860712 0.474527
O O10 0.981445 0.732553 0.150615
O O11 0.175039 0.741153 0.334857
O O12 0.873578 0.393885 0.161571
O O13 0.616467 0.022700 0.780917
O O14 0.462519 0.223603 0.792586
O O15 0.707077 0.352398 0.959242
O O16 0.983567 0.066549 0.128418
O O17 0.822285 0.720603 0.085009
#
# Coordination Sequence:
#
# PCOD9092283 Si02
#       8
#     2   2   2   2   2   2   2   2
#     4  11  26  45  67 101 141 180 232 283 343 416
#     4  10  19  40  69  97 134 179 225 282 340 401
#     4  11  25  39  72 102 138 180 231 284 349 409
#     4  11  21  44  67  99 137 180 229 277 342 411
#     4  11  26  43  73  97 136 192 227 278 349 414
#     4  12  24  44  72 102 140 185 231 289 351 405
#     4  11  23  43  67 105 144 172 231 298 337 412
#     4  11  22  42  71 102 136 182 227 284 349 405
#
# _framework density 25.232800999999998
#
# number of rings (size 3 to 8) (size 9 to 14) (size 15 to 20)
#    0.000    1.000    3.750    4.500    8.750    0.500 
#    0.000    1.250    0.000    3.750    0.000    0.000 
#    0.000    0.000    0.000    0.000    0.000    0.000 
#
# Total GULP energy -89136.483871 kJ/mol
# GULP energy per Si atom -5571.030242 kJ/mol
# Density = 2.517537 g / cm^3
# Si number density = 25.232801 Si / 1000 Ang^3
#
#
#
# Elastic Constant Matrix: (Units=GPa)
#
#
# Indices 1 2 3 4 5 6 
#
# 1 156.8907 35.5351 41.3772 3.5293 11.8675 2.7021
# 2 35.5351 80.7477 42.7223 -0.9339 9.3470 -14.6629
# 3 41.3772 42.7223 181.5385 18.7425 7.3405 -4.6442
# 4 3.5293 -0.9339 18.7425 32.1704 0.5557 2.1751
# 5 11.8675 9.3470 7.3405 0.5557 34.2090 13.7651
# 6 2.7021 -14.6629 -4.6442 2.1751 13.7651 42.0874
#
#
#
# Elastic Compliance Matrix: (Units=1/GPa)
#
#
# Indices 1 2 3 4 5 6 
#
# 1 0.007380 -0.002821 -0.000982 -0.000220 -0.001094 -0.001196
# 2 -0.002821 0.017543 -0.003265 0.002298 -0.006323 0.007882
# 3 -0.000982 -0.003265 0.006921 -0.004013 -0.000167 -0.000049
# 4 -0.000220 0.002298 -0.004013 0.033607 0.000360 -0.001483
# 5 -0.001094 -0.006323 -0.000167 0.000360 0.037128 -0.014313
# 6 -0.001196 0.007882 -0.000049 -0.001483 -0.014313 0.031335
#
#
# Mechanical properties :
#
#
# Convention : Reuss Voigt Hill
#
# Bulk Modulus (GPa) = 56.47590 73.16068 64.81829
# Shear Modulus (GPa) = 32.47717 41.66286 37.07001
#
# Velocity S-wave (km/s) = 3.59151 4.06783 3.83707
# Velocity P-wave (km/s) = 6.29517 7.14984 6.73607
#
# Compressibility (1/GPa) = 0.01770667
#
# Stress axis : x y z
#
# Youngs Moduli (GPa) = 135.49895 57.00184 144.49799
#
# Poissons Ratio (x) = 0.16083 0.14187
# Poissons Ratio (y) = 0.38231 0.47184
# Poissons Ratio (z) = 0.13303 0.18613
#
# Static dielectric constant tensor:
#      x y z
#    x 2.325650 0.072970 0.135770 
#    y 0.072970 2.076090 0.062730 
#    z 0.135770 0.062730 2.124000 
# 
# From -- ./inp_files/568318.got.cif
#   From: 2010.05.17/outbox.cif.g08.bks.cpg/sg2_285_cif.got.tgz:568318.got - 2010.06.03 11:33:40.
