data_PCOD9092475
_publ_section_title
;
Structure prediction by ZEFSAII (Michael W. Deem and Ramdas Pophale) SiO2 
 PCOD9092475
Probable space group: P -1
;
_chemical_formula_sum "Si O2"
_cell_formula_units_Z 16
_cell_length_a 16.671223
_cell_length_b 11.977847
_cell_length_c 9.181191
_cell_angle_alpha 80.674678
_cell_angle_beta 39.984941
_cell_angle_gamma 50.681064
_cell_volume 692.088484
_symmetry_space_group_name_H-M "P -1"
_symmetry_group_IT_number 2
_symmetry_cell_setting 'triclinic'
loop_
_space_group_symop_operation_xyz
x,y,z
-x,-y,-z
loop_
_atom_site_type_symbol
_atom_site_label
_atom_site_fract_x
_atom_site_fract_y
_atom_site_fract_z
Si Si1 0.995508 0.964887 0.349378
Si Si2 0.824760 0.473774 0.191595
Si Si3 0.378133 0.943607 0.197389
Si Si4 0.256575 0.434946 0.374997
Si Si5 0.002231 0.115427 0.056970
Si Si6 0.469016 0.784167 0.401711
Si Si7 0.295789 0.548430 0.019938
Si Si8 0.062111 0.358738 0.623115
O O1 0.809888 0.012623 0.557318
O O2 0.000000 0.000000 0.500000
O O3 0.208192 0.737127 0.075532
O O4 0.967975 0.100032 0.270747
O O5 0.802400 0.500259 0.390326
O O6 0.628966 0.670435 0.337296
O O7 0.028367 0.373504 0.843247
O O8 0.847267 0.322438 0.169991
O O9 0.499745 0.838517 0.203720
O O10 0.263000 0.147119 0.323891
O O11 0.532739 0.794385 0.884904
O O12 0.299531 0.511045 0.193836
O O13 0.079239 0.479684 0.546588
O O14 0.240602 0.981831 0.734292
O O15 0.000000 0.000000 0.000000
O O16 0.497258 0.638764 0.317346
O O17 0.129288 0.577606 0.182388
#
# Coordination Sequence:
#
# PCOD9092475 Si02
#       8
#     2   2   2   2   2   2   2   2
#     4  11  23  39  60  90 126 161 200 259 314 354
#     4  11  24  39  63  96 126 154 206 263 304 359
#     4  10  21  42  59  90 124 164 210 249 294 383
#     4  11  22  38  62  94 125 159 202 265 310 350
#     4  12  22  41  65  87 121 171 205 245 311 367
#     4  10  21  41  61  86 124 160 207 249 291 373
#     4   9  21  40  62  88 123 162 208 250 296 380
#     4  10  19  41  66  86 123 169 203 245 312 371
#
# _framework density 23.118433
#
# number of rings (size 3 to 8) (size 9 to 14) (size 15 to 20)
#    0.000    1.500    2.500    3.375    1.750    2.000 
#    0.000    2.500    0.000    0.000    0.000    0.000 
#    0.000    0.000    0.000    0.000    0.000    0.000 
#
# Total GULP energy -89246.075307 kJ/mol
# GULP energy per Si atom -5577.879707 kJ/mol
# Density = 2.306581 g / cm^3
# Si number density = 23.118433 Si / 1000 Ang^3
#
#
#
# Elastic Constant Matrix: (Units=GPa)
#
#
# Indices 1 2 3 4 5 6 
#
# 1 54.8292 15.9732 11.2406 1.6783 18.5040 -15.7542
# 2 15.9732 76.1019 -4.7828 -4.2388 -5.6373 -3.1831
# 3 11.2406 -4.7828 62.4096 -3.1630 13.4992 1.6382
# 4 1.6783 -4.2388 -3.1630 37.9915 -10.4534 2.9698
# 5 18.5040 -5.6373 13.4992 -10.4534 27.8731 -4.8256
# 6 -15.7542 -3.1831 1.6382 2.9698 -4.8256 25.7983
#
#
#
# Elastic Compliance Matrix: (Units=1/GPa)
#
#
# Indices 1 2 3 4 5 6 
#
# 1 0.035268 -0.009339 -0.002622 -0.011098 -0.025232 0.017109
# 2 -0.009339 0.016147 0.000962 0.005401 0.010608 -0.002409
# 3 -0.002622 0.000962 0.018332 -0.000041 -0.007664 -0.004075
# 4 -0.011098 0.005401 -0.000041 0.033379 0.019921 -0.006225
# 5 -0.025232 0.010608 -0.007664 0.019921 0.065318 -0.003689
# 6 0.017109 -0.002409 -0.004075 -0.006225 -0.003689 0.049198
#
#
# Mechanical properties :
#
#
# Convention : Reuss Voigt Hill
#
# Bulk Modulus (GPa) = 20.94275 26.46698 23.70487
# Shear Modulus (GPa) = 19.56529 29.72657 24.64593
#
# Velocity S-wave (km/s) = 2.91229 3.58975 3.26862
# Velocity P-wave (km/s) = 4.51521 5.35304 4.95188
#
# Compressibility (1/GPa) = 0.04774921
#
# Stress axis : x y z
#
# Youngs Moduli (GPa) = 28.35443 61.93196 54.55018
#
# Poissons Ratio (x) = 0.57837 0.14301
# Poissons Ratio (y) = 0.26480 -0.05247
# Poissons Ratio (z) = 0.07433 -0.05957
#
# Static dielectric constant tensor:
#      x y z
#    x 1.960780 -0.083790 0.026020 
#    y -0.083790 1.947220 -0.080100 
#    z 0.026020 -0.080100 2.053150 
# 
# From -- ./inp_files/333208.got.cif
#   From: 2010.05.17/outbox.cif.g08.bks.cpg/sg2_167_cif.got.tgz:333208.got - 2010.06.03 11:33:40.
