data_PCOD9092982
_publ_section_title
;
Structure prediction by ZEFSAII (Michael W. Deem and Ramdas Pophale) SiO2 
 PCOD9092982
Probable space group: P -1
;
_chemical_formula_sum "Si O2"
_cell_formula_units_Z 16
_cell_length_a 18.788451
_cell_length_b 8.565801
_cell_length_c 7.103962
_cell_angle_alpha 69.085711
_cell_angle_beta 85.363415
_cell_angle_gamma 136.841342
_cell_volume 617.617622
_symmetry_space_group_name_H-M "P -1"
_symmetry_group_IT_number 2
_symmetry_cell_setting 'triclinic'
loop_
_space_group_symop_operation_xyz
x,y,z
-x,-y,-z
loop_
_atom_site_type_symbol
_atom_site_label
_atom_site_fract_x
_atom_site_fract_y
_atom_site_fract_z
Si Si1 0.210350 0.579667 0.550489
Si Si2 0.571755 0.315612 0.848696
Si Si3 0.938094 0.110557 0.916373
Si Si4 0.821860 0.187624 0.773829
Si Si5 0.187828 0.336788 0.279939
Si Si6 0.018520 0.278225 0.222775
Si Si7 0.558215 0.598312 0.236156
Si Si8 0.661900 0.463633 0.335974
O O1 0.214382 0.785896 0.421707
O O2 0.224665 0.532080 0.357501
O O3 0.318877 0.702968 0.598682
O O4 0.066201 0.268146 0.762504
O O5 0.687138 0.507425 0.879844
O O6 0.508347 0.374783 0.872030
O O7 0.626450 0.433311 0.574576
O O8 0.500000 0.000000 0.000000
O O9 0.898126 0.164206 0.741841
O O10 0.978537 0.271908 0.034812
O O11 0.805887 0.780353 0.136275
O O12 0.911565 0.466782 0.764580
O O13 0.700761 0.922274 0.038329
O O14 0.114924 0.308155 0.158506
O O15 0.096213 0.029202 0.521548
O O16 0.500000 0.500000 0.500000
O O17 0.569974 0.419559 0.272044
#
# Coordination Sequence:
#
# PCOD9092982 Si02
#       8
#     2   2   2   2   2   2   2   2
#     4  10  18  32  50  72 108 134 169 203 249 311
#     4  10  16  29  50  73  99 131 167 211 253 287
#     4  11  19  31  50  75 108 136 164 202 257 311
#     4  10  21  33  49  80 108 128 165 213 255 303
#     4   9  19  31  50  78 104 129 166 209 252 299
#     4  10  18  32  48  73 114 132 156 205 260 309
#     4   9  18  31  50  76 102 127 171 217 253 282
#     4   9  18  29  45  73 101 126 165 213 247 289
#
# _framework density 25.905995999999998
#
# number of rings (size 3 to 8) (size 9 to 14) (size 15 to 20)
#    0.000    2.250    2.500    3.375    0.000    0.000 
#    0.000    0.000    0.000    0.000    0.000   33.250 
#    0.000    0.000    0.000    0.000    0.000    0.000 
#
# Total GULP energy -89171.246932 kJ/mol
# GULP energy per Si atom -5573.202933 kJ/mol
# Density = 2.584703 g / cm^3
# Si number density = 25.905996 Si / 1000 Ang^3
#
#
#
# Elastic Constant Matrix: (Units=GPa)
#
#
# Indices 1 2 3 4 5 6 
#
# 1 234.0060 30.1155 57.1607 1.0674 12.4609 56.6363
# 2 30.1155 44.3875 19.1788 -7.8725 1.5937 13.2451
# 3 57.1607 19.1788 95.9024 -5.9123 -7.3590 7.1771
# 4 1.0674 -7.8725 -5.9123 29.0739 4.3271 -9.4837
# 5 12.4609 1.5937 -7.3590 4.3271 51.1361 10.2938
# 6 56.6363 13.2451 7.1771 -9.4837 10.2938 29.2345
#
#
#
# Elastic Compliance Matrix: (Units=1/GPa)
#
#
# Indices 1 2 3 4 5 6 
#
# 1 0.011706 0.000183 -0.005551 -0.010184 0.002343 -0.025527
# 2 0.000183 0.028296 -0.004716 0.002989 0.000394 -0.011186
# 3 -0.005551 -0.004716 0.014269 0.005189 0.000953 0.010736
# 4 -0.010184 0.002989 0.005189 0.049668 -0.008345 0.036153
# 5 0.002343 0.000394 0.000953 -0.008345 0.022987 -0.015753
# 6 -0.025527 -0.011186 0.010736 0.036153 -0.015753 0.103366
#
#
# Mechanical properties :
#
#
# Convention : Reuss Voigt Hill
#
# Bulk Modulus (GPa) = 29.32389 65.24511 47.28450
# Shear Modulus (GPa) = 19.09650 39.74498 29.42074
#
# Velocity S-wave (km/s) = 2.71799 3.92114 3.37363
# Velocity P-wave (km/s) = 4.60368 6.76317 5.78508
#
# Compressibility (1/GPa) = 0.03410188
#
# Stress axis : x y z
#
# Youngs Moduli (GPa) = 85.42873 35.34035 70.08332
#
# Poissons Ratio (x) = -0.00648 0.38905
# Poissons Ratio (y) = -0.01566 0.33054
# Poissons Ratio (z) = 0.47424 0.16668
#
# Static dielectric constant tensor:
#      x y z
#    x 2.260240 0.008630 0.115550 
#    y 0.008630 1.968440 0.004820 
#    z 0.115550 0.004820 2.080720 
# 
# From -- ./inp_files/345075.got.cif
#   From: 2010.05.17/outbox.cif.g08.bks.cpg/sg2_173_cif.got.tgz:345075.got - 2010.06.03 11:33:40.
