data_PCOD9092462
_publ_section_title
;
Structure prediction by ZEFSAII (Michael W. Deem and Ramdas Pophale) SiO2 
 PCOD9092462
Probable space group: P -1
;
_chemical_formula_sum "Si O2"
_cell_formula_units_Z 16
_cell_length_a 13.125837
_cell_length_b 12.938046
_cell_length_c 8.869015
_cell_angle_alpha 126.418890
_cell_angle_beta 127.450510
_cell_angle_gamma 33.086939
_cell_volume 640.308969
_symmetry_space_group_name_H-M "P -1"
_symmetry_group_IT_number 2
_symmetry_cell_setting 'triclinic'
loop_
_space_group_symop_operation_xyz
x,y,z
-x,-y,-z
loop_
_atom_site_type_symbol
_atom_site_label
_atom_site_fract_x
_atom_site_fract_y
_atom_site_fract_z
Si Si1 0.614779 0.166275 0.174000
Si Si2 0.804392 0.221532 0.557839
Si Si3 0.616648 0.012035 0.339771
Si Si4 0.186050 0.534943 0.053031
Si Si5 0.898811 0.707468 0.539122
Si Si6 0.224369 0.647198 0.857102
Si Si7 0.373117 0.744726 0.257716
Si Si8 0.227957 0.164622 0.140946
O O1 0.658386 0.282409 0.349162
O O2 0.676976 0.042818 0.272399
O O3 0.389258 0.315040 0.072113
O O4 0.743948 0.005257 0.023671
O O5 0.831602 0.351190 0.724719
O O6 0.715147 0.244222 0.656976
O O7 0.000000 0.000000 0.500000
O O8 0.602001 0.125610 0.562299
O O9 0.412500 0.102650 0.197318
O O10 0.772665 0.794588 0.351511
O O11 0.214669 0.581229 0.953808
O O12 0.974039 0.633046 0.930035
O O13 0.768044 0.828920 0.671631
O O14 0.000000 0.500000 0.500000
O O15 0.045107 0.719143 0.669630
O O16 0.417313 0.464236 0.783158
O O17 0.239032 0.785683 0.039064
#
# Coordination Sequence:
#
# PCOD9092462 Si02
#       8
#     2   2   2   2   2   2   2   2
#     4  11  24  43  66  99 136 177 227 278 339 403
#     4  10  19  41  65  97 138 179 225 273 337 402
#     4  11  25  43  63  97 141 170 226 283 335 398
#     4  10  22  40  70  98 132 183 226 276 338 403
#     4  11  25  44  69  98 132 184 226 276 345 403
#     4   9  20  41  66  98 129 171 232 270 337 401
#     4   9  20  40  65  97 131 173 221 284 331 389
#     4  11  24  43  68  96 132 180 224 279 337 399
#
# _framework density 24.987938
#
# number of rings (size 3 to 8) (size 9 to 14) (size 15 to 20)
#    0.000    1.750    1.250    1.875    5.250    1.000 
#    6.750    6.250    0.000    0.000    0.000    0.000 
#    0.000    0.000    0.000    0.000    0.000    0.000 
#
# Total GULP energy -89418.730760 kJ/mol
# GULP energy per Si atom -5588.670673 kJ/mol
# Density = 2.493106 g / cm^3
# Si number density = 24.987938 Si / 1000 Ang^3
#
#
#
# Elastic Constant Matrix: (Units=GPa)
#
#
# Indices 1 2 3 4 5 6 
#
# 1 56.1110 16.2293 14.8871 -9.6357 4.5339 -17.3429
# 2 16.2293 109.9201 34.5928 -15.6483 -10.1354 -7.9996
# 3 14.8871 34.5928 106.3894 3.8239 11.6655 2.4737
# 4 -9.6357 -15.6483 3.8239 46.8089 -15.3394 -2.1975
# 5 4.5339 -10.1354 11.6655 -15.3394 35.2708 -6.4964
# 6 -17.3429 -7.9996 2.4737 -2.1975 -6.4964 34.6565
#
#
#
# Elastic Compliance Matrix: (Units=1/GPa)
#
#
# Indices 1 2 3 4 5 6 
#
# 1 0.024123 0.000333 -0.004544 0.007501 0.004293 0.013753
# 2 0.000333 0.013820 -0.006245 0.009164 0.011173 0.006478
# 3 -0.004544 -0.006245 0.013667 -0.007914 -0.010491 -0.007159
# 4 0.007501 0.009164 -0.007914 0.034262 0.021515 0.012639
# 5 0.004293 0.011173 -0.010491 0.021515 0.046710 0.015596
# 6 0.013753 0.006478 -0.007159 0.012639 0.015596 0.041468
#
#
# Mechanical properties :
#
#
# Convention : Reuss Voigt Hill
#
# Bulk Modulus (GPa) = 32.57566 44.87099 38.72332
# Shear Modulus (GPa) = 24.36698 37.12797 30.74748
#
# Velocity S-wave (km/s) = 3.12613 3.85884 3.51164
# Velocity P-wave (km/s) = 5.10833 6.15225 5.65444
#
# Compressibility (1/GPa) = 0.03069777
#
# Stress axis : x y z
#
# Youngs Moduli (GPa) = 41.45395 72.35845 73.16793
#
# Poissons Ratio (x) = -0.02408 0.33246
# Poissons Ratio (y) = -0.01380 0.45696
# Poissons Ratio (z) = 0.18836 0.45190
#
# Static dielectric constant tensor:
#      x y z
#    x 1.986590 0.029490 0.092340 
#    y 0.029490 1.992250 0.013380 
#    z 0.092340 0.013380 2.036100 
# 
# From -- ./inp_files/315986.got.cif
#   From: 2010.05.17/outbox.cif.g08.bks.cpg/sg2_158_cif.got.tgz:315986.got - 2010.06.03 11:33:40.
