data_PCOD9092833
_publ_section_title
;
Structure prediction by ZEFSAII (Michael W. Deem and Ramdas Pophale) SiO2 
 PCOD9092833
Probable space group: P -1
;
_chemical_formula_sum "Si O2"
_cell_formula_units_Z 16
_cell_length_a 8.196882
_cell_length_b 17.835529
_cell_length_c 14.137320
_cell_angle_alpha 146.984845
_cell_angle_beta 42.300079
_cell_angle_gamma 140.272427
_cell_volume 692.611374
_symmetry_space_group_name_H-M "P -1"
_symmetry_group_IT_number 2
_symmetry_cell_setting 'triclinic'
loop_
_space_group_symop_operation_xyz
x,y,z
-x,-y,-z
loop_
_atom_site_type_symbol
_atom_site_label
_atom_site_fract_x
_atom_site_fract_y
_atom_site_fract_z
Si Si1 0.025281 0.902914 0.744366
Si Si2 0.188937 0.426976 0.572648
Si Si3 0.586620 0.633201 0.028806
Si Si4 0.621152 0.044353 0.098083
Si Si5 0.001530 0.604631 0.698481
Si Si6 0.256409 0.053484 0.631849
Si Si7 0.364335 0.955826 0.301972
Si Si8 0.939835 0.359650 0.809188
O O1 0.945691 0.725452 0.593454
O O2 0.024594 0.930434 0.660633
O O3 0.323639 0.002443 0.758982
O O4 0.815633 0.957951 0.937628
O O5 0.500000 0.500000 0.500000
O O6 0.077737 0.541588 0.695895
O O7 0.138792 0.395588 0.673200
O O8 0.715153 0.601577 0.845468
O O9 0.500000 0.500000 0.000000
O O10 0.767783 0.794712 0.164327
O O11 0.329608 0.663102 0.151305
O O12 0.795251 0.223022 0.222362
O O13 0.390261 0.989749 0.217057
O O14 0.500000 0.000000 0.000000
O O15 0.000000 0.500000 0.500000
O O16 0.500000 0.000000 0.500000
O O17 0.280487 0.060663 0.516923
O O18 0.150990 0.791406 0.249392
O O19 0.000000 0.500000 0.000000
#
# Coordination Sequence:
#
# PCOD9092833 Si02
#       8
#     2   2   2   2   2   2   2   2
#     4  11  21  45  77  99 132 188 248 290 347 436
#     4  12  27  47  72 106 151 191 235 306 371 439
#     4  12  24  45  75 107 144 187 245 308 359 422
#     4  12  27  45  69 104 149 186 234 306 368 423
#     4  12  28  47  71 108 151 193 243 300 371 436
#     4  10  19  42  74 102 131 174 250 297 340 417
#     4  11  23  44  77 102 131 189 253 289 342 441
#     4  12  26  44  71 109 144 187 240 302 370 433
#
# _framework density 23.100977
#
# number of rings (size 3 to 8) (size 9 to 14) (size 15 to 20)
#    0.000    0.500    6.250    2.625    7.000    0.000 
#    0.000    0.625    0.000    0.000    0.000    0.000 
#    0.000    0.000    0.000    0.000    0.000    0.000 
#
# Total GULP energy -89332.128628 kJ/mol
# GULP energy per Si atom -5583.258039 kJ/mol
# Density = 2.304840 g / cm^3
# Si number density = 23.100977 Si / 1000 Ang^3
#
#
#
# Elastic Constant Matrix: (Units=GPa)
#
#
# Indices 1 2 3 4 5 6 
#
# 1 38.1369 11.8705 -2.1216 -11.8953 17.2596 -13.1079
# 2 11.8705 145.9959 52.4673 -21.9942 16.0583 -20.5242
# 3 -2.1216 52.4673 126.7472 -15.2425 26.8486 -11.6469
# 4 -11.8953 -21.9942 -15.2425 52.2709 -12.1007 4.0229
# 5 17.2596 16.0583 26.8486 -12.1007 37.9865 -5.6081
# 6 -13.1079 -20.5242 -11.6469 4.0229 -5.6081 35.5578
#
#
#
# Elastic Compliance Matrix: (Units=1/GPa)
#
#
# Indices 1 2 3 4 5 6 
#
# 1 0.042635 -0.001129 0.007419 0.005634 -0.020328 0.013652
# 2 -0.001129 0.008886 -0.003148 0.002354 0.000241 0.003454
# 3 0.007419 -0.003148 0.011773 0.001365 -0.009465 0.003127
# 4 0.005634 0.002354 0.001365 0.022325 0.002858 0.001808
# 5 -0.020328 0.000241 -0.009465 0.002858 0.042457 -0.004082
# 6 0.013652 0.003454 0.003127 0.001808 -0.004082 0.035325
#
#
# Mechanical properties :
#
#
# Convention : Reuss Voigt Hill
#
# Bulk Modulus (GPa) = 14.37219 48.36805 31.37012
# Shear Modulus (GPa) = 27.73003 41.74063 34.73533
#
# Velocity S-wave (km/s) = 3.46841 4.25535 3.88187
# Velocity P-wave (km/s) = 4.71962 6.71767 5.80525
#
# Compressibility (1/GPa) = 0.06957882
#
# Stress axis : x y z
#
# Youngs Moduli (GPa) = 23.45504 112.53335 84.93662
#
# Poissons Ratio (x) = 0.12703 -0.63014
# Poissons Ratio (y) = 0.02648 0.26738
# Poissons Ratio (z) = -0.17401 0.35425
#
# Static dielectric constant tensor:
#      x y z
#    x 1.977450 -0.042870 -0.077290 
#    y -0.042870 1.827420 -0.011690 
#    z -0.077290 -0.011690 2.015500 
# 
# From -- ./inp_files/507327.got.cif
#   From: 2010.05.17/outbox.cif.g08.bks.cpg/sg2_254_cif.got.tgz:507327.got - 2010.06.03 11:33:40.
