data_PCOD9092797
_publ_section_title
;
Structure prediction by ZEFSAII (Michael W. Deem and Ramdas Pophale) SiO2 
 PCOD9092797
Probable space group: P -1
;
_chemical_formula_sum "Si O2"
_cell_formula_units_Z 16
_cell_length_a 25.215587
_cell_length_b 9.297830
_cell_length_c 9.139508
_cell_angle_alpha 117.120393
_cell_angle_beta 130.454198
_cell_angle_gamma 31.419404
_cell_volume 823.704911
_symmetry_space_group_name_H-M "P -1"
_symmetry_group_IT_number 2
_symmetry_cell_setting 'triclinic'
loop_
_space_group_symop_operation_xyz
x,y,z
-x,-y,-z
loop_
_atom_site_type_symbol
_atom_site_label
_atom_site_fract_x
_atom_site_fract_y
_atom_site_fract_z
Si Si1 0.894897 0.812960 0.527606
Si Si2 0.627982 0.789547 0.044998
Si Si3 0.467375 0.119573 0.657078
Si Si4 0.089052 0.936249 0.530934
Si Si5 0.268257 0.298406 0.534787
Si Si6 0.873251 0.759031 0.803150
Si Si7 0.749861 0.213996 0.027344
Si Si8 0.626714 0.357754 0.163471
O O1 0.892854 0.789239 0.687839
O O2 0.000000 0.500000 0.500000
O O3 0.935247 0.915232 0.589785
O O4 0.755001 0.050837 0.324574
O O5 0.701058 0.772832 0.270678
O O6 0.703622 0.480267 0.027111
O O7 0.500000 0.000000 0.000000
O O8 0.590182 0.915054 0.876099
O O9 0.392647 0.109846 0.586849
O O10 0.396575 0.424002 0.697568
O O11 0.500000 0.000000 0.500000
O O12 0.191203 0.609497 0.523286
O O13 0.133263 0.985218 0.750064
O O14 0.000000 0.000000 0.500000
O O15 0.193801 0.286172 0.346382
O O16 0.000000 0.500000 0.000000
O O17 0.784780 0.043746 0.871735
O O18 0.652882 0.331485 0.024890
O O19 0.500000 0.500000 0.000000
#
# Coordination Sequence:
#
# PCOD9092797 Si02
#       8
#     2   2   2   2   2   2   2   2
#     4  11  24  45  69 100 141 179 231 286 351 418
#     4   9  18  39  62  85 124 173 215 263 341 418
#     4  11  23  40  64  98 135 171 232 286 342 419
#     4  10  19  42  70  90 124 180 228 278 349 413
#     4  10  21  42  65  90 134 180 224 278 348 412
#     4  12  26  42  66 101 139 181 243 291 342 408
#     4  10  21  40  62  93 133 170 225 285 338 415
#     4  11  24  43  68 100 140 180 227 289 360 416
#
# _framework density 19.424430999999998
#
# number of rings (size 3 to 8) (size 9 to 14) (size 15 to 20)
#    0.000    1.500    5.000    3.000    5.250    0.000 
#    0.000    5.625    0.000    0.000    0.000    0.000 
#    0.000    0.000    0.000    0.000    0.000    0.000 
#
# Total GULP energy -89095.684493 kJ/mol
# GULP energy per Si atom -5568.480281 kJ/mol
# Density = 1.938022 g / cm^3
# Si number density = 19.424431 Si / 1000 Ang^3
#
#
#
# Elastic Constant Matrix: (Units=GPa)
#
#
# Indices 1 2 3 4 5 6 
#
# 1 129.5715 34.7012 63.9080 8.0938 -3.8417 -14.5870
# 2 34.7012 102.7276 64.8958 13.3580 -17.7203 -6.8184
# 3 63.9080 64.8958 134.0480 14.2606 -2.2905 -3.9818
# 4 8.0938 13.3580 14.2606 38.0815 -4.1956 -8.3455
# 5 -3.8417 -17.7203 -2.2905 -4.1956 45.2877 0.5175
# 6 -14.5870 -6.8184 -3.9818 -8.3455 0.5175 26.2520
#
#
#
# Elastic Compliance Matrix: (Units=1/GPa)
#
#
# Indices 1 2 3 4 5 6 
#
# 1 0.010803 -0.000127 -0.005010 0.000896 0.000634 0.005482
# 2 -0.000127 0.015632 -0.007168 -0.001663 0.005563 0.002264
# 3 -0.005010 -0.007168 0.013437 -0.002488 -0.002742 -0.003344
# 4 0.000896 -0.001663 -0.002488 0.029799 0.001956 0.009123
# 5 0.000634 0.005563 -0.002742 0.001956 0.024337 0.001523
# 6 0.005482 0.002264 -0.003344 0.009123 0.001523 0.044089
#
#
# Mechanical properties :
#
#
# Convention : Reuss Voigt Hill
#
# Bulk Modulus (GPa) = 65.52657 77.03968 71.28313
# Shear Modulus (GPa) = 29.79830 35.44705 32.62268
#
# Velocity S-wave (km/s) = 3.92096 4.27648 4.10258
# Velocity P-wave (km/s) = 7.36925 8.00823 7.69538
#
# Compressibility (1/GPa) = 0.01526099
#
# Stress axis : x y z
#
# Youngs Moduli (GPa) = 92.56597 63.97262 74.41998
#
# Poissons Ratio (x) = 0.00815 0.37287
# Poissons Ratio (y) = 0.01180 0.53342
# Poissons Ratio (z) = 0.46379 0.45854
#
# Static dielectric constant tensor:
#      x y z
#    x 1.683210 0.168300 0.143740 
#    y 0.168300 1.228680 -0.369140 
#    z 0.143740 -0.369140 1.512130 
# 
# From -- ./inp_files/179443.got.cif
#   From: 2010.05.17/outbox.cif.g08.bks.cpg/sg2_90_cif.got.tgz:179443.got - 2010.06.03 11:33:40.
