data_PCOD9092808
_publ_section_title
;
Structure prediction by ZEFSAII (Michael W. Deem and Ramdas Pophale) SiO2 
 PCOD9092808
Probable space group: P -1
;
_chemical_formula_sum "Si O2"
_cell_formula_units_Z 13
_cell_length_a 14.861128
_cell_length_b 12.105239
_cell_length_c 9.654870
_cell_angle_alpha 143.745875
_cell_angle_beta 46.434777
_cell_angle_gamma 151.703924
_cell_volume 485.541921
_symmetry_space_group_name_H-M "P -1"
_symmetry_group_IT_number 2
_symmetry_cell_setting 'triclinic'
loop_
_space_group_symop_operation_xyz
x,y,z
-x,-y,-z
loop_
_atom_site_type_symbol
_atom_site_label
_atom_site_fract_x
_atom_site_fract_y
_atom_site_fract_z
Si Si1 0.500000 0.500000 0.500000
Si Si2 0.137371 0.337557 0.044129
Si Si3 0.129134 0.321237 0.729092
Si Si4 0.438811 0.119462 0.764955
Si Si5 0.645573 0.953862 0.657300
Si Si6 0.130220 0.909151 0.685922
Si Si7 0.298303 0.838178 0.907103
O O1 0.334499 0.462360 0.667990
O O2 0.529695 0.630684 0.442199
O O3 0.361453 0.588691 0.089742
O O4 0.035963 0.328691 0.269841
O O5 0.084229 0.343317 0.952387
O O6 0.074405 0.048838 0.828710
O O7 0.152629 0.516215 0.792056
O O8 0.000000 0.000000 0.500000
O O9 0.500000 0.000000 0.500000
O O10 0.324711 0.123036 0.785870
O O11 0.292944 0.909614 0.832272
O O12 0.811535 0.147066 0.565671
O O13 0.504511 0.967245 0.815139
O O14 0.703462 0.003636 0.810893
#
# Coordination Sequence:
#
# PCOD9092808 Si02
#       7
#     1   2   2   2   2   2   2
#     4  10  20  40  72  98 138 178 236 294 338 410
#     4  11  26  48  71 105 149 188 243 296 348 431
#     4  11  25  46  75 103 137 188 243 298 357 423
#     4  12  25  47  73 107 146 193 233 291 369 426
#     4  10  19  42  71 103 139 191 230 298 353 410
#     4  11  25  46  74 106 146 194 237 289 357 429
#     4  10  23  42  70 105 144 177 244 294 355 425
#
# _framework density 26.774208999999999
#
# number of rings (size 3 to 8) (size 9 to 14) (size 15 to 20)
#    0.000    1.231    3.077    3.231    0.000    5.538 
#    0.000    3.077    0.000    0.000    0.000    0.000 
#    0.000    0.000    0.000    0.000    0.000    0.000 
#
# Total GULP energy -72569.890649 kJ/mol
# GULP energy per Si atom -5582.299281 kJ/mol
# Density = 2.671327 g / cm^3
# Si number density = 26.774209 Si / 1000 Ang^3
#
#
#
# Elastic Constant Matrix: (Units=GPa)
#
#
# Indices 1 2 3 4 5 6 
#
# 1 75.6636 41.5975 24.5330 -16.9751 13.7967 -15.7083
# 2 41.5975 173.9447 71.3220 -46.7500 14.8939 -17.3786
# 3 24.5330 71.3220 122.3552 -45.8746 13.2894 -7.6792
# 4 -16.9751 -46.7500 -45.8746 45.4036 1.0612 9.3030
# 5 13.7967 14.8939 13.2894 1.0612 43.2069 -15.0445
# 6 -15.7083 -17.3786 -7.6792 9.3030 -15.0445 46.2467
#
#
#
# Elastic Compliance Matrix: (Units=1/GPa)
#
#
# Indices 1 2 3 4 5 6 
#
# 1 0.016541 -0.002512 -0.000239 0.002827 -0.003379 0.002967
# 2 -0.002512 0.009112 -0.002350 0.006015 -0.001608 0.000448
# 3 -0.000239 -0.002350 0.014933 0.013265 -0.005000 -0.002780
# 4 0.002827 0.006015 0.013265 0.044344 -0.010559 -0.006932
# 5 -0.003379 -0.001608 -0.005000 -0.010559 0.029790 0.009233
# 6 0.002967 0.000448 -0.002780 -0.006932 0.009233 0.026736
#
#
# Mechanical properties :
#
#
# Convention : Reuss Voigt Hill
#
# Bulk Modulus (GPa) = 32.91244 71.87427 52.39335
# Shear Modulus (GPa) = 30.90490 42.60550 36.75520
#
# Velocity S-wave (km/s) = 3.40115 3.99342 3.70913
# Velocity P-wave (km/s) = 5.26717 6.94018 6.16073
#
# Compressibility (1/GPa) = 0.03038365
#
# Stress axis : x y z
#
# Youngs Moduli (GPa) = 60.45462 109.74273 66.96651
#
# Poissons Ratio (x) = 0.27569 0.01601
# Poissons Ratio (y) = 0.15187 0.15738
# Poissons Ratio (z) = 0.01446 0.25791
#
# Static dielectric constant tensor:
#      x y z
#    x 2.065740 -0.032520 -0.009430 
#    y -0.032520 2.157120 0.141330 
#    z -0.009430 0.141330 2.356100 
# 
# From -- ./inp_files/272010.got.cif
#   From: 2010.05.17/outbox.cif.g08.bks.cpg/sg2_137_cif.got.tgz:272010.got - 2010.06.03 11:33:40.
