data_PCOD9092114
_publ_section_title
;
Structure prediction by ZEFSAII (Michael W. Deem and Ramdas Pophale) SiO2 
 PCOD9092114
Probable space group: P -1
;
_chemical_formula_sum "Si O2"
_cell_formula_units_Z 10
_cell_length_a 12.967340
_cell_length_b 10.677591
_cell_length_c 7.187925
_cell_angle_alpha 113.202862
_cell_angle_beta 130.061159
_cell_angle_gamma 31.901336
_cell_volume 372.862806
_symmetry_space_group_name_H-M "P -1"
_symmetry_group_IT_number 2
_symmetry_cell_setting 'triclinic'
loop_
_space_group_symop_operation_xyz
x,y,z
-x,-y,-z
loop_
_atom_site_type_symbol
_atom_site_label
_atom_site_fract_x
_atom_site_fract_y
_atom_site_fract_z
Si Si1 0.950964 0.060215 0.260773
Si Si2 0.536467 0.261103 0.419646
Si Si3 0.717577 0.535308 0.134449
Si Si4 0.506227 0.007404 0.788811
Si Si5 0.026202 0.249795 0.973821
O O1 0.216545 0.858877 0.340027
O O2 0.841618 0.010880 0.032707
O O3 0.000000 0.000000 0.500000
O O4 0.783557 0.337880 0.194025
O O5 0.252084 0.539438 0.318863
O O6 0.568329 0.078288 0.414651
O O7 0.507643 0.288523 0.175017
O O8 0.665035 0.715291 0.296848
O O9 0.941678 0.370254 0.149686
O O10 0.500000 0.000000 0.000000
O O11 0.789955 0.801433 0.938047
#
# Coordination Sequence:
#
# PCOD9092114 Si02
#       5
#     2   2   2   2   2
#     4  12  23  41  63  94 123 162 208 254 302 361
#     4   9  22  39  64  90 124 159 203 248 307 360
#     4   9  23  40  65  88 126 161 205 248 309 359
#     4  10  19  40  66  92 119 163 203 248 309 361
#     4  10  22  41  65  88 129 160 201 254 303 364
#
# _framework density 26.819519
#
# number of rings (size 3 to 8) (size 9 to 14) (size 15 to 20)
#    1.200    0.800    0.000    4.200    0.000    4.000 
#    3.600    1.000    0.000    0.000    0.000    0.000 
#    0.000    0.000    0.000    0.000    0.000    0.000 
#
# Total GULP energy -55904.931657 kJ/mol
# GULP energy per Si atom -5590.493166 kJ/mol
# Density = 2.675848 g / cm^3
# Si number density = 26.819519 Si / 1000 Ang^3
#
#
#
# Elastic Constant Matrix: (Units=GPa)
#
#
# Indices 1 2 3 4 5 6 
#
# 1 181.0280 48.5238 42.4962 -0.2483 30.4487 -1.9634
# 2 48.5238 162.6941 12.1524 -13.3739 5.0021 27.1528
# 3 42.4962 12.1524 44.7536 -5.7962 5.3003 7.5558
# 4 -0.2483 -13.3739 -5.7962 32.8132 2.9525 -8.1910
# 5 30.4487 5.0021 5.3003 2.9525 52.1767 6.5145
# 6 -1.9634 27.1528 7.5558 -8.1910 6.5145 43.7798
#
#
#
# Elastic Compliance Matrix: (Units=1/GPa)
#
#
# Indices 1 2 3 4 5 6 
#
# 1 0.008929 -0.002664 -0.008010 -0.001043 -0.004572 0.003920
# 2 -0.002664 0.007803 0.001380 0.002053 0.001173 -0.004988
# 3 -0.008010 0.001380 0.030924 0.004286 0.001912 -0.006035
# 4 -0.001043 0.002053 0.004286 0.033424 -0.002485 0.004563
# 5 -0.004572 0.001173 0.001912 -0.002485 0.022297 -0.005045
# 6 0.003920 -0.004988 -0.006035 0.004563 -0.005045 0.028757
#
#
# Mechanical properties :
#
#
# Convention : Reuss Voigt Hill
#
# Bulk Modulus (GPa) = 34.40407 66.09117 50.24762
# Shear Modulus (GPa) = 31.16984 44.77418 37.97201
#
# Velocity S-wave (km/s) = 3.41281 4.09034 3.76684
# Velocity P-wave (km/s) = 5.32781 6.85597 6.13962
#
# Compressibility (1/GPa) = 0.02906633
#
# Stress axis : x y z
#
# Youngs Moduli (GPa) = 111.99981 128.15351 32.33776
#
# Poissons Ratio (x) = 0.34142 0.25904
# Poissons Ratio (y) = 0.29838 -0.04462
# Poissons Ratio (z) = 0.89716 -0.17684
#
# Static dielectric constant tensor:
#      x y z
#    x 2.046550 -0.007350 -0.018580 
#    y -0.007350 2.119020 -0.067060 
#    z -0.018580 -0.067060 2.174700 
# 
# From -- ./inp_files/106336.got.cif
#   From: 2010.05.17/outbox.cif.g08.bks.cpg/sg2_54_cif.got.tgz:106336.got - 2010.06.03 11:33:40.
