data_PCOD9092039
_publ_section_title
;
Structure prediction by ZEFSAII (Michael W. Deem and Ramdas Pophale) SiO2 
 PCOD9092039
Probable space group: P -1
;
_chemical_formula_sum "Si O2"
_cell_formula_units_Z 16
_cell_length_a 18.320748
_cell_length_b 5.530021
_cell_length_c 23.742357
_cell_angle_alpha 93.182402
_cell_angle_beta 155.819167
_cell_angle_gamma 104.306180
_cell_volume 674.450241
_symmetry_space_group_name_H-M "P -1"
_symmetry_group_IT_number 2
_symmetry_cell_setting 'triclinic'
loop_
_space_group_symop_operation_xyz
x,y,z
-x,-y,-z
loop_
_atom_site_type_symbol
_atom_site_label
_atom_site_fract_x
_atom_site_fract_y
_atom_site_fract_z
Si Si1 0.093339 0.643517 0.712917
Si Si2 0.966075 0.278373 0.023387
Si Si3 0.138827 0.514490 0.336564
Si Si4 0.431562 0.603344 0.903660
Si Si5 0.968367 0.645413 0.118551
Si Si6 0.333430 0.252128 0.288606
Si Si7 0.074046 0.316964 0.518962
Si Si8 0.369702 0.285540 0.069301
O O1 0.884523 0.430402 0.613553
O O2 0.039902 0.777227 0.625959
O O3 0.352939 0.969719 0.935314
O O4 0.159314 0.461349 0.724027
O O5 0.767420 0.898162 0.848614
O O6 0.000000 0.500000 0.000000
O O7 0.868639 0.308861 0.011183
O O8 0.249314 0.447326 0.238579
O O9 0.124451 0.724880 0.285719
O O10 0.385109 0.582378 0.504410
O O11 0.887576 0.114223 0.134451
O O12 0.500245 0.516732 0.896224
O O13 0.500000 0.500000 0.000000
O O14 0.732062 0.588110 0.965991
O O15 0.156788 0.955626 0.209316
O O16 0.000000 0.500000 0.500000
O O17 0.386536 0.620208 0.733765
O O18 0.000000 0.000000 0.500000
#
# Coordination Sequence:
#
# PCOD9092039 Si02
#       8
#     2   2   2   2   2   2   2   2
#     4  10  23  39  65  98 132 183 231 295 355 435
#     4   9  21  41  68  92 130 180 234 293 352 427
#     4  11  25  42  66 101 141 186 244 292 366 432
#     4  10  19  40  65  90 132 174 226 288 364 428
#     4  11  23  41  67 102 140 187 235 302 358 432
#     4  10  22  44  68  99 140 190 238 294 362 421
#     4  12  27  49  76 108 144 195 246 305 377 444
#     4  11  25  41  67 102 140 183 235 299 362 437
#
# _framework density 23.723026999999998
#
# number of rings (size 3 to 8) (size 9 to 14) (size 15 to 20)
#    0.000    1.500    1.250    2.625    1.750    8.000 
#    0.000    0.000    0.000    0.000    0.000    0.000 
#    0.000    0.000    0.000    0.000    0.000    0.000 
#
# Total GULP energy -89207.269555 kJ/mol
# GULP energy per Si atom -5575.454347 kJ/mol
# Density = 2.366903 g / cm^3
# Si number density = 23.723027 Si / 1000 Ang^3
#
#
#
# Elastic Constant Matrix: (Units=GPa)
#
#
# Indices 1 2 3 4 5 6 
#
# 1 193.2276 45.1365 71.0987 -20.7934 22.8182 -1.4594
# 2 45.1365 65.0568 37.2422 -29.9048 14.2016 2.3636
# 3 71.0987 37.2422 173.6504 -26.7951 32.7038 -8.7600
# 4 -20.7934 -29.9048 -26.7951 35.4903 -4.3395 -3.0213
# 5 22.8182 14.2016 32.7038 -4.3395 46.8627 -15.3931
# 6 -1.4594 2.3636 -8.7600 -3.0213 -15.3931 40.8070
#
#
#
# Elastic Compliance Matrix: (Units=1/GPa)
#
#
# Indices 1 2 3 4 5 6 
#
# 1 0.006790 -0.003723 -0.001926 -0.000774 -0.001038 -0.000404
# 2 -0.003723 0.029329 -0.000578 0.021211 -0.005518 -0.002467
# 3 -0.001926 -0.000578 0.008068 0.004031 -0.003982 0.000493
# 4 -0.000774 0.021211 0.004031 0.048321 -0.003815 0.001747
# 5 -0.001038 -0.005518 -0.003982 -0.003815 0.029291 0.010194
# 6 -0.000404 -0.002467 0.000493 0.001747 0.010194 0.028715
#
#
# Mechanical properties :
#
#
# Convention : Reuss Voigt Hill
#
# Bulk Modulus (GPa) = 31.51235 82.09884 56.80560
# Shear Modulus (GPa) = 28.81079 43.19584 36.00331
#
# Velocity S-wave (km/s) = 3.48870 4.27176 3.89993
# Velocity P-wave (km/s) = 5.43510 7.68199 6.65407
#
# Compressibility (1/GPa) = 0.03173359
#
# Stress axis : x y z
#
# Youngs Moduli (GPa) = 147.28135 34.09537 123.94575
#
# Poissons Ratio (x) = 0.12693 0.23870
# Poissons Ratio (y) = 0.54830 0.07166
# Poissons Ratio (z) = 0.28364 0.01971
#
# Static dielectric constant tensor:
#      x y z
#    x 1.946600 -0.057410 -0.064270 
#    y -0.057410 2.045290 0.088650 
#    z -0.064270 0.088650 2.077680 
# 
# From -- ./inp_files/550040.got.cif
#   From: 2010.05.17/outbox.cif.g08.bks.cpg/sg2_276_cif.got.tgz:550040.got - 2010.06.03 11:33:40.
