data_PCOD9092874
_publ_section_title
;
Structure prediction by ZEFSAII (Michael W. Deem and Ramdas Pophale) SiO2 
 PCOD9092874
Probable space group: P -1
;
_chemical_formula_sum "Si O2"
_cell_formula_units_Z 12
_cell_length_a 9.704775
_cell_length_b 7.274313
_cell_length_c 10.799014
_cell_angle_alpha 59.124692
_cell_angle_beta 54.863054
_cell_angle_gamma 54.199334
_cell_volume 487.415758
_symmetry_space_group_name_H-M "P -1"
_symmetry_group_IT_number 2
_symmetry_cell_setting 'triclinic'
loop_
_space_group_symop_operation_xyz
x,y,z
-x,-y,-z
loop_
_atom_site_type_symbol
_atom_site_label
_atom_site_fract_x
_atom_site_fract_y
_atom_site_fract_z
Si Si1 0.190322 0.018241 0.938234
Si Si2 0.257178 0.779389 0.232000
Si Si3 0.581676 0.739331 0.714053
Si Si4 0.552744 0.454301 0.348720
Si Si5 0.945749 0.717172 0.553539
Si Si6 0.083199 0.535881 0.814895
O O1 0.185822 0.264872 0.812336
O O2 0.386827 0.832655 0.850409
O O3 0.205993 0.985773 0.089891
O O4 0.000000 0.000000 0.000000
O O5 0.300229 0.537483 0.214521
O O6 0.447099 0.694558 0.240545
O O7 0.088680 0.822363 0.397523
O O8 0.533350 0.713759 0.606045
O O9 0.724582 0.857906 0.608746
O O10 0.500000 0.500000 0.500000
O O11 0.770291 0.360549 0.259006
O O12 0.000000 0.500000 0.500000
O O13 0.976632 0.654064 0.704540
O O14 0.000000 0.500000 0.000000
#
# Coordination Sequence:
#
# PCOD9092874 Si02
#       6
#     2   2   2   2   2   2
#     4  12  24  41  65  97 129 168 220 266 318 388
#     4   9  21  39  69  91 130 162 216 257 322 373
#     4   9  21  39  70  91 127 170 218 257 320 380
#     4  10  20  41  65  94 130 169 207 264 325 376
#     4  10  19  43  68  94 124 175 213 263 314 391
#     4  12  26  42  66  94 133 168 217 271 329 376
#
# _framework density 24.619636
#
# number of rings (size 3 to 8) (size 9 to 14) (size 15 to 20)
#    1.000    0.667    1.667    3.500    2.333    0.667 
#    0.000   15.833    0.000    0.000    0.000    0.000 
#    0.000    0.000    0.000    0.000    0.000    0.000 
#
# Total GULP energy -66958.081031 kJ/mol
# GULP energy per Si atom -5579.840086 kJ/mol
# Density = 2.456360 g / cm^3
# Si number density = 24.619636 Si / 1000 Ang^3
#
#
#
# Elastic Constant Matrix: (Units=GPa)
#
#
# Indices 1 2 3 4 5 6 
#
# 1 158.3283 17.9835 58.7551 5.7473 11.0867 -41.9030
# 2 17.9835 69.6272 22.0102 1.1909 -2.4068 -11.0596
# 3 58.7551 22.0102 144.7452 31.1969 23.6663 -27.0533
# 4 5.7473 1.1909 31.1969 30.5570 -16.8637 -4.8007
# 5 11.0867 -2.4068 23.6663 -16.8637 47.2173 2.2921
# 6 -41.9030 -11.0596 -27.0533 -4.8007 2.2921 32.1941
#
#
#
# Elastic Compliance Matrix: (Units=1/GPa)
#
#
# Indices 1 2 3 4 5 6 
#
# 1 0.010295 -0.000279 -0.001687 0.000624 -0.001952 0.012118
# 2 -0.000279 0.016278 -0.004539 0.007572 0.005771 0.002133
# 3 -0.001687 -0.004539 0.020178 -0.030224 -0.021239 0.010206
# 4 0.000624 0.007572 -0.030224 0.087254 0.047150 -0.012331
# 5 -0.001952 0.005771 -0.021239 0.047150 0.050142 -0.014944
# 6 0.012118 0.002133 0.010206 -0.012331 -0.014944 0.055369
#
#
# Mechanical properties :
#
#
# Convention : Reuss Voigt Hill
#
# Bulk Modulus (GPa) = 29.63745 63.35537 46.49641
# Shear Modulus (GPa) = 18.95572 40.25713 29.60643
#
# Velocity S-wave (km/s) = 2.77780 4.04810 3.47155
# Velocity P-wave (km/s) = 4.72784 6.90210 5.91572
#
# Compressibility (1/GPa) = 0.03374110
#
# Stress axis : x y z
#
# Youngs Moduli (GPa) = 97.13605 61.43309 49.55850
#
# Poissons Ratio (x) = 0.01714 0.08360
# Poissons Ratio (y) = 0.02710 0.22494
# Poissons Ratio (z) = 0.16386 0.27884
#
# Static dielectric constant tensor:
#      x y z
#    x 1.968120 0.047590 -0.012490 
#    y 0.047590 1.887260 0.256500 
#    z -0.012490 0.256500 1.732680 
# 
# From -- ./inp_files/381583.got.cif
#   From: 2010.05.17/outbox.cif.g08.bks.cpg/sg2_191_cif.got.tgz:381583.got - 2010.06.03 11:33:40.
