data_PCOD9092458
_publ_section_title
;
Structure prediction by ZEFSAII (Michael W. Deem and Ramdas Pophale) SiO2 
 PCOD9092458
Probable space group: P -1
;
_chemical_formula_sum "Si O2"
_cell_formula_units_Z 16
_cell_length_a 11.256094
_cell_length_b 17.780750
_cell_length_c 5.688757
_cell_angle_alpha 50.243928
_cell_angle_beta 112.708624
_cell_angle_gamma 129.358799
_cell_volume 676.403179
_symmetry_space_group_name_H-M "P -1"
_symmetry_group_IT_number 2
_symmetry_cell_setting 'triclinic'
loop_
_space_group_symop_operation_xyz
x,y,z
-x,-y,-z
loop_
_atom_site_type_symbol
_atom_site_label
_atom_site_fract_x
_atom_site_fract_y
_atom_site_fract_z
Si Si1 0.591107 0.802678 0.280709
Si Si2 0.105602 0.656086 0.148105
Si Si3 0.512645 0.581225 0.557320
Si Si4 0.656735 0.312390 0.343443
Si Si5 0.806267 0.506311 0.675595
Si Si6 0.392723 0.862883 0.727417
Si Si7 0.842407 0.669768 0.762337
Si Si8 0.070171 0.065032 0.672602
O O1 0.589800 0.716145 0.260726
O O2 0.496027 0.711494 0.597059
O O3 0.757644 0.905948 0.258924
O O4 0.481171 0.841635 0.039939
O O5 0.214547 0.777588 0.841062
O O6 0.942449 0.642330 0.068465
O O7 0.205410 0.670603 0.422957
O O8 0.092780 0.544236 0.235828
O O9 0.500000 0.500000 0.500000
O O10 0.330355 0.530732 0.541395
O O11 0.655729 0.600737 0.787499
O O12 0.599518 0.196442 0.383397
O O13 0.720601 0.419387 0.004176
O O14 0.870858 0.630288 0.604954
O O15 0.500000 0.000000 0.500000
O O16 0.908115 0.807606 0.557402
O O17 0.000000 0.000000 0.500000
O O18 0.000000 0.000000 0.000000
#
# Coordination Sequence:
#
# PCOD9092458 Si02
#       8
#     2   2   2   2   2   2   2   2
#     4  10  21  40  64  91 122 172 221 277 336 395
#     4  10  21  39  61  95 134 169 219 283 348 415
#     4   9  17  37  62  87 122 159 210 262 325 406
#     4  10  20  37  66  89 131 166 220 279 341 404
#     4  10  19  41  65  96 133 170 222 279 343 420
#     4  10  22  36  62  90 120 172 223 277 332 402
#     4  10  23  40  66  98 132 178 225 278 353 411
#     4  11  28  49  68  98 141 187 232 292 344 413
#
# _framework density 23.654530000000001
#
# number of rings (size 3 to 8) (size 9 to 14) (size 15 to 20)
#    0.000    2.000    3.750    0.375    3.500    3.500 
#    4.500    5.625    0.000    0.000    0.000    0.000 
#    0.000    0.000    0.000    0.000    0.000    0.000 
#
# Total GULP energy -89147.688472 kJ/mol
# GULP energy per Si atom -5571.730529 kJ/mol
# Density = 2.360069 g / cm^3
# Si number density = 23.654530 Si / 1000 Ang^3
#
#
#
# Elastic Constant Matrix: (Units=GPa)
#
#
# Indices 1 2 3 4 5 6 
#
# 1 124.8378 49.4157 49.3695 7.8016 18.4980 34.9424
# 2 49.4157 177.1369 44.9980 -0.5941 -6.9863 10.5771
# 3 49.3695 44.9980 98.8925 5.1860 9.5994 12.6908
# 4 7.8016 -0.5941 5.1860 40.1823 0.0074 14.3063
# 5 18.4980 -6.9863 9.5994 0.0074 36.9440 7.4678
# 6 34.9424 10.5771 12.6908 14.3063 7.4678 40.8049
#
#
#
# Elastic Compliance Matrix: (Units=1/GPa)
#
#
# Indices 1 2 3 4 5 6 
#
# 1 0.013894 -0.002389 -0.004260 0.001231 -0.004364 -0.009586
# 2 -0.002389 0.007034 -0.002367 0.000840 0.003122 0.000093
# 3 -0.004260 -0.002367 0.013462 -0.001258 -0.001990 0.000880
# 4 0.001231 0.000840 -0.001258 0.028882 0.002169 -0.011403
# 5 -0.004364 0.003122 -0.001990 0.002169 0.030942 -0.002876
# 6 -0.009586 0.000093 0.000880 -0.011403 -0.002876 0.036943
#
#
# Mechanical properties :
#
#
# Convention : Reuss Voigt Hill
#
# Bulk Modulus (GPa) = 61.13350 76.49260 68.81305
# Shear Modulus (GPa) = 32.33342 40.72517 36.52929
#
# Velocity S-wave (km/s) = 3.70117 4.15380 3.93400
# Velocity P-wave (km/s) = 6.64570 7.44399 7.05614
#
# Compressibility (1/GPa) = 0.01635764
#
# Stress axis : x y z
#
# Youngs Moduli (GPa) = 71.97492 142.17643 74.28555
#
# Poissons Ratio (x) = 0.33972 0.31642
# Poissons Ratio (y) = 0.17198 0.17580
# Poissons Ratio (z) = 0.30658 0.33647
#
# Static dielectric constant tensor:
#      x y z
#    x 2.230200 -0.106650 -0.063080 
#    y -0.106650 2.000950 0.017260 
#    z -0.063080 0.017260 2.008890 
# 
# From -- ./inp_files/81156.got.cif
#   From: 2010.05.17/outbox.cif.g08.bks.cpg/sg2_41_cif.got.tgz:81156.got - 2010.06.03 11:33:40.
