data_PCOD9092031
_publ_section_title
;
Structure prediction by ZEFSAII (Michael W. Deem and Ramdas Pophale) SiO2 
 PCOD9092031
Probable space group: P -1
;
_chemical_formula_sum "Si O2"
_cell_formula_units_Z 16
_cell_length_a 9.388401
_cell_length_b 16.379315
_cell_length_c 7.401278
_cell_angle_alpha 94.241564
_cell_angle_beta 48.164699
_cell_angle_gamma 119.533150
_cell_volume 678.417451
_symmetry_space_group_name_H-M "P -1"
_symmetry_group_IT_number 2
_symmetry_cell_setting 'triclinic'
loop_
_space_group_symop_operation_xyz
x,y,z
-x,-y,-z
loop_
_atom_site_type_symbol
_atom_site_label
_atom_site_fract_x
_atom_site_fract_y
_atom_site_fract_z
Si Si1 0.592542 0.086327 0.646635
Si Si2 0.515728 0.577601 0.751692
Si Si3 0.530104 0.400041 0.632512
Si Si4 0.037966 0.707736 0.452687
Si Si5 0.815601 0.293621 0.059411
Si Si6 0.017444 0.446724 0.229815
Si Si7 0.362310 0.186270 0.667737
Si Si8 0.847386 0.112687 0.073635
O O1 0.786696 0.173127 0.629661
O O2 0.451431 0.129293 0.689939
O O3 0.744205 0.080200 0.359623
O O4 0.378481 0.972646 0.869696
O O5 0.470298 0.468232 0.794040
O O6 0.518160 0.596528 0.538911
O O7 0.768081 0.666081 0.632891
O O8 0.277779 0.551680 0.036080
O O9 0.407260 0.281919 0.757764
O O10 0.807988 0.456607 0.440623
O O11 0.026555 0.640574 0.614394
O O12 0.141842 0.691801 0.184670
O O13 0.545841 0.236172 0.350961
O O14 0.896278 0.221484 0.026886
O O15 0.972012 0.396819 0.060393
O O16 0.084274 0.120359 0.844555
#
# Coordination Sequence:
#
# PCOD9092031 Si02
#       8
#     2   2   2   2   2   2   2   2
#     4  10  22  39  63  96 126 161 208 264 310 374
#     4  11  23  37  64  94 123 168 218 254 312 378
#     4  10  21  40  64  90 125 170 210 258 310 370
#     4  12  23  42  62  98 131 162 213 266 312 372
#     4  10  22  40  66  92 131 163 207 258 316 367
#     4  11  22  45  63  88 132 172 207 260 313 370
#     4  10  19  40  65  89 122 171 208 251 314 379
#     4  10  19  40  68  90 124 168 207 252 319 376
#
# _framework density 23.584299000000001
#
# number of rings (size 3 to 8) (size 9 to 14) (size 15 to 20)
#    0.000    1.500    3.750    4.125    0.000    2.000 
#    0.000    8.125    0.000    0.000    0.000    0.000 
#    0.000    0.000    0.000    0.000    0.000    0.000 
#
# Total GULP energy -89560.405102 kJ/mol
# GULP energy per Si atom -5597.525319 kJ/mol
# Density = 2.353062 g / cm^3
# Si number density = 23.584299 Si / 1000 Ang^3
#
#
#
# Elastic Constant Matrix: (Units=GPa)
#
#
# Indices 1 2 3 4 5 6 
#
# 1 63.9281 22.2913 43.2558 4.1435 -27.3138 11.8483
# 2 22.2913 73.9276 31.2284 -3.5761 -9.3856 4.0406
# 3 43.2558 31.2284 116.2392 -9.9793 -32.4043 20.0206
# 4 4.1435 -3.5761 -9.9793 26.5941 4.9361 -2.4340
# 5 -27.3138 -9.3856 -32.4043 4.9361 44.3413 -2.8328
# 6 11.8483 4.0406 20.0206 -2.4340 -2.8328 31.9996
#
#
#
# Elastic Compliance Matrix: (Units=1/GPa)
#
#
# Indices 1 2 3 4 5 6 
#
# 1 0.028434 -0.004755 -0.005412 -0.010128 0.013289 -0.006136
# 2 -0.004755 0.016077 -0.003220 0.002228 -0.002016 0.001736
# 3 -0.005412 -0.003220 0.014429 0.004239 0.005688 -0.005791
# 4 -0.010128 0.002228 0.004239 0.042722 -0.007207 0.003428
# 5 0.013289 -0.002016 0.005688 -0.007207 0.034907 -0.005682
# 6 -0.006136 0.001736 -0.005791 0.003428 -0.005682 0.036684
#
#
# Mechanical properties :
#
#
# Convention : Reuss Voigt Hill
#
# Bulk Modulus (GPa) = 31.08722 49.73841 40.41282
# Shear Modulus (GPa) = 23.72500 31.07495 27.39998
#
# Velocity S-wave (km/s) = 3.17514 3.63383 3.41220
# Velocity P-wave (km/s) = 5.16255 6.22428 5.71811
#
# Compressibility (1/GPa) = 0.03216756
#
# Stress axis : x y z
#
# Youngs Moduli (GPa) = 35.16932 62.19882 69.30692
#
# Poissons Ratio (x) = 0.29576 0.37506
# Poissons Ratio (y) = 0.16723 0.22313
# Poissons Ratio (z) = 0.19032 0.20025
#
# Static dielectric constant tensor:
#      x y z
#    x 1.926780 -0.000550 0.016750 
#    y -0.000550 1.922470 -0.028620 
#    z 0.016750 -0.028620 1.891840 
# 
# From -- ./inp_files/215074.got.cif
#   From: 2010.05.17/outbox.cif.g08.bks.cpg/sg2_108_cif.got.tgz:215074.got - 2010.06.03 11:33:40.
