data_PCOD9092290
_publ_section_title
;
Structure prediction by ZEFSAII (Michael W. Deem and Ramdas Pophale) SiO2 
 PCOD9092290
Probable space group: P -1
;
_chemical_formula_sum "Si O2"
_cell_formula_units_Z 16
_cell_length_a 11.109003
_cell_length_b 7.998412
_cell_length_c 11.898710
_cell_angle_alpha 69.909652
_cell_angle_beta 77.097890
_cell_angle_gamma 124.122643
_cell_volume 694.427279
_symmetry_space_group_name_H-M "P -1"
_symmetry_group_IT_number 2
_symmetry_cell_setting 'triclinic'
loop_
_space_group_symop_operation_xyz
x,y,z
-x,-y,-z
loop_
_atom_site_type_symbol
_atom_site_label
_atom_site_fract_x
_atom_site_fract_y
_atom_site_fract_z
Si Si1 0.402413 0.253549 0.765468
Si Si2 0.626776 0.780492 0.955759
Si Si3 0.745628 0.790997 0.535662
Si Si4 0.517883 0.963958 0.775624
Si Si5 0.909303 0.929033 0.712303
Si Si6 0.947998 0.187191 0.132902
Si Si7 0.691151 0.148739 0.473723
Si Si8 0.825801 0.453920 0.176079
O O1 0.554691 0.526087 0.622817
O O2 0.458648 0.105163 0.773798
O O3 0.223189 0.102092 0.774522
O O4 0.371491 0.242571 0.906736
O O5 0.813710 0.950903 0.819431
O O6 0.557066 0.898115 0.895989
O O7 0.500000 0.500000 0.000000
O O8 0.793541 0.812333 0.652074
O O9 0.745228 0.002229 0.463343
O O10 0.897068 0.843071 0.424703
O O11 0.674862 0.131850 0.615208
O O12 0.362546 0.706081 0.802424
O O13 0.923997 0.754696 0.812481
O O14 0.887034 0.322562 0.147629
O O15 0.041732 0.281348 0.971007
O O16 0.500000 0.000000 0.500000
O O17 0.808234 0.408542 0.323327
#
# Coordination Sequence:
#
# PCOD9092290 Si02
#       8
#     2   2   2   2   2   2   2   2
#     4  11  25  43  66 100 133 171 220 284 329 389
#     4  12  22  42  68  95 130 181 226 270 329 404
#     4  11  23  44  69 101 129 176 226 265 334 398
#     4  10  21  40  64  99 133 170 223 271 335 385
#     4  11  23  41  69  94 132 178 222 267 325 407
#     4  10  21  40  63  97 132 169 217 268 338 377
#     4  10  19  40  69  99 125 176 226 266 320 407
#     4   9  19  37  65  94 130 174 215 266 321 404
#
# _framework density 23.040569999999999
#
# number of rings (size 3 to 8) (size 9 to 14) (size 15 to 20)
#    0.000    1.500    3.750    1.125    0.000    2.000 
#    4.500    0.625    0.000    0.000    0.000    0.000 
#    0.000    0.000    0.000    0.000    0.000    0.000 
#
# Total GULP energy -89394.281110 kJ/mol
# GULP energy per Si atom -5587.142569 kJ/mol
# Density = 2.298813 g / cm^3
# Si number density = 23.040570 Si / 1000 Ang^3
#
#
#
# Elastic Constant Matrix: (Units=GPa)
#
#
# Indices 1 2 3 4 5 6 
#
# 1 78.0917 4.3486 19.0489 -2.0341 2.5193 2.9660
# 2 4.3486 40.6611 21.8430 3.7029 -8.6474 2.8252
# 3 19.0489 21.8430 117.2981 -2.7187 -18.0049 7.7018
# 4 -2.0341 3.7029 -2.7187 26.5658 4.5476 -3.0453
# 5 2.5193 -8.6474 -18.0049 4.5476 42.5889 4.1470
# 6 2.9660 2.8252 7.7018 -3.0453 4.1470 20.2595
#
#
#
# Elastic Compliance Matrix: (Units=1/GPa)
#
#
# Indices 1 2 3 4 5 6 
#
# 1 0.013522 -0.000709 -0.002318 0.001195 -0.002012 -0.000408
# 2 -0.000709 0.028920 -0.004345 -0.005888 0.005116 -0.004210
# 3 -0.002318 -0.004345 0.010598 0.000373 0.004071 -0.003861
# 4 0.001195 -0.005888 0.000373 0.040557 -0.006206 0.007871
# 5 -0.002012 0.005116 0.004071 -0.006206 0.027859 -0.008602
# 6 -0.000408 -0.004210 -0.003861 0.007871 -0.008602 0.054418
#
#
# Mechanical properties :
#
#
# Convention : Reuss Voigt Hill
#
# Bulk Modulus (GPa) = 26.11283 36.28134 31.19708
# Shear Modulus (GPa) = 24.58392 30.60353 27.59373
#
# Velocity S-wave (km/s) = 3.27002 3.64846 3.46441
# Velocity P-wave (km/s) = 5.06116 5.79045 5.43804
#
# Compressibility (1/GPa) = 0.03829535
#
# Stress axis : x y z
#
# Youngs Moduli (GPa) = 73.95390 34.57781 94.35743
#
# Poissons Ratio (x) = 0.02452 0.21874
# Poissons Ratio (y) = 0.05244 0.41000
# Poissons Ratio (z) = 0.17144 0.15025
#
# Static dielectric constant tensor:
#      x y z
#    x 1.849760 -0.012690 -0.037660 
#    y -0.012690 1.852510 -0.000500 
#    z -0.037660 -0.000500 1.905640 
# 
# From -- ./inp_files/419174.got.cif
#   From: 2010.05.17/outbox.cif.g08.bks.cpg/sg2_210_cif.got.tgz:419174.got - 2010.06.03 11:33:40.
