data_PCOD9092698
_publ_section_title
;
Structure prediction by ZEFSAII (Michael W. Deem and Ramdas Pophale) SiO2 
 PCOD9092698
Probable space group: P -1
;
_chemical_formula_sum "Si O2"
_cell_formula_units_Z 16
_cell_length_a 13.660314
_cell_length_b 14.383217
_cell_length_c 8.567652
_cell_angle_alpha 71.459120
_cell_angle_beta 96.966659
_cell_angle_gamma 34.006068
_cell_volume 613.970143
_symmetry_space_group_name_H-M "P -1"
_symmetry_group_IT_number 2
_symmetry_cell_setting 'triclinic'
loop_
_space_group_symop_operation_xyz
x,y,z
-x,-y,-z
loop_
_atom_site_type_symbol
_atom_site_label
_atom_site_fract_x
_atom_site_fract_y
_atom_site_fract_z
Si Si1 0.263390 0.411536 0.603773
Si Si2 0.495889 0.523867 0.697318
Si Si3 0.961176 0.193777 0.528049
Si Si4 0.177900 0.657193 0.937833
Si Si5 0.679325 0.174429 0.749614
Si Si6 0.560688 0.155331 0.286294
Si Si7 0.665075 0.791437 0.016641
Si Si8 0.570566 0.016556 0.632429
O O1 0.096109 0.663448 0.441731
O O2 0.542388 0.207065 0.784745
O O3 0.325511 0.284258 0.537096
O O4 0.172944 0.429491 0.724507
O O5 0.206753 0.748051 0.501792
O O6 0.606689 0.461738 0.910750
O O7 0.674618 0.269638 0.816402
O O8 0.496853 0.616988 0.533112
O O9 0.261379 0.923399 0.708328
O O10 0.861837 0.307995 0.273193
O O11 0.288193 0.450421 0.113697
O O12 0.940620 0.904882 0.865898
O O13 0.513803 0.114422 0.172427
O O14 0.673841 0.008682 0.547274
O O15 0.752787 0.794776 0.910505
O O16 0.500000 0.000000 0.000000
O O17 0.500000 0.000000 0.500000
#
# Coordination Sequence:
#
# PCOD9092698 Si02
#       8
#     2   2   2   2   2   2   2   2
#     4  10  19  42  64  93 131 167 212 270 321 388
#     4  10  23  43  62  95 130 176 222 266 316 372
#     4  11  24  39  64  93 135 169 219 265 322 389
#     4  12  22  39  65  94 132 174 221 266 319 382
#     4  10  23  42  65  92 130 175 221 265 316 388
#     4  11  23  42  65  98 130 174 210 269 329 383
#     4   9  19  41  71  91 126 166 214 271 321 389
#     4   9  19  38  68  90 127 164 210 269 322 389
#
# _framework density 26.059901
#
# number of rings (size 3 to 8) (size 9 to 14) (size 15 to 20)
#    0.000    1.750    1.250    3.000    0.000    3.000 
#    9.000    6.250   11.000    0.000    0.000    0.000 
#    0.000    0.000    0.000    0.000    0.000    0.000 
#
# Total GULP energy -89339.809880 kJ/mol
# GULP energy per Si atom -5583.738118 kJ/mol
# Density = 2.600059 g / cm^3
# Si number density = 26.059901 Si / 1000 Ang^3
#
#
#
# Elastic Constant Matrix: (Units=GPa)
#
#
# Indices 1 2 3 4 5 6 
#
# 1 85.3183 62.0510 36.4424 -4.4563 -6.3344 12.3597
# 2 62.0510 150.4928 41.8254 -6.2028 1.7953 21.1504
# 3 36.4424 41.8254 39.9027 6.4527 -9.0118 3.5300
# 4 -4.4563 -6.2028 6.4527 36.2514 -2.6987 0.7292
# 5 -6.3344 1.7953 -9.0118 -2.6987 27.8190 13.5360
# 6 12.3597 21.1504 3.5300 0.7292 13.5360 48.1318
#
#
#
# Elastic Compliance Matrix: (Units=1/GPa)
#
#
# Indices 1 2 3 4 5 6 
#
# 1 0.022681 -0.004099 -0.016422 0.005256 0.002351 -0.003559
# 2 -0.004099 0.011375 -0.009147 0.002883 -0.003170 -0.002427
# 3 -0.016422 -0.009147 0.054489 -0.012337 0.012920 0.000794
# 4 0.005256 0.002883 -0.012337 0.031066 0.001263 -0.002538
# 5 0.002351 -0.003170 0.012920 0.001263 0.047593 -0.013562
# 6 -0.003559 -0.002427 0.000794 -0.002538 -0.013562 0.026551
#
#
# Mechanical properties :
#
#
# Convention : Reuss Voigt Hill
#
# Bulk Modulus (GPa) = 34.23540 61.81682 48.02611
# Shear Modulus (GPa) = 19.02394 31.46678 25.24536
#
# Velocity S-wave (km/s) = 2.70480 3.47865 3.11584
# Velocity P-wave (km/s) = 4.78751 6.31722 5.60480
#
# Compressibility (1/GPa) = 0.02920954
#
# Stress axis : x y z
#
# Youngs Moduli (GPa) = 44.08979 87.91353 18.35232
#
# Poissons Ratio (x) = 0.36035 0.30138
# Poissons Ratio (y) = 0.18072 0.16787
# Poissons Ratio (z) = 0.72404 0.80413
#
# Static dielectric constant tensor:
#      x y z
#    x 2.067670 -0.010600 -0.021190 
#    y -0.010600 2.055580 0.033400 
#    z -0.021190 0.033400 2.048840 
# 
# From -- ./inp_files/314909.got.cif
#   From: 2010.05.17/outbox.cif.g08.bks.cpg/sg2_158_cif.got.tgz:314909.got - 2010.06.03 11:33:40.
