data_PCOD9092268
_publ_section_title
;
Structure prediction by ZEFSAII (Michael W. Deem and Ramdas Pophale) SiO2 
 PCOD9092268
Probable space group: P -1
;
_chemical_formula_sum "Si O2"
_cell_formula_units_Z 16
_cell_length_a 7.768053
_cell_length_b 19.871324
_cell_length_c 9.235848
_cell_angle_alpha 52.481600
_cell_angle_beta 67.919455
_cell_angle_gamma 40.215272
_cell_volume 718.948385
_symmetry_space_group_name_H-M "P -1"
_symmetry_group_IT_number 2
_symmetry_cell_setting 'triclinic'
loop_
_space_group_symop_operation_xyz
x,y,z
-x,-y,-z
loop_
_atom_site_type_symbol
_atom_site_label
_atom_site_fract_x
_atom_site_fract_y
_atom_site_fract_z
Si Si1 0.303124 0.600244 0.230434
Si Si2 0.716418 0.580081 0.407791
Si Si3 0.795346 0.783412 0.594742
Si Si4 0.863216 0.208726 0.718383
Si Si5 0.868545 0.486399 0.178986
Si Si6 0.348580 0.962847 0.043511
Si Si7 0.211369 0.991907 0.366457
Si Si8 0.160577 0.210501 0.087970
O O1 0.344555 0.497869 0.432695
O O2 0.198688 0.702952 0.248016
O O3 0.589770 0.533515 0.161547
O O4 0.083722 0.668178 0.084203
O O5 0.430985 0.721259 0.338844
O O6 0.783943 0.569869 0.232594
O O7 0.000000 0.500000 0.500000
O O8 0.821965 0.769025 0.777672
O O9 0.973315 0.799721 0.450079
O O10 0.918177 0.656477 0.656232
O O11 0.489175 0.898407 0.491563
O O12 0.069602 0.074874 0.901650
O O13 0.000000 0.500000 0.000000
O O14 0.278145 0.942603 0.244750
O O15 0.566472 0.857123 0.997641
O O16 0.500000 0.000000 0.000000
O O17 0.119985 0.121054 0.218130
O O18 0.000000 0.000000 0.500000
#
# Coordination Sequence:
#
# PCOD9092268 Si02
#       8
#     2   2   2   2   2   2   2   2
#     4  11  21  44  67  91 129 177 218 263 336 394
#     4  11  25  43  67  98 127 170 229 273 326 399
#     4  12  23  42  66  94 133 172 218 271 328 389
#     4  11  19  43  71  89 124 178 216 262 332 392
#     4  11  26  42  66  96 130 173 220 274 333 389
#     4  10  19  40  69  90 122 169 214 257 321 392
#     4  11  24  42  66  97 131 168 221 273 329 382
#     4  11  24  39  68  96 129 173 222 262 321 402
#
# _framework density 22.254725000000001
#
# number of rings (size 3 to 8) (size 9 to 14) (size 15 to 20)
#    0.000    1.000    7.500    1.125    3.500    1.500 
#    0.000    0.625    0.000    0.000    0.000    0.000 
#    0.000    0.000    0.000    0.000    0.000    0.000 
#
# Total GULP energy -89473.019068 kJ/mol
# GULP energy per Si atom -5592.063692 kJ/mol
# Density = 2.220407 g / cm^3
# Si number density = 22.254725 Si / 1000 Ang^3
#
#
#
# Elastic Constant Matrix: (Units=GPa)
#
#
# Indices 1 2 3 4 5 6 
#
# 1 64.3404 47.4417 36.5986 2.1454 -2.9203 -34.8558
# 2 47.4417 81.0511 45.8625 25.6388 -2.6591 -39.1714
# 3 36.5986 45.8625 129.1173 25.2816 5.2474 -33.4543
# 4 2.1454 25.6388 25.2816 50.2534 -11.4027 -1.9824
# 5 -2.9203 -2.6591 5.2474 -11.4027 44.8723 -5.3079
# 6 -34.8558 -39.1714 -33.4543 -1.9824 -5.3079 44.3538
#
#
#
# Elastic Compliance Matrix: (Units=1/GPa)
#
#
# Indices 1 2 3 4 5 6 
#
# 1 0.036295 -0.016142 -0.003495 0.010299 0.005946 0.012802
# 2 -0.016142 0.036000 -0.000110 -0.017162 -0.001122 0.018124
# 3 -0.003495 -0.000110 0.011361 -0.005860 -0.002440 0.005172
# 4 0.010299 -0.017162 -0.005860 0.032509 0.007520 -0.009130
# 5 0.005946 -0.001122 -0.002440 0.007520 0.025419 0.005220
# 6 0.012802 0.018124 0.005172 -0.009130 0.005220 0.052730
#
#
# Mechanical properties :
#
#
# Convention : Reuss Voigt Hill
#
# Bulk Modulus (GPa) = 22.64444 59.36829 41.00637
# Shear Modulus (GPa) = 20.11831 37.53631 28.82731
#
# Velocity S-wave (km/s) = 3.00992 4.11136 3.60298
# Velocity P-wave (km/s) = 4.71982 7.01943 5.98118
#
# Compressibility (1/GPa) = 0.04416095
#
# Stress axis : x y z
#
# Youngs Moduli (GPa) = 27.55200 27.77801 88.01916
#
# Poissons Ratio (x) = 0.44841 0.30765
# Poissons Ratio (y) = 0.44476 0.00965
# Poissons Ratio (z) = 0.09630 0.00305
#
# Static dielectric constant tensor:
#      x y z
#    x 1.895030 0.013720 -0.012020 
#    y 0.013720 1.837100 -0.025060 
#    z -0.012020 -0.025060 1.780890 
# 
# From -- ./inp_files/178762.got.cif
#   From: 2010.05.17/outbox.cif.g08.bks.cpg/sg2_90_cif.got.tgz:178762.got - 2010.06.03 11:33:40.
