data_PCOD9092709
_publ_section_title
;
Structure prediction by ZEFSAII (Michael W. Deem and Ramdas Pophale) SiO2 
 PCOD9092709
Probable space group: P -1
;
_chemical_formula_sum "Si O2"
_cell_formula_units_Z 14
_cell_length_a 13.936941
_cell_length_b 8.735828
_cell_length_c 10.157788
_cell_angle_alpha 138.768907
_cell_angle_beta 60.990870
_cell_angle_gamma 134.199278
_cell_volume 582.343776
_symmetry_space_group_name_H-M "P -1"
_symmetry_group_IT_number 2
_symmetry_cell_setting 'triclinic'
loop_
_space_group_symop_operation_xyz
x,y,z
-x,-y,-z
loop_
_atom_site_type_symbol
_atom_site_label
_atom_site_fract_x
_atom_site_fract_y
_atom_site_fract_z
Si Si1 0.283905 0.224854 0.796282
Si Si2 0.873938 0.776564 0.342933
Si Si3 0.171714 0.770607 0.923700
Si Si4 0.591253 0.415129 0.457629
Si Si5 0.873982 0.829066 0.882510
Si Si6 0.750560 0.323938 0.472124
Si Si7 0.480532 0.127790 0.968471
O O1 0.167451 0.137505 0.708406
O O2 0.313665 0.987321 0.627795
O O3 0.243591 0.254188 0.989556
O O4 0.414888 0.538126 0.883333
O O5 0.879888 0.506494 0.136361
O O6 0.732408 0.618602 0.416338
O O7 0.000000 0.000000 0.500000
O O8 0.173595 0.674316 0.709466
O O9 0.327171 0.015786 0.004915
O O10 0.105952 0.940059 0.086155
O O11 0.500000 0.500000 0.500000
O O12 0.654145 0.426127 0.566748
O O13 0.514510 0.072160 0.270878
O O14 0.854657 0.558934 0.655860
O O15 0.000000 0.000000 0.000000
O O16 0.500000 0.000000 0.000000
#
# Coordination Sequence:
#
# PCOD9092709 Si02
#       7
#     2   2   2   2   2   2   2
#     4  11  23  42  70  96 129 177 221 274 331 402
#     4  10  22  40  68  96 129 181 222 270 338 393
#     4   9  22  43  66  88 130 177 209 273 335 394
#     4  10  23  42  69  99 132 177 220 280 333 394
#     4  11  26  41  63  96 134 174 219 269 329 401
#     4   9  23  42  63  96 129 173 216 273 333 390
#     4  10  19  42  65  91 125 167 217 264 339 382
#
# _framework density 24.040782
#
# number of rings (size 3 to 8) (size 9 to 14) (size 15 to 20)
#    0.000    2.286    2.857    0.000    8.000    7.429 
#    0.000    6.429    0.000    0.000    0.000    0.000 
#    0.000    0.000    0.000    0.000    0.000    0.000 
#
# Total GULP energy -77992.405835 kJ/mol
# GULP energy per Si atom -5570.886131 kJ/mol
# Density = 2.398606 g / cm^3
# Si number density = 24.040782 Si / 1000 Ang^3
#
#
#
# Elastic Constant Matrix: (Units=GPa)
#
#
# Indices 1 2 3 4 5 6 
#
# 1 104.8527 41.0179 38.1128 27.7016 -2.4004 -12.1780
# 2 41.0179 106.2790 39.7611 31.4524 -2.6401 -11.3182
# 3 38.1128 39.7611 109.9521 40.1524 12.6523 -0.1431
# 4 27.7016 31.4524 40.1524 41.9338 -10.3589 -2.0638
# 5 -2.4004 -2.6401 12.6523 -10.3589 45.0313 7.7059
# 6 -12.1780 -11.3182 -0.1431 -2.0638 7.7059 39.5784
#
#
#
# Elastic Compliance Matrix: (Units=1/GPa)
#
#
# Indices 1 2 3 4 5 6 
#
# 1 0.012780 -0.002536 -0.001584 -0.005048 -0.000710 0.003076
# 2 -0.002536 0.013254 -0.001052 -0.007429 -0.001262 0.002864
# 3 -0.001584 -0.001052 0.017176 -0.016793 -0.008856 0.000123
# 4 -0.005048 -0.007429 -0.016793 0.052795 0.016890 -0.004274
# 5 -0.000710 -0.001262 -0.008856 0.016890 0.029402 -0.005455
# 6 0.003076 0.002864 0.000123 -0.004274 -0.005455 0.027872
#
#
# Mechanical properties :
#
#
# Convention : Reuss Voigt Hill
#
# Bulk Modulus (GPa) = 30.42651 62.09640 46.26145
# Shear Modulus (GPa) = 28.64081 38.78815 33.71448
#
# Velocity S-wave (km/s) = 3.45533 4.02111 3.74891
# Velocity P-wave (km/s) = 5.34815 6.88802 6.16634
#
# Compressibility (1/GPa) = 0.03286608
#
# Stress axis : x y z
#
# Youngs Moduli (GPa) = 78.25027 75.45020 58.22169
#
# Poissons Ratio (x) = 0.19133 0.09220
# Poissons Ratio (y) = 0.19843 0.06124
# Poissons Ratio (z) = 0.12392 0.07937
#
# Static dielectric constant tensor:
#      x y z
#    x 1.992890 0.020040 -0.057060 
#    y 0.020040 2.066460 -0.051560 
#    z -0.057060 -0.051560 1.689110 
# 
# From -- ./inp_files/448333.got.cif
#   From: 2010.05.17/outbox.cif.g08.bks.cpg/sg2_225_cif.got.tgz:448333.got - 2010.06.03 11:33:40.
