data_PCOD9092961
_publ_section_title
;
Structure prediction by ZEFSAII (Michael W. Deem and Ramdas Pophale) SiO2 
 PCOD9092961
Probable space group: P -1
;
_chemical_formula_sum "Si O2"
_cell_formula_units_Z 16
_cell_length_a 9.055318
_cell_length_b 5.768027
_cell_length_c 18.460753
_cell_angle_alpha 68.720284
_cell_angle_beta 126.938517
_cell_angle_gamma 96.453823
_cell_volume 710.875633
_symmetry_space_group_name_H-M "P -1"
_symmetry_group_IT_number 2
_symmetry_cell_setting 'triclinic'
loop_
_space_group_symop_operation_xyz
x,y,z
-x,-y,-z
loop_
_atom_site_type_symbol
_atom_site_label
_atom_site_fract_x
_atom_site_fract_y
_atom_site_fract_z
Si Si1 0.444345 0.491383 0.393178
Si Si2 0.531780 0.378535 0.943288
Si Si3 0.828639 0.684865 0.963037
Si Si4 0.120520 0.583514 0.459590
Si Si5 0.801597 0.850988 0.100889
Si Si6 0.203556 0.910227 0.206972
Si Si7 0.558817 0.005282 0.609200
Si Si8 0.121764 0.082512 0.460232
O O1 0.663293 0.478406 0.444921
O O2 0.391788 0.211018 0.411200
O O3 0.326282 0.637388 0.276631
O O4 0.399296 0.705365 0.418520
O O5 0.636516 0.569236 0.907176
O O6 0.329512 0.304745 0.872510
O O7 0.500000 0.500000 0.000000
O O8 0.675972 0.120374 0.019948
O O9 0.820545 0.953379 0.891965
O O10 0.844590 0.717072 0.050557
O O11 0.000000 0.500000 0.000000
O O12 0.084662 0.887001 0.408101
O O13 0.000000 0.500000 0.500000
O O14 0.086378 0.385958 0.408762
O O15 0.002509 0.891564 0.184151
O O16 0.320105 0.071144 0.275326
O O17 0.338816 0.019070 0.555342
O O18 0.000000 0.000000 0.500000
#
# Coordination Sequence:
#
# PCOD9092961 Si02
#       8
#     2   2   2   2   2   2   2   2
#     4   8  16  25  36  59  85 114 147 183 231 268
#     4   9  20  35  49  63  90 116 161 196 244 288
#     4  11  21  31  49  72  89 120 160 202 239 287
#     4   8  12  20  33  49  75 111 148 172 209 268
#     4  10  20  34  47  67  89 124 156 199 242 288
#     4  10  20  27  46  66  93 118 153 200 236 280
#     4   8  16  25  36  58  86 113 147 183 229 268
#     4   8  12  20  33  49  74 111 148 172 209 266
#
# _framework density 22.507451
#
# number of rings (size 3 to 8) (size 9 to 14) (size 15 to 20)
#    0.750    2.250    1.250    0.375    1.750    0.000 
#    0.000    0.000    0.000    0.000    0.000    0.000 
#    0.000    0.000    0.000    2.250    2.000    7.250 
#
# Total GULP energy -89089.074116 kJ/mol
# GULP energy per Si atom -5568.067132 kJ/mol
# Density = 2.245622 g / cm^3
# Si number density = 22.507451 Si / 1000 Ang^3
#
#
#
# Elastic Constant Matrix: (Units=GPa)
#
#
# Indices 1 2 3 4 5 6 
#
# 1 135.3774 22.4878 37.4323 -5.7504 24.2526 13.4634
# 2 22.4878 202.6282 4.9617 -3.7008 -10.7560 -1.6965
# 3 37.4323 4.9617 43.0211 -1.8861 10.6442 7.6731
# 4 -5.7504 -3.7008 -1.8861 23.6278 -0.6035 -0.2678
# 5 24.2526 -10.7560 10.6442 -0.6035 15.8729 8.5907
# 6 13.4634 -1.6965 7.6731 -0.2678 8.5907 51.2557
#
#
#
# Elastic Compliance Matrix: (Units=1/GPa)
#
#
# Indices 1 2 3 4 5 6 
#
# 1 0.012493 -0.002047 -0.006621 0.001783 -0.016162 0.000360
# 2 -0.002047 0.005588 -0.000643 0.000515 0.007610 -0.000454
# 3 -0.006621 -0.000643 0.032080 0.000550 -0.011155 -0.001212
# 4 0.001783 0.000515 0.000550 0.042853 -0.001041 -0.000135
# 5 -0.016162 0.007610 -0.011155 -0.001041 0.106630 -0.011710
# 6 0.000360 -0.000454 -0.001212 -0.000135 -0.011710 0.021544
#
#
# Mechanical properties :
#
#
# Convention : Reuss Voigt Hill
#
# Bulk Modulus (GPa) = 31.70714 56.75446 44.23080
# Shear Modulus (GPa) = 19.97429 39.22762 29.60096
#
# Velocity S-wave (km/s) = 2.98225 4.17930 3.63045
# Velocity P-wave (km/s) = 5.09670 6.96845 6.10474
#
# Compressibility (1/GPa) = 0.03153863
#
# Stress axis : x y z
#
# Youngs Moduli (GPa) = 80.04599 178.96805 31.17240
#
# Poissons Ratio (x) = 0.36629 0.20640
# Poissons Ratio (y) = 0.16383 0.02004
# Poissons Ratio (z) = 0.52999 0.11506
#
# Static dielectric constant tensor:
#      x y z
#    x 1.876360 0.006160 -0.015850 
#    y 0.006160 1.963220 0.022720 
#    z -0.015850 0.022720 1.874920 
# 
# From -- ./inp_files/111439.got.cif
#   From: 2010.05.17/outbox.cif.g08.bks.cpg/sg2_56_cif.got.tgz:111439.got - 2010.06.03 11:33:40.
