data_PCOD9092693
_publ_section_title
;
Structure prediction by ZEFSAII (Michael W. Deem and Ramdas Pophale) SiO2 
 PCOD9092693
Probable space group: P -1
;
_chemical_formula_sum "Si O2"
_cell_formula_units_Z 16
_cell_length_a 14.944232
_cell_length_b 10.105098
_cell_length_c 8.283452
_cell_angle_alpha 111.774893
_cell_angle_beta 94.460892
_cell_angle_gamma 41.897164
_cell_volume 735.000448
_symmetry_space_group_name_H-M "P -1"
_symmetry_group_IT_number 2
_symmetry_cell_setting 'triclinic'
loop_
_space_group_symop_operation_xyz
x,y,z
-x,-y,-z
loop_
_atom_site_type_symbol
_atom_site_label
_atom_site_fract_x
_atom_site_fract_y
_atom_site_fract_z
Si Si1 0.186771 0.890092 0.301685
Si Si2 0.177659 0.579334 0.072444
Si Si3 0.477799 0.595364 0.371400
Si Si4 0.628210 0.269713 0.019405
Si Si5 0.946701 0.390540 0.605695
Si Si6 0.899984 0.504492 0.285673
Si Si7 0.492528 0.872454 0.056245
Si Si8 0.610409 0.984918 0.543869
O O1 0.138511 0.793186 0.193899
O O2 0.334464 0.695380 0.329733
O O3 0.236003 0.911098 0.154196
O O4 0.080953 0.117660 0.491389
O O5 0.145394 0.543723 0.223975
O O6 0.100117 0.599264 0.917224
O O7 0.347352 0.358527 0.968671
O O8 0.500000 0.500000 0.500000
O O9 0.443392 0.800994 0.435423
O O10 0.629506 0.383333 0.209888
O O11 0.572475 0.192601 0.055389
O O12 0.500000 0.500000 0.000000
O O13 0.984206 0.511183 0.695877
O O14 0.893342 0.442073 0.435579
O O15 0.754640 0.770577 0.380662
O O16 0.390398 0.012851 0.260738
O O17 0.500000 0.000000 0.000000
O O18 0.500000 0.000000 0.500000
#
# Coordination Sequence:
#
# PCOD9092693 Si02
#       8
#     2   2   2   2   2   2   2   2
#     4  11  22  46  68  91 138 179 224 285 335 405
#     4  12  24  43  66  98 135 172 234 286 327 408
#     4  11  23  39  65 101 135 177 222 272 347 406
#     4  10  19  42  64  88 133 174 209 273 339 391
#     4  11  25  47  67  94 135 183 231 273 339 407
#     4  11  25  45  70  95 134 183 224 281 347 401
#     4  12  23  38  66 100 132 174 221 277 346 403
#     4  12  23  41  66  98 138 167 220 285 336 403
#
# _framework density 21.768695999999998
#
# number of rings (size 3 to 8) (size 9 to 14) (size 15 to 20)
#    0.000    0.750    7.500    1.500    1.750    2.500 
#    2.250    0.000    0.000    0.000    0.000    0.000 
#    0.000    0.000    0.000    0.000    0.000    0.000 
#
# Total GULP energy -89170.988272 kJ/mol
# GULP energy per Si atom -5573.186767 kJ/mol
# Density = 2.171915 g / cm^3
# Si number density = 21.768696 Si / 1000 Ang^3
#
#
#
# Elastic Constant Matrix: (Units=GPa)
#
#
# Indices 1 2 3 4 5 6 
#
# 1 87.4053 26.1134 35.9592 -8.5241 10.8626 31.7670
# 2 26.1134 54.4310 30.4740 -13.6331 11.6708 29.5261
# 3 35.9592 30.4740 106.2328 -7.0735 5.4210 10.6508
# 4 -8.5241 -13.6331 -7.0735 32.6332 3.0493 -8.2508
# 5 10.8626 11.6708 5.4210 3.0493 39.7320 -0.6250
# 6 31.7670 29.5261 10.6508 -8.2508 -0.6250 36.3393
#
#
#
# Elastic Compliance Matrix: (Units=1/GPa)
#
#
# Indices 1 2 3 4 5 6 
#
# 1 0.021303 0.008352 -0.006729 0.002519 -0.007914 -0.023000
# 2 0.008352 0.050400 -0.011371 0.011605 -0.017097 -0.042578
# 3 -0.006729 -0.011371 0.013598 -0.001129 0.003583 0.010941
# 4 0.002519 0.011605 -0.001129 0.035697 -0.006735 -0.003311
# 5 -0.007914 -0.017097 0.003583 -0.006735 0.032678 0.018792
# 6 -0.023000 -0.042578 0.010941 -0.003311 0.018792 0.078584
#
#
# Mechanical properties :
#
#
# Convention : Reuss Voigt Hill
#
# Bulk Modulus (GPa) = 15.19665 48.12915 31.66290
# Shear Modulus (GPa) = 18.26879 32.10905 25.18892
#
# Velocity S-wave (km/s) = 2.90008 3.84475 3.40533
# Velocity P-wave (km/s) = 4.26732 6.47046 5.48073
#
# Compressibility (1/GPa) = 0.06580397
#
# Stress axis : x y z
#
# Youngs Moduli (GPa) = 46.94250 19.84130 73.54085
#
# Poissons Ratio (x) = -0.16571 0.49486
# Poissons Ratio (y) = -0.39204 0.83622
# Poissons Ratio (z) = 0.31588 0.22561
#
# Static dielectric constant tensor:
#      x y z
#    x 2.431750 0.349200 -0.511120 
#    y 0.349200 2.014690 -0.276730 
#    z -0.511120 -0.276730 2.414210 
# 
# From -- ./inp_files/296107.got.cif
#   From: 2010.05.17/outbox.cif.g08.bks.cpg/sg2_149_cif.got.tgz:296107.got - 2010.06.03 11:33:40.
