data_PCOD9092343
_publ_section_title
;
Structure prediction by ZEFSAII (Michael W. Deem and Ramdas Pophale) SiO2 
 PCOD9092343
Probable space group: P -1
;
_chemical_formula_sum "Si O2"
_cell_formula_units_Z 14
_cell_length_a 12.815752
_cell_length_b 8.326625
_cell_length_c 9.541108
_cell_angle_alpha 105.866274
_cell_angle_beta 63.033995
_cell_angle_gamma 64.081689
_cell_volume 659.999305
_symmetry_space_group_name_H-M "P -1"
_symmetry_group_IT_number 2
_symmetry_cell_setting 'triclinic'
loop_
_space_group_symop_operation_xyz
x,y,z
-x,-y,-z
loop_
_atom_site_type_symbol
_atom_site_label
_atom_site_fract_x
_atom_site_fract_y
_atom_site_fract_z
Si Si1 0.098032 0.012426 0.055253
Si Si2 0.092164 0.537548 0.806843
Si Si3 0.809694 0.573132 0.993946
Si Si4 0.980421 0.122924 0.678057
Si Si5 0.489941 0.008996 0.177473
Si Si6 0.569121 0.249011 0.360759
Si Si7 0.287167 0.025483 0.514434
O O1 0.114326 0.900327 0.161802
O O2 0.265040 0.890540 0.854331
O O3 0.968763 0.278304 0.227688
O O4 0.000000 0.000000 0.000000
O O5 0.176664 0.535296 0.891194
O O6 0.199771 0.283039 0.646182
O O7 0.922013 0.623873 0.968031
O O8 0.649985 0.791868 0.092655
O O9 0.887585 0.382916 0.785688
O O10 0.151829 0.014480 0.599010
O O11 0.000000 0.000000 0.500000
O O12 0.471510 0.211176 0.310438
O O13 0.370680 0.982467 0.305485
O O14 0.500000 0.000000 0.000000
O O15 0.500000 0.500000 0.500000
O O16 0.599759 0.124801 0.461005
#
# Coordination Sequence:
#
# PCOD9092343 Si02
#       7
#     2   2   2   2   2   2   2
#     4  12  22  41  71 103 132 170 239 291 342 401
#     4  10  19  40  74  96 123 172 244 286 320 398
#     4  10  20  42  67  94 130 182 224 285 339 405
#     4  11  26  42  68 104 142 178 226 295 356 405
#     4  12  28  46  67 102 147 190 229 281 362 424
#     4  12  27  45  71 104 137 183 238 288 341 416
#     4  11  25  45  70 101 134 185 239 281 344 421
#
# _framework density 21.212142
#
# number of rings (size 3 to 8) (size 9 to 14) (size 15 to 20)
#    0.000    0.857    5.714    1.286    6.000    2.286 
#    0.000    4.286    0.000    0.000    0.000    0.000 
#    0.000    0.000    0.000    0.000    0.000    0.000 
#
# Total GULP energy -77941.668139 kJ/mol
# GULP energy per Si atom -5567.262010 kJ/mol
# Density = 2.116386 g / cm^3
# Si number density = 21.212142 Si / 1000 Ang^3
#
#
#
# Elastic Constant Matrix: (Units=GPa)
#
#
# Indices 1 2 3 4 5 6 
#
# 1 43.1609 12.5816 20.5283 5.4206 7.3145 6.5258
# 2 12.5816 97.0585 46.3537 13.2240 1.5058 2.6550
# 3 20.5283 46.3537 99.0722 -9.5642 4.8636 0.8487
# 4 5.4206 13.2240 -9.5642 43.5924 8.7035 -7.6804
# 5 7.3145 1.5058 4.8636 8.7035 37.2162 2.3054
# 6 6.5258 2.6550 0.8487 -7.6804 2.3054 15.5796
#
#
#
# Elastic Compliance Matrix: (Units=1/GPa)
#
#
# Indices 1 2 3 4 5 6 
#
# 1 0.030133 0.001182 -0.007340 -0.008135 -0.002110 -0.016121
# 2 0.001182 0.015457 -0.008364 -0.008481 0.002668 -0.007249
# 3 -0.007340 -0.008364 0.016492 0.009191 -0.003055 0.008585
# 4 -0.008135 -0.008481 0.009191 0.034236 -0.008660 0.022511
# 5 -0.002110 0.002668 -0.003055 -0.008660 0.030105 -0.008129
# 6 -0.016121 -0.007249 0.008585 0.022511 -0.008129 0.084007
#
#
# Mechanical properties :
#
#
# Convention : Reuss Voigt Hill
#
# Bulk Modulus (GPa) = 30.27058 44.24655 37.25856
# Shear Modulus (GPa) = 19.96108 29.93282 24.94695
#
# Velocity S-wave (km/s) = 3.07094 3.76056 3.43311
# Velocity P-wave (km/s) = 5.18417 6.30556 5.77216
#
# Compressibility (1/GPa) = 0.03303538
#
# Stress axis : x y z
#
# Youngs Moduli (GPa) = 33.18675 64.69538 60.63602
#
# Poissons Ratio (x) = -0.07644 0.44507
# Poissons Ratio (y) = -0.03921 0.50719
# Poissons Ratio (z) = 0.24359 0.54114
#
# Static dielectric constant tensor:
#      x y z
#    x 1.852410 0.116180 -0.024850 
#    y 0.116180 1.921160 -0.023720 
#    z -0.024850 -0.023720 1.824740 
# 
# From -- ./inp_files/157402.got.cif
#   From: 2010.05.17/outbox.cif.g08.bks.cpg/sg2_79_cif.got.tgz:157402.got - 2010.06.03 11:33:40.
