data_PCOD9092302
_publ_section_title
;
Structure prediction by ZEFSAII (Michael W. Deem and Ramdas Pophale) SiO2 
 PCOD9092302
Probable space group: P -1
;
_chemical_formula_sum "Si O2"
_cell_formula_units_Z 16
_cell_length_a 9.066419
_cell_length_b 11.758105
_cell_length_c 11.756363
_cell_angle_alpha 49.292749
_cell_angle_beta 68.141121
_cell_angle_gamma 47.370080
_cell_volume 693.560843
_symmetry_space_group_name_H-M "P -1"
_symmetry_group_IT_number 2
_symmetry_cell_setting 'triclinic'
loop_
_space_group_symop_operation_xyz
x,y,z
-x,-y,-z
loop_
_atom_site_type_symbol
_atom_site_label
_atom_site_fract_x
_atom_site_fract_y
_atom_site_fract_z
Si Si1 0.117170 0.593644 0.894292
Si Si2 0.866856 0.875012 0.300580
Si Si3 0.082084 0.417924 0.685842
Si Si4 0.772692 0.873983 0.959913
Si Si5 0.567267 0.805148 0.875418
Si Si6 0.278354 0.595163 0.607905
Si Si7 0.273768 0.173517 0.413524
Si Si8 0.714769 0.239794 0.719709
O O1 0.146187 0.642987 0.727539
O O2 0.979765 0.778107 0.890705
O O3 0.335221 0.416142 0.994742
O O4 0.000000 0.500000 0.000000
O O5 0.883386 0.695675 0.364391
O O6 0.844959 0.879795 0.441226
O O7 0.077608 0.826950 0.240769
O O8 0.664923 0.061277 0.182924
O O9 0.219411 0.487002 0.614714
O O10 0.853003 0.603133 0.660651
O O11 0.159511 0.259865 0.864071
O O12 0.617336 0.867641 0.933927
O O13 0.683513 0.088489 0.862723
O O14 0.692882 0.825229 0.730463
O O15 0.512194 0.447059 0.672990
O O16 0.262041 0.748649 0.431167
O O17 0.500000 0.000000 0.500000
#
# Coordination Sequence:
#
# PCOD9092302 Si02
#       8
#     2   2   2   2   2   2   2   2
#     4  10  19  40  70  97 117 165 225 274 303 368
#     4  11  25  39  65  93 135 174 207 263 326 389
#     4  12  21  42  73  94 121 174 230 258 304 386
#     4  11  23  41  69 100 124 164 223 273 316 374
#     4  10  20  41  68  97 120 169 224 269 311 374
#     4  11  23  44  69  90 133 169 218 266 317 387
#     4  10  21  40  65  98 129 158 219 274 311 371
#     4  11  27  43  58 100 140 170 200 269 343 377
#
# _framework density 23.06935
#
# number of rings (size 3 to 8) (size 9 to 14) (size 15 to 20)
#    0.000    1.250    5.000    1.875    1.750    2.000 
#    2.250    1.875    0.000    0.000    0.000    0.000 
#    0.000    0.000    0.000    0.000    0.000    0.000 
#
# Total GULP energy -89282.347000 kJ/mol
# GULP energy per Si atom -5580.146687 kJ/mol
# Density = 2.301684 g / cm^3
# Si number density = 23.069350 Si / 1000 Ang^3
#
#
#
# Elastic Constant Matrix: (Units=GPa)
#
#
# Indices 1 2 3 4 5 6 
#
# 1 71.5496 37.5353 29.5362 3.0888 8.6852 -32.1932
# 2 37.5353 54.8083 29.4477 -3.3722 6.0557 -31.2736
# 3 29.5362 29.4477 139.9709 0.8516 6.6837 -8.0164
# 4 3.0888 -3.3722 0.8516 51.1281 -13.5199 6.9670
# 5 8.6852 6.0557 6.6837 -13.5199 27.5591 -2.6501
# 6 -32.1932 -31.2736 -8.0164 6.9670 -2.6501 35.8458
#
#
#
# Elastic Compliance Matrix: (Units=1/GPa)
#
#
# Indices 1 2 3 4 5 6 
#
# 1 0.029309 -0.005422 -0.003343 -0.007333 -0.008753 0.021622
# 2 -0.005422 0.043943 -0.006027 -0.002253 -0.004492 0.032226
# 3 -0.003343 -0.006027 0.008753 0.000501 -0.000115 -0.006409
# 4 -0.007333 -0.002253 0.000501 0.025186 0.013857 -0.012310
# 5 -0.008753 -0.004492 -0.000115 0.013857 0.045788 -0.011113
# 6 0.021622 0.032226 -0.006409 -0.012310 -0.011113 0.075569
#
#
# Mechanical properties :
#
#
# Convention : Reuss Voigt Hill
#
# Bulk Modulus (GPa) = 19.07661 51.04082 35.05871
# Shear Modulus (GPa) = 18.14181 34.22724 26.18453
#
# Velocity S-wave (km/s) = 2.80733 3.85602 3.37268
# Velocity P-wave (km/s) = 4.33536 6.48060 5.51332
#
# Compressibility (1/GPa) = 0.05242022
#
# Stress axis : x y z
#
# Youngs Moduli (GPa) = 34.11959 22.75682 114.24503
#
# Poissons Ratio (x) = 0.12340 0.38191
# Poissons Ratio (y) = 0.18501 0.68854
# Poissons Ratio (z) = 0.11406 0.13715
#
# Static dielectric constant tensor:
#      x y z
#    x 1.864520 -0.031300 0.042450 
#    y -0.031300 1.974020 0.006230 
#    z 0.042450 0.006230 1.893820 
# 
# From -- ./inp_files/392061.got.cif
#   From: 2010.05.17/outbox.cif.g08.bks.cpg/sg2_197_cif.got.tgz:392061.got - 2010.06.03 11:33:40.
