data_PCOD9092203
_publ_section_title
;
Structure prediction by ZEFSAII (Michael W. Deem and Ramdas Pophale) SiO2 
 PCOD9092203
Probable space group: P -1
;
_chemical_formula_sum "Si O2"
_cell_formula_units_Z 16
_cell_length_a 16.353908
_cell_length_b 9.009568
_cell_length_c 9.496517
_cell_angle_alpha 102.991245
_cell_angle_beta 47.465036
_cell_angle_gamma 72.742421
_cell_volume 784.381441
_symmetry_space_group_name_H-M "P -1"
_symmetry_group_IT_number 2
_symmetry_cell_setting 'triclinic'
loop_
_space_group_symop_operation_xyz
x,y,z
-x,-y,-z
loop_
_atom_site_type_symbol
_atom_site_label
_atom_site_fract_x
_atom_site_fract_y
_atom_site_fract_z
Si Si1 0.379250 0.996565 0.815039
Si Si2 0.671292 0.451616 0.927288
Si Si3 0.669442 0.235280 0.637736
Si Si4 0.882922 0.501836 0.057220
Si Si5 0.869450 0.561690 0.760988
Si Si6 0.642530 0.953080 0.474398
Si Si7 0.149804 0.798779 0.826985
Si Si8 0.363676 0.682909 0.779445
O O1 0.396485 0.953042 0.616827
O O2 0.498395 0.015383 0.723407
O O3 0.399694 0.817719 0.827068
O O4 0.229532 0.204878 0.056314
O O5 0.711965 0.273540 0.743807
O O6 0.772286 0.509726 0.798234
O O7 0.502500 0.623549 0.137419
O O8 0.680891 0.396022 0.066370
O O9 0.740422 0.284060 0.448596
O O10 0.714056 0.026049 0.496619
O O11 0.738962 0.722765 0.289321
O O12 0.870263 0.351633 0.117907
O O13 0.913325 0.470135 0.847841
O O14 0.000000 0.500000 0.000000
O O15 0.000000 0.500000 0.500000
O O16 0.230509 0.820680 0.860669
O O17 0.000000 0.000000 0.000000
O O18 0.500000 0.500000 0.500000
#
# Coordination Sequence:
#
# PCOD9092203 Si02
#       8
#     2   2   2   2   2   2   2   2
#     4  10  21  37  69 100 125 167 232 278 340 400
#     4  11  24  44  68  99 138 180 229 279 347 415
#     4  11  23  43  69  99 140 177 223 289 347 400
#     4  11  25  42  68  98 132 179 233 277 342 415
#     4  11  25  46  67  96 142 185 221 283 351 411
#     4  10  19  40  67  96 129 169 221 289 331 397
#     4  12  25  42  69 101 139 176 228 286 340 410
#     4  12  22  43  71 101 130 178 239 284 337 414
#
# _framework density 20.398239
#
# number of rings (size 3 to 8) (size 9 to 14) (size 15 to 20)
#    0.000    1.000    5.000    1.500    5.250    0.000 
#    4.500    1.875    0.000    0.000    0.000    0.000 
#    0.000    0.000    0.000    0.000    0.000    0.000 
#
# Total GULP energy -89353.907365 kJ/mol
# GULP energy per Si atom -5584.619210 kJ/mol
# Density = 2.035181 g / cm^3
# Si number density = 20.398239 Si / 1000 Ang^3
#
#
#
# Elastic Constant Matrix: (Units=GPa)
#
#
# Indices 1 2 3 4 5 6 
#
# 1 94.6196 25.9427 39.9951 -7.6167 -4.6189 12.7942
# 2 25.9427 119.2397 47.5296 -11.5060 -8.9032 24.9944
# 3 39.9951 47.5296 111.1663 -23.2003 -6.9414 13.7964
# 4 -7.6167 -11.5060 -23.2003 27.1573 8.0239 -7.9491
# 5 -4.6189 -8.9032 -6.9414 8.0239 31.9232 0.1363
# 6 12.7942 24.9944 13.7964 -7.9491 0.1363 37.0540
#
#
#
# Elastic Compliance Matrix: (Units=1/GPa)
#
#
# Indices 1 2 3 4 5 6 
#
# 1 0.012841 -0.000566 -0.004260 -0.001428 0.001145 -0.002776
# 2 -0.000566 0.011526 -0.004058 -0.001384 0.002625 -0.006375
# 3 -0.004260 -0.004058 0.014101 0.009781 -0.001145 0.001060
# 4 -0.001428 -0.001384 0.009781 0.049960 -0.011060 0.008543
# 5 0.001145 0.002625 -0.001145 -0.011060 0.034772 -0.004240
# 6 -0.002776 -0.006375 0.001060 0.008543 -0.004240 0.033700
#
#
# Mechanical properties :
#
#
# Convention : Reuss Voigt Hill
#
# Bulk Modulus (GPa) = 48.30877 61.32893 54.81885
# Shear Modulus (GPa) = 27.53784 33.33077 30.43430
#
# Velocity S-wave (km/s) = 3.67823 4.04666 3.86684
# Velocity P-wave (km/s) = 6.46324 7.20868 6.84611
#
# Compressibility (1/GPa) = 0.02070017
#
# Stress axis : x y z
#
# Youngs Moduli (GPa) = 77.87691 86.76089 70.91481
#
# Poissons Ratio (x) = 0.04912 0.30209
# Poissons Ratio (y) = 0.04409 0.28777
# Poissons Ratio (z) = 0.33174 0.35208
#
# Static dielectric constant tensor:
#      x y z
#    x 1.749720 0.011190 -0.006380 
#    y 0.011190 1.795680 0.018290 
#    z -0.006380 0.018290 1.747710 
# 
# From -- ./inp_files/297972.got.cif
#   From: 2010.05.17/outbox.cif.g08.bks.cpg/sg2_149_cif.got.tgz:297972.got - 2010.06.03 11:33:40.
