data_PCOD9092723
_publ_section_title
;
Structure prediction by ZEFSAII (Michael W. Deem and Ramdas Pophale) SiO2 
 PCOD9092723
Probable space group: P -1
;
_chemical_formula_sum "Si O2"
_cell_formula_units_Z 12
_cell_length_a 7.819469
_cell_length_b 11.826862
_cell_length_c 11.566901
_cell_angle_alpha 148.418128
_cell_angle_beta 66.638271
_cell_angle_gamma 119.615825
_cell_volume 486.330477
_symmetry_space_group_name_H-M "P -1"
_symmetry_group_IT_number 2
_symmetry_cell_setting 'triclinic'
loop_
_space_group_symop_operation_xyz
x,y,z
-x,-y,-z
loop_
_atom_site_type_symbol
_atom_site_label
_atom_site_fract_x
_atom_site_fract_y
_atom_site_fract_z
Si Si1 0.169221 0.227549 0.683195
Si Si2 0.147223 0.736470 0.730408
Si Si3 0.706163 0.342321 0.134344
Si Si4 0.506943 0.933544 0.659791
Si Si5 0.670314 0.700927 0.069120
Si Si6 0.733969 0.711530 0.798613
O O1 0.184095 0.452839 0.803467
O O2 0.156645 0.254657 0.847156
O O3 0.366240 0.172484 0.546581
O O4 0.000000 0.000000 0.500000
O O5 0.170227 0.647475 0.774501
O O6 0.933755 0.669272 0.664980
O O7 0.332152 0.742266 0.605052
O O8 0.203105 0.011504 0.979335
O O9 0.492835 0.364939 0.249063
O O10 0.641507 0.107216 0.871699
O O11 0.406845 0.085275 0.743741
O O12 0.500000 0.500000 0.000000
O O13 0.723156 0.645748 0.879677
#
# Coordination Sequence:
#
# PCOD9092723 Si02
#       6
#     2   2   2   2   2   2
#     4  12  26  40  60  98 126 163 215 257 316 373
#     4   9  19  38  65  97 118 165 212 254 318 371
#     4  10  21  42  64  91 131 164 203 266 311 372
#     4  10  22  41  65  89 125 167 205 263 311 370
#     4  10  19  42  66  85 127 170 206 257 313 374
#     4   9  18  36  70  92 117 168 211 249 313 378
#
# _framework density 24.674578
#
# number of rings (size 3 to 8) (size 9 to 14) (size 15 to 20)
#    0.000    2.333    3.333    2.500    2.333    2.667 
#    6.000    0.833    0.000    0.000    0.000    0.000 
#    0.000    0.000    0.000    0.000    0.000    0.000 
#
# Total GULP energy -67099.274937 kJ/mol
# GULP energy per Si atom -5591.606245 kJ/mol
# Density = 2.461842 g / cm^3
# Si number density = 24.674578 Si / 1000 Ang^3
#
#
#
# Elastic Constant Matrix: (Units=GPa)
#
#
# Indices 1 2 3 4 5 6 
#
# 1 93.9707 34.4716 20.2230 -7.6035 18.9070 -2.9793
# 2 34.4716 103.9989 21.0377 -3.1239 27.3642 -25.5402
# 3 20.2230 21.0377 68.4937 -16.0729 13.3460 -6.2683
# 4 -7.6035 -3.1239 -16.0729 35.1225 15.3987 12.2104
# 5 18.9070 27.3642 13.3460 15.3987 59.0622 -8.9932
# 6 -2.9793 -25.5402 -6.2683 12.2104 -8.9932 38.5121
#
#
#
# Elastic Compliance Matrix: (Units=1/GPa)
#
#
# Indices 1 2 3 4 5 6 
#
# 1 0.013558 -0.004113 -0.000977 0.005675 -0.004404 -0.004665
# 2 -0.004113 0.014314 -0.002469 -0.002701 -0.002682 0.009002
# 3 -0.000977 -0.002469 0.019742 0.013242 -0.007121 -0.004361
# 4 0.005675 -0.002701 0.013242 0.051281 -0.019991 -0.020124
# 5 -0.004404 -0.002682 -0.007121 -0.019991 0.027861 0.009566
# 6 -0.004665 0.009002 -0.004361 -0.020124 0.009566 0.039480
#
#
# Mechanical properties :
#
#
# Convention : Reuss Voigt Hill
#
# Bulk Modulus (GPa) = 30.77349 46.43642 38.60496
# Shear Modulus (GPa) = 26.01643 39.25476 32.63560
#
# Velocity S-wave (km/s) = 3.25065 3.99293 3.64076
# Velocity P-wave (km/s) = 5.15633 6.33391 5.77521
#
# Compressibility (1/GPa) = 0.03249550
#
# Stress axis : x y z
#
# Youngs Moduli (GPa) = 73.75784 69.86322 50.65222
#
# Poissons Ratio (x) = 0.28733 0.04949
# Poissons Ratio (y) = 0.30335 0.12509
# Poissons Ratio (z) = 0.07206 0.17253
#
# Static dielectric constant tensor:
#      x y z
#    x 2.142930 0.010970 0.031640 
#    y 0.010970 1.912650 0.037810 
#    z 0.031640 0.037810 2.126120 
# 
# From -- ./inp_files/391551.got.cif
#   From: 2010.05.17/outbox.cif.g08.bks.cpg/sg2_196_cif.got.tgz:391551.got - 2010.06.03 11:33:40.
