data_PCOD9092179
_publ_section_title
;
Structure prediction by ZEFSAII (Michael W. Deem and Ramdas Pophale) SiO2 
 PCOD9092179
Probable space group: P -1
;
_chemical_formula_sum "Si O2"
_cell_formula_units_Z 16
_cell_length_a 15.157330
_cell_length_b 5.343817
_cell_length_c 14.587705
_cell_angle_alpha 118.680607
_cell_angle_beta 140.431065
_cell_angle_gamma 57.022473
_cell_volume 627.365046
_symmetry_space_group_name_H-M "P -1"
_symmetry_group_IT_number 2
_symmetry_cell_setting 'triclinic'
loop_
_space_group_symop_operation_xyz
x,y,z
-x,-y,-z
loop_
_atom_site_type_symbol
_atom_site_label
_atom_site_fract_x
_atom_site_fract_y
_atom_site_fract_z
Si Si1 0.873526 0.260439 0.174390
Si Si2 0.036722 0.649645 0.184631
Si Si3 0.678748 0.581723 0.710920
Si Si4 0.730011 0.244468 0.243056
Si Si5 0.722389 0.577729 0.946799
Si Si6 0.426859 0.069317 0.807785
Si Si7 0.880918 0.450742 0.566037
Si Si8 0.625974 0.063130 0.455477
O O1 0.819152 0.152164 0.205189
O O2 0.968045 0.474864 0.316752
O O3 0.738889 0.396374 0.022313
O O4 0.986657 0.983978 0.162665
O O5 0.161458 0.410533 0.186237
O O6 0.096934 0.691308 0.340872
O O7 0.887630 0.575151 0.063287
O O8 0.679634 0.467939 0.796038
O O9 0.654681 0.335967 0.579602
O O10 0.544736 0.887695 0.650357
O O11 0.648210 0.023923 0.180280
O O12 0.838610 0.283468 0.417035
O O13 0.619713 0.577439 0.189212
O O14 0.598204 0.896320 0.916559
O O15 0.368147 0.926463 0.648128
O O16 0.744222 0.753420 0.521692
#
# Coordination Sequence:
#
# PCOD9092179 Si02
#       8
#     2   2   2   2   2   2   2   2
#     4  11  25  42  63  94 134 176 216 269 323 403
#     4  11  23  40  64  92 134 173 220 268 324 399
#     4  10  19  40  67  91 130 170 218 271 336 386
#     4  11  25  42  73  98 132 175 219 276 342 381
#     4  10  25  43  62  93 132 174 225 268 324 393
#     4  10  24  45  69 102 131 171 223 279 328 395
#     4  10  22  42  64  98 131 164 217 279 329 396
#     4   9  19  40  67  98 128 163 218 277 333 391
#
# _framework density 25.503492000000001
#
# number of rings (size 3 to 8) (size 9 to 14) (size 15 to 20)
#    0.000    1.750    1.250    1.500    7.000    2.500 
#    2.250    2.500    0.000    0.000    0.000    0.000 
#    0.000    0.000    0.000    0.000    0.000    0.000 
#
# Total GULP energy -89519.104661 kJ/mol
# GULP energy per Si atom -5594.944041 kJ/mol
# Density = 2.544544 g / cm^3
# Si number density = 25.503492 Si / 1000 Ang^3
#
#
#
# Elastic Constant Matrix: (Units=GPa)
#
#
# Indices 1 2 3 4 5 6 
#
# 1 97.3545 44.5640 40.8489 -16.9639 3.1403 -18.9708
# 2 44.5640 63.1724 39.0450 -36.4046 -4.7509 -5.3076
# 3 40.8489 39.0450 115.7612 -24.3469 -11.6744 -5.5156
# 4 -16.9639 -36.4046 -24.3469 48.5935 -6.1109 5.3949
# 5 3.1403 -4.7509 -11.6744 -6.1109 44.0983 -1.8962
# 6 -18.9708 -5.3076 -5.5156 5.3949 -1.8962 34.3671
#
#
#
# Elastic Compliance Matrix: (Units=1/GPa)
#
#
# Indices 1 2 3 4 5 6 
#
# 1 0.019480 -0.016347 -0.003249 -0.008659 -0.004830 0.008799
# 2 -0.016347 0.046282 -0.003069 0.029293 0.009119 -0.006464
# 3 -0.003249 -0.003069 0.011752 0.002954 0.003393 -0.000658
# 4 -0.008659 0.029293 0.002954 0.042931 0.010248 -0.005955
# 5 -0.004830 0.009119 0.003393 0.010248 0.026284 -0.000872
# 6 0.008799 -0.006464 -0.000658 -0.005955 -0.000872 0.033738
#
#
# Mechanical properties :
#
#
# Convention : Reuss Voigt Hill
#
# Bulk Modulus (GPa) = 31.07254 58.35599 44.71426
# Shear Modulus (GPa) = 21.13935 35.53380 28.33657
#
# Velocity S-wave (km/s) = 2.88215 3.73673 3.33691
# Velocity P-wave (km/s) = 4.82554 6.44584 5.69362
#
# Compressibility (1/GPa) = 0.03218276
#
# Stress axis : x y z
#
# Youngs Moduli (GPa) = 51.33564 21.60670 85.08865
#
# Poissons Ratio (x) = 0.35321 0.27645
# Poissons Ratio (y) = 0.83919 0.26118
# Poissons Ratio (z) = 0.16679 0.06632
#
# Static dielectric constant tensor:
#      x y z
#    x 2.015650 0.015230 0.033980 
#    y 0.015230 2.011360 -0.007210 
#    z 0.033980 -0.007210 2.042410 
# 
# From -- ./inp_files/371430.got.cif
#   From: 2010.05.17/outbox.cif.g08.bks.cpg/sg2_186_cif.got.tgz:371430.got - 2010.06.03 11:33:40.
