data_PCOD9092853
_publ_section_title
;
Structure prediction by ZEFSAII (Michael W. Deem and Ramdas Pophale) SiO2 
 PCOD9092853
Probable space group: P -1
;
_chemical_formula_sum "Si O2"
_cell_formula_units_Z 14
_cell_length_a 12.428621
_cell_length_b 7.873976
_cell_length_c 9.235881
_cell_angle_alpha 87.060552
_cell_angle_beta 45.926827
_cell_angle_gamma 73.150233
_cell_volume 606.455386
_symmetry_space_group_name_H-M "P -1"
_symmetry_group_IT_number 2
_symmetry_cell_setting 'triclinic'
loop_
_space_group_symop_operation_xyz
x,y,z
-x,-y,-z
loop_
_atom_site_type_symbol
_atom_site_label
_atom_site_fract_x
_atom_site_fract_y
_atom_site_fract_z
Si Si1 0.877041 0.686274 0.677040
Si Si2 0.180750 0.267903 0.712153
Si Si3 0.658655 0.481998 0.934670
Si Si4 0.028494 0.805364 0.304323
Si Si5 0.604720 0.581725 0.300212
Si Si6 0.511080 0.008461 0.662961
Si Si7 0.842725 0.914297 0.964630
O O1 0.711143 0.652057 0.836933
O O2 0.903360 0.737288 0.813609
O O3 0.000000 0.500000 0.500000
O O4 0.897774 0.845476 0.552350
O O5 0.253556 0.396243 0.731431
O O6 0.024385 0.320320 0.755995
O O7 0.320912 0.154278 0.472767
O O8 0.148170 0.142872 0.874391
O O9 0.805803 0.301256 0.765201
O O10 0.500000 0.500000 0.000000
O O11 0.654866 0.466319 0.112918
O O12 0.056316 0.964025 0.181669
O O13 0.500000 0.500000 0.500000
O O14 0.504033 0.781956 0.318578
O O15 0.500000 0.000000 0.500000
O O16 0.351162 0.992093 0.882636
#
# Coordination Sequence:
#
# PCOD9092853 Si02
#       7
#     2   2   2   2   2   2   2
#     4  10  22  45  59  90 135 168 211 261 308 378
#     4  10  22  42  65  99 132 156 206 282 319 372
#     4  11  25  45  63  89 129 175 216 263 312 380
#     4  11  25  39  67  95 129 168 215 259 323 385
#     4  10  21  39  67  96 121 165 220 257 324 374
#     4   8  18  37  64  88 128 156 200 264 315 369
#     4  10  19  43  65  95 128 169 211 255 326 382
#
# _framework density 23.084963999999999
#
# number of rings (size 3 to 8) (size 9 to 14) (size 15 to 20)
#    0.000    2.286    2.857    0.857    8.000    0.571 
#    7.714    1.429    0.000    0.000    0.000    0.000 
#    0.000    0.000    0.000    0.000    0.000    0.000 
#
# Total GULP energy -77959.790447 kJ/mol
# GULP energy per Si atom -5568.556460 kJ/mol
# Density = 2.303242 g / cm^3
# Si number density = 23.084964 Si / 1000 Ang^3
#
#
#
# Elastic Constant Matrix: (Units=GPa)
#
#
# Indices 1 2 3 4 5 6 
#
# 1 126.7343 23.4168 27.1458 -6.1375 -12.9897 13.3615
# 2 23.4168 70.1096 36.4980 -27.0705 -5.9470 27.4088
# 3 27.1458 36.4980 133.7458 -29.5042 1.4987 10.8599
# 4 -6.1375 -27.0705 -29.5042 60.0032 5.6252 -4.4784
# 5 -12.9897 -5.9470 1.4987 5.6252 16.8515 -6.3735
# 6 13.3615 27.4088 10.8599 -4.4784 -6.3735 20.5350
#
#
#
# Elastic Compliance Matrix: (Units=1/GPa)
#
#
# Indices 1 2 3 4 5 6 
#
# 1 0.009322 -0.001851 -0.001706 -0.001427 0.006826 -0.000885
# 2 -0.001851 0.042232 -0.003537 0.014171 -0.011247 -0.053693
# 3 -0.001706 -0.003537 0.009573 0.003366 -0.004498 0.000106
# 4 -0.001427 0.014171 0.003366 0.024287 -0.011305 -0.017979
# 5 0.006826 -0.011247 -0.004498 -0.011305 0.077920 0.034668
# 6 -0.000885 -0.053693 0.000106 -0.017979 0.034668 0.127722
#
#
# Mechanical properties :
#
#
# Convention : Reuss Voigt Hill
#
# Bulk Modulus (GPa) = 21.30484 56.07898 38.69191
# Shear Modulus (GPa) = 15.58172 35.71322 25.64747
#
# Velocity S-wave (km/s) = 2.60084 3.93750 3.33679
# Velocity P-wave (km/s) = 4.27412 6.70948 5.62517
#
# Compressibility (1/GPa) = 0.04693769
#
# Stress axis : x y z
#
# Youngs Moduli (GPa) = 107.27520 23.67891 104.46321
#
# Poissons Ratio (x) = 0.04384 0.17823
# Poissons Ratio (y) = 0.19859 0.36947
# Poissons Ratio (z) = 0.18303 0.08375
#
# Static dielectric constant tensor:
#      x y z
#    x 1.927360 -0.068000 -0.069160 
#    y -0.068000 2.035510 0.108200 
#    z -0.069160 0.108200 1.996870 
# 
# From -- ./inp_files/239459.got.cif
#   From: 2010.05.17/outbox.cif.g08.bks.cpg/sg2_120_cif.got.tgz:239459.got - 2010.06.03 11:33:40.
