data_PCOD9092065
_publ_section_title
;
Structure prediction by ZEFSAII (Michael W. Deem and Ramdas Pophale) SiO2 
 PCOD9092065
Probable space group: P -1
;
_chemical_formula_sum "Si O2"
_cell_formula_units_Z 14
_cell_length_a 7.939683
_cell_length_b 12.678770
_cell_length_c 8.329832
_cell_angle_alpha 123.376854
_cell_angle_beta 58.961874
_cell_angle_gamma 108.718386
_cell_volume 599.158489
_symmetry_space_group_name_H-M "P -1"
_symmetry_group_IT_number 2
_symmetry_cell_setting 'triclinic'
loop_
_space_group_symop_operation_xyz
x,y,z
-x,-y,-z
loop_
_atom_site_type_symbol
_atom_site_label
_atom_site_fract_x
_atom_site_fract_y
_atom_site_fract_z
Si Si1 0.619477 0.220340 0.924977
Si Si2 0.070789 0.679109 0.949736
Si Si3 0.826460 0.539266 0.498147
Si Si4 0.357121 0.387601 0.030954
Si Si5 0.555274 0.962075 0.621154
Si Si6 0.290141 0.203903 0.354099
Si Si7 0.844666 0.036089 0.976205
O O1 0.812481 0.312469 0.932432
O O2 0.476746 0.262444 0.888400
O O3 0.485608 0.213803 0.148952
O O4 0.682227 0.082348 0.729793
O O5 0.197466 0.582089 0.703738
O O6 0.844900 0.632779 0.986577
O O7 0.094201 0.824594 0.002156
O O8 0.672354 0.571559 0.735601
O O9 0.828189 0.668942 0.502721
O O10 0.000000 0.500000 0.500000
O O11 0.500000 0.500000 0.000000
O O12 0.500000 0.000000 0.500000
O O13 0.654952 0.834047 0.522253
O O14 0.359642 0.959317 0.823928
O O15 0.171518 0.081689 0.236327
O O16 0.000000 0.000000 0.000000
#
# Coordination Sequence:
#
# PCOD9092065 Si02
#       7
#     2   2   2   2   2   2   2
#     4  10  20  41  65  93 129 175 223 263 330 404
#     4  11  20  39  69  93 123 171 229 264 315 401
#     4   9  20  38  65  98 125 166 223 268 320 401
#     4  10  23  40  61  95 135 169 208 276 344 389
#     4  11  22  40  65  98 136 170 215 281 332 378
#     4  10  19  40  65  95 133 172 219 260 331 408
#     4  11  20  38  70  92 125 177 220 263 324 407
#
# _framework density 23.366104
#
# number of rings (size 3 to 8) (size 9 to 14) (size 15 to 20)
#    0.000    1.714    2.857    4.286    0.000    4.000 
#    2.571    0.714    6.286    1.714    0.000    0.000 
#    0.000    0.000    0.000    0.000    0.000    0.000 
#
# Total GULP energy -78020.388974 kJ/mol
# GULP energy per Si atom -5572.884927 kJ/mol
# Density = 2.331292 g / cm^3
# Si number density = 23.366104 Si / 1000 Ang^3
#
#
#
# Elastic Constant Matrix: (Units=GPa)
#
#
# Indices 1 2 3 4 5 6 
#
# 1 137.5784 52.4537 30.1961 13.2762 18.7558 -9.5416
# 2 52.4537 116.5325 43.5233 26.9268 0.6630 -15.9281
# 3 30.1961 43.5233 53.5150 26.2738 10.0539 -3.2208
# 4 13.2762 26.9268 26.2738 34.8148 -3.5443 -1.5508
# 5 18.7558 0.6630 10.0539 -3.5443 25.2176 11.1907
# 6 -9.5416 -15.9281 -3.2208 -1.5508 11.1907 58.1770
#
#
#
# Elastic Compliance Matrix: (Units=1/GPa)
#
#
# Indices 1 2 3 4 5 6 
#
# 1 0.010261 -0.003851 -0.000048 -0.001688 -0.008753 0.002265
# 2 -0.003851 0.014557 -0.009598 -0.001933 0.005256 0.001760
# 3 -0.000048 -0.009598 0.045434 -0.029079 -0.023524 0.003629
# 4 -0.001688 -0.001933 -0.029079 0.054910 0.023004 -0.005377
# 5 -0.008753 0.005256 -0.023524 0.023004 0.064444 -0.013082
# 6 0.002265 0.001760 0.003629 -0.005377 -0.013082 0.020616
#
#
# Mechanical properties :
#
#
# Convention : Reuss Voigt Hill
#
# Bulk Modulus (GPa) = 23.11760 62.21911 42.66836
# Shear Modulus (GPa) = 19.86998 35.73874 27.80436
#
# Velocity S-wave (km/s) = 2.91928 3.91514 3.45330
# Velocity P-wave (km/s) = 4.61282 6.86466 5.84814
#
# Compressibility (1/GPa) = 0.04325708
#
# Stress axis : x y z
#
# Youngs Moduli (GPa) = 97.45892 68.69533 22.00988
#
# Poissons Ratio (x) = 0.26457 0.00105
# Poissons Ratio (y) = 0.37534 0.21126
# Poissons Ratio (z) = 0.00465 0.65936
#
# Static dielectric constant tensor:
#      x y z
#    x 1.952610 -0.084140 0.001900 
#    y -0.084140 2.137570 -0.341720 
#    z 0.001900 -0.341720 2.438110 
# 
# From -- ./inp_files/190598.got.cif
#   From: 2010.05.17/outbox.cif.g08.bks.cpg/sg2_96_cif.got.tgz:190598.got - 2010.06.03 11:33:40.
