data_PCOD9092284
_publ_section_title
;
Structure prediction by ZEFSAII (Michael W. Deem and Ramdas Pophale) SiO2 
 PCOD9092284
Probable space group: P -1
;
_chemical_formula_sum "Si O2"
_cell_formula_units_Z 16
_cell_length_a 13.202486
_cell_length_b 11.014246
_cell_length_c 12.240287
_cell_angle_alpha 144.296587
_cell_angle_beta 41.931331
_cell_angle_gamma 118.882026
_cell_volume 659.808452
_symmetry_space_group_name_H-M "P -1"
_symmetry_group_IT_number 2
_symmetry_cell_setting 'triclinic'
loop_
_space_group_symop_operation_xyz
x,y,z
-x,-y,-z
loop_
_atom_site_type_symbol
_atom_site_label
_atom_site_fract_x
_atom_site_fract_y
_atom_site_fract_z
Si Si1 0.307705 0.940787 0.540170
Si Si2 0.321594 0.802011 0.676075
Si Si3 0.375819 0.252916 0.994801
Si Si4 0.974642 0.919924 0.294211
Si Si5 0.452524 0.629437 0.861519
Si Si6 0.115454 0.554807 0.765588
Si Si7 0.224075 0.078115 0.324288
Si Si8 0.772498 0.568621 0.969186
O O1 0.314409 0.834539 0.575147
O O2 0.456353 0.814587 0.254744
O O3 0.144297 0.975207 0.631920
O O4 0.314755 0.185115 0.736815
O O5 0.473554 0.591515 0.428047
O O6 0.171833 0.732914 0.785019
O O7 0.331068 0.030103 0.882613
O O8 0.410245 0.349769 0.151069
O O9 0.254439 0.416497 0.128612
O O10 0.865409 0.923427 0.489375
O O11 0.100047 0.045887 0.311052
O O12 0.071906 0.669473 0.002020
O O13 0.311300 0.586241 0.016390
O O14 0.375638 0.863519 0.039001
O O15 0.244632 0.316655 0.481588
O O16 0.954603 0.524081 0.823769
#
# Coordination Sequence:
#
# PCOD9092284 Si02
#       8
#     2   2   2   2   2   2   2   2
#     4  10  19  40  69  98 128 161 215 268 324 384
#     4  11  25  43  63 101 136 168 205 263 336 395
#     4  11  21  39  67  98 128 167 216 266 321 383
#     4  10  22  42  70  94 127 167 219 274 318 367
#     4  12  23  39  70  94 127 172 222 266 311 373
#     4  11  26  43  65  95 138 171 208 265 330 383
#     4  11  24  42  65  97 124 173 230 264 300 379
#     4  10  20  38  66  96 126 163 214 270 318 378
#
# _framework density 24.249461
#
# number of rings (size 3 to 8) (size 9 to 14) (size 15 to 20)
#    0.000    1.250    3.750    3.000    0.000    8.000 
#    0.000    2.500    0.000    0.000    0.000    0.000 
#    0.000    0.000    0.000    0.000    0.000    0.000 
#
# Total GULP energy -89619.937150 kJ/mol
# GULP energy per Si atom -5601.246072 kJ/mol
# Density = 2.419427 g / cm^3
# Si number density = 24.249461 Si / 1000 Ang^3
#
#
#
# Elastic Constant Matrix: (Units=GPa)
#
#
# Indices 1 2 3 4 5 6 
#
# 1 54.6696 23.7792 20.4702 8.0387 6.0012 21.8320
# 2 23.7792 93.6956 35.2439 23.5818 1.8187 13.9036
# 3 20.4702 35.2439 83.1733 22.5642 -2.9521 -1.6244
# 4 8.0387 23.5818 22.5642 39.2687 1.1521 4.4624
# 5 6.0012 1.8187 -2.9521 1.1521 15.6110 3.7158
# 6 21.8320 13.9036 -1.6244 4.4624 3.7158 22.2898
#
#
#
# Elastic Compliance Matrix: (Units=1/GPa)
#
#
# Indices 1 2 3 4 5 6 
#
# 1 0.037668 -0.000737 -0.010870 0.003368 -0.007994 -0.036568
# 2 -0.000737 0.015270 -0.005043 -0.005196 -0.000136 -0.008108
# 3 -0.010870 -0.005043 0.019475 -0.007900 0.005243 0.015919
# 4 0.003368 -0.005196 -0.007900 0.033297 -0.003023 -0.006795
# 5 -0.007994 -0.000136 0.005243 -0.003023 0.068979 -0.002597
# 6 -0.036568 -0.008108 0.015919 -0.006795 -0.002597 0.088692
#
#
# Mechanical properties :
#
#
# Convention : Reuss Voigt Hill
#
# Bulk Modulus (GPa) = 25.56599 43.39167 34.47883
# Shear Modulus (GPa) = 16.14364 25.57022 20.85693
#
# Velocity S-wave (km/s) = 2.58298 3.25078 2.93593
# Velocity P-wave (km/s) = 4.41152 5.65887 5.07367
#
# Compressibility (1/GPa) = 0.03911446
#
# Stress axis : x y z
#
# Youngs Moduli (GPa) = 26.54763 65.48635 51.34699
#
# Poissons Ratio (x) = 0.04827 0.55814
# Poissons Ratio (y) = 0.01957 0.25893
# Poissons Ratio (z) = 0.28857 0.33023
#
# Static dielectric constant tensor:
#      x y z
#    x 1.913060 -0.010720 -0.014860 
#    y -0.010720 1.910420 0.008560 
#    z -0.014860 0.008560 1.990890 
# 
# From -- ./inp_files/532125.got.cif
#   From: 2010.05.17/outbox.cif.g08.bks.cpg/sg2_267_cif.got.tgz:532125.got - 2010.06.03 11:33:40.
