data_PCOD9092536
_publ_section_title
;
Structure prediction by ZEFSAII (Michael W. Deem and Ramdas Pophale) SiO2 
 PCOD9092536
Probable space group: P -1
;
_chemical_formula_sum "Si O2"
_cell_formula_units_Z 14
_cell_length_a 18.767222
_cell_length_b 14.376937
_cell_length_c 11.452328
_cell_angle_alpha 149.123786
_cell_angle_beta 148.775576
_cell_angle_gamma 17.914186
_cell_volume 473.051933
_symmetry_space_group_name_H-M "P -1"
_symmetry_group_IT_number 2
_symmetry_cell_setting 'triclinic'
loop_
_space_group_symop_operation_xyz
x,y,z
-x,-y,-z
loop_
_atom_site_type_symbol
_atom_site_label
_atom_site_fract_x
_atom_site_fract_y
_atom_site_fract_z
Si Si1 0.623957 0.123600 0.333866
Si Si2 0.000000 0.500000 0.500000
Si Si3 0.648589 0.618630 0.455363
Si Si4 0.647137 0.030595 0.889134
Si Si5 0.033485 0.101589 0.258278
Si Si6 0.500000 0.500000 0.000000
Si Si7 0.004645 0.782184 0.293395
Si Si8 0.723920 0.622064 0.046217
O O1 0.728000 0.155098 0.605849
O O2 0.817000 0.929387 0.290606
O O3 0.660086 0.889040 0.191671
O O4 0.363538 0.415658 0.223391
O O5 0.018992 0.645709 0.594371
O O6 0.953828 0.408450 0.218768
O O7 0.810918 0.312290 0.267748
O O8 0.749711 0.524066 0.624786
O O9 0.629868 0.840049 0.620768
O O10 0.419841 0.743401 0.254395
O O11 0.570025 0.269734 0.951990
O O12 0.463189 0.226103 0.949864
O O13 0.909391 0.783446 0.046355
O O14 0.000000 0.000000 0.000000
O O15 0.000000 0.000000 0.500000
#
# Coordination Sequence:
#
# PCOD9092536 Si02
#       8
#     2   1   2   2   2   1   2   2
#     4   8  18  36  67  90 129 174 226 282 344 414
#     4  10  20  38  64  88 122 174 220 278 336 406
#     4  11  24  41  64  99 134 185 230 283 360 413
#     4  11  23  40  67  98 143 182 230 292 346 419
#     4  10  22  40  62  89 128 174 226 281 340 410
#     4  12  24  38  60  98 140 182 230 284 340 420
#     4  10  19  41  68 100 136 178 234 288 346 418
#     4   9  18  38  64  95 130 174 227 284 345 414
#
# _framework density 29.595061000000001
#
# number of rings (size 3 to 8) (size 9 to 14) (size 15 to 20)
#    0.000    2.000    1.429    1.714    0.000    3.429 
#    0.000    0.714    0.000    0.000    0.000    0.000 
#    0.000    0.000    0.000    0.000    0.000    0.000 
#
# Total GULP energy -78046.206255 kJ/mol
# GULP energy per Si atom -5574.729018 kJ/mol
# Density = 2.952770 g / cm^3
# Si number density = 29.595061 Si / 1000 Ang^3
#
#
#
# Elastic Constant Matrix: (Units=GPa)
#
#
# Indices 1 2 3 4 5 6 
#
# 1 161.9510 67.9462 66.2728 12.5746 21.1010 63.1042
# 2 67.9462 135.8463 96.0189 -25.8882 14.3086 33.3481
# 3 66.2728 96.0189 248.3338 -44.8447 -19.3007 27.8199
# 4 12.5746 -25.8882 -44.8447 57.5587 20.6285 -0.0470
# 5 21.1010 14.3086 -19.3007 20.6285 75.1078 3.6899
# 6 63.1042 33.3481 27.8199 -0.0470 3.6899 61.3990
#
#
#
# Elastic Compliance Matrix: (Units=1/GPa)
#
#
# Indices 1 2 3 4 5 6 
#
# 1 0.013317 -0.003369 -0.002170 -0.005550 -0.001603 -0.010782
# 2 -0.003369 0.013378 -0.003346 0.005536 -0.003882 -0.002050
# 3 -0.002170 -0.003346 0.006553 0.003374 0.001957 0.000964
# 4 -0.005550 0.005536 0.003374 0.025779 -0.005784 0.001535
# 5 -0.001603 -0.003882 0.001957 -0.005784 0.016504 0.001873
# 6 -0.010782 -0.002050 0.000964 0.001535 0.001873 0.027934
#
#
# Mechanical properties :
#
#
# Convention : Reuss Voigt Hill
#
# Bulk Modulus (GPa) = 64.60592 111.84523 88.22557
# Shear Modulus (GPa) = 39.55849 59.87264 49.71556
#
# Velocity S-wave (km/s) = 3.66000 4.50273 4.10306
# Velocity P-wave (km/s) = 6.30382 8.05646 7.23342
#
# Compressibility (1/GPa) = 0.01547846
#
# Stress axis : x y z
#
# Youngs Moduli (GPa) = 75.09144 74.74697 152.59428
#
# Poissons Ratio (x) = 0.25180 0.33118
# Poissons Ratio (y) = 0.25296 0.51061
# Poissons Ratio (z) = 0.16297 0.25012
#
# Static dielectric constant tensor:
#      x y z
#    x 1.986200 0.228270 -0.563550 
#    y 0.228270 1.781450 0.576860 
#    z -0.563550 0.576860 1.670390 
# 
# From -- ./inp_files/472023.got.cif
#   From: 2010.05.17/outbox.cif.g08.bks.cpg/sg2_237_cif.got.tgz:472023.got - 2010.06.03 11:33:40.
