data_PCOD9092497
_publ_section_title
;
Structure prediction by ZEFSAII (Michael W. Deem and Ramdas Pophale) SiO2 
 PCOD9092497
Probable space group: P -1
;
_chemical_formula_sum "Si O2"
_cell_formula_units_Z 16
_cell_length_a 10.986636
_cell_length_b 6.773243
_cell_length_c 10.822588
_cell_angle_alpha 95.780411
_cell_angle_beta 87.300084
_cell_angle_gamma 125.590903
_cell_volume 651.520895
_symmetry_space_group_name_H-M "P -1"
_symmetry_group_IT_number 2
_symmetry_cell_setting 'triclinic'
loop_
_space_group_symop_operation_xyz
x,y,z
-x,-y,-z
loop_
_atom_site_type_symbol
_atom_site_label
_atom_site_fract_x
_atom_site_fract_y
_atom_site_fract_z
Si Si1 0.556783 0.274956 0.530933
Si Si2 0.901699 0.575855 0.575305
Si Si3 0.421503 0.580393 0.711583
Si Si4 0.119760 0.045724 0.701261
Si Si5 0.267569 0.824547 0.816222
Si Si6 0.018638 0.285740 0.901510
Si Si7 0.166998 0.545903 0.141330
Si Si8 0.482175 0.664819 0.170970
O O1 0.737105 0.445818 0.518854
O O2 0.490673 0.327565 0.417099
O O3 0.520801 0.295357 0.676259
O O4 0.500000 0.000000 0.500000
O O5 0.868609 0.494273 0.715037
O O6 0.000000 0.500000 0.500000
O O7 0.998044 0.867617 0.595568
O O8 0.267840 0.311209 0.681185
O O9 0.379991 0.768102 0.752101
O O10 0.495596 0.550150 0.827685
O O11 0.039950 0.109073 0.811122
O O12 0.179432 0.886890 0.732473
O O13 0.145805 0.565877 0.868846
O O14 0.379506 0.094119 0.886150
O O15 0.863997 0.255075 0.883197
O O16 0.057273 0.310485 0.045443
O O17 0.330363 0.608021 0.120579
#
# Coordination Sequence:
#
# PCOD9092497 Si02
#       8
#     2   2   2   2   2   2   2   2
#     4  11  22  39  64  93 135 177 217 277 331 392
#     4  11  24  42  68  98 136 172 218 285 323 401
#     4  10  21  39  67  92 132 183 222 265 339 394
#     4  10  22  41  70  99 131 179 229 271 330 399
#     4  10  19  41  66  93 130 174 218 274 328 389
#     4  10  22  44  73  93 134 182 218 279 334 393
#     4  10  23  45  64 103 137 167 230 278 331 390
#     4  10  22  40  62  95 135 172 224 275 325 402
#
# _framework density 24.557924
#
# number of rings (size 3 to 8) (size 9 to 14) (size 15 to 20)
#    0.000    1.750    2.500    1.125    3.500    1.500 
#    4.500    5.625    0.000    0.000    0.000    0.000 
#    0.000    0.000    0.000    0.000    0.000    0.000 
#
# Total GULP energy -89277.436698 kJ/mol
# GULP energy per Si atom -5579.839794 kJ/mol
# Density = 2.450203 g / cm^3
# Si number density = 24.557924 Si / 1000 Ang^3
#
#
#
# Elastic Constant Matrix: (Units=GPa)
#
#
# Indices 1 2 3 4 5 6 
#
# 1 127.2493 40.9429 21.2354 6.0799 17.4539 -8.0210
# 2 40.9429 102.5047 30.3018 -14.2560 14.2130 -24.3470
# 3 21.2354 30.3018 67.5609 7.7256 4.2685 -19.7458
# 4 6.0799 -14.2560 7.7256 37.2846 -6.3881 -3.0349
# 5 17.4539 14.2130 4.2685 -6.3881 40.9618 9.9472
# 6 -8.0210 -24.3470 -19.7458 -3.0349 9.9472 35.5378
#
#
#
# Elastic Compliance Matrix: (Units=1/GPa)
#
#
# Indices 1 2 3 4 5 6 
#
# 1 0.009804 -0.003727 -0.000869 -0.003422 -0.003279 -0.000198
# 2 -0.003727 0.016666 -0.003766 0.007737 -0.005168 0.010591
# 3 -0.000869 -0.003766 0.020211 -0.005346 -0.003438 0.008959
# 4 -0.003422 0.007737 -0.005346 0.032326 0.003565 0.003321
# 5 -0.003279 -0.005168 -0.003438 0.003565 0.032131 -0.014880
# 6 -0.000198 0.010591 0.008959 0.003321 -0.014880 0.044777
#
#
# Mechanical properties :
#
#
# Convention : Reuss Voigt Hill
#
# Bulk Modulus (GPa) = 33.38309 53.58611 43.48460
# Shear Modulus (GPa) = 27.37865 36.41251 31.89558
#
# Velocity S-wave (km/s) = 3.34257 3.85479 3.60778
# Velocity P-wave (km/s) = 5.34043 6.45602 5.92454
#
# Compressibility (1/GPa) = 0.02995528
#
# Stress axis : x y z
#
# Youngs Moduli (GPa) = 102.00333 60.00290 49.47845
#
# Poissons Ratio (x) = 0.22364 0.04301
# Poissons Ratio (y) = 0.38017 0.18634
# Poissons Ratio (z) = 0.08867 0.22598
#
# Static dielectric constant tensor:
#      x y z
#    x 2.029160 -0.010420 -0.007660 
#    y -0.010420 1.965180 -0.034270 
#    z -0.007660 -0.034270 2.041170 
# 
# From -- ./inp_files/410835.got.cif
#   From: 2010.05.17/outbox.cif.g08.bks.cpg/sg2_206_cif.got.tgz:410835.got - 2010.06.03 11:33:40.
