data_PCOD9092721
_publ_section_title
;
Structure prediction by ZEFSAII (Michael W. Deem and Ramdas Pophale) SiO2 
 PCOD9092721
Probable space group: P -1
;
_chemical_formula_sum "Si O2"
_cell_formula_units_Z 14
_cell_length_a 11.198328
_cell_length_b 10.897063
_cell_length_c 5.145020
_cell_angle_alpha 114.930008
_cell_angle_beta 70.281660
_cell_angle_gamma 101.986044
_cell_volume 534.378321
_symmetry_space_group_name_H-M "P -1"
_symmetry_group_IT_number 2
_symmetry_cell_setting 'triclinic'
loop_
_space_group_symop_operation_xyz
x,y,z
-x,-y,-z
loop_
_atom_site_type_symbol
_atom_site_label
_atom_site_fract_x
_atom_site_fract_y
_atom_site_fract_z
Si Si1 0.196805 0.910663 0.756780
Si Si2 0.092509 0.126756 0.664198
Si Si3 0.999525 0.693374 0.504386
Si Si4 0.633585 0.436585 0.295455
Si Si5 0.424085 0.855236 0.178391
Si Si6 0.793836 0.515823 0.757602
Si Si7 0.333268 0.088635 0.183830
O O1 0.314762 0.848737 0.470198
O O2 0.074985 0.808192 0.725817
O O3 0.149822 0.051193 0.801739
O O4 0.249621 0.952492 0.034064
O O5 0.017722 0.251978 0.725660
O O6 0.227801 0.170780 0.460808
O O7 0.000000 0.000000 0.500000
O O8 0.869996 0.650920 0.714236
O O9 0.092463 0.574030 0.319684
O O10 0.500000 0.500000 0.500000
O O11 0.717617 0.453891 0.508745
O O12 0.613400 0.277689 0.089485
O O13 0.701370 0.514921 0.070556
O O14 0.421913 0.018694 0.262796
O O15 0.577879 0.847620 0.051912
#
# Coordination Sequence:
#
# PCOD9092721 Si02
#       7
#     2   2   2   2   2   2   2
#     4  10  19  42  66 102 140 182 229 293 360 428
#     4   9  21  39  59  99 138 175 229 284 352 418
#     4  10  22  43  70 102 146 186 238 289 355 431
#     4  12  27  51  75 104 142 188 248 299 355 414
#     4  10  22  40  67  97 140 183 237 295 354 428
#     4  11  26  50  72 107 138 195 241 294 355 419
#     4  10  21  39  65 102 136 182 232 286 368 420
#
# _framework density 26.198668000000001
#
# number of rings (size 3 to 8) (size 9 to 14) (size 15 to 20)
#    0.000    1.714    1.429    1.714    2.000    4.571 
#   12.857    0.000    0.000    0.000    0.000    0.000 
#    0.000    0.000    0.000    0.000    0.000    0.000 
#
# Total GULP energy -78099.141472 kJ/mol
# GULP energy per Si atom -5578.510105 kJ/mol
# Density = 2.613904 g / cm^3
# Si number density = 26.198668 Si / 1000 Ang^3
#
#
#
# Elastic Constant Matrix: (Units=GPa)
#
#
# Indices 1 2 3 4 5 6 
#
# 1 69.1785 34.9126 28.6423 -14.4404 -28.5468 20.5771
# 2 34.9126 124.4871 38.6838 -12.2256 -15.7703 3.3683
# 3 28.6423 38.6838 93.9379 -28.4248 -16.0524 17.2829
# 4 -14.4404 -12.2256 -28.4248 41.3603 10.6392 -2.8195
# 5 -28.5468 -15.7703 -16.0524 10.6392 36.0276 -7.8562
# 6 20.5771 3.3683 17.2829 -2.8195 -7.8562 44.4240
#
#
#
# Elastic Compliance Matrix: (Units=1/GPa)
#
#
# Indices 1 2 3 4 5 6 
#
# 1 0.027160 -0.004698 -0.001209 0.002478 0.016293 -0.008715
# 2 -0.004698 0.010307 -0.003571 -0.000875 0.000053 0.002738
# 3 -0.001209 -0.003571 0.016296 0.009139 0.001004 -0.004751
# 4 0.002478 -0.000875 0.009139 0.032001 -0.004541 -0.003409
# 5 0.016293 0.000053 0.001004 -0.004541 0.042316 -0.000747
# 6 -0.008715 0.002738 -0.004751 -0.003409 -0.000747 0.027840
#
#
# Mechanical properties :
#
#
# Convention : Reuss Voigt Hill
#
# Bulk Modulus (GPa) = 28.73111 54.67565 41.70338
# Shear Modulus (GPa) = 26.81273 36.72003 31.76638
#
# Velocity S-wave (km/s) = 3.20259 3.74786 3.48590
# Velocity P-wave (km/s) = 4.96648 6.29631 5.67051
#
# Compressibility (1/GPa) = 0.03480547
#
# Stress axis : x y z
#
# Youngs Moduli (GPa) = 36.81889 97.02068 61.36476
#
# Poissons Ratio (x) = 0.45581 0.07421
# Poissons Ratio (y) = 0.17298 0.21916
# Poissons Ratio (z) = 0.04452 0.34650
#
# Static dielectric constant tensor:
#      x y z
#    x 2.141620 -0.044390 -0.007660 
#    y -0.044390 2.105920 -0.014900 
#    z -0.007660 -0.014900 2.276470 
# 
# From -- ./inp_files/72129.got.cif
#   From: 2010.05.17/outbox.cif.g08.bks.cpg/sg2_37_cif.got.tgz:72129.got - 2010.06.03 11:33:40.
