data_PCOD9092522
_publ_section_title
;
Structure prediction by ZEFSAII (Michael W. Deem and Ramdas Pophale) SiO2 
 PCOD9092522
Probable space group: P -1
;
_chemical_formula_sum "Si O2"
_cell_formula_units_Z 14
_cell_length_a 12.000000
_cell_length_b 12.368166
_cell_length_c 9.185934
_cell_angle_alpha 130.388635
_cell_angle_beta 40.731485
_cell_angle_gamma 125.983941
_cell_volume 664.680483
_symmetry_space_group_name_H-M "P -1"
_symmetry_group_IT_number 2
_symmetry_cell_setting 'triclinic'
loop_
_space_group_symop_operation_xyz
x,y,z
-x,-y,-z
loop_
_atom_site_type_symbol
_atom_site_label
_atom_site_fract_x
_atom_site_fract_y
_atom_site_fract_z
Si Si1 0.239847 0.663275 0.676869
Si Si2 0.862706 0.738424 0.131156
Si Si3 0.286313 0.165197 0.129474
Si Si4 0.331274 0.895138 0.018940
Si Si5 0.676089 0.596257 0.473764
Si Si6 0.930079 0.055233 0.463600
Si Si7 0.454991 0.336190 0.841430
O O1 0.327361 0.750816 0.808307
O O2 0.233235 0.497966 0.586500
O O3 0.376373 0.694912 0.437643
O O4 0.051979 0.705179 0.874499
O O5 0.805134 0.658305 0.270439
O O6 0.709337 0.680885 0.119755
O O7 0.868959 0.909620 0.304136
O O8 0.361427 0.267560 0.278922
O O9 0.079746 0.164654 0.327678
O O10 0.393363 0.224206 0.934590
O O11 0.277010 0.998905 0.036346
O O12 0.215418 0.867929 0.255667
O O13 0.500000 0.000000 0.000000
O O14 0.500000 0.500000 0.500000
O O15 0.000000 0.000000 0.500000
O O16 0.500000 0.500000 0.000000
#
# Coordination Sequence:
#
# PCOD9092522 Si02
#       7
#     2   2   2   2   2   2   2
#     4  12  24  41  69 102 128 174 232 264 326 399
#     4  12  23  44  71  99 132 173 224 279 325 392
#     4  11  22  44  66  90 137 177 210 268 341 387
#     4  11  21  40  69 102 130 166 223 280 321 391
#     4  12  21  41  71  98 130 176 220 275 332 380
#     4  10  19  41  67  93 133 160 214 280 329 369
#     4  12  27  47  63  94 146 178 212 274 337 397
#
# _framework density 21.062753000000001
#
# number of rings (size 3 to 8) (size 9 to 14) (size 15 to 20)
#    0.000    0.571    8.571    2.143    0.000    1.714 
#    2.571    0.000    0.000    0.000    0.000    0.000 
#    0.000    0.000    0.000    0.000    0.000    0.000 
#
# Total GULP energy -78134.674742 kJ/mol
# GULP energy per Si atom -5581.048196 kJ/mol
# Density = 2.101481 g / cm^3
# Si number density = 21.062753 Si / 1000 Ang^3
#
#
#
# Elastic Constant Matrix: (Units=GPa)
#
#
# Indices 1 2 3 4 5 6 
#
# 1 69.1331 15.7125 34.0971 -11.3358 12.5613 17.7220
# 2 15.7125 104.7578 53.7059 -20.2526 7.1869 6.8696
# 3 34.0971 53.7059 148.3239 -35.4406 3.2931 7.0621
# 4 -11.3358 -20.2526 -35.4406 55.1568 6.4571 6.0627
# 5 12.5613 7.1869 3.2931 6.4571 11.8369 6.4722
# 6 17.7220 6.8696 7.0621 6.0627 6.4722 38.1177
#
#
#
# Elastic Compliance Matrix: (Units=1/GPa)
#
#
# Indices 1 2 3 4 5 6 
#
# 1 0.023244 0.001780 -0.003441 0.006904 -0.024494 -0.007429
# 2 0.001780 0.012762 -0.003807 0.003922 -0.009979 -0.001352
# 3 -0.003441 -0.003807 0.009900 0.004166 0.001159 -0.000408
# 4 0.006904 0.003922 0.004166 0.026889 -0.022745 -0.005103
# 5 -0.024494 -0.009979 0.001159 -0.022745 0.131782 -0.005787
# 6 -0.007429 -0.001352 -0.000408 -0.005103 -0.005787 0.031802
#
#
# Mechanical properties :
#
#
# Convention : Reuss Voigt Hill
#
# Bulk Modulus (GPa) = 28.59495 58.80509 43.70002
# Shear Modulus (GPa) = 19.30699 35.60223 27.45461
#
# Velocity S-wave (km/s) = 3.03089 4.11578 3.61427
# Velocity P-wave (km/s) = 5.08468 7.11096 6.18141
#
# Compressibility (1/GPa) = 0.03497121
#
# Stress axis : x y z
#
# Youngs Moduli (GPa) = 43.02119 78.35661 101.00557
#
# Poissons Ratio (x) = -0.13947 0.34754
# Poissons Ratio (y) = -0.07657 0.38453
# Poissons Ratio (z) = 0.14803 0.29830
#
# Static dielectric constant tensor:
#      x y z
#    x 1.858000 0.007300 -0.120100 
#    y 0.007300 1.723060 -0.009000 
#    z -0.120100 -0.009000 1.867700 
# 
# From -- ./inp_files/157645.got.cif
#   From: 2010.05.17/outbox.cif.g08.bks.cpg/sg2_79_cif.got.tgz:157645.got - 2010.06.03 11:33:40.
