data_PCOD9092163
_publ_section_title
;
Structure prediction by ZEFSAII (Michael W. Deem and Ramdas Pophale) SiO2 
 PCOD9092163
Probable space group: P -1
;
_chemical_formula_sum "Si O2"
_cell_formula_units_Z 16
_cell_length_a 12.731877
_cell_length_b 10.571770
_cell_length_c 19.073591
_cell_angle_alpha 53.410290
_cell_angle_beta 156.923833
_cell_angle_gamma 137.999245
_cell_volume 634.664577
_symmetry_space_group_name_H-M "P -1"
_symmetry_group_IT_number 2
_symmetry_cell_setting 'triclinic'
loop_
_space_group_symop_operation_xyz
x,y,z
-x,-y,-z
loop_
_atom_site_type_symbol
_atom_site_label
_atom_site_fract_x
_atom_site_fract_y
_atom_site_fract_z
Si Si1 0.751550 0.116994 0.371317
Si Si2 0.009903 0.373223 0.171462
Si Si3 0.524324 0.368422 0.965825
Si Si4 0.695744 0.770334 0.507316
Si Si5 0.826333 0.065591 0.039974
Si Si6 0.028493 0.480840 0.605666
Si Si7 0.201485 0.709086 0.344905
Si Si8 0.749047 0.939236 0.801758
O O1 0.990429 0.352370 0.425679
O O2 0.865882 0.983633 0.505789
O O3 0.482599 0.009899 0.178361
O O4 0.575853 0.120384 0.333797
O O5 0.383428 0.591103 0.327276
O O6 0.046104 0.268814 0.295665
O O7 0.715497 0.389273 0.004741
O O8 0.905635 0.231115 0.088792
O O9 0.839053 0.500556 0.169520
O O10 0.281828 0.135598 0.918519
O O11 0.344865 0.473416 0.811791
O O12 0.498857 0.749175 0.465434
O O13 0.152160 0.163770 0.156341
O O14 0.746994 0.285068 0.542485
O O15 0.000000 0.500000 0.500000
O O16 0.147494 0.868233 0.239428
O O17 0.000000 0.000000 0.000000
#
# Coordination Sequence:
#
# PCOD9092163 Si02
#       8
#     2   2   2   2   2   2   2   2
#     4  10  22  40  62  97 126 161 210 272 322 370
#     4  10  23  41  65  90 125 179 215 251 313 383
#     4  11  21  40  64  92 130 171 211 255 314 394
#     4   9  22  44  66  91 128 165 217 266 313 374
#     4  11  20  36  64  94 127 168 213 253 316 385
#     4  12  25  39  64  99 133 163 211 271 330 378
#     4  10  19  40  67  88 128 170 208 265 325 373
#     4   9  18  33  61  95 122 158 209 263 312 372
#
# _framework density 25.210167999999999
#
# number of rings (size 3 to 8) (size 9 to 14) (size 15 to 20)
#    0.000    1.750    2.500    2.250    1.750    2.500 
#    0.000    6.875    0.000    0.000    0.000    0.000 
#    0.000    0.000    0.000    0.000    0.000    0.000 
#
# Total GULP energy -89342.643417 kJ/mol
# GULP energy per Si atom -5583.915214 kJ/mol
# Density = 2.515279 g / cm^3
# Si number density = 25.210168 Si / 1000 Ang^3
#
#
#
# Elastic Constant Matrix: (Units=GPa)
#
#
# Indices 1 2 3 4 5 6 
#
# 1 105.6468 19.7157 24.7586 8.9542 -16.8273 -16.0831
# 2 19.7157 110.2104 27.7579 -11.8172 -12.5271 -5.8401
# 3 24.7586 27.7579 68.0816 -14.8890 -10.4079 -2.9501
# 4 8.9542 -11.8172 -14.8890 37.3265 -1.9484 -15.0563
# 5 -16.8273 -12.5271 -10.4079 -1.9484 31.4318 -11.5809
# 6 -16.0831 -5.8401 -2.9501 -15.0563 -11.5809 40.9239
#
#
#
# Elastic Compliance Matrix: (Units=1/GPa)
#
#
# Indices 1 2 3 4 5 6 
#
# 1 0.012636 -0.000374 -0.003320 -0.001527 0.007744 0.006303
# 2 -0.000374 0.011100 -0.002304 0.004819 0.005449 0.004586
# 3 -0.003320 -0.002304 0.020556 0.010993 0.006952 0.005860
# 4 -0.001527 0.004819 0.010993 0.042169 0.014957 0.020627
# 5 0.007744 0.005449 0.006952 0.014957 0.050218 0.024036
# 6 0.006303 0.004586 0.005860 0.020627 0.024036 0.042380
#
#
# Mechanical properties :
#
#
# Convention : Reuss Voigt Hill
#
# Bulk Modulus (GPa) = 30.96349 47.60035 39.28192
# Shear Modulus (GPa) = 24.77487 36.05021 30.41254
#
# Velocity S-wave (km/s) = 3.13826 3.78562 3.47704
# Velocity P-wave (km/s) = 5.04384 6.16687 5.63341
#
# Compressibility (1/GPa) = 0.03229610
#
# Stress axis : x y z
#
# Youngs Moduli (GPa) = 79.14145 90.09143 48.64871
#
# Poissons Ratio (x) = 0.03368 0.16150
# Poissons Ratio (y) = 0.02959 0.11208
# Poissons Ratio (z) = 0.26272 0.20757
#
# Static dielectric constant tensor:
#      x y z
#    x 2.030960 0.038650 0.026430 
#    y 0.038650 2.118410 0.113760 
#    z 0.026430 0.113760 2.034190 
# 
# From -- ./inp_files/565901.got.cif
#   From: 2010.05.17/outbox.cif.g08.bks.cpg/sg2_283_cif.got.tgz:565901.got - 2010.06.03 11:33:40.
