data_PCOD9093943
_publ_section_title
;
Structure prediction by ZEFSAII (Michael W. Deem and Ramdas Pophale) SiO2 
 PCOD9093943
Probable space group: P -1
;
_chemical_formula_sum "Si O2"
_cell_formula_units_Z 16
_cell_length_a 17.253211
_cell_length_b 13.009305
_cell_length_c 19.340271
_cell_angle_alpha 22.791367
_cell_angle_beta 154.203446
_cell_angle_gamma 145.261075
_cell_volume 730.903669
_symmetry_space_group_name_H-M "P -1"
_symmetry_group_IT_number 2
_symmetry_cell_setting 'triclinic'
loop_
_space_group_symop_operation_xyz
x,y,z
-x,-y,-z
loop_
_atom_site_type_symbol
_atom_site_label
_atom_site_fract_x
_atom_site_fract_y
_atom_site_fract_z
Si Si1 0.786769 0.917275 0.304933
Si Si2 0.843797 0.375540 0.177192
Si Si3 0.196354 0.909092 0.512065
Si Si4 0.493736 0.798194 0.901721
Si Si5 0.424267 0.810277 0.154481
Si Si6 0.981401 0.839482 0.925688
Si Si7 0.866480 0.619692 0.262138
Si Si8 0.841943 0.570496 0.776236
O O1 0.961915 0.725517 0.574027
O O2 0.818716 0.185241 0.207990
O O3 0.722666 0.012195 0.118117
O O4 0.610388 0.795060 0.272604
O O5 0.663429 0.342925 0.096363
O O6 0.856860 0.678229 0.975344
O O7 0.408953 0.881197 0.708274
O O8 0.128039 0.612403 0.646159
O O9 0.121345 0.038417 0.300696
O O10 0.155781 0.112074 0.417870
O O11 0.671780 0.628360 0.134219
O O12 0.544146 0.040335 0.841035
O O13 0.338975 0.531771 0.273587
O O14 0.077852 0.079732 0.891172
O O15 0.116534 0.606173 0.148063
O O16 0.000000 0.500000 0.500000
O O17 0.000000 0.500000 0.000000
#
# Coordination Sequence:
#
# PCOD9093943 Si02
#       8
#     2   2   2   2   2   2   2   2
#     4   9  20  35  57  87 140 164 197 252 331 372
#     4  10  22  37  62  93 130 165 204 258 321 371
#     4  10  23  38  63  90 126 168 204 259 314 369
#     4  11  23  39  64  93 123 168 218 248 316 384
#     4  10  20  36  57  93 127 167 206 257 311 378
#     4  10  21  40  64  94 127 159 214 263 315 362
#     4  10  22  44  64  88 124 171 212 261 311 374
#     4  10  20  33  62  93 124 153 214 254 314 356
#
# _framework density 21.890709000000001
#
# number of rings (size 3 to 8) (size 9 to 14) (size 15 to 20)
#    0.000    2.000    1.250    1.875    8.750    1.500 
#    0.000    3.125    0.000    0.000    0.000    0.000 
#    0.000    0.000    0.000    0.000    0.000    0.000 
#
# Total GULP energy -89257.973898 kJ/mol
# GULP energy per Si atom -5578.623369 kJ/mol
# Density = 2.184088 g / cm^3
# Si number density = 21.890709 Si / 1000 Ang^3
#
#
#
# Elastic Constant Matrix: (Units=GPa)
#
#
# Indices 1 2 3 4 5 6 
#
# 1 61.5300 58.5368 35.1786 -7.8080 -0.1160 16.8874
# 2 58.5368 177.1325 58.3260 -20.5689 1.4077 8.2779
# 3 35.1786 58.3260 99.5076 4.7756 6.4274 6.6376
# 4 -7.8080 -20.5689 4.7756 47.8814 -4.4071 -3.9838
# 5 -0.1160 1.4077 6.4274 -4.4071 22.3777 5.5673
# 6 16.8874 8.2779 6.6376 -3.9838 5.5673 40.8305
#
#
#
# Elastic Compliance Matrix: (Units=1/GPa)
#
#
# Indices 1 2 3 4 5 6 
#
# 1 0.029567 -0.007112 -0.006033 0.001996 0.005297 -0.010334
# 2 -0.007112 0.009392 -0.003311 0.003407 0.000538 0.001835
# 3 -0.006033 -0.003311 0.014585 -0.004242 -0.005116 0.001079
# 4 0.001996 0.003407 -0.004242 0.023664 0.005492 0.000733
# 5 0.005297 0.000538 -0.005116 0.005492 0.049131 -0.007632
# 6 -0.010334 0.001835 0.001079 0.000733 -0.007632 0.029330
#
#
# Mechanical properties :
#
#
# Convention : Reuss Voigt Hill
#
# Bulk Modulus (GPa) = 48.46883 71.36142 59.91513
# Shear Modulus (GPa) = 25.58104 34.62649 30.10377
#
# Velocity S-wave (km/s) = 3.42216 3.98149 3.71237
# Velocity P-wave (km/s) = 6.14851 7.33526 6.76795
#
# Compressibility (1/GPa) = 0.02063182
#
# Stress axis : x y z
#
# Youngs Moduli (GPa) = 33.82196 106.47683 68.56263
#
# Poissons Ratio (x) = 0.75724 0.41362
# Poissons Ratio (y) = 0.24054 0.22704
# Poissons Ratio (z) = 0.20404 0.35258
#
# Static dielectric constant tensor:
#      x y z
#    x 1.849800 -0.019960 0.009310 
#    y -0.019960 1.832110 -0.012690 
#    z 0.009310 -0.012690 1.867410 
# 
# From -- ./inp_files/613786.got.cif
#   From: 2010.05.17/outbox.cif.g08.bks.cpg/sg2_307_cif.got.tgz:613786.got - 2010.06.03 11:33:40.
