data_PCOD9093851
_publ_section_title
;
Structure prediction by ZEFSAII (Michael W. Deem and Ramdas Pophale) SiO2 
 PCOD9093851
Probable space group: P -1
;
_chemical_formula_sum "Si O2"
_cell_formula_units_Z 14
_cell_length_a 8.294337
_cell_length_b 25.039838
_cell_length_c 11.946350
_cell_angle_alpha 154.774099
_cell_angle_beta 37.756324
_cell_angle_gamma 142.605306
_cell_volume 616.889847
_symmetry_space_group_name_H-M "P -1"
_symmetry_group_IT_number 2
_symmetry_cell_setting 'triclinic'
loop_
_space_group_symop_operation_xyz
x,y,z
-x,-y,-z
loop_
_atom_site_type_symbol
_atom_site_label
_atom_site_fract_x
_atom_site_fract_y
_atom_site_fract_z
Si Si1 0.431919 0.692933 0.713418
Si Si2 0.167152 0.546882 0.794086
Si Si3 0.294279 0.419410 0.291041
Si Si4 0.380804 0.156785 0.730961
Si Si5 0.599388 0.036634 0.838651
Si Si6 0.970177 0.736048 0.378591
Si Si7 0.082850 0.004307 0.191975
O O1 0.324262 0.664738 0.845578
O O2 0.302369 0.546320 0.453233
O O3 0.758483 0.727585 0.579487
O O4 0.344166 0.810823 0.932609
O O5 0.096877 0.423525 0.513852
O O6 0.399793 0.538210 0.737804
O O7 0.934887 0.594401 0.072384
O O8 0.266231 0.277599 0.989943
O O9 0.709608 0.213314 0.668394
O O10 0.225545 0.093051 0.809306
O O11 0.325378 0.042732 0.454216
O O12 0.762775 0.017830 0.822877
O O13 0.271476 0.982329 0.945173
O O14 0.919692 0.845987 0.532808
#
# Coordination Sequence:
#
# PCOD9093851 Si02
#       7
#     2   2   2   2   2   2   2
#     4   9  18  35  55  79 106 150 178 214 263 341
#     4   8  16  33  50  77 112 145 165 216 270 326
#     4   8  18  35  51  80 116 137 180 214 277 319
#     4  11  21  34  56  89 105 136 182 237 261 316
#     4  10  22  39  59  74 110 150 184 214 275 316
#     4  10  20  33  59  84 108 140 185 219 274 311
#     4  10  22  39  55  79 111 148 179 220 271 333
#
# _framework density 22.694489999999998
#
# number of rings (size 3 to 8) (size 9 to 14) (size 15 to 20)
#    0.857    1.714    0.000    1.714    0.000    8.000 
#    2.571    0.714    0.000    2.571    0.000    0.000 
#    0.000    0.000    0.000    0.000    0.000    0.000 
#
# Total GULP energy -78026.463770 kJ/mol
# GULP energy per Si atom -5573.318841 kJ/mol
# Density = 2.264284 g / cm^3
# Si number density = 22.694490 Si / 1000 Ang^3
#
#
#
# Elastic Constant Matrix: (Units=GPa)
#
#
# Indices 1 2 3 4 5 6 
#
# 1 40.2640 24.5398 21.0014 2.6313 -11.0491 0.8394
# 2 24.5398 75.7757 25.9216 -0.1576 -5.4117 -7.0410
# 3 21.0014 25.9216 161.5328 8.8638 -15.2706 -8.2458
# 4 2.6313 -0.1576 8.8638 32.9614 -25.2753 -20.4109
# 5 -11.0491 -5.4117 -15.2706 -25.2753 -36.4924 -17.1694
# 6 0.8394 -7.0410 -8.2458 -20.4109 -17.1694 22.4272
#
#
#
# Elastic Compliance Matrix: (Units=1/GPa)
#
#
# Indices 1 2 3 4 5 6 
#
# 1 0.034146 -0.010991 -0.002631 -0.006919 0.002078 -0.010402
# 2 -0.010991 0.017579 -0.001528 0.002490 -0.002909 0.005408
# 3 -0.002631 -0.001528 0.006844 -0.001996 -0.000448 -0.000024
# 4 -0.006919 0.002490 -0.001996 0.023191 -0.017333 0.008143
# 5 0.002078 -0.002909 -0.000448 -0.017333 -0.005472 -0.021119
# 6 -0.010402 0.005408 -0.000024 0.008143 -0.021119 0.037910
#
#
# Mechanical properties :
#
#
# Convention : Reuss Voigt Hill
#
# Bulk Modulus (GPa) = 35.37236 46.72200 41.04718
# Shear Modulus (GPa) = 32.48478 17.51992 25.00235
#
# Velocity S-wave (km/s) = 3.78748 2.78148 3.32278
# Velocity P-wave (km/s) = 5.89465 5.56306 5.73125
#
# Compressibility (1/GPa) = 0.02827066
#
# Stress axis : x y z
#
# Youngs Moduli (GPa) = 29.28613 56.88741 146.11727
#
# Poissons Ratio (x) = 0.62523 0.38438
# Poissons Ratio (y) = 0.32187 0.22320
# Poissons Ratio (z) = 0.07704 0.08690
#
# Static dielectric constant tensor:
#      x y z
#    x 1.834910 0.032530 -0.001570 
#    y 0.032530 1.871990 0.016740 
#    z -0.001570 0.016740 1.894480 
# 
# From -- ./inp_files/406365.got.cif
#   From: 2010.05.17/outbox.cif.g08.bks.cpg/sg2_204_cif.got.tgz:406365.got - 2010.06.03 11:33:40.
