data_PCOD9093727
_publ_section_title
;
Structure prediction by ZEFSAII (Michael W. Deem and Ramdas Pophale) SiO2 
 PCOD9093727
Probable space group: P -1
;
_chemical_formula_sum "Si O2"
_cell_formula_units_Z 12
_cell_length_a 11.068592
_cell_length_b 5.702526
_cell_length_c 20.472848
_cell_angle_alpha 136.355387
_cell_angle_beta 32.510630
_cell_angle_gamma 125.807149
_cell_volume 478.236461
_symmetry_space_group_name_H-M "P -1"
_symmetry_group_IT_number 2
_symmetry_cell_setting 'triclinic'
loop_
_space_group_symop_operation_xyz
x,y,z
-x,-y,-z
loop_
_atom_site_type_symbol
_atom_site_label
_atom_site_fract_x
_atom_site_fract_y
_atom_site_fract_z
Si Si1 0.696756 0.333830 0.422616
Si Si2 0.083728 0.987733 0.113673
Si Si3 0.178098 0.236004 0.933958
Si Si4 0.494791 0.025384 0.169746
Si Si5 0.574113 0.262931 0.603925
Si Si6 0.994548 0.901341 0.559910
O O1 0.500000 0.500000 0.500000
O O2 0.674763 0.434843 0.528332
O O3 0.628776 0.937498 0.371944
O O4 0.954533 0.292144 0.273124
O O5 0.892327 0.853927 0.124939
O O6 0.150415 0.630212 0.046601
O O7 0.311129 0.091760 0.994275
O O8 0.416888 0.100462 0.825103
O O9 0.000000 0.000000 0.000000
O O10 0.501324 0.436423 0.251539
O O11 0.234734 0.948782 0.270270
O O12 0.767984 0.015889 0.499511
O O13 0.000000 0.500000 0.500000
O O14 0.000000 0.000000 0.500000
#
# Coordination Sequence:
#
# PCOD9093727 Si02
#       6
#     2   2   2   2   2   2
#     4  11  23  38  62  86 133 167 205 255 322 387
#     4  10  20  33  56  89 119 158 207 261 312 369
#     4   9  17  30  55  84 121 151 203 256 311 359
#     4  10  21  37  62  90 119 158 211 265 313 368
#     4  10  23  39  58  95 123 166 213 255 317 381
#     4  10  24  40  67  94 128 167 215 266 316 377
#
# _framework density 25.092189000000001
#
# number of rings (size 3 to 8) (size 9 to 14) (size 15 to 20)
#    0.000    2.000    0.000    4.000   11.667    4.000 
#    0.000    0.833    0.000    2.000    0.000    0.000 
#    0.000    0.000    0.000    0.000    0.000    0.000 
#
# Total GULP energy -66905.317275 kJ/mol
# GULP energy per Si atom -5575.443106 kJ/mol
# Density = 2.503508 g / cm^3
# Si number density = 25.092189 Si / 1000 Ang^3
#
#
#
# Elastic Constant Matrix: (Units=GPa)
#
#
# Indices 1 2 3 4 5 6 
#
# 1 75.5668 18.9512 25.5372 -11.7601 -24.6495 -24.1752
# 2 18.9512 85.0908 24.5697 -15.5813 -2.2803 -3.6226
# 3 25.5372 24.5697 189.0538 -18.9977 -3.8607 -23.0977
# 4 -11.7601 -15.5813 -18.9977 37.0040 -6.8040 -5.9792
# 5 -24.6495 -2.2803 -3.8607 -6.8040 39.9853 -3.4777
# 6 -24.1752 -3.6226 -23.0977 -5.9792 -3.4777 42.7362
#
#
#
# Elastic Compliance Matrix: (Units=1/GPa)
#
#
# Indices 1 2 3 4 5 6 
#
# 1 0.031334 -0.002468 0.001105 0.017585 0.024235 0.022545
# 2 -0.002468 0.013359 -0.001005 0.004261 -0.000151 -0.000223
# 3 0.001105 -0.001005 0.006346 0.004400 0.002401 0.004781
# 4 0.017585 0.004261 0.004400 0.043792 0.020743 0.020502
# 5 0.024235 -0.000151 0.002401 0.020743 0.045581 0.021606
# 6 0.022545 -0.000223 0.004781 0.020502 0.021606 0.043344
#
#
# Mechanical properties :
#
#
# Convention : Reuss Voigt Hill
#
# Bulk Modulus (GPa) = 21.59750 54.20306 37.90028
# Shear Modulus (GPa) = 24.51859 42.65534 33.58696
#
# Velocity S-wave (km/s) = 3.12932 4.12751 3.66258
# Velocity P-wave (km/s) = 4.65648 6.66060 5.74658
#
# Compressibility (1/GPa) = 0.04630165
#
# Stress axis : x y z
#
# Youngs Moduli (GPa) = 31.91461 74.85768 157.57654
#
# Poissons Ratio (x) = 0.18476 -0.17408
# Poissons Ratio (y) = 0.07877 0.15835
# Poissons Ratio (z) = -0.03526 0.07522
#
# Static dielectric constant tensor:
#      x y z
#    x 2.010330 0.014460 0.041320 
#    y 0.014460 2.295480 0.037250 
#    z 0.041320 0.037250 2.102820 
# 
# From -- ./inp_files/68051.got.cif
#   From: 2010.05.17/outbox.cif.g08.bks.cpg/sg2_35_cif.got.tgz:68051.got - 2010.06.03 11:33:40.
