data_PCOD9093308
_publ_section_title
;
Structure prediction by ZEFSAII (Michael W. Deem and Ramdas Pophale) SiO2 
 PCOD9093308
Probable space group: P -1
;
_chemical_formula_sum "Si O2"
_cell_formula_units_Z 16
_cell_length_a 29.272423
_cell_length_b 27.141853
_cell_length_c 5.733429
_cell_angle_alpha 114.875230
_cell_angle_beta 66.143556
_cell_angle_gamma 171.055985
_cell_volume 640.512970
_symmetry_space_group_name_H-M "P -1"
_symmetry_group_IT_number 2
_symmetry_cell_setting 'triclinic'
loop_
_space_group_symop_operation_xyz
x,y,z
-x,-y,-z
loop_
_atom_site_type_symbol
_atom_site_label
_atom_site_fract_x
_atom_site_fract_y
_atom_site_fract_z
Si Si1 0.201755 0.399107 0.723221
Si Si2 0.754621 0.270989 0.320112
Si Si3 0.269363 0.256953 0.698585
Si Si4 0.408871 0.695197 0.509958
Si Si5 0.759106 0.875902 0.206668
Si Si6 0.200868 0.974939 0.805770
Si Si7 0.177065 0.270381 0.765808
Si Si8 0.627974 0.051342 0.756808
O O1 0.417764 0.671056 0.684700
O O2 0.351146 0.507555 0.765450
O O3 0.994663 0.149661 0.456703
O O4 0.983291 0.199099 0.942756
O O5 0.103870 0.653886 0.396516
O O6 0.500000 0.000000 0.500000
O O7 0.654582 0.215493 0.260226
O O8 0.731119 0.190327 0.060115
O O9 0.500000 0.500000 0.500000
O O10 0.263804 0.316114 0.862651
O O11 0.354491 0.301092 0.790640
O O12 0.955496 0.903723 0.530202
O O13 0.066918 0.331766 0.419441
O O14 0.580373 0.841185 0.259866
O O15 0.546201 0.901388 0.651944
O O16 0.625418 0.789313 0.214823
O O17 0.920006 0.026070 0.943518
#
# Coordination Sequence:
#
# PCOD9093308 Si02
#       8
#     2   2   2   2   2   2   2   2
#     4   9  21  41  60  84 117 161 201 250 309 365
#     4  10  21  41  64  91 131 166 200 246 304 346
#     4  10  20  32  55  83 109 144 194 249 305 368
#     4  11  23  40  63  91 125 160 206 254 299 352
#     4   9  19  39  55  79 113 153 195 251 310 361
#     4  10  23  41  61  88 121 164 206 255 307 366
#     4   9  19  38  54  78 114 147 195 245 304 372
#     4  10  22  38  62  96 125 161 210 248 291 364
#
# _framework density 24.979977999999999
#
# number of rings (size 3 to 8) (size 9 to 14) (size 15 to 20)
#    0.000    2.250    0.000    1.500    1.750    4.500 
#   18.000    0.000    0.000    0.000    0.000    0.000 
#    0.000    0.000    0.000    0.000    0.000    0.000 
#
# Total GULP energy -89367.520718 kJ/mol
# GULP energy per Si atom -5585.470045 kJ/mol
# Density = 2.492312 g / cm^3
# Si number density = 24.979978 Si / 1000 Ang^3
#
#
#
# Elastic Constant Matrix: (Units=GPa)
#
#
# Indices 1 2 3 4 5 6 
#
# 1 134.0210 47.7723 50.7552 22.5735 -36.3823 -25.1202
# 2 47.7723 107.4163 38.0171 -7.3353 -23.9933 -15.7652
# 3 50.7552 38.0171 82.9088 -3.9370 -21.9260 -24.9782
# 4 22.5735 -7.3353 -3.9370 33.6337 -3.1961 -5.0177
# 5 -36.3823 -23.9933 -21.9260 -3.1961 51.8127 11.6935
# 6 -25.1202 -15.7652 -24.9782 -5.0177 11.6935 56.9204
#
#
#
# Elastic Compliance Matrix: (Units=1/GPa)
#
#
# Indices 1 2 3 4 5 6 
#
# 1 0.014349 -0.003754 -0.006044 -0.010582 0.004972 0.000686
# 2 -0.003754 0.012883 -0.002466 0.005392 0.002437 0.000804
# 3 -0.006044 -0.002466 0.019352 0.006770 0.002019 0.005324
# 4 -0.010582 0.005392 0.006770 0.039262 -0.000400 0.003337
# 5 0.004972 0.002437 0.002019 -0.000400 0.025073 -0.001431
# 6 0.000686 0.000804 0.005324 0.003337 -0.001431 0.021018
#
#
# Mechanical properties :
#
#
# Convention : Reuss Voigt Hill
#
# Bulk Modulus (GPa) = 45.34053 66.38171 55.86112
# Shear Modulus (GPa) = 30.52189 40.99346 35.75768
#
# Velocity S-wave (km/s) = 3.49930 4.05539 3.78756
# Velocity P-wave (km/s) = 5.87511 6.96849 6.44503
#
# Compressibility (1/GPa) = 0.02205532
#
# Stress axis : x y z
#
# Youngs Moduli (GPa) = 69.69018 77.62449 51.67528
#
# Poissons Ratio (x) = 0.29139 0.31231
# Poissons Ratio (y) = 0.26161 0.12745
# Poissons Ratio (z) = 0.42119 0.19146
#
# Static dielectric constant tensor:
#      x y z
#    x 2.045680 0.043990 0.096870 
#    y 0.043990 2.009810 0.040410 
#    z 0.096870 0.040410 2.009930 
# 
# From -- ./inp_files/13482.got.cif
#   From: 2010.05.17/outbox.cif.g08.bks.cpg/sg2_7_cif.got.tgz:13482.got - 2010.06.03 11:33:40.
