data_PCOD9093830
_publ_section_title
;
Structure prediction by ZEFSAII (Michael W. Deem and Ramdas Pophale) SiO2 
 PCOD9093830
Probable space group: P -1
;
_chemical_formula_sum "Si O2"
_cell_formula_units_Z 16
_cell_length_a 8.855106
_cell_length_b 15.243129
_cell_length_c 11.487633
_cell_angle_alpha 66.408270
_cell_angle_beta 138.167034
_cell_angle_gamma 83.072544
_cell_volume 690.291055
_symmetry_space_group_name_H-M "P -1"
_symmetry_group_IT_number 2
_symmetry_cell_setting 'triclinic'
loop_
_space_group_symop_operation_xyz
x,y,z
-x,-y,-z
loop_
_atom_site_type_symbol
_atom_site_label
_atom_site_fract_x
_atom_site_fract_y
_atom_site_fract_z
Si Si1 0.656765 0.849679 0.161664
Si Si2 0.952828 0.778054 0.688472
Si Si3 0.232843 0.489722 0.229947
Si Si4 0.312156 0.215345 0.240490
Si Si5 0.631475 0.308226 0.372906
Si Si6 0.759602 0.656881 0.490639
Si Si7 0.668624 0.047392 0.308223
Si Si8 0.589489 0.579392 0.057102
O O1 0.571975 0.785927 0.232909
O O2 0.021837 0.765782 0.421967
O O3 0.561672 0.848565 0.977679
O O4 0.500000 0.000000 0.000000
O O5 0.803984 0.822353 0.706304
O O6 0.896719 0.689757 0.649679
O O7 0.323269 0.687437 0.936908
O O8 0.759898 0.909240 0.431983
O O9 0.512710 0.422090 0.335451
O O10 0.348009 0.398768 0.458293
O O11 0.000000 0.500000 0.000000
O O12 0.017401 0.640508 0.060819
O O13 0.548661 0.228458 0.421802
O O14 0.505658 0.114577 0.301066
O O15 0.451828 0.350876 0.124037
O O16 0.048314 0.532017 0.647130
O O17 0.000000 0.000000 0.500000
O O18 0.500000 0.500000 0.000000
#
# Coordination Sequence:
#
# PCOD9093830 Si02
#       8
#     2   2   2   2   2   2   2   2
#     4  12  24  41  63  93 127 164 217 263 304 372
#     4  11  20  38  65  94 125 162 214 255 310 373
#     4  10  18  34  63 101 130 158 206 259 314 370
#     4  11  22  38  65  97 130 164 206 253 322 382
#     4  11  19  35  66  96 124 159 211 261 305 363
#     4  11  19  35  65 100 126 153 217 263 307 355
#     4  12  27  46  63  86 129 176 213 253 319 387
#     4  10  16  29  59  97 118 157 198 262 296 358
#
# _framework density 23.178626000000001
#
# number of rings (size 3 to 8) (size 9 to 14) (size 15 to 20)
#    0.000    1.000    8.750    2.625    0.000    0.000 
#    0.000    6.250    0.000    0.000    0.000    0.000 
#    0.000    0.000    0.000    0.000    0.000    0.000 
#
# Total GULP energy -89186.843279 kJ/mol
# GULP energy per Si atom -5574.177705 kJ/mol
# Density = 2.312587 g / cm^3
# Si number density = 23.178626 Si / 1000 Ang^3
#
#
#
# Elastic Constant Matrix: (Units=GPa)
#
#
# Indices 1 2 3 4 5 6 
#
# 1 136.0000 27.4254 38.5559 -15.9635 -20.2951 -32.3797
# 2 27.4254 39.2843 21.7187 -13.0021 8.4695 -20.7835
# 3 38.5559 21.7187 72.2202 -22.3642 -24.4274 -7.1062
# 4 -15.9635 -13.0021 -22.3642 26.3447 -4.2363 2.4236
# 5 -20.2951 8.4695 -24.4274 -4.2363 37.8226 -14.9158
# 6 -32.3797 -20.7835 -7.1062 2.4236 -14.9158 40.2748
#
#
#
# Elastic Compliance Matrix: (Units=1/GPa)
#
#
# Indices 1 2 3 4 5 6 
#
# 1 0.016951 -0.005626 0.009157 0.017597 0.026569 0.021121
# 2 -0.005626 0.049558 -0.017622 0.001738 -0.021392 0.009915
# 3 0.009157 -0.017622 0.049999 0.046023 0.056220 0.025141
# 4 0.017597 0.001738 0.046023 0.095304 0.065958 0.041857
# 5 0.026569 -0.021392 0.056220 0.065958 0.111951 0.057733
# 6 0.021121 0.009915 0.025141 0.041857 0.057733 0.070225
#
#
# Mechanical properties :
#
#
# Convention : Reuss Voigt Hill
#
# Bulk Modulus (GPa) = 11.32178 46.98940 29.15559
# Shear Modulus (GPa) = 11.07147 31.54206 21.30677
#
# Velocity S-wave (km/s) = 2.18791 3.69294 3.03519
# Velocity P-wave (km/s) = 3.35824 6.20487 4.98890
#
# Compressibility (1/GPa) = 0.08832530
#
# Stress axis : x y z
#
# Youngs Moduli (GPa) = 58.99501 20.17825 20.00049
#
# Poissons Ratio (x) = 0.11352 -0.18314
# Poissons Ratio (y) = 0.33189 0.35245
# Poissons Ratio (z) = -0.54019 0.35558
#
# Static dielectric constant tensor:
#      x y z
#    x 1.986440 0.039360 -0.065890 
#    y 0.039360 1.996320 -0.040270 
#    z -0.065890 -0.040270 1.946230 
# 
# From -- ./inp_files/403082.got.cif
#   From: 2010.05.17/outbox.cif.g08.bks.cpg/sg2_202_cif.got.tgz:403082.got - 2010.06.03 11:33:40.
