data_PCOD9093316
_publ_section_title
;
Structure prediction by ZEFSAII (Michael W. Deem and Ramdas Pophale) SiO2 
 PCOD9093316
Probable space group: P -1
;
_chemical_formula_sum "Si O2"
_cell_formula_units_Z 16
_cell_length_a 19.327644
_cell_length_b 11.505616
_cell_length_c 18.307511
_cell_angle_alpha 40.168799
_cell_angle_beta 25.795377
_cell_angle_gamma 27.600710
_cell_volume 809.216106
_symmetry_space_group_name_H-M "P -1"
_symmetry_group_IT_number 2
_symmetry_cell_setting 'triclinic'
loop_
_space_group_symop_operation_xyz
x,y,z
-x,-y,-z
loop_
_atom_site_type_symbol
_atom_site_label
_atom_site_fract_x
_atom_site_fract_y
_atom_site_fract_z
Si Si1 0.290304 0.759531 0.677400
Si Si2 0.469782 0.812468 0.627026
Si Si3 0.375092 0.362894 0.946410
Si Si4 0.214403 0.709860 0.454973
Si Si5 0.583358 0.975528 0.053055
Si Si6 0.913100 0.431944 0.217741
Si Si7 0.503547 0.250750 0.647128
Si Si8 0.055844 0.183685 0.937268
O O1 0.379415 0.804114 0.639783
O O2 0.455889 0.459863 0.643852
O O3 0.305403 0.862780 0.539476
O O4 0.058324 0.852324 0.876566
O O5 0.705904 0.525480 0.556039
O O6 0.284761 0.928143 0.808951
O O7 0.500000 0.000000 0.500000
O O8 0.575584 0.325487 0.742944
O O9 0.364098 0.199310 0.981482
O O10 0.135048 0.648427 0.025330
O O11 0.441546 0.246925 0.020015
O O12 0.157476 0.655349 0.611404
O O13 0.000000 0.000000 0.500000
O O14 0.458945 0.954579 0.241300
O O15 0.829919 0.822578 0.923653
O O16 0.731230 0.574257 0.258112
O O17 0.908614 0.641507 0.150906
#
# Coordination Sequence:
#
# PCOD9093316 Si02
#       8
#     2   2   2   2   2   2   2   2
#     4  11  22  34  57  90 117 162 204 254 303 360
#     4  12  23  40  62  93 126 161 206 257 310 365
#     4  10  20  35  55  87 124 155 202 247 308 366
#     4  12  22  37  59  95 127 154 202 261 314 356
#     4  10  20  32  55  85 123 162 190 257 311 351
#     4  11  20  35  57  93 124 160 202 259 307 364
#     4  11  20  36  55  88 133 155 210 254 306 364
#     4  11  21  39  61  91 121 161 209 252 311 362
#
# _framework density 19.772223
#
# number of rings (size 3 to 8) (size 9 to 14) (size 15 to 20)
#    0.000    1.000    7.500    0.750    1.750    0.000 
#    0.000    0.000    0.000    0.750    3.250    3.500 
#    0.000    0.000    0.000    0.000    0.000    0.000 
#
# Total GULP energy -89224.468459 kJ/mol
# GULP energy per Si atom -5576.529279 kJ/mol
# Density = 1.972722 g / cm^3
# Si number density = 19.772223 Si / 1000 Ang^3
#
#
#
# Elastic Constant Matrix: (Units=GPa)
#
#
# Indices 1 2 3 4 5 6 
#
# 1 75.8201 28.0636 44.6881 -13.9140 0.8288 1.0544
# 2 28.0636 92.4837 37.5803 1.6534 5.9028 -8.4283
# 3 44.6881 37.5803 138.8688 -11.3444 21.9614 -6.6037
# 4 -13.9140 1.6534 -11.3444 27.5895 1.1871 11.0517
# 5 0.8288 5.9028 21.9614 1.1871 43.6762 -9.8070
# 6 1.0544 -8.4283 -6.6037 11.0517 -9.8070 27.4877
#
#
#
# Elastic Compliance Matrix: (Units=1/GPa)
#
#
# Indices 1 2 3 4 5 6 
#
# 1 0.020057 -0.005211 -0.004543 0.011745 0.000491 -0.008006
# 2 -0.005211 0.014202 -0.002656 -0.007630 0.001403 0.007485
# 3 -0.004543 -0.002656 0.010361 0.002781 -0.005083 -0.001082
# 4 0.011745 -0.007630 0.002781 0.054999 -0.008182 -0.027154
# 5 0.000491 0.001403 -0.005083 -0.008182 0.028299 0.012576
# 6 -0.008006 0.007485 -0.001082 -0.027154 0.012576 0.054126
#
#
# Mechanical properties :
#
#
# Convention : Reuss Voigt Hill
#
# Bulk Modulus (GPa) = 50.50285 58.64852 54.57568
# Shear Modulus (GPa) = 23.42319 32.87338 28.14829
#
# Velocity S-wave (km/s) = 3.44561 4.08193 3.77719
# Velocity P-wave (km/s) = 6.43641 7.20713 6.83264
#
# Compressibility (1/GPa) = 0.01980086
#
# Stress axis : x y z
#
# Youngs Moduli (GPa) = 49.85832 70.41262 96.51346
#
# Poissons Ratio (x) = 0.36692 0.43846
# Poissons Ratio (y) = 0.25981 0.25630
# Poissons Ratio (z) = 0.22651 0.18699
#
# Static dielectric constant tensor:
#      x y z
#    x 1.726250 -0.007500 -0.019090 
#    y -0.007500 1.724260 -0.015420 
#    z -0.019090 -0.015420 1.760720 
# 
# From -- ./inp_files/575844.got.cif
#   From: 2010.05.17/outbox.cif.g08.bks.cpg/sg2_288_cif.got.tgz:575844.got - 2010.06.03 11:33:40.
