data_PCOD9093877
_publ_section_title
;
Structure prediction by ZEFSAII (Michael W. Deem and Ramdas Pophale) SiO2 
 PCOD9093877
Probable space group: P -1
;
_chemical_formula_sum "Si O2"
_cell_formula_units_Z 15
_cell_length_a 17.296167
_cell_length_b 5.189495
_cell_length_c 24.240202
_cell_angle_alpha 112.656294
_cell_angle_beta 17.444017
_cell_angle_gamma 112.895455
_cell_volume 600.073108
_symmetry_space_group_name_H-M "P -1"
_symmetry_group_IT_number 2
_symmetry_cell_setting 'triclinic'
loop_
_space_group_symop_operation_xyz
x,y,z
-x,-y,-z
loop_
_atom_site_type_symbol
_atom_site_label
_atom_site_fract_x
_atom_site_fract_y
_atom_site_fract_z
Si Si1 0.313105 0.346042 0.829429
Si Si2 0.242830 0.969424 0.944161
Si Si3 0.201526 0.364934 0.309122
Si Si4 0.849028 0.099696 0.312786
Si Si5 0.697685 0.051593 0.717194
Si Si6 0.500000 0.500000 0.500000
Si Si7 0.523384 0.447226 0.375196
Si Si8 0.828803 0.103834 0.454973
O O1 0.212496 0.635878 0.940172
O O2 0.312509 0.367999 0.765097
O O3 0.623914 0.334689 0.625121
O O4 0.203294 0.087238 0.919559
O O5 0.539887 0.040198 0.767291
O O6 0.076607 0.109156 0.115036
O O7 0.323095 0.640783 0.218939
O O8 0.000000 0.500000 0.500000
O O9 0.054127 0.153261 0.349572
O O10 0.398328 0.199074 0.197487
O O11 0.661979 0.351890 0.446691
O O12 0.917738 0.145845 0.334327
O O13 0.703309 0.794478 0.383820
O O14 0.000000 0.000000 0.500000
O O15 0.665688 0.346228 0.323073
O O16 0.339855 0.196608 0.453388
#
# Coordination Sequence:
#
# PCOD9093877 Si02
#       8
#     2   2   2   2   2   1   2   2
#     4  11  22  39  68  99 135 173 229 278 332 405
#     4  12  24  42  66 103 140 177 229 284 344 388
#     4  10  20  33  59  92 127 172 227 280 316 377
#     4  10  25  42  73  96 138 180 224 281 346 418
#     4  10  20  35  57  91 131 177 218 273 325 387
#     4  10  22  48  72 102 130 178 232 268 352 418
#     4  10  22  43  73  99 131 183 224 279 337 431
#     4  10  21  41  68  98 133 185 235 272 337 416
#
# _framework density 24.996953999999999
#
# number of rings (size 3 to 8) (size 9 to 14) (size 15 to 20)
#    0.000    1.600    1.333    4.400    7.467    0.000 
#    0.000    2.667    0.000    0.000    0.000    0.000 
#    0.000    0.000    0.000    0.000    0.000    0.000 
#
# Total GULP energy -83623.247912 kJ/mol
# GULP energy per Si atom -5574.883194 kJ/mol
# Density = 2.494006 g / cm^3
# Si number density = 24.996954 Si / 1000 Ang^3
#
#
#
# Elastic Constant Matrix: (Units=GPa)
#
#
# Indices 1 2 3 4 5 6 
#
# 1 154.8940 41.5179 34.8930 -5.3988 19.3452 2.5338
# 2 41.5179 143.6900 14.2354 -0.5423 2.1252 -14.5634
# 3 34.8930 14.2354 84.5873 8.5358 17.4407 -7.6036
# 4 -5.3988 -0.5423 8.5358 30.0780 0.7091 7.1084
# 5 19.3452 2.1252 17.4407 0.7091 30.3527 -5.3745
# 6 2.5338 -14.5634 -7.6036 7.1084 -5.3745 43.2373
#
#
#
# Elastic Compliance Matrix: (Units=1/GPa)
#
#
# Indices 1 2 3 4 5 6 
#
# 1 0.008377 -0.002356 -0.002755 0.002997 -0.004153 -0.002778
# 2 -0.002356 0.007963 -0.000344 -0.000962 0.001719 0.003132
# 3 -0.002755 -0.000344 0.015096 -0.005296 -0.006276 0.002791
# 4 0.002997 -0.000962 -0.005296 0.037105 -0.001023 -0.007658
# 5 -0.004153 0.001719 -0.006276 -0.001023 0.039962 0.004854
# 6 -0.002778 0.003132 0.002791 -0.007658 0.004854 0.026699
#
#
# Mechanical properties :
#
#
# Convention : Reuss Voigt Hill
#
# Bulk Modulus (GPa) = 48.72054 62.71819 55.71937
# Shear Modulus (GPa) = 32.68982 40.23527 36.46255
#
# Velocity S-wave (km/s) = 3.62021 4.01634 3.82341
# Velocity P-wave (km/s) = 6.08337 6.83029 6.46762
#
# Compressibility (1/GPa) = 0.02052523
#
# Stress axis : x y z
#
# Youngs Moduli (GPa) = 119.37753 125.58621 66.24363
#
# Poissons Ratio (x) = 0.29592 0.18249
# Poissons Ratio (y) = 0.28129 0.02278
# Poissons Ratio (z) = 0.32887 0.04318
#
# Static dielectric constant tensor:
#      x y z
#    x 3.501320 -0.503300 0.020680 
#    y -0.503300 2.180850 -0.073340 
#    z 0.020680 -0.073340 2.099990 
# 
# From -- ./inp_files/612712.got.cif
#   From: 2010.05.17/outbox.cif.g08.bks.cpg/sg2_307_cif.got.tgz:612712.got - 2010.06.03 11:33:40.
