data_PCOD9093048
_publ_section_title
;
Structure prediction by ZEFSAII (Michael W. Deem and Ramdas Pophale) SiO2 
 PCOD9093048
Probable space group: P -1
;
_chemical_formula_sum "Si O2"
_cell_formula_units_Z 16
_cell_length_a 5.075167
_cell_length_b 15.148635
_cell_length_c 12.392998
_cell_angle_alpha 59.588537
_cell_angle_beta 104.440473
_cell_angle_gamma 81.871755
_cell_volume 753.782215
_symmetry_space_group_name_H-M "P -1"
_symmetry_group_IT_number 2
_symmetry_cell_setting 'triclinic'
loop_
_space_group_symop_operation_xyz
x,y,z
-x,-y,-z
loop_
_atom_site_type_symbol
_atom_site_label
_atom_site_fract_x
_atom_site_fract_y
_atom_site_fract_z
Si Si1 0.485689 0.147357 0.580753
Si Si2 0.917031 0.421285 0.677616
Si Si3 0.110066 0.100931 0.927980
Si Si4 0.023106 0.713253 0.036905
Si Si5 0.915912 0.126595 0.444730
Si Si6 0.361773 0.788634 0.854778
Si Si7 0.624878 0.645692 0.409419
Si Si8 0.343731 0.997710 0.819578
O O1 0.739651 0.140145 0.529113
O O2 0.439681 0.244489 0.599826
O O3 0.201154 0.157865 0.475220
O O4 0.513061 0.040905 0.720326
O O5 0.835144 0.547350 0.562121
O O6 0.663682 0.383153 0.624188
O O7 0.935770 0.394201 0.822740
O O8 0.210881 0.357070 0.685486
O O9 0.939697 0.204167 0.916253
O O10 0.137716 0.098817 0.802767
O O11 0.427420 0.072036 0.027873
O O12 0.000000 0.000000 0.000000
O O13 0.702462 0.756405 0.928491
O O14 0.239637 0.712686 0.963294
O O15 0.727932 0.200372 0.285503
O O16 0.000000 0.000000 0.500000
O O17 0.214818 0.911333 0.809138
#
# Coordination Sequence:
#
# PCOD9093048 Si02
#       8
#     2   2   2   2   2   2   2   2
#     4  12  25  39  65  85 120 162 205 257 301 352
#     4  10  21  40  66  94 128 155 197 242 309 373
#     4  10  20  31  48  80 119 150 183 230 279 371
#     4  11  22  36  61  83 120 161 191 243 300 373
#     4  12  26  42  61  85 119 165 213 261 295 349
#     4  11  23  39  56  83 116 156 208 240 302 346
#     4  10  22  40  64  97 124 157 198 251 298 370
#     4  10  22  33  51  81 116 156 189 235 290 359
#
# _framework density 21.226288
#
# number of rings (size 3 to 8) (size 9 to 14) (size 15 to 20)
#    0.000    1.250    2.500    3.375    7.000    0.000 
#    0.000    0.000    0.000    4.500    0.000    0.000 
#    0.000    0.000    0.000    0.000    0.000    0.000 
#
# Total GULP energy -89427.126812 kJ/mol
# GULP energy per Si atom -5589.195426 kJ/mol
# Density = 2.117798 g / cm^3
# Si number density = 21.226288 Si / 1000 Ang^3
#
#
#
# Elastic Constant Matrix: (Units=GPa)
#
#
# Indices 1 2 3 4 5 6 
#
# 1 70.2228 11.4106 -4.1475 2.4589 -10.3866 -0.4918
# 2 11.4106 23.9593 9.4251 0.2543 -1.6845 -2.7600
# 3 -4.1475 9.4251 101.5781 7.6882 -15.6083 -1.8769
# 4 2.4589 0.2543 7.6882 24.5495 0.3129 -0.5734
# 5 -10.3866 -1.6845 -15.6083 0.3129 36.8592 9.9328
# 6 -0.4918 -2.7600 -1.8769 -0.5734 9.9328 22.6864
#
#
#
# Elastic Compliance Matrix: (Units=1/GPa)
#
#
# Indices 1 2 3 4 5 6 
#
# 1 0.016868 -0.008982 0.002637 -0.002583 0.006390 -0.003372
# 2 -0.008982 0.048736 -0.005658 0.002399 -0.004711 0.007390
# 3 0.002637 -0.005658 0.011675 -0.003997 0.006122 -0.002447
# 4 -0.002583 0.002399 -0.003997 0.042319 -0.003325 0.002431
# 5 0.006390 -0.004711 0.006122 -0.003325 0.035532 -0.015569
# 6 -0.003372 0.007390 -0.002447 0.002431 -0.015569 0.051581
#
#
# Mechanical properties :
#
#
# Convention : Reuss Voigt Hill
#
# Bulk Modulus (GPa) = 18.77142 25.45964 22.11553
# Shear Modulus (GPa) = 20.12286 28.75714 24.44000
#
# Velocity S-wave (km/s) = 3.08233 3.68474 3.39691
# Velocity P-wave (km/s) = 4.64008 5.48849 5.08202
#
# Compressibility (1/GPa) = 0.05327247
#
# Stress axis : x y z
#
# Youngs Moduli (GPa) = 59.28498 20.51888 85.65110
#
# Poissons Ratio (x) = 0.18431 -0.22588
# Poissons Ratio (y) = 0.53252 0.48460
# Poissons Ratio (z) = -0.15635 0.11609
#
# Static dielectric constant tensor:
#      x y z
#    x 1.781170 -0.027520 0.013070 
#    y -0.027520 1.770940 -0.007780 
#    z 0.013070 -0.007780 1.814300 
# 
# From -- ./inp_files/367615.got.cif
#   From: 2010.05.17/outbox.cif.g08.bks.cpg/sg2_184_cif.got.tgz:367615.got - 2010.06.03 11:33:40.
