data_PCOD9093952
_publ_section_title
;
Structure prediction by ZEFSAII (Michael W. Deem and Ramdas Pophale) SiO2 
 PCOD9093952
Probable space group: P -1
;
_chemical_formula_sum "Si O2"
_cell_formula_units_Z 12
_cell_length_a 12.273481
_cell_length_b 7.603126
_cell_length_c 9.252231
_cell_angle_alpha 35.016324
_cell_angle_beta 96.377703
_cell_angle_gamma 96.939850
_cell_volume 491.679818
_symmetry_space_group_name_H-M "P -1"
_symmetry_group_IT_number 2
_symmetry_cell_setting 'triclinic'
loop_
_space_group_symop_operation_xyz
x,y,z
-x,-y,-z
loop_
_atom_site_type_symbol
_atom_site_label
_atom_site_fract_x
_atom_site_fract_y
_atom_site_fract_z
Si Si1 0.217475 0.329119 0.516662
Si Si2 0.923652 0.590232 0.059391
Si Si3 0.508145 0.783434 0.004027
Si Si4 0.359924 0.711979 0.488426
Si Si5 0.257905 0.621589 0.020641
Si Si6 0.110235 0.740544 0.438040
O O1 0.328283 0.496739 0.488372
O O2 0.123307 0.477838 0.497435
O O3 0.219446 0.970388 0.786926
O O4 0.215313 0.427297 0.284315
O O5 0.799538 0.519324 0.034071
O O6 0.943267 0.386639 0.338089
O O7 0.000000 0.500000 0.000000
O O8 0.935627 0.953732 0.839271
O O9 0.388728 0.653836 0.025139
O O10 0.564339 0.000649 0.744543
O O11 0.581870 0.503764 0.246134
O O12 0.500000 0.000000 0.000000
O O13 0.239884 0.810267 0.451194
#
# Coordination Sequence:
#
# PCOD9093952 Si02
#       6
#     2   2   2   2   2   2
#     4  10  20  39  65  90 127 159 202 250 301 352
#     4  12  26  46  64  86 123 166 204 260 320 356
#     4  12  17  33  57  97 125 161 191 248 299 356
#     4  10  20  33  63  86 126 160 193 233 314 353
#     4  12  23  37  63  99 123 157 216 254 283 366
#     4  10  22  45  66  86 125 168 196 252 317 372
#
# _framework density 24.406127999999999
#
# number of rings (size 3 to 8) (size 9 to 14) (size 15 to 20)
#    1.000    0.000    3.333    5.000    0.000    0.000 
#    0.000   10.000    0.000    0.000    0.000    0.000 
#    0.000    0.000    0.000    0.000    0.000    0.000 
#
# Total GULP energy -67230.192454 kJ/mol
# GULP energy per Si atom -5602.516038 kJ/mol
# Density = 2.435058 g / cm^3
# Si number density = 24.406128 Si / 1000 Ang^3
#
#
#
# Elastic Constant Matrix: (Units=GPa)
#
#
# Indices 1 2 3 4 5 6 
#
# 1 91.6255 17.8943 20.9916 1.3404 -14.1361 11.5554
# 2 17.8943 45.9384 -1.2785 -1.6228 6.6933 14.0572
# 3 20.9916 -1.2785 65.0470 -3.5117 -1.8735 -12.9794
# 4 1.3404 -1.6228 -3.5117 38.3623 -13.9638 11.7735
# 5 -14.1361 6.6933 -1.8735 -13.9638 29.1941 5.2463
# 6 11.5554 14.0572 -12.9794 11.7735 5.2463 43.5354
#
#
#
# Elastic Compliance Matrix: (Units=1/GPa)
#
#
# Indices 1 2 3 4 5 6 
#
# 1 0.016304 -0.005969 -0.006164 0.005507 0.012809 -0.007271
# 2 -0.005969 0.027120 0.001054 0.000509 -0.007707 -0.006067
# 3 -0.006164 0.001054 0.018735 -0.002101 -0.004464 0.007987
# 4 0.005507 0.000509 -0.002101 0.039300 0.024048 -0.015779
# 5 0.012809 -0.007707 -0.004464 0.024048 0.056228 -0.015521
# 6 -0.007271 -0.006067 0.007987 -0.015779 -0.015521 0.035377
#
#
# Mechanical properties :
#
#
# Convention : Reuss Voigt Hill
#
# Bulk Modulus (GPa) = 24.99840 30.86950 27.93395
# Shear Modulus (GPa) = 21.87645 33.21859 27.54752
#
# Velocity S-wave (km/s) = 2.99716 3.69328 3.36328
# Velocity P-wave (km/s) = 4.71616 5.55543 5.15291
#
# Compressibility (1/GPa) = 0.04000256
#
# Stress axis : x y z
#
# Youngs Moduli (GPa) = 61.33324 36.87275 53.37592
#
# Poissons Ratio (x) = 0.22011 0.32898
# Poissons Ratio (y) = 0.36613 -0.05628
# Poissons Ratio (z) = 0.37803 -0.03888
#
# Static dielectric constant tensor:
#      x y z
#    x 2.008870 0.035580 -0.010260 
#    y 0.035580 1.943480 -0.002470 
#    z -0.010260 -0.002470 1.841580 
# 
# From -- ./inp_files/138438.got.cif
#   From: 2010.05.17/outbox.cif.g08.bks.cpg/sg2_70_cif.got.tgz:138438.got - 2010.06.03 11:33:40.
