data_PCOD9093674
_publ_section_title
;
Structure prediction by ZEFSAII (Michael W. Deem and Ramdas Pophale) SiO2 
 PCOD9093674
Probable space group: P -1
;
_chemical_formula_sum "Si O2"
_cell_formula_units_Z 16
_cell_length_a 19.024662
_cell_length_b 8.635543
_cell_length_c 10.951037
_cell_angle_alpha 57.916748
_cell_angle_beta 137.026216
_cell_angle_gamma 86.282756
_cell_volume 643.548516
_symmetry_space_group_name_H-M "P -1"
_symmetry_group_IT_number 2
_symmetry_cell_setting 'triclinic'
loop_
_space_group_symop_operation_xyz
x,y,z
-x,-y,-z
loop_
_atom_site_type_symbol
_atom_site_label
_atom_site_fract_x
_atom_site_fract_y
_atom_site_fract_z
Si Si1 0.335627 0.671925 0.649509
Si Si2 0.622089 0.783443 0.359189
Si Si3 0.923500 0.397867 0.168013
Si Si4 0.204265 0.825851 0.944357
Si Si5 0.468894 0.634930 0.204868
Si Si6 0.802387 0.864272 0.556179
Si Si7 0.125539 0.664637 0.327572
Si Si8 0.108115 0.249855 0.844357
O O1 0.382387 0.635137 0.583233
O O2 0.279777 0.540577 0.648733
O O3 0.191478 0.988479 0.395547
O O4 0.500000 0.500000 0.000000
O O5 0.538192 0.716858 0.329940
O O6 0.685132 0.873638 0.471038
O O7 0.795163 0.508043 0.624418
O O8 0.500000 0.000000 0.000000
O O9 0.834365 0.338021 0.026731
O O10 0.822730 0.683172 0.006707
O O11 0.021821 0.369989 0.195548
O O12 0.061773 0.113984 0.554264
O O13 0.199087 0.960553 0.003414
O O14 0.377980 0.618910 0.181994
O O15 0.324886 0.901719 0.814681
O O16 0.029826 0.651197 0.287301
O O17 0.000000 0.000000 0.000000
O O18 0.000000 0.500000 0.500000
#
# Coordination Sequence:
#
# PCOD9093674 Si02
#       8
#     2   2   2   2   2   2   2   2
#     4   9  18  32  54  83 111 156 205 247 300 365
#     4   9  17  31  55  78 113 154 197 248 295 362
#     4   9  16  28  46  74 111 146 188 259 302 342
#     4   9  17  29  46  75 112 148 197 251 298 350
#     4   8  16  28  44  77 111 144 188 250 300 337
#     4   9  14  27  48  73 106 138 194 249 296 336
#     4  11  22  38  58  88 129 159 192 263 330 361
#     4  10  20  33  55  85 115 160 209 245 302 374
#
# _framework density 24.862151000000001
#
# number of rings (size 3 to 8) (size 9 to 14) (size 15 to 20)
#    0.000    2.750    1.250    1.500    1.750    3.000 
#    2.250    0.625    0.000    3.000    0.000    4.375 
#    0.000    0.000    0.000    0.000    0.000    0.000 
#
# Total GULP energy -89203.532468 kJ/mol
# GULP energy per Si atom -5575.220779 kJ/mol
# Density = 2.480556 g / cm^3
# Si number density = 24.862151 Si / 1000 Ang^3
#
#
#
# Elastic Constant Matrix: (Units=GPa)
#
#
# Indices 1 2 3 4 5 6 
#
# 1 140.8633 45.3001 12.8924 11.6699 20.1830 20.4890
# 2 45.3001 159.5286 6.4467 19.1596 22.1225 4.6827
# 3 12.8924 6.4467 68.8383 17.6704 3.0696 -6.0518
# 4 11.6699 19.1596 17.6704 40.7780 -3.6286 7.4683
# 5 20.1830 22.1225 3.0696 -3.6286 35.2243 -0.9002
# 6 20.4890 4.6827 -6.0518 7.4683 -0.9002 35.7394
#
#
#
# Elastic Compliance Matrix: (Units=1/GPa)
#
#
# Indices 1 2 3 4 5 6 
#
# 1 0.009249 -0.001756 -0.001733 -0.000463 -0.004230 -0.005375
# 2 -0.001756 0.007806 0.000929 -0.004121 -0.004379 0.000892
# 3 -0.001733 0.000929 0.017593 -0.008764 -0.001883 0.005635
# 4 -0.000463 -0.004121 -0.008764 0.032321 0.006761 -0.007263
# 5 -0.004230 -0.004379 -0.001883 0.006761 0.034479 0.002136
# 6 -0.005375 0.000892 0.005635 -0.007263 0.002136 0.033471
#
#
# Mechanical properties :
#
#
# Convention : Reuss Voigt Hill
#
# Bulk Modulus (GPa) = 33.86603 55.38984 44.62793
# Shear Modulus (GPa) = 33.36003 42.65440 38.00722
#
# Velocity S-wave (km/s) = 3.66703 4.14652 3.91412
# Velocity P-wave (km/s) = 5.61966 6.72696 6.19809
#
# Compressibility (1/GPa) = 0.02952812
#
# Stress axis : x y z
#
# Youngs Moduli (GPa) = 108.12176 128.11445 56.83990
#
# Poissons Ratio (x) = 0.22500 0.09849
# Poissons Ratio (y) = 0.18989 -0.05282
# Poissons Ratio (z) = 0.18736 -0.11907
#
# Static dielectric constant tensor:
#      x y z
#    x 1.898630 0.004490 -0.068290 
#    y 0.004490 1.962270 0.018680 
#    z -0.068290 0.018680 2.061020 
# 
# From -- ./inp_files/469331.got.cif
#   From: 2010.05.17/outbox.cif.g08.bks.cpg/sg2_235_cif.got.tgz:469331.got - 2010.06.03 11:33:40.
