data_PCOD9093991
_publ_section_title
;
Structure prediction by ZEFSAII (Michael W. Deem and Ramdas Pophale) SiO2 
 PCOD9093991
Probable space group: P -1
;
_chemical_formula_sum "Si O2"
_cell_formula_units_Z 16
_cell_length_a 5.595576
_cell_length_b 16.252436
_cell_length_c 9.450910
_cell_angle_alpha 57.626496
_cell_angle_beta 105.490388
_cell_angle_gamma 79.547125
_cell_volume 641.552299
_symmetry_space_group_name_H-M "P -1"
_symmetry_group_IT_number 2
_symmetry_cell_setting 'triclinic'
loop_
_space_group_symop_operation_xyz
x,y,z
-x,-y,-z
loop_
_atom_site_type_symbol
_atom_site_label
_atom_site_fract_x
_atom_site_fract_y
_atom_site_fract_z
Si Si1 0.764494 0.328138 0.791589
Si Si2 0.643673 0.604965 0.892438
Si Si3 0.479693 0.870402 0.869075
Si Si4 0.740862 0.632169 0.210084
Si Si5 0.437820 0.118631 0.436732
Si Si6 0.922610 0.899030 0.078926
Si Si7 0.872465 0.359052 0.102978
Si Si8 0.034882 0.090902 0.611380
O O1 0.444461 0.398095 0.682533
O O2 0.848459 0.314555 0.985617
O O3 0.955378 0.380932 0.704041
O O4 0.860954 0.212062 0.843324
O O5 0.730816 0.488161 0.948728
O O6 0.727758 0.591818 0.085180
O O7 0.320783 0.663542 0.794212
O O8 0.821586 0.659332 0.793579
O O9 0.579338 0.828753 0.767232
O O10 0.178766 0.961015 0.734992
O O11 0.566997 0.760347 0.065767
O O12 0.660380 0.926267 0.915369
O O13 0.171717 0.138624 0.469939
O O14 0.714025 0.120604 0.541621
O O15 0.500000 0.000000 0.500000
O O16 0.871019 0.881584 0.249398
O O17 0.000000 0.000000 0.000000
#
# Coordination Sequence:
#
# PCOD9093991 Si02
#       8
#     2   2   2   2   2   2   2   2
#     4   9  18  28  40  62  90 119 149 184 225 271
#     4   8  13  22  37  57  82 112 141 174 219 271
#     4  10  20  34  51  70  93 124 159 195 236 275
#     4   9  17  27  42  65  89 113 147 188 229 270
#     4  10  21  36  51  66  89 123 160 193 232 277
#     4  11  21  33  50  72  97 125 160 197 234 271
#     4   8  13  23  37  54  82 116 143 170 217 273
#     4  11  22  35  49  68  93 124 159 193 230 274
#
# _framework density 24.939509999999999
#
# number of rings (size 3 to 8) (size 9 to 14) (size 15 to 20)
#    0.000    2.500    0.000    4.125    0.000    7.000 
#    0.000    0.000    0.000    0.000    0.000    0.000 
#    0.000    2.000    0.000    0.000    0.000   17.000 
#
# Total GULP energy -89294.917154 kJ/mol
# GULP energy per Si atom -5580.932322 kJ/mol
# Density = 2.488275 g / cm^3
# Si number density = 24.939510 Si / 1000 Ang^3
#
#
#
# Elastic Constant Matrix: (Units=GPa)
#
#
# Indices 1 2 3 4 5 6 
#
# 1 214.5276 24.3087 31.9260 -4.2663 2.8898 -11.8051
# 2 24.3087 111.8404 16.2994 12.7967 4.2368 -9.4909
# 3 31.9260 16.2994 40.2456 7.3178 6.2495 -8.2671
# 4 -4.2663 12.7967 7.3178 27.3162 -8.4744 -1.2014
# 5 2.8898 4.2368 6.2495 -8.4744 24.3621 7.2953
# 6 -11.8051 -9.4909 -8.2671 -1.2014 7.2953 48.3797
#
#
#
# Elastic Compliance Matrix: (Units=1/GPa)
#
#
# Indices 1 2 3 4 5 6 
#
# 1 0.005532 -0.000913 -0.004839 0.003151 0.001795 0.000151
# 2 -0.000913 0.010318 -0.001388 -0.005734 -0.003928 0.002014
# 3 -0.004839 -0.001388 0.035490 -0.014017 -0.015124 0.006544
# 4 0.003151 -0.005734 -0.014017 0.050551 0.023303 -0.005010
# 5 0.001795 -0.003928 -0.015124 0.023303 0.056767 -0.010898
# 6 0.000151 0.002014 0.006544 -0.005010 -0.010898 0.023739
#
#
# Mechanical properties :
#
#
# Convention : Reuss Voigt Hill
#
# Bulk Modulus (GPa) = 26.98413 56.85354 41.91884
# Shear Modulus (GPa) = 23.91998 39.61689 31.76843
#
# Velocity S-wave (km/s) = 3.10033 3.98995 3.57293
# Velocity P-wave (km/s) = 4.86409 6.63870 5.81944
#
# Compressibility (1/GPa) = 0.03705881
#
# Stress axis : x y z
#
# Youngs Moduli (GPa) = 180.77160 96.91951 28.17698
#
# Poissons Ratio (x) = 0.08847 0.13635
# Poissons Ratio (y) = 0.16501 0.03912
# Poissons Ratio (z) = 0.87480 0.13456
#
# Static dielectric constant tensor:
#      x y z
#    x 2.188180 0.027720 -0.016840 
#    y 0.027720 2.004110 -0.102650 
#    z -0.016840 -0.102650 2.015730 
# 
# From -- ./inp_files/55354.got.cif
#   From: 2010.05.17/outbox.cif.g08.bks.cpg/sg2_28_cif.got.tgz:55354.got - 2010.06.03 11:33:40.
