data_PCOD9093975
_publ_section_title
;
Structure prediction by ZEFSAII (Michael W. Deem and Ramdas Pophale) SiO2 
 PCOD9093975
Probable space group: P -1
;
_chemical_formula_sum "Si O2"
_cell_formula_units_Z 15
_cell_length_a 5.189245
_cell_length_b 13.759040
_cell_length_c 9.719569
_cell_angle_alpha 105.211237
_cell_angle_beta 90.519387
_cell_angle_gamma 104.327682
_cell_volume 646.790725
_symmetry_space_group_name_H-M "P -1"
_symmetry_group_IT_number 2
_symmetry_cell_setting 'triclinic'
loop_
_space_group_symop_operation_xyz
x,y,z
-x,-y,-z
loop_
_atom_site_type_symbol
_atom_site_label
_atom_site_fract_x
_atom_site_fract_y
_atom_site_fract_z
Si Si1 0.831186 0.879475 0.786078
Si Si2 0.473486 0.741441 0.947826
Si Si3 0.500000 0.500000 0.500000
Si Si4 0.897996 0.413994 0.278504
Si Si5 0.914771 0.714214 0.542180
Si Si6 0.671609 0.612992 0.095025
Si Si7 0.804883 0.373973 0.721148
Si Si8 0.259313 0.922000 0.048988
O O1 0.888199 0.827200 0.626152
O O2 0.821229 0.999452 0.814955
O O3 0.574222 0.799387 0.825749
O O4 0.039901 0.886080 0.915497
O O5 0.698891 0.696925 0.004066
O O6 0.365478 0.825445 0.064113
O O7 0.236090 0.639515 0.878911
O O8 0.690452 0.460532 0.376690
O O9 0.639027 0.624837 0.496337
O O10 0.972899 0.325949 0.334230
O O11 0.160114 0.510757 0.305903
O O12 0.114257 0.702664 0.416905
O O13 0.476163 0.652032 0.214615
O O14 0.947176 0.607004 0.162706
O O15 0.500000 0.500000 0.000000
O O16 0.500000 0.000000 0.000000
#
# Coordination Sequence:
#
# PCOD9093975 Si02
#       8
#     2   2   1   2   2   2   2   2
#     4  10  20  37  65  94 120 150 203 269 336 361
#     4  11  22  36  64  85 126 160 210 257 316 372
#     4  10  20  34  48  88 120 160 194 236 312 382
#     4  11  22  34  59  86 122 166 205 258 318 361
#     4  11  23  35  63  88 126 165 201 265 319 376
#     4  12  27  42  60  87 129 182 216 253 292 372
#     4  11  27  41  58  89 133 170 221 246 301 380
#     4   9  20  38  59  97 118 149 201 268 331 375
#
# _framework density 23.191428999999999
#
# number of rings (size 3 to 8) (size 9 to 14) (size 15 to 20)
#    0.000    1.333    4.000    2.000   11.200    0.000 
#    0.000    0.000    0.000    1.600    0.000    0.000 
#    0.000    0.000    0.000    0.000    0.000    0.000 
#
# Total GULP energy -83633.494964 kJ/mol
# GULP energy per Si atom -5575.566331 kJ/mol
# Density = 2.313864 g / cm^3
# Si number density = 23.191429 Si / 1000 Ang^3
#
#
#
# Elastic Constant Matrix: (Units=GPa)
#
#
# Indices 1 2 3 4 5 6 
#
# 1 64.7546 1.6363 2.4818 6.0233 -1.5097 12.3608
# 2 1.6363 75.7586 25.1597 28.6376 0.4119 -13.4363
# 3 2.4818 25.1597 70.7447 21.8120 -8.2185 4.5095
# 4 6.0233 28.6376 21.8120 39.4158 -1.3482 -1.9497
# 5 -1.5097 0.4119 -8.2185 -1.3482 32.9161 -4.8201
# 6 12.3608 -13.4363 4.5095 -1.9497 -4.8201 31.1710
#
#
#
# Elastic Compliance Matrix: (Units=1/GPa)
#
#
# Indices 1 2 3 4 5 6 
#
# 1 0.017140 -0.000989 0.001109 -0.002895 -0.000154 -0.007588
# 2 -0.000989 0.020891 -0.004271 -0.012229 -0.000531 0.009168
# 3 0.001109 -0.004271 0.018678 -0.007516 0.003746 -0.004874
# 4 -0.002895 -0.012229 -0.007516 0.038811 -0.000364 -0.000665
# 5 -0.000154 -0.000531 0.003746 -0.000364 0.031916 0.004203
# 6 -0.007588 0.009168 -0.004874 -0.000665 0.004203 0.040356
#
#
# Mechanical properties :
#
#
# Convention : Reuss Voigt Hill
#
# Bulk Modulus (GPa) = 20.65834 29.97925 25.31879
# Shear Modulus (GPa) = 26.01053 32.83258 29.42156
#
# Velocity S-wave (km/s) = 3.35260 3.76669 3.56566
# Velocity P-wave (km/s) = 4.89016 5.64555 5.28137
#
# Compressibility (1/GPa) = 0.04840661
#
# Stress axis : x y z
#
# Youngs Moduli (GPa) = 58.34431 47.86749 53.53760
#
# Poissons Ratio (x) = 0.04735 -0.05936
# Poissons Ratio (y) = 0.05772 0.22865
# Poissons Ratio (z) = -0.06469 0.20443
#
# Static dielectric constant tensor:
#      x y z
#    x 1.768480 0.021240 -0.068140 
#    y 0.021240 1.872840 0.012060 
#    z -0.068140 0.012060 1.884180 
# 
# From -- ./inp_files/101437.got.cif
#   From: 2010.05.17/outbox.cif.g08.bks.cpg/sg2_51_cif.got.tgz:101437.got - 2010.06.03 11:33:40.
