data_PCOD9093204
_publ_section_title
;
Structure prediction by ZEFSAII (Michael W. Deem and Ramdas Pophale) SiO2 
 PCOD9093204
Probable space group: P -1
;
_chemical_formula_sum "Si O2"
_cell_formula_units_Z 14
_cell_length_a 11.413560
_cell_length_b 8.862552
_cell_length_c 18.310499
_cell_angle_alpha 131.728132
_cell_angle_beta 39.565171
_cell_angle_gamma 105.656466
_cell_volume 756.464961
_symmetry_space_group_name_H-M "P -1"
_symmetry_group_IT_number 2
_symmetry_cell_setting 'triclinic'
loop_
_space_group_symop_operation_xyz
x,y,z
-x,-y,-z
loop_
_atom_site_type_symbol
_atom_site_label
_atom_site_fract_x
_atom_site_fract_y
_atom_site_fract_z
Si Si1 0.565879 0.203790 0.671378
Si Si2 0.794160 0.323219 0.365782
Si Si3 0.646884 0.469159 0.987595
Si Si4 0.915419 0.730083 0.925933
Si Si5 0.173378 0.391379 0.816089
Si Si6 0.936911 0.980892 0.318733
Si Si7 0.555386 0.158270 0.320191
O O1 0.401131 0.306435 0.715418
O O2 0.801067 0.103052 0.495379
O O3 0.538728 0.996748 0.652637
O O4 0.490573 0.400579 0.832821
O O5 0.656263 0.225905 0.360705
O O6 0.630962 0.599702 0.546068
O O7 0.972996 0.285427 0.208711
O O8 0.898163 0.174005 0.339867
O O9 0.785505 0.592383 0.942894
O O10 0.818038 0.200946 0.838638
O O11 0.500000 0.500000 0.000000
O O12 0.099070 0.589859 0.853717
O O13 0.747785 0.990886 0.119211
O O14 0.156877 0.177333 0.720576
O O15 0.000000 0.500000 0.000000
#
# Coordination Sequence:
#
# PCOD9093204 Si02
#       7
#     2   2   2   2   2   2   2
#     4  11  21  36  60  85 115 149 188 236 281 333
#     4  11  22  32  50  87 124 152 175 209 286 354
#     4  10  23  43  64  81 101 146 207 249 280 316
#     4  10  21  36  56  81 118 150 180 235 278 333
#     4  11  17  34  57  86 117 151 185 227 283 335
#     4  11  22  35  58  86 119 148 185 233 280 342
#     4  10  20  32  50  82 120 155 174 211 272 350
#
# _framework density 18.507138000000001
#
# number of rings (size 3 to 8) (size 9 to 14) (size 15 to 20)
#    0.000    1.429    5.714    2.571    4.000    1.714 
#    0.000    0.714    0.000    4.286    0.000    0.000 
#    0.000    0.000    0.000    0.000    0.000    0.000 
#
# Total GULP energy -78245.154015 kJ/mol
# GULP energy per Si atom -5588.939573 kJ/mol
# Density = 1.846502 g / cm^3
# Si number density = 18.507138 Si / 1000 Ang^3
#
#
#
# Elastic Constant Matrix: (Units=GPa)
#
#
# Indices 1 2 3 4 5 6 
#
# 1 87.8984 23.4335 38.3810 20.1490 -8.2821 -22.5221
# 2 23.4335 89.9598 76.2380 9.2128 -4.6799 -29.4392
# 3 38.3810 76.2380 150.4595 20.0245 -4.3204 -30.5279
# 4 20.1490 9.2128 20.0245 27.0488 -14.9167 -3.1162
# 5 -8.2821 -4.6799 -4.3204 -14.9167 7.7144 3.8236
# 6 -22.5221 -29.4392 -30.5279 -3.1162 3.8236 18.1512
#
#
#
# Elastic Compliance Matrix: (Units=1/GPa)
#
#
# Indices 1 2 3 4 5 6 
#
# 1 0.014991 0.004157 -0.005422 0.020955 0.051669 0.008936
# 2 0.004157 0.029242 -0.010799 0.015096 0.030146 0.030664
# 3 -0.005422 -0.010799 0.009503 0.018621 0.035132 -0.012464
# 4 0.020955 0.015096 0.018621 -0.118248 -0.242348 0.112552
# 5 0.051669 0.030146 0.035132 -0.242348 -0.346383 0.203451
# 6 0.008936 0.030664 -0.012464 0.112552 0.203451 0.071417
#
#
# Mechanical properties :
#
#
# Convention : Reuss Voigt Hill
#
# Bulk Modulus (GPa) = 33.77653 67.15808 50.46730
# Shear Modulus (GPa) = -16.36776 23.26723 3.44974
#
# Velocity S-wave (km/s) = -2.97712 3.54955 1.36677
# Velocity P-wave (km/s) = 2.54412 7.29147 5.46068
#
# Compressibility (1/GPa) = 0.02960636
#
# Stress axis : x y z
#
# Youngs Moduli (GPa) = 66.70726 34.19702 105.22761
#
# Poissons Ratio (x) = -0.14214 0.57057
# Poissons Ratio (y) = -0.27727 1.13638
# Poissons Ratio (z) = 0.36170 0.36930
#
# Static dielectric constant tensor:
#      x y z
#    x 1.612550 0.004390 -0.006730 
#    y 0.004390 1.635670 0.008770 
#    z -0.006730 0.008770 1.665420 
# 
# From -- ./inp_files/251287.got.cif
#   From: 2010.05.17/outbox.cif.g08.bks.cpg/sg2_126_cif.got.tgz:251287.got - 2010.06.03 11:33:40.
