data_PCOD9093520
_publ_section_title
;
Structure prediction by ZEFSAII (Michael W. Deem and Ramdas Pophale) SiO2 
 PCOD9093520
Probable space group: P -1
;
_chemical_formula_sum "Si O2"
_cell_formula_units_Z 16
_cell_length_a 11.079213
_cell_length_b 11.883494
_cell_length_c 7.291264
_cell_angle_alpha 132.895017
_cell_angle_beta 78.053975
_cell_angle_gamma 104.424836
_cell_volume 680.154130
_symmetry_space_group_name_H-M "P -1"
_symmetry_group_IT_number 2
_symmetry_cell_setting 'triclinic'
loop_
_space_group_symop_operation_xyz
x,y,z
-x,-y,-z
loop_
_atom_site_type_symbol
_atom_site_label
_atom_site_fract_x
_atom_site_fract_y
_atom_site_fract_z
Si Si1 0.950903 0.622409 0.473628
Si Si2 0.204783 0.529733 0.357333
Si Si3 0.339919 0.336341 0.842682
Si Si4 0.084306 0.881928 0.914352
Si Si5 0.594256 0.336162 0.973817
Si Si6 0.437487 0.115004 0.018765
Si Si7 0.307214 0.843934 0.541495
Si Si8 0.792631 0.861579 0.625998
O O1 0.839404 0.498634 0.451098
O O2 0.893042 0.743437 0.498336
O O3 0.080405 0.561221 0.315181
O O4 0.997663 0.717963 0.752394
O O5 0.310497 0.681240 0.472123
O O6 0.262500 0.388635 0.095460
O O7 0.476319 0.319434 0.851760
O O8 0.272158 0.184068 0.596023
O O9 0.348911 0.483186 0.861421
O O10 0.181540 0.879748 0.715259
O O11 0.146981 0.959277 0.162692
O O12 0.000000 0.000000 0.000000
O O13 0.533052 0.265898 0.101086
O O14 0.684125 0.220351 0.736775
O O15 0.399730 0.000948 0.730026
O O16 0.315956 0.160686 0.208919
O O17 0.500000 0.000000 0.000000
#
# Coordination Sequence:
#
# PCOD9093520 Si02
#       8
#     2   2   2   2   2   2   2   2
#     4   9  17  33  57  78 104 142 180 219 267 317
#     4   9  18  33  54  78 104 142 180 215 265 321
#     4  10  21  36  54  80 111 142 178 219 268 318
#     4   8  16  32  52  76 104 138 175 215 266 316
#     4  10  21  37  55  76 108 146 179 219 268 317
#     4  11  22  35  54  79 107 140 181 225 267 316
#     4   9  18  33  53  75 102 138 178 217 261 315
#     4  10  20  33  52  78 107 139 177 224 265 316
#
# _framework density 23.524082
#
# number of rings (size 3 to 8) (size 9 to 14) (size 15 to 20)
#    0.000    2.500    0.000    1.875    0.000    2.000 
#    0.000    0.625    0.000    0.000    0.000    0.000 
#    0.000    0.000    0.000    0.000    0.000    0.000 
#
# Total GULP energy -89112.407662 kJ/mol
# GULP energy per Si atom -5569.525479 kJ/mol
# Density = 2.347054 g / cm^3
# Si number density = 23.524082 Si / 1000 Ang^3
#
#
#
# Elastic Constant Matrix: (Units=GPa)
#
#
# Indices 1 2 3 4 5 6 
#
# 1 63.8509 -2.4186 23.2461 -2.9920 -9.7091 -5.0786
# 2 -2.4186 39.0405 -23.5825 1.3636 -2.7708 1.0220
# 3 23.2461 -23.5825 78.0862 7.3970 -9.6586 -0.4577
# 4 -2.9920 1.3636 7.3970 11.5417 6.0295 1.2081
# 5 -9.7091 -2.7708 -9.6586 6.0295 33.1804 3.3769
# 6 -5.0786 1.0220 -0.4577 1.2081 3.3769 21.7013
#
#
#
# Elastic Compliance Matrix: (Units=1/GPa)
#
#
# Indices 1 2 3 4 5 6 
#
# 1 0.019173 -0.003744 -0.007577 0.009343 0.001005 0.003827
# 2 -0.003744 0.036020 0.015135 -0.019983 0.010227 -0.002732
# 3 -0.007577 0.015135 0.023147 -0.023746 0.010332 -0.002284
# 4 0.009343 -0.019983 -0.023746 0.121192 -0.027892 0.000220
# 5 0.001005 0.010227 0.010332 -0.027892 0.039838 -0.004675
# 6 0.003827 -0.002732 -0.002284 0.000220 -0.004675 0.047772
#
#
# Mechanical properties :
#
#
# Convention : Reuss Voigt Hill
#
# Bulk Modulus (GPa) = 11.63231 19.49640 15.56435
# Shear Modulus (GPa) = 16.22479 25.53352 20.87916
#
# Velocity S-wave (km/s) = 2.62908 3.29815 2.98244
# Velocity P-wave (km/s) = 3.76453 4.77593 4.30007
#
# Compressibility (1/GPa) = 0.08596745
#
# Stress axis : x y z
#
# Youngs Moduli (GPa) = 52.15620 27.76231 43.20246
#
# Poissons Ratio (x) = 0.10395 0.32734
# Poissons Ratio (y) = 0.19529 -0.65387
# Poissons Ratio (z) = 0.39519 -0.42018
#
# Static dielectric constant tensor:
#      x y z
#    x 1.821830 0.030180 -0.068080 
#    y 0.030180 1.920570 0.055320 
#    z -0.068080 0.055320 1.856360 
# 
# From -- ./inp_files/271191.got.cif
#   From: 2010.05.17/outbox.cif.g08.bks.cpg/sg2_136_cif.got.tgz:271191.got - 2010.06.03 11:33:40.
