data_PCOD9093456
_publ_section_title
;
Structure prediction by ZEFSAII (Michael W. Deem and Ramdas Pophale) SiO2 
 PCOD9093456
Probable space group: P -1
;
_chemical_formula_sum "Si O2"
_cell_formula_units_Z 14
_cell_length_a 18.625980
_cell_length_b 11.474522
_cell_length_c 11.243639
_cell_angle_alpha 37.601664
_cell_angle_beta 139.228198
_cell_angle_gamma 154.375084
_cell_volume 625.660670
_symmetry_space_group_name_H-M "P -1"
_symmetry_group_IT_number 2
_symmetry_cell_setting 'triclinic'
loop_
_space_group_symop_operation_xyz
x,y,z
-x,-y,-z
loop_
_atom_site_type_symbol
_atom_site_label
_atom_site_fract_x
_atom_site_fract_y
_atom_site_fract_z
Si Si1 0.304515 0.469565 0.765696
Si Si2 0.670793 0.932957 0.269019
Si Si3 0.693131 0.524155 0.701081
Si Si4 0.186325 0.795326 0.534968
Si Si5 0.528408 0.230628 0.499380
Si Si6 0.946843 0.978379 0.817922
Si Si7 0.587364 0.724876 0.089010
O O1 0.376700 0.689009 0.569371
O O2 0.302359 0.245136 0.894469
O O3 0.117073 0.268014 0.732166
O O4 0.441652 0.643358 0.902380
O O5 0.717328 0.772939 0.482075
O O6 0.477255 0.708489 0.247311
O O7 0.679881 0.967250 0.110964
O O8 0.776326 0.191293 0.289341
O O9 0.650133 0.353915 0.664447
O O10 0.851750 0.697259 0.844836
O O11 0.183754 0.020464 0.335778
O O12 0.000000 0.500000 0.500000
O O13 0.341065 0.918675 0.551774
O O14 0.510673 0.438650 0.292124
O O15 0.000000 0.000000 0.000000
#
# Coordination Sequence:
#
# PCOD9093456 Si02
#       7
#     2   2   2   2   2   2   2
#     4   9  17  26  46  76  99 122 148 199 249 279
#     4   8  13  27  46  66  89 130 158 188 226 292
#     4   8  14  24  44  68  95 115 154 193 238 271
#     4  10  20  33  50  69  95 132 165 191 230 282
#     4   8  15  30  47  66  93 131 154 187 236 291
#     4  11  20  29  48  79  98 116 158 210 234 268
#     4   8  14  27  48  71  96 126 153 186 247 291
#
# _framework density 22.376345000000001
#
# number of rings (size 3 to 8) (size 9 to 14) (size 15 to 20)
#    0.857    2.286    0.000    4.286    0.000    0.571 
#    0.000    0.714    0.000    8.571    0.000    0.000 
#    0.000    0.000    0.000    0.000    0.000    0.000 
#
# Total GULP energy -77933.988855 kJ/mol
# GULP energy per Si atom -5566.713490 kJ/mol
# Density = 2.232542 g / cm^3
# Si number density = 22.376345 Si / 1000 Ang^3
#
#
#
# Elastic Constant Matrix: (Units=GPa)
#
#
# Indices 1 2 3 4 5 6 
#
# 1 82.9500 39.1688 47.9985 12.7165 -22.4183 11.8713
# 2 39.1688 131.5671 38.7806 31.3206 -34.1911 -0.7791
# 3 47.9985 38.7806 83.6311 27.5599 -24.7097 -13.4532
# 4 12.7165 31.3206 27.5599 35.4477 -20.7578 -8.8433
# 5 -22.4183 -34.1911 -24.7097 -20.7578 36.0652 10.0824
# 6 11.8713 -0.7791 -13.4532 -8.8433 10.0824 22.4377
#
#
#
# Elastic Compliance Matrix: (Units=1/GPa)
#
#
# Indices 1 2 3 4 5 6 
#
# 1 0.035801 -0.000429 -0.022962 0.008450 0.021954 -0.039259
# 2 -0.000429 0.011678 -0.002007 -0.005470 0.008055 -0.006347
# 3 -0.022962 -0.002007 0.032438 -0.013609 -0.010406 0.030841
# 4 0.008450 -0.005470 -0.013609 0.052831 0.021631 -0.001718
# 5 0.021954 0.008055 -0.010406 0.021631 0.065030 -0.038271
# 6 -0.039259 -0.006347 0.030841 -0.001718 -0.038271 0.100130
#
#
# Mechanical properties :
#
#
# Convention : Reuss Voigt Hill
#
# Bulk Modulus (GPa) = 34.34004 61.11599 47.72802
# Shear Modulus (GPa) = 13.95043 30.27014 22.11028
#
# Velocity S-wave (km/s) = 2.49960 3.68200 3.14683
# Velocity P-wave (km/s) = 4.86935 6.74153 5.88042
#
# Compressibility (1/GPa) = 0.02912052
#
# Stress axis : x y z
#
# Youngs Moduli (GPa) = 27.93202 85.63092 30.82821
#
# Poissons Ratio (x) = 0.03672 0.70788
# Poissons Ratio (y) = 0.01198 0.06189
# Poissons Ratio (z) = 0.64137 0.17190
#
# Static dielectric constant tensor:
#      x y z
#    x 1.912390 -0.131620 -0.011480 
#    y -0.131620 1.865580 -0.006410 
#    z -0.011480 -0.006410 1.859420 
# 
# From -- ./inp_files/474952.got.cif
#   From: 2010.05.17/outbox.cif.g08.bks.cpg/sg2_238_cif.got.tgz:474952.got - 2010.06.03 11:33:40.
