data_PCOD9093903
_publ_section_title
;
Structure prediction by ZEFSAII (Michael W. Deem and Ramdas Pophale) SiO2 
 PCOD9093903
Probable space group: P -1
;
_chemical_formula_sum "Si O2"
_cell_formula_units_Z 14
_cell_length_a 8.017383
_cell_length_b 13.393445
_cell_length_c 7.248967
_cell_angle_alpha 48.467945
_cell_angle_beta 81.843877
_cell_angle_gamma 66.638851
_cell_volume 526.566093
_symmetry_space_group_name_H-M "P -1"
_symmetry_group_IT_number 2
_symmetry_cell_setting 'triclinic'
loop_
_space_group_symop_operation_xyz
x,y,z
-x,-y,-z
loop_
_atom_site_type_symbol
_atom_site_label
_atom_site_fract_x
_atom_site_fract_y
_atom_site_fract_z
Si Si1 0.169499 0.436849 0.861762
Si Si2 0.741615 0.371497 0.089655
Si Si3 0.908918 0.180207 0.761284
Si Si4 0.813758 0.719545 0.591885
Si Si5 0.395450 0.838685 0.437654
Si Si6 0.058180 0.095319 0.232230
Si Si7 0.316261 0.505332 0.432409
O O1 0.257859 0.395736 0.696505
O O2 0.953927 0.549466 0.732481
O O3 0.219606 0.303676 0.159034
O O4 0.941002 0.258291 0.122098
O O5 0.638070 0.266045 0.275305
O O6 0.758811 0.455669 0.165968
O O7 0.653879 0.485840 0.799845
O O8 0.725110 0.181442 0.690232
O O9 0.839734 0.339586 0.673840
O O10 0.987564 0.081622 0.052484
O O11 0.929715 0.814368 0.404985
O O12 0.612860 0.790525 0.442822
O O13 0.279778 0.009757 0.295275
O O14 0.000000 0.000000 0.500000
O O15 0.500000 0.500000 0.500000
#
# Coordination Sequence:
#
# PCOD9093903 Si02
#       7
#     2   2   2   2   2   2   2
#     4  10  21  42  58  89 133 163 195 261 308 352
#     4  10  20  38  66  86 125 167 200 256 309 352
#     4  10  21  41  61  91 127 161 198 261 311 353
#     4  10  22  37  63  94 121 162 209 244 307 379
#     4  11  20  38  69  88 118 169 204 250 314 358
#     4   9  21  39  65  92 120 161 211 254 302 368
#     4  10  20  33  60  91 118 160 208 242 297 373
#
# _framework density 26.587357000000001
#
# number of rings (size 3 to 8) (size 9 to 14) (size 15 to 20)
#    0.000    2.000    2.857    1.286    2.000    1.714 
#    0.000   12.143   28.286    0.000    0.000    0.000 
#    0.000    0.000    0.000    0.000    0.000    0.000 
#
# Total GULP energy -78180.342433 kJ/mol
# GULP energy per Si atom -5584.310174 kJ/mol
# Density = 2.652684 g / cm^3
# Si number density = 26.587357 Si / 1000 Ang^3
#
#
#
# Elastic Constant Matrix: (Units=GPa)
#
#
# Indices 1 2 3 4 5 6 
#
# 1 165.9528 46.2383 61.2463 0.3045 17.2379 -29.8512
# 2 46.2383 112.1112 33.4958 -1.7995 15.4397 -17.7069
# 3 61.2463 33.4958 180.4853 24.0243 34.7760 -5.7586
# 4 0.3045 -1.7995 24.0243 40.2595 8.1042 3.7553
# 5 17.2379 15.4397 34.7760 8.1042 32.0319 -3.4961
# 6 -29.8512 -17.7069 -5.7586 3.7553 -3.4961 40.6173
#
#
#
# Elastic Compliance Matrix: (Units=1/GPa)
#
#
# Indices 1 2 3 4 5 6 
#
# 1 0.008347 -0.001865 -0.002302 0.000937 -0.000803 0.004840
# 2 -0.001865 0.010873 -0.000831 0.001413 -0.003384 0.002830
# 3 -0.002302 -0.000831 0.008145 -0.003477 -0.006447 -0.001133
# 4 0.000937 0.001413 -0.003477 0.028135 -0.004770 -0.002200
# 5 -0.000803 -0.003384 -0.006447 -0.004770 0.041602 0.001043
# 6 0.004840 0.002830 -0.001133 -0.002200 0.001043 0.029543
#
#
# Mechanical properties :
#
#
# Convention : Reuss Voigt Hill
#
# Bulk Modulus (GPa) = 57.57343 82.27891 69.92617
# Shear Modulus (GPa) = 35.10494 43.75301 39.42898
#
# Velocity S-wave (km/s) = 3.63762 4.06104 3.85515
# Velocity P-wave (km/s) = 6.27252 7.28033 6.79513
#
# Compressibility (1/GPa) = 0.01736912
#
# Stress axis : x y z
#
# Youngs Moduli (GPa) = 119.80013 91.97359 122.77577
#
# Poissons Ratio (x) = 0.17152 0.28265
# Poissons Ratio (y) = 0.22341 0.10200
# Poissons Ratio (z) = 0.27580 0.07641
#
# Static dielectric constant tensor:
#      x y z
#    x 2.176050 0.100080 -0.029330 
#    y 0.100080 2.241540 -0.031490 
#    z -0.029330 -0.031490 2.211080 
# 
# From -- ./inp_files/214097.got.cif
#   From: 2010.05.17/outbox.cif.g08.bks.cpg/sg2_108_cif.got.tgz:214097.got - 2010.06.03 11:33:40.
