data_PCOD9093016
_publ_section_title
;
Structure prediction by ZEFSAII (Michael W. Deem and Ramdas Pophale) SiO2 
 PCOD9093016
Probable space group: P -1
;
_chemical_formula_sum "Si O2"
_cell_formula_units_Z 14
_cell_length_a 20.059996
_cell_length_b 14.754784
_cell_length_c 5.134901
_cell_angle_alpha 127.963560
_cell_angle_beta 130.733900
_cell_angle_gamma 33.448610
_cell_volume 625.619602
_symmetry_space_group_name_H-M "P -1"
_symmetry_group_IT_number 2
_symmetry_cell_setting 'triclinic'
loop_
_space_group_symop_operation_xyz
x,y,z
-x,-y,-z
loop_
_atom_site_type_symbol
_atom_site_label
_atom_site_fract_x
_atom_site_fract_y
_atom_site_fract_z
Si Si1 0.135211 0.290209 0.167520
Si Si2 0.459043 0.715608 0.678551
Si Si3 0.048968 0.824706 0.755789
Si Si4 0.306540 0.635161 0.184853
Si Si5 0.980341 0.377397 0.422743
Si Si6 0.674184 0.068822 0.754282
Si Si7 0.129133 0.946820 0.668111
O O1 0.133922 0.430040 0.440141
O O2 0.022034 0.364175 0.212793
O O3 0.094275 0.299439 0.783058
O O4 0.257953 0.110267 0.283551
O O5 0.399091 0.646629 0.331760
O O6 0.606937 0.548862 0.812187
O O7 0.396704 0.812364 0.963752
O O8 0.420093 0.839833 0.570430
O O9 0.053447 0.724060 0.808690
O O10 0.194971 0.701708 0.820229
O O11 0.934199 0.896774 0.403823
O O12 0.000000 0.000000 0.000000
O O13 0.224896 0.773068 0.450249
O O14 0.786853 0.053264 0.930367
O O15 0.000000 0.000000 0.500000
#
# Coordination Sequence:
#
# PCOD9093016 Si02
#       7
#     2   2   2   2   2   2   2
#     4  10  21  36  58  81 115 151 189 235 276 344
#     4  10  22  38  54  79 112 155 200 225 277 330
#     4  10  20  33  55  87 118 147 178 237 296 348
#     4   9  21  35  52  79 117 155 188 234 279 345
#     4  10  21  37  55  85 117 148 185 230 294 343
#     4  11  21  35  59  78 110 149 195 240 268 342
#     4  10  20  30  52  88 116 150 180 235 300 346
#
# _framework density 22.377815999999999
#
# number of rings (size 3 to 8) (size 9 to 14) (size 15 to 20)
#    0.000    2.000    1.429    1.714    8.000    6.286 
#    0.000    0.000    0.000    1.714    0.000    0.000 
#    0.000    0.000    0.000    0.000    0.000    0.000 
#
# Total GULP energy -77999.081300 kJ/mol
# GULP energy per Si atom -5571.362950 kJ/mol
# Density = 2.232688 g / cm^3
# Si number density = 22.377816 Si / 1000 Ang^3
#
#
#
# Elastic Constant Matrix: (Units=GPa)
#
#
# Indices 1 2 3 4 5 6 
#
# 1 42.8604 21.0825 10.0891 4.4639 -7.8171 13.8819
# 2 21.0825 193.2643 30.4587 -14.6357 4.0164 6.9995
# 3 10.0891 30.4587 57.8088 -0.6618 -13.4508 3.0728
# 4 4.4639 -14.6357 -0.6618 36.1777 9.5929 0.9871
# 5 -7.8171 4.0164 -13.4508 9.5929 28.3554 -0.1488
# 6 13.8819 6.9995 3.0728 0.9871 -0.1488 34.7302
#
#
#
# Elastic Compliance Matrix: (Units=1/GPa)
#
#
# Indices 1 2 3 4 5 6 
#
# 1 0.032240 -0.003958 -0.000180 -0.008489 0.012173 -0.011780
# 2 -0.003958 0.006697 -0.004095 0.004576 -0.005528 0.000441
# 3 -0.000180 -0.004095 0.022442 -0.004572 0.012718 -0.000904
# 4 -0.008489 0.004576 -0.004572 0.034903 -0.016956 0.001811
# 5 0.012173 -0.005528 0.012718 -0.016956 0.051153 -0.004176
# 6 -0.011780 0.000441 -0.000904 0.001811 -0.004176 0.033424
#
#
# Mechanical properties :
#
#
# Convention : Reuss Voigt Hill
#
# Bulk Modulus (GPa) = 22.26483 46.35488 34.30986
# Shear Modulus (GPa) = 23.55198 35.33956 29.44577
#
# Velocity S-wave (km/s) = 3.24770 3.97826 3.63140
# Velocity P-wave (km/s) = 4.90250 6.47006 5.74004
#
# Compressibility (1/GPa) = 0.04491388
#
# Stress axis : x y z
#
# Youngs Moduli (GPa) = 31.01700 149.32314 44.55852
#
# Poissons Ratio (x) = 0.59100 0.00802
# Poissons Ratio (y) = 0.12276 0.18247
# Poissons Ratio (z) = 0.00558 0.61149
#
# Static dielectric constant tensor:
#      x y z
#    x 1.961390 0.055050 -0.126330 
#    y 0.055050 1.873580 -0.043470 
#    z -0.126330 -0.043470 2.071290 
# 
# From -- ./inp_files/119188.got.cif
#   From: 2010.05.17/outbox.cif.g08.bks.cpg/sg2_60_cif.got.tgz:119188.got - 2010.06.03 11:33:40.
