data_PCOD9093226
_publ_section_title
;
Structure prediction by ZEFSAII (Michael W. Deem and Ramdas Pophale) SiO2 
 PCOD9093226
Probable space group: P -1
;
_chemical_formula_sum "Si O2"
_cell_formula_units_Z 16
_cell_length_a 12.268789
_cell_length_b 12.551314
_cell_length_c 14.410468
_cell_angle_alpha 137.394150
_cell_angle_beta 64.294231
_cell_angle_gamma 142.080359
_cell_volume 863.728707
_symmetry_space_group_name_H-M "P -1"
_symmetry_group_IT_number 2
_symmetry_cell_setting 'triclinic'
loop_
_space_group_symop_operation_xyz
x,y,z
-x,-y,-z
loop_
_atom_site_type_symbol
_atom_site_label
_atom_site_fract_x
_atom_site_fract_y
_atom_site_fract_z
Si Si1 0.094036 0.939045 0.291048
Si Si2 0.047677 0.974668 0.865870
Si Si3 0.343447 0.785831 0.845501
Si Si4 0.338901 0.069535 0.912839
Si Si5 0.633028 0.562726 0.410009
Si Si6 0.053209 0.571605 0.134294
Si Si7 0.705548 0.770212 0.786380
Si Si8 0.234926 0.425000 0.956716
O O1 0.145561 0.837256 0.267319
O O2 0.877252 0.713102 0.188913
O O3 0.163738 0.158986 0.464362
O O4 0.208280 0.059146 0.227754
O O5 0.176365 0.952334 0.824577
O O6 0.166112 0.219670 0.919336
O O7 0.845486 0.765580 0.754348
O O8 0.000000 0.000000 0.000000
O O9 0.362216 0.620429 0.711897
O O10 0.136410 0.608882 0.851362
O O11 0.365025 0.913583 0.827980
O O12 0.500000 0.000000 0.000000
O O13 0.284413 0.097185 0.048444
O O14 0.540602 0.345076 0.988468
O O15 0.500000 0.500000 0.500000
O O16 0.512152 0.491203 0.318667
O O17 0.170480 0.532214 0.087200
O O18 0.000000 0.500000 0.000000
#
# Coordination Sequence:
#
# PCOD9093226 Si02
#       8
#     2   2   2   2   2   2   2   2
#     4   9  19  35  50  76 115 146 180 214 280 324
#     4   9  18  34  54  79 108 139 184 232 273 320
#     4  12  22  34  56  82 114 141 189 226 279 326
#     4  11  20  32  56  84 106 142 186 231 273 322
#     4  10  22  34  56  80 114 149 183 222 277 332
#     4  10  20  32  51  80 113 148 173 230 275 322
#     4   9  18  34  53  77 108 146 180 227 269 321
#     4  10  20  32  55  80 115 141 179 231 272 324
#
# _framework density 18.524336000000002
#
# number of rings (size 3 to 8) (size 9 to 14) (size 15 to 20)
#    0.000    2.000    1.250    4.875    7.000    0.500 
#    0.000    0.000    0.000    6.750    0.000    2.625 
#    0.000    0.000    0.000    0.000    0.000    0.000 
#
# Total GULP energy -89139.136721 kJ/mol
# GULP energy per Si atom -5571.196045 kJ/mol
# Density = 1.848217 g / cm^3
# Si number density = 18.524336 Si / 1000 Ang^3
#
#
#
# Elastic Constant Matrix: (Units=GPa)
#
#
# Indices 1 2 3 4 5 6 
#
# 1 131.1492 24.9159 40.4303 14.6502 -6.0450 -0.4663
# 2 24.9159 61.0556 8.9450 1.2163 0.8644 2.8939
# 3 40.4303 8.9450 85.8942 18.6001 -12.7228 0.5395
# 4 14.6502 1.2163 18.6001 15.5540 0.9699 -3.8417
# 5 -6.0450 0.8644 -12.7228 0.9699 18.7695 2.2591
# 6 -0.4663 2.8939 0.5395 -3.8417 2.2591 30.9697
#
#
#
# Elastic Compliance Matrix: (Units=1/GPa)
#
#
# Indices 1 2 3 4 5 6 
#
# 1 0.009885 -0.003527 -0.002708 -0.006000 0.001863 -0.000355
# 2 -0.003527 0.018048 -0.001420 0.003534 -0.002985 -0.001059
# 3 -0.002708 -0.001420 0.020421 -0.023739 0.014778 -0.004287
# 4 -0.006000 0.003534 -0.023739 0.103249 -0.025285 0.014645
# 5 0.001863 -0.002985 0.014778 -0.025285 0.066293 -0.007923
# 6 -0.000355 -0.001059 -0.004287 0.014645 -0.007923 0.034853
#
#
# Mechanical properties :
#
#
# Convention : Reuss Voigt Hill
#
# Bulk Modulus (GPa) = 30.26267 47.40905 38.83586
# Shear Modulus (GPa) = 17.91644 26.64583 22.28113
#
# Velocity S-wave (km/s) = 3.11333 3.79677 3.47191
# Velocity P-wave (km/s) = 5.41257 6.69843 6.08954
#
# Compressibility (1/GPa) = 0.03304401
#
# Stress axis : x y z
#
# Youngs Moduli (GPa) = 101.16728 55.40795 48.96856
#
# Poissons Ratio (x) = 0.19543 0.13260
# Poissons Ratio (y) = 0.35683 0.06953
# Poissons Ratio (z) = 0.27395 0.07868
#
# Static dielectric constant tensor:
#      x y z
#    x 1.704680 0.022540 -0.001650 
#    y 0.022540 1.693840 0.027430 
#    z -0.001650 0.027430 1.704810 
# 
# From -- ./inp_files/347118.got.cif
#   From: 2010.05.17/outbox.cif.g08.bks.cpg/sg2_174_cif.got.tgz:347118.got - 2010.06.03 11:33:40.
