data_PCOD9093475
_publ_section_title
;
Structure prediction by ZEFSAII (Michael W. Deem and Ramdas Pophale) SiO2 
 PCOD9093475
Probable space group: P -1
;
_chemical_formula_sum "Si O2"
_cell_formula_units_Z 16
_cell_length_a 5.093909
_cell_length_b 18.804165
_cell_length_c 9.885092
_cell_angle_alpha 138.170328
_cell_angle_beta 118.866511
_cell_angle_gamma 65.802747
_cell_volume 550.972839
_symmetry_space_group_name_H-M "P -1"
_symmetry_group_IT_number 2
_symmetry_cell_setting 'triclinic'
loop_
_space_group_symop_operation_xyz
x,y,z
-x,-y,-z
loop_
_atom_site_type_symbol
_atom_site_label
_atom_site_fract_x
_atom_site_fract_y
_atom_site_fract_z
Si Si1 0.567080 0.246646 0.088030
Si Si2 0.414624 0.554308 0.198033
Si Si3 0.282875 0.877795 0.816632
Si Si4 0.300014 0.246462 0.471081
Si Si5 0.944245 0.617650 0.712209
Si Si6 0.989756 0.003492 0.702755
Si Si7 0.406196 0.875268 0.404370
Si Si8 0.877646 0.632431 0.013864
O O1 0.592421 0.135090 0.017814
O O2 0.870254 0.298181 0.200354
O O3 0.338697 0.260898 0.923406
O O4 0.394554 0.331497 0.271283
O O5 0.668493 0.633829 0.401002
O O6 0.944559 0.386566 0.109151
O O7 0.329689 0.466180 0.158705
O O8 0.097111 0.625256 0.186182
O O9 0.531058 0.829380 0.705744
O O10 0.017478 0.797815 0.641807
O O11 0.141777 0.986739 0.864769
O O12 0.496342 0.230755 0.636301
O O13 0.000000 0.500000 0.500000
O O14 0.710557 0.930055 0.528149
O O15 0.225256 0.951657 0.579276
O O16 0.830778 0.115783 0.766827
O O17 0.500000 0.500000 0.000000
#
# Coordination Sequence:
#
# PCOD9093475 Si02
#       8
#     2   2   2   2   2   2   2   2
#     4  10  21  34  51  73 102 129 170 207 259 312
#     4  11  23  40  54  71 102 140 184 224 252 296
#     4  10  20  33  50  82 107 133 164 210 260 314
#     4  10  22  33  52  76 105 135 174 212 255 304
#     4  10  21  36  52  75  98 130 170 217 267 308
#     4   8  14  26  47  69 105 132 156 194 253 311
#     4   8  14  28  45  71  99 134 162 196 247 310
#     4   9  24  37  54  72  96 138 179 217 259 302
#
# _framework density 29.039545
#
# number of rings (size 3 to 8) (size 9 to 14) (size 15 to 20)
#    0.750    1.750    0.000    1.875    5.250    2.000 
#    0.000    0.000    0.000    0.000    0.000    0.875 
#    0.000    2.250    0.000    0.125    0.000    0.000 
#
# Total GULP energy -89689.121042 kJ/mol
# GULP energy per Si atom -5605.570065 kJ/mol
# Density = 2.897345 g / cm^3
# Si number density = 29.039545 Si / 1000 Ang^3
#
#
#
# Elastic Constant Matrix: (Units=GPa)
#
#
# Indices 1 2 3 4 5 6 
#
# 1 175.4422 16.5696 48.3412 19.4289 1.2369 18.7155
# 2 16.5696 188.1987 50.9324 -38.7398 2.6189 1.6578
# 3 48.3412 50.9324 101.3003 3.4234 9.3378 12.3236
# 4 19.4289 -38.7398 3.4234 64.2641 7.0028 1.5616
# 5 1.2369 2.6189 9.3378 7.0028 27.8692 -9.3811
# 6 18.7155 1.6578 12.3236 1.5616 -9.3811 54.5104
#
#
#
# Elastic Compliance Matrix: (Units=1/GPa)
#
#
# Indices 1 2 3 4 5 6 
#
# 1 0.006942 -0.000230 -0.003011 -0.002122 0.000749 -0.001506
# 2 -0.000230 0.007322 -0.003750 0.004719 -0.000441 0.000493
# 3 -0.003011 -0.003750 0.014026 -0.001509 -0.004778 -0.002802
# 4 -0.002122 0.004719 -0.001509 0.019679 -0.004954 -0.000490
# 5 0.000749 -0.000441 -0.004778 -0.004954 0.041467 0.008115
# 6 -0.001506 0.000493 -0.002802 -0.000490 0.008115 0.020891
#
#
# Mechanical properties :
#
#
# Convention : Reuss Voigt Hill
#
# Bulk Modulus (GPa) = 69.89587 77.40305 73.64946
# Shear Modulus (GPa) = 38.73569 52.60194 45.66882
#
# Velocity S-wave (km/s) = 3.65621 4.26066 3.96996
# Velocity P-wave (km/s) = 6.47652 7.13558 6.81402
#
# Compressibility (1/GPa) = 0.01430700
#
# Stress axis : x y z
#
# Youngs Moduli (GPa) = 144.05835 136.57431 71.29423
#
# Poissons Ratio (x) = 0.03145 0.21466
# Poissons Ratio (y) = 0.03318 0.26738
# Poissons Ratio (z) = 0.43374 0.51220
#
# Static dielectric constant tensor:
#      x y z
#    x 2.239340 -0.112140 -0.005790 
#    y -0.112140 2.324440 -0.158530 
#    z -0.005790 -0.158530 2.265850 
# 
# From -- ./inp_files/368693.got.cif
#   From: 2010.05.17/outbox.cif.g08.bks.cpg/sg2_185_cif.got.tgz:368693.got - 2010.06.03 11:33:40.
