data_PCOD9093265
_publ_section_title
;
Structure prediction by ZEFSAII (Michael W. Deem and Ramdas Pophale) SiO2 
 PCOD9093265
Probable space group: P -1
;
_chemical_formula_sum "Si O2"
_cell_formula_units_Z 16
_cell_length_a 17.810377
_cell_length_b 4.919585
_cell_length_c 11.158383
_cell_angle_alpha 71.232429
_cell_angle_beta 114.857506
_cell_angle_gamma 116.999785
_cell_volume 779.999888
_symmetry_space_group_name_H-M "P -1"
_symmetry_group_IT_number 2
_symmetry_cell_setting 'triclinic'
loop_
_space_group_symop_operation_xyz
x,y,z
-x,-y,-z
loop_
_atom_site_type_symbol
_atom_site_label
_atom_site_fract_x
_atom_site_fract_y
_atom_site_fract_z
Si Si1 0.561478 0.164902 0.259963
Si Si2 0.375475 0.800294 0.077272
Si Si3 0.988386 0.443488 0.143512
Si Si4 0.832303 0.023817 0.792846
Si Si5 0.313755 0.330818 0.898524
Si Si6 0.428900 0.455891 0.563520
Si Si7 0.719189 0.410005 0.700812
Si Si8 0.125825 0.201190 0.888658
O O1 0.363240 0.510916 0.025730
O O2 0.636827 0.453667 0.208139
O O3 0.594211 0.889092 0.354172
O O4 0.477632 0.013830 0.137633
O O5 0.530920 0.295605 0.339509
O O6 0.331055 0.682172 0.192634
O O7 0.325733 0.004395 0.952926
O O8 0.908437 0.536533 0.127026
O O9 0.956480 0.076639 0.185989
O O10 0.920704 0.312996 0.776302
O O11 0.000000 0.500000 0.000000
O O12 0.749979 0.136750 0.719362
O O13 0.806618 0.715773 0.741181
O O14 0.846359 0.930082 0.951645
O O15 0.211836 0.296644 0.849400
O O16 0.500000 0.500000 0.500000
O O17 0.344953 0.516339 0.445459
#
# Coordination Sequence:
#
# PCOD9093265 Si02
#       8
#     2   2   2   2   2   2   2   2
#     4  12  26  43  61  86 120 164 205 248 287 348
#     4  12  22  39  61  88 124 158 196 240 303 354
#     4  10  20  32  53  83 123 157 183 230 295 370
#     4  11  20  35  54  89 120 153 193 236 296 356
#     4  12  24  39  61  91 123 159 200 236 296 370
#     4  12  26  43  63  84 117 161 211 251 294 334
#     4  12  22  36  61  86 118 159 195 243 296 343
#     4  11  19  34  55  85 121 158 184 230 302 359
#
# _framework density 20.512823999999998
#
# number of rings (size 3 to 8) (size 9 to 14) (size 15 to 20)
#    0.000    0.500    3.750    7.875    1.750    0.000 
#    0.000    0.000    0.000    0.000    0.000   17.500 
#    0.000    0.000    0.000    0.000    0.000    0.000 
#
# Total GULP energy -89524.328599 kJ/mol
# GULP energy per Si atom -5595.270537 kJ/mol
# Density = 2.046614 g / cm^3
# Si number density = 20.512824 Si / 1000 Ang^3
#
#
#
# Elastic Constant Matrix: (Units=GPa)
#
#
# Indices 1 2 3 4 5 6 
#
# 1 47.6413 -4.3167 10.9996 -0.9615 7.3540 3.4408
# 2 -4.3167 71.0186 -9.2831 -0.0956 -6.2496 -0.8717
# 3 10.9996 -9.2831 41.1780 -13.6624 7.9681 -5.3456
# 4 -0.9615 -0.0956 -13.6624 21.8964 -4.8984 14.4131
# 5 7.3540 -6.2496 7.9681 -4.8984 18.8138 -6.5011
# 6 3.4408 -0.8717 -5.3456 14.4131 -6.5011 34.0777
#
#
#
# Elastic Compliance Matrix: (Units=1/GPa)
#
#
# Indices 1 2 3 4 5 6 
#
# 1 0.023975 -0.000146 -0.005863 -0.001768 -0.008880 -0.004290
# 2 -0.000146 0.014944 0.003587 0.002914 0.004461 0.000578
# 3 -0.005863 0.003587 0.035144 0.023442 -0.007047 -0.005063
# 4 -0.001768 0.002914 0.023442 0.080212 0.002409 -0.029536
# 5 -0.008880 0.004461 -0.007047 0.002409 0.065661 0.011413
# 6 -0.004290 0.000578 -0.005063 -0.029536 0.011413 0.043668
#
#
# Mechanical properties :
#
#
# Convention : Reuss Voigt Hill
#
# Bulk Modulus (GPa) = 14.44650 17.18195 15.81423
# Shear Modulus (GPa) = 17.15144 25.78679 21.46912
#
# Velocity S-wave (km/s) = 2.89473 3.54942 3.23866
# Velocity P-wave (km/s) = 4.26973 5.01918 4.65955
#
# Compressibility (1/GPa) = 0.06922091
#
# Stress axis : x y z
#
# Youngs Moduli (GPa) = 41.70925 66.91491 28.45457
#
# Poissons Ratio (x) = 0.00974 0.16682
# Poissons Ratio (y) = 0.00607 -0.10206
# Poissons Ratio (z) = 0.24452 -0.24000
#
# Static dielectric constant tensor:
#      x y z
#    x 1.740570 0.020130 0.010140 
#    y 0.020130 1.748150 0.014330 
#    z 0.010140 0.014330 1.706840 
# 
# From -- ./inp_files/536139.got.cif
#   From: 2010.05.17/outbox.cif.g08.bks.cpg/sg2_269_cif.got.tgz:536139.got - 2010.06.03 11:33:40.
