data_PCOD9093708
_publ_section_title
;
Structure prediction by ZEFSAII (Michael W. Deem and Ramdas Pophale) SiO2 
 PCOD9093708
Probable space group: P -1
;
_chemical_formula_sum "Si O2"
_cell_formula_units_Z 16
_cell_length_a 11.432927
_cell_length_b 17.990906
_cell_length_c 15.622763
_cell_angle_alpha 23.473818
_cell_angle_beta 38.832548
_cell_angle_gamma 52.137078
_cell_volume 734.442358
_symmetry_space_group_name_H-M "P -1"
_symmetry_group_IT_number 2
_symmetry_cell_setting 'triclinic'
loop_
_space_group_symop_operation_xyz
x,y,z
-x,-y,-z
loop_
_atom_site_type_symbol
_atom_site_label
_atom_site_fract_x
_atom_site_fract_y
_atom_site_fract_z
Si Si1 0.252796 0.705481 0.397488
Si Si2 0.703370 0.237384 0.955120
Si Si3 0.077640 0.424024 0.408151
Si Si4 0.224437 0.343833 0.883502
Si Si5 0.337057 0.975314 0.230221
Si Si6 0.535780 0.503695 0.236529
Si Si7 0.236131 0.148198 0.696742
Si Si8 0.154451 0.656812 0.813513
O O1 0.298973 0.504460 0.593868
O O2 0.031554 0.634681 0.558012
O O3 0.279940 0.800825 0.375529
O O4 0.422654 0.882234 0.058991
O O5 0.799887 0.343555 0.878147
O O6 0.529916 0.317484 0.945111
O O7 0.884567 0.337784 0.675492
O O8 0.652590 0.998608 0.235452
O O9 0.224525 0.308145 0.464799
O O10 0.355125 0.438350 0.795394
O O11 0.235804 0.127369 0.097075
O O12 0.991697 0.315543 0.061534
O O13 0.263655 0.866081 0.477313
O O14 0.334846 0.291026 0.571850
O O15 0.686989 0.445731 0.150088
O O16 0.000000 0.000000 0.000000
O O17 0.000000 0.500000 0.000000
#
# Coordination Sequence:
#
# PCOD9093708 Si02
#       8
#     2   2   2   2   2   2   2   2
#     4  11  23  37  57  91 130 152 190 244 306 355
#     4   9  18  34  54  81 113 153 195 239 297 342
#     4   9  19  34  52  83 119 151 189 241 295 351
#     4  11  23  40  60  88 124 162 197 238 294 361
#     4  11  23  37  58  89 121 164 196 238 299 354
#     4  10  20  33  56  84 116 148 197 250 283 338
#     4   9  19  31  53  80 112 148 192 243 290 338
#     4  10  21  41  58  83 123 158 206 243 280 350
#
# _framework density 21.785236999999999
#
# number of rings (size 3 to 8) (size 9 to 14) (size 15 to 20)
#    0.000    2.000    2.500    2.250    5.250    1.000 
#    0.000    0.000    0.000    3.000    0.000    5.250 
#    0.000    0.000    0.000    0.000    0.000    0.000 
#
# Total GULP energy -89264.564398 kJ/mol
# GULP energy per Si atom -5579.035275 kJ/mol
# Density = 2.173565 g / cm^3
# Si number density = 21.785237 Si / 1000 Ang^3
#
#
#
# Elastic Constant Matrix: (Units=GPa)
#
#
# Indices 1 2 3 4 5 6 
#
# 1 71.5506 20.5417 31.6634 -6.4652 -2.8167 -21.2521
# 2 20.5417 86.4065 33.7918 -28.4639 2.8512 -28.3347
# 3 31.6634 33.7918 79.0476 -18.1663 7.7638 -3.9638
# 4 -6.4652 -28.4639 -18.1663 37.1855 -9.3950 10.9189
# 5 -2.8167 2.8512 7.7638 -9.3950 18.7985 -6.2413
# 6 -21.2521 -28.3347 -3.9638 10.9189 -6.2413 29.8549
#
#
#
# Elastic Compliance Matrix: (Units=1/GPa)
#
#
# Indices 1 2 3 4 5 6 
#
# 1 0.027864 0.008440 -0.015154 -0.000048 0.019034 0.029831
# 2 0.008440 0.027934 -0.012772 0.012439 0.018529 0.030148
# 3 -0.015154 -0.012772 0.025289 0.002620 -0.017492 -0.024166
# 4 -0.000048 0.012439 0.002620 0.042146 0.018261 0.000523
# 5 0.019034 0.018529 -0.017492 0.018261 0.082675 0.039417
# 6 0.029831 0.030148 -0.024166 0.000523 0.039417 0.088184
#
#
# Mechanical properties :
#
#
# Convention : Reuss Voigt Hill
#
# Bulk Modulus (GPa) = 23.74383 45.44428 34.59405
# Shear Modulus (GPa) = 14.40498 27.23497 20.81997
#
# Velocity S-wave (km/s) = 2.57422 3.53959 3.09478
# Velocity P-wave (km/s) = 4.44502 6.13273 5.35577
#
# Compressibility (1/GPa) = 0.04211620
#
# Stress axis : x y z
#
# Youngs Moduli (GPa) = 35.88796 35.79863 39.54307
#
# Poissons Ratio (x) = -0.30215 0.59925
# Poissons Ratio (y) = -0.30291 0.50503
# Poissons Ratio (z) = 0.54386 0.45721
#
# Static dielectric constant tensor:
#      x y z
#    x 1.829760 -0.026760 -0.021090 
#    y -0.026760 1.841220 0.009320 
#    z -0.021090 0.009320 1.809160 
# 
# From -- ./inp_files/570532.got.cif
#   From: 2010.05.17/outbox.cif.g08.bks.cpg/sg2_286_cif.got.tgz:570532.got - 2010.06.03 11:33:40.
