data_PCOD9093739
_publ_section_title
;
Structure prediction by ZEFSAII (Michael W. Deem and Ramdas Pophale) SiO2 
 PCOD9093739
Probable space group: P -1
;
_chemical_formula_sum "Si O2"
_cell_formula_units_Z 16
_cell_length_a 17.982084
_cell_length_b 15.611920
_cell_length_c 6.872547
_cell_angle_alpha 60.434797
_cell_angle_beta 104.306504
_cell_angle_gamma 153.153413
_cell_volume 659.934142
_symmetry_space_group_name_H-M "P -1"
_symmetry_group_IT_number 2
_symmetry_cell_setting 'triclinic'
loop_
_space_group_symop_operation_xyz
x,y,z
-x,-y,-z
loop_
_atom_site_type_symbol
_atom_site_label
_atom_site_fract_x
_atom_site_fract_y
_atom_site_fract_z
Si Si1 0.216574 0.360419 0.293628
Si Si2 0.009491 0.768774 0.947407
Si Si3 0.214037 0.150449 0.391827
Si Si4 0.614325 0.819146 0.728133
Si Si5 0.677389 0.216230 0.722968
Si Si6 0.013078 0.622812 0.780956
Si Si7 0.429754 0.702125 0.413520
Si Si8 0.715813 0.044398 0.885959
O O1 0.300541 0.352864 0.296363
O O2 0.298624 0.517161 0.354945
O O3 0.159066 0.350744 0.066031
O O4 0.002953 0.084333 0.544912
O O5 0.949892 0.620347 0.913488
O O6 0.188165 0.042158 0.674776
O O7 0.095586 0.801864 0.137991
O O8 0.312581 0.205583 0.221581
O O9 0.462575 0.657747 0.643363
O O10 0.789856 0.100375 0.476089
O O11 0.572664 0.813507 0.919485
O O12 0.635978 0.275574 0.542422
O O13 0.710920 0.154026 0.695955
O O14 0.864684 0.448181 0.708597
O O15 0.500000 0.000000 0.000000
O O16 0.000000 0.500000 0.000000
O O17 0.630176 0.953151 0.150356
#
# Coordination Sequence:
#
# PCOD9093739 Si02
#       8
#     2   2   2   2   2   2   2   2
#     4   9  17  33  67  82 104 147 188 231 280 324
#     4   9  16  35  57  80 107 141 184 225 270 325
#     4   8  17  37  59  86 102 146 194 222 280 327
#     4  11  23  37  56  81 117 148 183 227 270 337
#     4  10  20  33  57  81 108 145 182 228 270 323
#     4  11  17  35  59  81 106 147 186 220 277 325
#     4  11  19  38  57  80 115 146 182 231 278 321
#     4  11  22  37  55  83 114 149 186 220 277 337
#
# _framework density 24.244844000000001
#
# number of rings (size 3 to 8) (size 9 to 14) (size 15 to 20)
#    0.750    1.250    5.000    0.750    0.000    1.500 
#    0.000    3.750    0.000    0.000    0.000    0.000 
#    0.000    0.000    0.000    0.000    0.000    0.000 
#
# Total GULP energy -89083.416617 kJ/mol
# GULP energy per Si atom -5567.713539 kJ/mol
# Density = 2.418966 g / cm^3
# Si number density = 24.244844 Si / 1000 Ang^3
#
#
#
# Elastic Constant Matrix: (Units=GPa)
#
#
# Indices 1 2 3 4 5 6 
#
# 1 179.2301 31.1820 29.3570 10.5165 25.5304 -28.6507
# 2 31.1820 84.1610 17.6158 -1.0077 10.7039 -8.0704
# 3 29.3570 17.6158 38.0522 -2.4328 2.0042 -8.5671
# 4 10.5165 -1.0077 -2.4328 31.3897 -4.4692 7.9938
# 5 25.5304 10.7039 2.0042 -4.4692 27.1823 -6.4995
# 6 -28.6507 -8.0704 -8.5671 7.9938 -6.4995 37.1999
#
#
#
# Elastic Compliance Matrix: (Units=1/GPa)
#
#
# Indices 1 2 3 4 5 6 
#
# 1 0.008799 -0.000807 -0.005191 -0.005776 -0.007226 0.005385
# 2 -0.000807 0.013920 -0.005517 -0.000440 -0.004275 0.000475
# 3 -0.005191 -0.005517 0.033389 0.004331 0.005920 0.002598
# 4 -0.005776 -0.000440 0.004331 0.037988 0.009106 -0.010119
# 5 -0.007226 -0.004275 0.005920 0.009106 0.046571 0.001051
# 6 0.005385 0.000475 0.002598 -0.010119 0.001051 0.034089
#
#
# Mechanical properties :
#
#
# Convention : Reuss Voigt Hill
#
# Bulk Modulus (GPa) = 30.23286 50.86144 40.54715
# Shear Modulus (GPa) = 23.94496 34.04026 28.99261
#
# Velocity S-wave (km/s) = 3.14607 3.75109 3.46182
# Velocity P-wave (km/s) = 5.06891 6.30751 5.72183
#
# Compressibility (1/GPa) = 0.03307659
#
# Stress axis : x y z
#
# Youngs Moduli (GPa) = 113.64616 71.83944 29.95021
#
# Poissons Ratio (x) = 0.05800 0.15548
# Poissons Ratio (y) = 0.09175 0.16524
# Poissons Ratio (z) = 0.58995 0.39635
#
# Static dielectric constant tensor:
#      x y z
#    x 2.020260 0.083600 0.010440 
#    y 0.083600 1.933030 -0.044930 
#    z 0.010440 -0.044930 2.141420 
# 
# From -- ./inp_files/334819.got.cif
#   From: 2010.05.17/outbox.cif.g08.bks.cpg/sg2_168_cif.got.tgz:334819.got - 2010.06.03 11:33:40.
