data_PCOD9093052
_publ_section_title
;
Structure prediction by ZEFSAII (Michael W. Deem and Ramdas Pophale) SiO2 
 PCOD9093052
Probable space group: P -1
;
_chemical_formula_sum "Si O2"
_cell_formula_units_Z 16
_cell_length_a 12.563512
_cell_length_b 16.071320
_cell_length_c 10.888638
_cell_angle_alpha 62.473613
_cell_angle_beta 86.783244
_cell_angle_gamma 140.439854
_cell_volume 848.370732
_symmetry_space_group_name_H-M "P -1"
_symmetry_group_IT_number 2
_symmetry_cell_setting 'triclinic'
loop_
_space_group_symop_operation_xyz
x,y,z
-x,-y,-z
loop_
_atom_site_type_symbol
_atom_site_label
_atom_site_fract_x
_atom_site_fract_y
_atom_site_fract_z
Si Si1 0.824006 0.502664 0.187584
Si Si2 0.681662 0.642497 0.743214
Si Si3 0.105752 0.128157 0.783107
Si Si4 0.199267 0.666610 0.984772
Si Si5 0.797644 0.900460 0.728341
Si Si6 0.872628 0.596939 0.838282
Si Si7 0.405082 0.069102 0.386285
Si Si8 0.586954 0.474753 0.378723
O O1 0.605086 0.254428 0.349489
O O2 0.729943 0.499908 0.296779
O O3 0.077737 0.647742 0.091833
O O4 0.857353 0.580217 0.999403
O O5 0.681777 0.712832 0.811754
O O6 0.483137 0.515403 0.741296
O O7 0.714940 0.559261 0.825893
O O8 0.940570 0.875802 0.505758
O O9 0.327313 0.247795 0.618008
O O10 0.239806 0.331332 0.672059
O O11 0.876214 0.957816 0.824375
O O12 0.000000 0.000000 0.000000
O O13 0.207232 0.566517 0.100581
O O14 0.456867 0.888334 0.749311
O O15 0.000000 0.500000 0.000000
O O16 0.648027 0.873458 0.716743
O O17 0.153761 0.834515 0.618332
#
# Coordination Sequence:
#
# PCOD9093052 Si02
#       8
#     2   2   2   2   2   2   2   2
#     4  10  20  31  49  74 104 134 172 208 247 307
#     4   9  17  30  54  79 104 130 171 209 253 309
#     4  10  23  36  51  73 107 139 171 204 255 318
#     4   8  18  31  42  73 107 132 168 206 253 300
#     4   9  17  31  51  79 104 132 166 216 254 299
#     4   9  18  28  48  79 102 134 166 206 258 303
#     4   9  16  31  50  72 105 133 161 215 256 289
#     4  10  21  38  51  75 107 139 165 210 262 296
#
# _framework density 18.859680000000001
#
# number of rings (size 3 to 8) (size 9 to 14) (size 15 to 20)
#    0.000    3.000    1.250    0.000    3.500    7.000 
#    0.000    0.000    0.000    0.750    0.000   18.375 
#    0.000    0.000    0.000    0.000    0.000    0.000 
#
# Total GULP energy -89128.868692 kJ/mol
# GULP energy per Si atom -5570.554293 kJ/mol
# Density = 1.881675 g / cm^3
# Si number density = 18.859680 Si / 1000 Ang^3
#
#
#
# Elastic Constant Matrix: (Units=GPa)
#
#
# Indices 1 2 3 4 5 6 
#
# 1 86.6221 22.2725 30.0988 10.5769 -23.3957 -21.2585
# 2 22.2725 53.2602 14.5926 11.4665 -8.5877 0.2973
# 3 30.0988 14.5926 100.1252 0.4480 -22.4543 -10.6512
# 4 10.5769 11.4665 0.4480 19.5682 -0.3120 -6.6558
# 5 -23.3957 -8.5877 -22.4543 -0.3120 41.9620 8.2452
# 6 -21.2585 0.2973 -10.6512 -6.6558 8.2452 22.9235
#
#
#
# Elastic Compliance Matrix: (Units=1/GPa)
#
#
# Indices 1 2 3 4 5 6 
#
# 1 0.019060 -0.006269 -0.002067 -0.001600 0.005398 0.014390
# 2 -0.006269 0.026167 -0.002597 -0.016311 0.002933 -0.013151
# 3 -0.002067 -0.002597 0.012281 0.003556 0.004261 0.003323
# 4 -0.001600 -0.016311 0.003556 0.069062 -0.006272 0.022688
# 5 0.005398 0.002933 0.004261 -0.006272 0.030847 -0.005969
# 6 0.014390 -0.013151 0.003323 0.022688 -0.005969 0.067417
#
#
# Mechanical properties :
#
#
# Convention : Reuss Voigt Hill
#
# Bulk Modulus (GPa) = 28.05902 41.54837 34.80369
# Shear Modulus (GPa) = 19.33634 28.42698 23.88166
#
# Velocity S-wave (km/s) = 3.20546 3.88659 3.56235
# Velocity P-wave (km/s) = 5.34884 6.49761 5.95101
#
# Compressibility (1/GPa) = 0.03563917
#
# Stress axis : x y z
#
# Youngs Moduli (GPa) = 52.46719 38.21588 81.42928
#
# Poissons Ratio (x) = 0.23959 0.16834
# Poissons Ratio (y) = 0.32893 0.21150
# Poissons Ratio (z) = 0.10847 0.09926
#
# Static dielectric constant tensor:
#      x y z
#    x 1.714900 -0.004910 -0.018490 
#    y -0.004910 1.646780 -0.000160 
#    z -0.018490 -0.000160 1.735420 
# 
# From -- ./inp_files/432703.got.cif
#   From: 2010.05.17/outbox.cif.g08.bks.cpg/sg2_217_cif.got.tgz:432703.got - 2010.06.03 11:33:40.
