data_PCOD9093860
_publ_section_title
;
Structure prediction by ZEFSAII (Michael W. Deem and Ramdas Pophale) SiO2 
 PCOD9093860
Probable space group: P -1
;
_chemical_formula_sum "Si O2"
_cell_formula_units_Z 16
_cell_length_a 13.215324
_cell_length_b 12.271337
_cell_length_c 11.913098
_cell_angle_alpha 76.940305
_cell_angle_beta 55.861388
_cell_angle_gamma 31.414376
_cell_volume 675.126474
_symmetry_space_group_name_H-M "P -1"
_symmetry_group_IT_number 2
_symmetry_cell_setting 'triclinic'
loop_
_space_group_symop_operation_xyz
x,y,z
-x,-y,-z
loop_
_atom_site_type_symbol
_atom_site_label
_atom_site_fract_x
_atom_site_fract_y
_atom_site_fract_z
Si Si1 0.327468 0.391072 0.149652
Si Si2 0.249812 0.776693 0.031374
Si Si3 0.865978 0.890701 0.481931
Si Si4 0.099529 0.357511 0.357773
Si Si5 0.966915 0.257398 0.945860
Si Si6 0.500347 0.781860 0.575490
Si Si7 0.177817 0.706039 0.748603
Si Si8 0.743046 0.349533 0.537206
O O1 0.315608 0.267773 0.193191
O O2 0.082049 0.651666 0.316530
O O3 0.257490 0.484235 0.044325
O O4 0.599241 0.227591 0.069605
O O5 0.136273 0.785979 0.005783
O O6 0.500000 0.500000 0.000000
O O7 0.972370 0.047436 0.205396
O O8 0.790662 0.855518 0.626540
O O9 0.029230 0.852059 0.459188
O O10 0.622736 0.126873 0.494110
O O11 0.000000 0.500000 0.500000
O O12 0.800817 0.595645 0.424197
O O13 0.267053 0.026531 0.748891
O O14 0.934502 0.290736 0.091583
O O15 0.574737 0.599450 0.621576
O O16 0.507153 0.452517 0.633484
O O17 0.130201 0.718722 0.645493
#
# Coordination Sequence:
#
# PCOD9093860 Si02
#       8
#     2   2   2   2   2   2   2   2
#     4   9  19  34  55  91 116 146 197 246 291 350
#     4  10  20  35  56  86 122 150 191 239 302 352
#     4   9  19  36  60  82 116 158 193 247 292 346
#     4   9  19  33  57  92 119 147 197 253 296 344
#     4  10  20  33  59  86 117 151 188 246 300 343
#     4  10  20  38  61  86 120 156 198 246 299 345
#     4  11  22  37  57  89 120 160 193 246 293 359
#     4  10  22  40  57  86 125 156 203 235 295 362
#
# _framework density 23.699262999999998
#
# number of rings (size 3 to 8) (size 9 to 14) (size 15 to 20)
#    0.000    2.250    1.250    1.125    5.250    5.500 
#    4.500    1.250    0.000    6.000    0.000    0.000 
#    0.000    0.000    0.000    0.000    0.000    0.000 
#
# Total GULP energy -89224.802669 kJ/mol
# GULP energy per Si atom -5576.550167 kJ/mol
# Density = 2.364532 g / cm^3
# Si number density = 23.699263 Si / 1000 Ang^3
#
#
#
# Elastic Constant Matrix: (Units=GPa)
#
#
# Indices 1 2 3 4 5 6 
#
# 1 65.6137 28.2385 24.7763 -1.1286 -13.0513 -30.3275
# 2 28.2385 97.7497 28.3147 -11.0148 1.2903 -32.1160
# 3 24.7763 28.3147 79.0224 -22.8892 -6.8092 -13.3093
# 4 -1.1286 -11.0148 -22.8892 32.0531 -6.3910 2.7289
# 5 -13.0513 1.2903 -6.8092 -6.3910 49.3540 -5.8512
# 6 -30.3275 -32.1160 -13.3093 2.7289 -5.8512 35.1097
#
#
#
# Elastic Compliance Matrix: (Units=1/GPa)
#
#
# Indices 1 2 3 4 5 6 
#
# 1 0.032287 0.001390 -0.005568 -0.002676 0.010833 0.029063
# 2 0.001390 0.015675 -0.002702 0.002593 0.001650 0.014588
# 3 -0.005568 -0.002702 0.019417 0.013370 0.002953 -0.000468
# 4 -0.002676 0.002593 0.013370 0.042675 0.006947 0.002970
# 5 0.010833 0.001650 0.002953 0.006947 0.026266 0.015823
# 6 0.029063 0.014588 -0.000468 0.002970 0.015823 0.069160
#
#
# Mechanical properties :
#
#
# Convention : Reuss Voigt Hill
#
# Bulk Modulus (GPa) = 18.65021 45.00499 31.82760
# Shear Modulus (GPa) = 21.08705 34.04046 27.56376
#
# Velocity S-wave (km/s) = 2.98615 3.79403 3.41407
# Velocity P-wave (km/s) = 4.44703 6.18257 5.38518
#
# Compressibility (1/GPa) = 0.05361871
#
# Stress axis : x y z
#
# Youngs Moduli (GPa) = 30.97197 63.79724 51.50197
#
# Poissons Ratio (x) = -0.08867 0.28676
# Poissons Ratio (y) = -0.04305 0.13916
# Poissons Ratio (z) = 0.17245 0.17238
#
# Static dielectric constant tensor:
#      x y z
#    x 1.928440 0.017570 -0.042560 
#    y 0.017570 1.976410 -0.010900 
#    z -0.042560 -0.010900 2.024370 
# 
# From -- ./inp_files/454740.got.cif
#   From: 2010.05.17/outbox.cif.g08.bks.cpg/sg2_228_cif.got.tgz:454740.got - 2010.06.03 11:33:40.
