data_PCOD9093582
_publ_section_title
;
Structure prediction by ZEFSAII (Michael W. Deem and Ramdas Pophale) SiO2 
 PCOD9093582
Probable space group: P -1
;
_chemical_formula_sum "Si O2"
_cell_formula_units_Z 16
_cell_length_a 11.765185
_cell_length_b 15.229164
_cell_length_c 14.716504
_cell_angle_alpha 139.773751
_cell_angle_beta 151.479583
_cell_angle_gamma 50.195471
_cell_volume 809.040967
_symmetry_space_group_name_H-M "P -1"
_symmetry_group_IT_number 2
_symmetry_cell_setting 'triclinic'
loop_
_space_group_symop_operation_xyz
x,y,z
-x,-y,-z
loop_
_atom_site_type_symbol
_atom_site_label
_atom_site_fract_x
_atom_site_fract_y
_atom_site_fract_z
Si Si1 0.229222 0.925213 0.131035
Si Si2 0.861663 0.311692 0.804116
Si Si3 0.629745 0.346922 0.034300
Si Si4 0.761036 0.466125 0.686266
Si Si5 0.838225 0.754775 0.488543
Si Si6 0.591133 0.586962 0.339359
Si Si7 0.950348 0.475448 0.630558
Si Si8 0.760987 0.059057 0.644434
O O1 0.211140 0.872706 0.181901
O O2 0.481734 0.021190 0.390410
O O3 0.258766 0.796189 0.984664
O O4 0.000000 0.000000 0.000000
O O5 0.772118 0.338433 0.660820
O O6 0.662689 0.368651 0.775283
O O7 0.877018 0.158480 0.727664
O O8 0.109599 0.404030 0.066387
O O9 0.588676 0.450096 0.168438
O O10 0.808891 0.434024 0.159992
O O11 0.380701 0.298964 0.773945
O O12 0.500000 0.500000 0.500000
O O13 0.913850 0.448774 0.689280
O O14 0.740636 0.704828 0.478900
O O15 0.047599 0.666589 0.534925
O O16 0.871681 0.915944 0.624957
O O17 0.737303 0.556846 0.507984
#
# Coordination Sequence:
#
# PCOD9093582 Si02
#       8
#     2   2   2   2   2   2   2   2
#     4  10  21  32  55  82 124 161 184 223 281 361
#     4  11  23  40  63  85 116 151 191 253 281 341
#     4  10  20  33  53  89 116 152 189 226 295 340
#     4  11  23  42  62  87 108 148 205 243 294 330
#     4  10  20  36  56  85 123 152 184 229 288 361
#     4  11  20  33  59  88 118 148 190 237 289 341
#     4  11  21  34  59  85 115 152 196 243 279 337
#     4  10  22  38  53  85 121 153 191 227 292 344
#
# _framework density 19.776501
#
# number of rings (size 3 to 8) (size 9 to 14) (size 15 to 20)
#    0.000    1.500    1.250    7.500    5.250    1.000 
#    0.000    0.625    0.000    0.750    0.000    0.000 
#    0.000    0.000    0.000    0.000    0.000    0.000 
#
# Total GULP energy -89363.321990 kJ/mol
# GULP energy per Si atom -5585.207624 kJ/mol
# Density = 1.973149 g / cm^3
# Si number density = 19.776501 Si / 1000 Ang^3
#
#
#
# Elastic Constant Matrix: (Units=GPa)
#
#
# Indices 1 2 3 4 5 6 
#
# 1 67.9540 12.4479 4.4031 4.4408 -10.5176 18.7757
# 2 12.4479 124.6879 22.5325 6.4984 -1.0949 12.1291
# 3 4.4031 22.5325 42.0681 -2.4971 -4.2949 8.9003
# 4 4.4408 6.4984 -2.4971 33.1829 -4.9458 -1.3127
# 5 -10.5176 -1.0949 -4.2949 -4.9458 19.3342 -1.6624
# 6 18.7757 12.1291 8.9003 -1.3127 -1.6624 41.3108
#
#
#
# Elastic Compliance Matrix: (Units=1/GPa)
#
#
# Indices 1 2 3 4 5 6 
#
# 1 0.018587 -0.001164 0.001270 -0.001087 0.009358 -0.008037
# 2 -0.001164 0.009252 -0.004898 -0.002360 -0.001912 -0.001284
# 3 0.001270 -0.004898 0.028245 0.003805 0.007247 -0.004812
# 4 -0.001087 -0.002360 0.003805 0.032373 0.008551 0.001740
# 5 0.009358 -0.001912 0.007247 0.008551 0.060282 -0.002556
# 6 -0.008037 -0.001284 -0.004812 0.001740 -0.002556 0.029226
#
#
# Mechanical properties :
#
#
# Convention : Reuss Voigt Hill
#
# Bulk Modulus (GPa) = 21.50535 34.83076 28.16805
# Shear Modulus (GPa) = 24.62444 31.78735 28.20590
#
# Velocity S-wave (km/s) = 3.53248 4.01350 3.78065
# Velocity P-wave (km/s) = 5.24744 6.25524 5.77337
#
# Compressibility (1/GPa) = 0.04650007
#
# Stress axis : x y z
#
# Youngs Moduli (GPa) = 53.80087 108.07958 35.40436
#
# Poissons Ratio (x) = 0.12584 -0.04495
# Poissons Ratio (y) = 0.06264 0.17339
# Poissons Ratio (z) = -0.06830 0.52932
#
# Static dielectric constant tensor:
#      x y z
#    x 1.703430 -0.019510 -0.016040 
#    y -0.019510 1.757390 -0.010480 
#    z -0.016040 -0.010480 1.726610 
# 
# From -- ./inp_files/521759.got.cif
#   From: 2010.05.17/outbox.cif.g08.bks.cpg/sg2_261_cif.got.tgz:521759.got - 2010.06.03 11:33:40.
