data_PCOD9093223
_publ_section_title
;
Structure prediction by ZEFSAII (Michael W. Deem and Ramdas Pophale) SiO2 
 PCOD9093223
Probable space group: P -1
;
_chemical_formula_sum "Si O2"
_cell_formula_units_Z 16
_cell_length_a 19.516297
_cell_length_b 7.032218
_cell_length_c 10.148673
_cell_angle_alpha 44.116451
_cell_angle_beta 131.408348
_cell_angle_gamma 144.988837
_cell_volume 546.803714
_symmetry_space_group_name_H-M "P -1"
_symmetry_group_IT_number 2
_symmetry_cell_setting 'triclinic'
loop_
_space_group_symop_operation_xyz
x,y,z
-x,-y,-z
loop_
_atom_site_type_symbol
_atom_site_label
_atom_site_fract_x
_atom_site_fract_y
_atom_site_fract_z
Si Si1 0.524902 0.246631 0.029598
Si Si2 0.274883 0.958396 0.841515
Si Si3 0.970983 0.632701 0.274155
Si Si4 0.272105 0.903562 0.357326
Si Si5 0.778545 0.677714 0.228065
Si Si6 0.980286 0.703758 0.720418
Si Si7 0.769353 0.647102 0.752135
Si Si8 0.475749 0.715269 0.456767
O O1 0.668102 0.579376 0.051639
O O2 0.501587 0.029721 0.241383
O O3 0.500000 0.000000 0.000000
O O4 0.420305 0.260301 0.862150
O O5 0.176048 0.623876 0.783725
O O6 0.230055 0.162157 0.727965
O O7 0.263826 0.720058 0.064257
O O8 0.000000 0.500000 0.500000
O O9 0.994936 0.516192 0.226407
O O10 0.085095 0.060317 0.218957
O O11 0.243397 0.670109 0.571925
O O12 0.161150 0.597417 0.274428
O O13 0.260322 0.192375 0.247816
O O14 0.407996 0.083862 0.399441
O O15 0.912456 0.022517 0.175959
O O16 0.000000 0.000000 0.500000
O O17 0.668904 0.554790 0.563432
O O18 0.500000 0.500000 0.500000
#
# Coordination Sequence:
#
# PCOD9093223 Si02
#       8
#     2   2   2   2   2   2   2   2
#     4  10  20  32  51  79 106 133 173 222 262 302
#     4  10  20  33  52  77 106 140 174 216 266 309
#     4  10  20  32  51  79 106 133 173 222 262 302
#     4   8  14  27  50  77  98 132 180 210 232 297
#     4   9  17  31  50  76 106 140 177 212 255 314
#     4   8  15  28  48  73  98 132 172 208 245 298
#     4   9  17  31  50  76 106 140 177 212 255 314
#     4   8  15  28  48  73  98 132 172 208 245 298
#
# _framework density 29.260956
#
# number of rings (size 3 to 8) (size 9 to 14) (size 15 to 20)
#    0.000    3.000    0.000    0.750    0.000    6.000 
#    0.000    0.000    0.000   19.500    0.000   98.000 
#    0.000    0.000    0.000    0.000    0.000    0.000 
#
# Total GULP energy -89438.138969 kJ/mol
# GULP energy per Si atom -5589.883686 kJ/mol
# Density = 2.919436 g / cm^3
# Si number density = 29.260956 Si / 1000 Ang^3
#
#
#
# Elastic Constant Matrix: (Units=GPa)
#
#
# Indices 1 2 3 4 5 6 
#
# 1 89.8141 53.7422 32.9232 1.6931 8.9678 23.0465
# 2 53.7422 265.3307 41.3189 54.2276 4.1278 42.6095
# 3 32.9232 41.3189 108.0709 22.9512 16.2375 16.6624
# 4 1.6931 54.2276 22.9512 68.9757 4.7754 21.4685
# 5 8.9678 4.1278 16.2375 4.7754 33.5512 8.4010
# 6 23.0465 42.6095 16.6624 21.4685 8.4010 52.9580
#
#
#
# Elastic Compliance Matrix: (Units=1/GPa)
#
#
# Indices 1 2 3 4 5 6 
#
# 1 0.015422 -0.002659 -0.003668 0.004605 -0.001408 -0.005062
# 2 -0.002659 0.005361 -0.000390 -0.003547 0.001192 -0.001785
# 3 -0.003668 -0.000390 0.011834 -0.003309 -0.004280 0.000207
# 4 0.004605 -0.003547 -0.003309 0.020251 -0.000514 -0.006237
# 5 -0.001408 0.001192 -0.004280 -0.000514 0.033195 -0.004057
# 6 -0.005062 -0.001785 0.000207 -0.006237 -0.004057 0.025629
#
#
# Mechanical properties :
#
#
# Convention : Reuss Voigt Hill
#
# Bulk Modulus (GPa) = 52.13009 79.90936 66.01973
# Shear Modulus (GPa) = 38.01688 53.44574 45.73131
#
# Velocity S-wave (km/s) = 3.60840 4.27842 3.95761
# Velocity P-wave (km/s) = 5.93422 7.19548 6.59507
#
# Compressibility (1/GPa) = 0.01918278
#
# Stress axis : x y z
#
# Youngs Moduli (GPa) = 64.84121 186.52489 84.50568
#
# Poissons Ratio (x) = 0.49598 0.30994
# Poissons Ratio (y) = 0.17242 0.03299
# Poissons Ratio (z) = 0.23782 0.07281
#
# Static dielectric constant tensor:
#      x y z
#    x 2.577110 0.306130 0.177280 
#    y 0.306130 2.512540 0.124150 
#    z 0.177280 0.124150 2.296620 
# 
# From -- ./inp_files/542359.got.cif
#   From: 2010.05.17/outbox.cif.g08.bks.cpg/sg2_272_cif.got.tgz:542359.got - 2010.06.03 11:33:40.
