data_PCOD9093704
_publ_section_title
;
Structure prediction by ZEFSAII (Michael W. Deem and Ramdas Pophale) SiO2 
 PCOD9093704
Probable space group: P -1
;
_chemical_formula_sum "Si O2"
_cell_formula_units_Z 14
_cell_length_a 9.680567
_cell_length_b 5.276508
_cell_length_c 14.290754
_cell_angle_alpha 103.132501
_cell_angle_beta 134.236756
_cell_angle_gamma 69.965847
_cell_volume 491.271227
_symmetry_space_group_name_H-M "P -1"
_symmetry_group_IT_number 2
_symmetry_cell_setting 'triclinic'
loop_
_space_group_symop_operation_xyz
x,y,z
-x,-y,-z
loop_
_atom_site_type_symbol
_atom_site_label
_atom_site_fract_x
_atom_site_fract_y
_atom_site_fract_z
Si Si1 0.242650 0.263378 0.055857
Si Si2 0.039592 0.413014 0.670463
Si Si3 0.145916 0.724933 0.893201
Si Si4 0.673325 0.450128 0.717247
Si Si5 0.282188 0.389855 0.598105
Si Si6 0.361287 0.900208 0.852929
Si Si7 0.649315 0.119689 0.517482
O O1 0.189696 0.414987 0.142669
O O2 0.486586 0.160483 0.167113
O O3 0.211962 0.492915 0.981467
O O4 0.145318 0.016266 0.963567
O O5 0.979492 0.638441 0.743507
O O6 0.179329 0.468800 0.655243
O O7 0.840155 0.399991 0.519554
O O8 0.168400 0.132536 0.751537
O O9 0.301142 0.690699 0.876943
O O10 0.521947 0.339280 0.704119
O O11 0.768518 0.235103 0.664236
O O12 0.513484 0.667313 0.601263
O O13 0.236439 0.117787 0.515874
O O14 0.500000 0.000000 0.000000
O O15 0.500000 0.000000 0.500000
#
# Coordination Sequence:
#
# PCOD9093704 Si02
#       7
#     2   2   2   2   2   2   2
#     4  11  23  34  64  90 126 159 215 267 313 368
#     4  11  22  39  58  96 136 175 205 249 321 395
#     4  11  22  38  56  92 126 171 206 262 309 372
#     4  10  21  38  65  94 120 160 219 272 320 369
#     4  10  23  38  63  91 132 170 205 260 320 391
#     4  10  20  33  56  83 125 167 211 252 304 363
#     4   9  20  40  62  91 119 161 215 274 322 363
#
# _framework density 28.497494
#
# number of rings (size 3 to 8) (size 9 to 14) (size 15 to 20)
#    0.000    1.714    2.857    2.143   10.000    1.143 
#    0.000    3.571    0.000    1.714    0.000    0.000 
#    0.000    0.000    0.000    0.000    0.000    0.000 
#
# Total GULP energy -78260.106367 kJ/mol
# GULP energy per Si atom -5590.007598 kJ/mol
# Density = 2.843263 g / cm^3
# Si number density = 28.497494 Si / 1000 Ang^3
#
#
#
# Elastic Constant Matrix: (Units=GPa)
#
#
# Indices 1 2 3 4 5 6 
#
# 1 99.3648 38.5030 46.7977 7.6421 0.4327 -10.6774
# 2 38.5030 182.5920 81.2317 24.2001 -22.5215 -13.4628
# 3 46.7977 81.2317 175.4709 31.1069 -31.7606 -13.1523
# 4 7.6421 24.2001 31.1069 73.3961 -14.1878 -12.5922
# 5 0.4327 -22.5215 -31.7606 -14.1878 52.0775 12.2173
# 6 -10.6774 -13.4628 -13.1523 -12.5922 12.2173 43.7981
#
#
#
# Elastic Compliance Matrix: (Units=1/GPa)
#
#
# Indices 1 2 3 4 5 6 
#
# 1 0.012335 -0.001491 -0.003027 0.000335 -0.003113 0.002605
# 2 -0.001491 0.007219 -0.002535 -0.000822 0.001244 0.000511
# 3 -0.003027 -0.002535 0.008665 -0.001871 0.003826 -0.000520
# 4 0.000335 -0.000822 -0.001871 0.015588 0.001998 0.003191
# 5 -0.003113 0.001244 0.003826 0.001998 0.023891 -0.005317
# 6 0.002605 0.000511 -0.000520 0.003191 -0.005317 0.025869
#
#
# Mechanical properties :
#
#
# Convention : Reuss Voigt Hill
#
# Bulk Modulus (GPa) = 70.85680 87.83247 79.34464
# Shear Modulus (GPa) = 44.49312 53.24735 48.87024
#
# Velocity S-wave (km/s) = 3.95561 4.32730 4.14562
# Velocity P-wave (km/s) = 6.76614 7.47364 7.12868
#
# Compressibility (1/GPa) = 0.01411297
#
# Stress axis : x y z
#
# Youngs Moduli (GPa) = 81.07034 138.52406 115.40588
#
# Poissons Ratio (x) = 0.20649 0.34937
# Poissons Ratio (y) = 0.12085 0.29256
# Poissons Ratio (z) = 0.24543 0.35117
#
# Static dielectric constant tensor:
#      x y z
#    x 2.534570 0.056750 0.065350 
#    y 0.056750 2.417020 0.155480 
#    z 0.065350 0.155480 2.244130 
# 
# From -- ./inp_files/511112.got.cif
#   From: 2010.05.17/outbox.cif.g08.bks.cpg/sg2_256_cif.got.tgz:511112.got - 2010.06.03 11:33:40.
