data_PCOD9093854
_publ_section_title
;
Structure prediction by ZEFSAII (Michael W. Deem and Ramdas Pophale) SiO2 
 PCOD9093854
Probable space group: P -1
;
_chemical_formula_sum "Si O2"
_cell_formula_units_Z 14
_cell_length_a 10.627620
_cell_length_b 8.914388
_cell_length_c 14.995969
_cell_angle_alpha 42.415402
_cell_angle_beta 133.788860
_cell_angle_gamma 130.334401
_cell_volume 664.084905
_symmetry_space_group_name_H-M "P -1"
_symmetry_group_IT_number 2
_symmetry_cell_setting 'triclinic'
loop_
_space_group_symop_operation_xyz
x,y,z
-x,-y,-z
loop_
_atom_site_type_symbol
_atom_site_label
_atom_site_fract_x
_atom_site_fract_y
_atom_site_fract_z
Si Si1 0.777884 0.535834 0.666413
Si Si2 0.867863 0.165874 0.358969
Si Si3 0.355102 0.161138 0.301857
Si Si4 0.935486 0.232626 0.559310
Si Si5 0.323622 0.638887 0.110000
Si Si6 0.279924 0.036307 0.796383
Si Si7 0.509015 0.199405 0.549720
O O1 0.750654 0.418658 0.801253
O O2 0.667423 0.377141 0.603285
O O3 0.675047 0.740533 0.534699
O O4 0.988951 0.613372 0.712446
O O5 0.710443 0.056021 0.259433
O O6 0.834243 0.221079 0.419604
O O7 0.000000 0.000000 0.500000
O O8 0.299834 0.395065 0.154813
O O9 0.497686 0.237909 0.420639
O O10 0.443616 0.045477 0.318322
O O11 0.190801 0.953326 0.353399
O O12 0.000000 0.500000 0.500000
O O13 0.115264 0.149453 0.669584
O O14 0.535595 0.778875 0.164884
O O15 0.240077 0.814488 0.938605
#
# Coordination Sequence:
#
# PCOD9093854 Si02
#       7
#     2   2   2   2   2   2   2
#     4  10  20  33  59  85 111 158 186 240 284 343
#     4  10  21  35  56  87 114 149 189 237 289 336
#     4  10  21  35  57  87 113 161 182 238 293 336
#     4  11  24  37  60  91 121 146 185 246 299 337
#     4  10  22  39  60  82 114 161 197 233 283 343
#     4  10  23  40  57  84 118 154 198 238 281 349
#     4   9  19  31  56  87 115 139 198 232 282 342
#
# _framework density 21.081641999999999
#
# number of rings (size 3 to 8) (size 9 to 14) (size 15 to 20)
#    0.000    2.000    0.000    4.286   20.000    2.286 
#    0.000    1.429    0.000    6.857    0.000    0.000 
#    0.000    0.000    0.000    0.000    0.000    0.000 
#
# Total GULP energy -78101.319851 kJ/mol
# GULP energy per Si atom -5578.665704 kJ/mol
# Density = 2.103366 g / cm^3
# Si number density = 21.081642 Si / 1000 Ang^3
#
#
#
# Elastic Constant Matrix: (Units=GPa)
#
#
# Indices 1 2 3 4 5 6 
#
# 1 80.0226 45.1153 22.3981 -13.3803 0.2103 -4.2587
# 2 45.1153 139.7188 43.4009 -20.4641 2.3420 -30.1038
# 3 22.3981 43.4009 90.9136 -20.7548 -8.4627 -6.8788
# 4 -13.3803 -20.4641 -20.7548 34.8218 2.5619 -1.4300
# 5 0.2103 2.3420 -8.4627 2.5619 22.4503 -5.6774
# 6 -4.2587 -30.1038 -6.8788 -1.4300 -5.6774 34.0176
#
#
#
# Elastic Compliance Matrix: (Units=1/GPa)
#
#
# Indices 1 2 3 4 5 6 
#
# 1 0.015913 -0.004950 -0.001322 0.002386 -0.001096 -0.002738
# 2 -0.004950 0.012432 -0.003093 0.003994 -0.000378 0.009862
# 3 -0.001322 -0.003093 0.014818 0.006151 0.005542 0.001277
# 4 0.002386 0.003994 0.006151 0.035957 -0.000582 0.006491
# 5 -0.001096 -0.000378 0.005542 -0.000582 0.048973 0.008798
# 6 -0.002738 0.009862 0.001277 0.006491 0.008798 0.039780
#
#
# Mechanical properties :
#
#
# Convention : Reuss Voigt Hill
#
# Bulk Modulus (GPa) = 40.92551 59.16484 50.04517
# Shear Modulus (GPa) = 25.67407 31.57398 28.62403
#
# Velocity S-wave (km/s) = 3.49354 3.87421 3.68879
# Velocity P-wave (km/s) = 5.97730 6.93817 6.47558
#
# Compressibility (1/GPa) = 0.02443464
#
# Stress axis : x y z
#
# Youngs Moduli (GPa) = 62.84078 80.43520 67.48327
#
# Poissons Ratio (x) = 0.39814 0.08921
# Poissons Ratio (y) = 0.31105 0.20872
# Poissons Ratio (z) = 0.08307 0.24878
#
# Static dielectric constant tensor:
#      x y z
#    x 1.867000 0.044570 -0.029550 
#    y 0.044570 1.818190 -0.038360 
#    z -0.029550 -0.038360 1.784080 
# 
# From -- ./inp_files/172296.got.cif
#   From: 2010.05.17/outbox.cif.g08.bks.cpg/sg2_87_cif.got.tgz:172296.got - 2010.06.03 11:33:40.
