data_PCOD9093670
_publ_section_title
;
Structure prediction by ZEFSAII (Michael W. Deem and Ramdas Pophale) SiO2 
 PCOD9093670
Probable space group: P -1
;
_chemical_formula_sum "Si O2"
_cell_formula_units_Z 16
_cell_length_a 16.899599
_cell_length_b 6.825931
_cell_length_c 11.904542
_cell_angle_alpha 72.149341
_cell_angle_beta 136.204564
_cell_angle_gamma 73.957161
_cell_volume 592.810562
_symmetry_space_group_name_H-M "P -1"
_symmetry_group_IT_number 2
_symmetry_cell_setting 'triclinic'
loop_
_space_group_symop_operation_xyz
x,y,z
-x,-y,-z
loop_
_atom_site_type_symbol
_atom_site_label
_atom_site_fract_x
_atom_site_fract_y
_atom_site_fract_z
Si Si1 0.609539 0.889026 0.964684
Si Si2 0.210456 0.442778 0.426335
Si Si3 0.735847 0.539863 0.759223
Si Si4 0.868027 0.157649 0.188073
Si Si5 0.515374 0.477285 0.828598
Si Si6 0.763159 0.323787 0.370790
Si Si7 0.623519 0.147742 0.608193
Si Si8 0.117017 0.257005 0.866836
O O1 0.413870 0.100552 0.685736
O O2 0.580431 0.153531 0.943883
O O3 0.676943 0.637283 0.168400
O O4 0.760289 0.725219 0.054363
O O5 0.160987 0.596440 0.226825
O O6 0.196734 0.643628 0.468315
O O7 0.073983 0.456550 0.326520
O O8 0.554761 0.660142 0.541454
O O9 0.687506 0.842034 0.680008
O O10 0.826800 0.333923 0.999822
O O11 0.901728 0.874634 0.233119
O O12 0.686635 0.386675 0.029784
O O13 0.056422 0.980244 0.450746
O O14 0.372853 0.672770 0.745981
O O15 0.427981 0.651077 0.588647
O O16 0.770338 0.007234 0.873221
#
# Coordination Sequence:
#
# PCOD9093670 Si02
#       8
#     2   2   2   2   2   2   2   2
#     4  10  20  37  56  83 116 145 183 233 277 320
#     4  10  20  33  55  85 110 144 182 228 276 328
#     4  10  21  37  57  82 121 146 179 227 285 334
#     4   9  21  34  54  87 112 144 180 233 274 329
#     4   9  19  33  55  81 110 144 182 225 274 329
#     4  10  21  35  57  85 113 145 187 229 277 325
#     4  10  21  37  56  85 116 150 179 225 285 336
#     4  10  21  33  57  87 111 144 185 227 277 334
#
# _framework density 26.990072000000001
#
# number of rings (size 3 to 8) (size 9 to 14) (size 15 to 20)
#    0.000    2.250    1.250    1.500    5.250    8.500 
#    0.000    0.000    0.000    3.750    0.000    0.000 
#    0.000    0.000    0.000    0.000    0.000    0.000 
#
# Total GULP energy -89635.707968 kJ/mol
# GULP energy per Si atom -5602.231748 kJ/mol
# Density = 2.692864 g / cm^3
# Si number density = 26.990072 Si / 1000 Ang^3
#
#
#
# Elastic Constant Matrix: (Units=GPa)
#
#
# Indices 1 2 3 4 5 6 
#
# 1 227.2212 40.5289 74.3288 -20.8430 43.2895 -17.3493
# 2 40.5289 51.7806 14.1270 -1.4255 -0.3662 4.1146
# 3 74.3288 14.1270 109.5930 -18.1119 34.6274 -3.7855
# 4 -20.8430 -1.4255 -18.1119 33.5990 0.7576 3.5397
# 5 43.2895 -0.3662 34.6274 0.7576 53.6884 -10.9758
# 6 -17.3493 4.1146 -3.7855 3.5397 -10.9758 32.3755
#
#
#
# Elastic Compliance Matrix: (Units=1/GPa)
#
#
# Indices 1 2 3 4 5 6 
#
# 1 0.007356 -0.005224 -0.002567 0.002757 -0.003794 0.002718
# 2 -0.005224 0.024134 -0.001623 -0.002754 0.004605 -0.004194
# 3 -0.002567 -0.001623 0.014635 0.006719 -0.008074 -0.002930
# 4 0.002757 -0.002754 0.006719 0.035572 -0.007884 -0.003949
# 5 -0.003794 0.004605 -0.008074 -0.007884 0.028456 0.006946
# 6 0.002718 -0.004194 -0.002930 -0.003949 0.006946 0.035321
#
#
# Mechanical properties :
#
#
# Convention : Reuss Voigt Hill
#
# Bulk Modulus (GPa) = 36.63398 71.84047 54.23723
# Shear Modulus (GPa) = 28.83494 41.23992 35.03743
#
# Velocity S-wave (km/s) = 3.27211 3.91316 3.60691
# Velocity P-wave (km/s) = 5.27998 6.86238 6.12252
#
# Compressibility (1/GPa) = 0.02729706
#
# Stress axis : x y z
#
# Youngs Moduli (GPa) = 135.94630 41.43557 68.32778
#
# Poissons Ratio (x) = 0.21646 0.17541
# Poissons Ratio (y) = 0.71018 0.11088
# Poissons Ratio (z) = 0.34900 0.06724
#
# Static dielectric constant tensor:
#      x y z
#    x 2.102620 0.001930 0.069820 
#    y 0.001930 2.135170 -0.017440 
#    z 0.069820 -0.017440 2.100310 
# 
# From -- ./inp_files/175003.got.cif
#   From: 2010.05.17/outbox.cif.g08.bks.cpg/sg2_88_cif.got.tgz:175003.got - 2010.06.03 11:33:40.
