data_PCOD9093106
_publ_section_title
;
Structure prediction by ZEFSAII (Michael W. Deem and Ramdas Pophale) SiO2 
 PCOD9093106
Probable space group: P -1
;
_chemical_formula_sum "Si O2"
_cell_formula_units_Z 16
_cell_length_a 4.890333
_cell_length_b 16.412432
_cell_length_c 9.891592
_cell_angle_alpha 102.159938
_cell_angle_beta 78.308019
_cell_angle_gamma 112.285839
_cell_volume 711.490747
_symmetry_space_group_name_H-M "P -1"
_symmetry_group_IT_number 2
_symmetry_cell_setting 'triclinic'
loop_
_space_group_symop_operation_xyz
x,y,z
-x,-y,-z
loop_
_atom_site_type_symbol
_atom_site_label
_atom_site_fract_x
_atom_site_fract_y
_atom_site_fract_z
Si Si1 0.856932 0.344468 0.594653
Si Si2 0.508407 0.895985 0.676730
Si Si3 0.282265 0.899159 0.967758
Si Si4 0.492108 0.246846 0.183551
Si Si5 0.536109 0.537939 0.357016
Si Si6 0.940276 0.925510 0.256777
Si Si7 0.908991 0.644808 0.732267
Si Si8 0.700358 0.144269 0.615327
O O1 0.599203 0.384203 0.611227
O O2 0.750838 0.248077 0.638177
O O3 0.112726 0.416206 0.682876
O O4 0.000261 0.340777 0.430805
O O5 0.247796 0.896674 0.808114
O O6 0.564332 0.806250 0.685839
O O7 0.387149 0.893260 0.539012
O O8 0.815611 0.976898 0.704015
O O9 0.433921 0.824188 0.944631
O O10 0.023455 0.889884 0.095273
O O11 0.500000 0.000000 0.000000
O O12 0.233063 0.282240 0.184631
O O13 0.787347 0.332938 0.207853
O O14 0.500000 0.500000 0.500000
O O15 0.332409 0.453492 0.262625
O O16 0.014192 0.869906 0.353028
O O17 0.593133 0.910753 0.288132
#
# Coordination Sequence:
#
# PCOD9093106 Si02
#       8
#     2   2   2   2   2   2   2   2
#     4  11  20  35  51  83 120 158 181 234 308 354
#     4   9  21  41  59  86 119 159 200 248 290 337
#     4   8  19  43  59  85 116 162 202 249 288 341
#     4  10  21  33  61  82 115 150 193 240 293 332
#     4  10  20  31  55  80 119 152 184 238 301 358
#     4  11  24  41  56  87 119 164 199 241 290 349
#     4  11  19  34  54  89 114 145 196 243 292 347
#     4  12  24  36  61  86 124 154 198 242 294 357
#
# _framework density 22.487995999999999
#
# number of rings (size 3 to 8) (size 9 to 14) (size 15 to 20)
#    0.750    1.000    1.250    5.250    1.750    2.000 
#    0.000    2.500    0.000    0.000    0.000   17.500 
#    0.000    0.000    0.000    0.000    0.000    0.000 
#
# Total GULP energy -89386.614720 kJ/mol
# GULP energy per Si atom -5586.663420 kJ/mol
# Density = 2.243681 g / cm^3
# Si number density = 22.487996 Si / 1000 Ang^3
#
#
#
# Elastic Constant Matrix: (Units=GPa)
#
#
# Indices 1 2 3 4 5 6 
#
# 1 75.6070 6.4324 -9.9347 -1.6183 1.9734 2.3371
# 2 6.4324 80.4207 -8.9038 12.2093 13.9084 9.4004
# 3 -9.9347 -8.9038 66.6288 2.5856 -6.1394 3.7056
# 4 -1.6183 12.2093 2.5856 20.7362 -0.4433 0.0813
# 5 1.9734 13.9084 -6.1394 -0.4433 11.4772 6.1563
# 6 2.3371 9.4004 3.7056 0.0813 6.1563 34.4178
#
#
#
# Elastic Compliance Matrix: (Units=1/GPa)
#
#
# Indices 1 2 3 4 5 6 
#
# 1 0.013619 -0.001089 0.001933 0.001479 0.000574 -0.000942
# 2 -0.001089 0.018121 0.000812 -0.011304 -0.021157 -0.001152
# 3 0.001933 0.000812 0.016581 -0.002176 0.009527 -0.003837
# 4 0.001479 -0.011304 -0.002176 0.055567 0.014123 0.000564
# 5 0.000574 -0.021157 0.009527 0.014123 0.128090 -0.018231
# 6 -0.000942 -0.001152 -0.003837 0.000564 -0.018231 0.033106
#
#
# Mechanical properties :
#
#
# Convention : Reuss Voigt Hill
#
# Bulk Modulus (GPa) = 19.36713 21.98270 20.67492
# Shear Modulus (GPa) = 17.92228 28.99710 23.45969
#
# Velocity S-wave (km/s) = 2.82613 3.59478 3.23338
# Velocity P-wave (km/s) = 4.39093 5.19870 4.81180
#
# Compressibility (1/GPa) = 0.05163387
#
# Stress axis : x y z
#
# Youngs Moduli (GPa) = 73.42842 55.18331 60.30993
#
# Poissons Ratio (x) = 0.06010 -0.11658
# Poissons Ratio (y) = 0.07997 -0.04900
# Poissons Ratio (z) = -0.14194 -0.04483
#
# Static dielectric constant tensor:
#      x y z
#    x 1.842090 0.009800 0.001730 
#    y 0.009800 1.902450 0.027690 
#    z 0.001730 0.027690 1.849790 
# 
# From -- ./inp_files/367850.got.cif
#   From: 2010.05.17/outbox.cif.g08.bks.cpg/sg2_184_cif.got.tgz:367850.got - 2010.06.03 11:33:40.
