data_PCOD9093926
_publ_section_title
;
Structure prediction by ZEFSAII (Michael W. Deem and Ramdas Pophale) SiO2 
 PCOD9093926
Probable space group: P -1
;
_chemical_formula_sum "Si O2"
_cell_formula_units_Z 16
_cell_length_a 12.732130
_cell_length_b 11.312763
_cell_length_c 16.353954
_cell_angle_alpha 115.556349
_cell_angle_beta 26.434727
_cell_angle_gamma 128.502645
_cell_volume 765.037766
_symmetry_space_group_name_H-M "P -1"
_symmetry_group_IT_number 2
_symmetry_cell_setting 'triclinic'
loop_
_space_group_symop_operation_xyz
x,y,z
-x,-y,-z
loop_
_atom_site_type_symbol
_atom_site_label
_atom_site_fract_x
_atom_site_fract_y
_atom_site_fract_z
Si Si1 0.343402 0.418543 0.999378
Si Si2 0.497240 0.836278 0.796556
Si Si3 0.447270 0.238953 0.757387
Si Si4 0.772865 0.149822 0.401942
Si Si5 0.864559 0.092275 0.022868
Si Si6 0.978660 0.819333 0.396632
Si Si7 0.283554 0.689968 0.073949
Si Si8 0.073745 0.018392 0.229667
O O1 0.268162 0.529692 0.041282
O O2 0.041173 0.249255 0.182431
O O3 0.500000 0.500000 0.000000
O O4 0.534241 0.382753 0.801051
O O5 0.307918 0.830207 0.852303
O O6 0.682173 0.764983 0.630901
O O7 0.745551 0.026882 0.701471
O O8 0.299823 0.749013 0.987885
O O9 0.684748 0.258696 0.535919
O O10 0.332387 0.075975 0.840468
O O11 0.167953 0.202285 0.891749
O O12 0.877744 0.083416 0.378424
O O13 0.500000 0.000000 0.500000
O O14 0.931404 0.053896 0.875551
O O15 0.042864 0.689774 0.293591
O O16 0.975457 0.894397 0.334810
O O17 0.595788 0.831937 0.936946
#
# Coordination Sequence:
#
# PCOD9093926 Si02
#       8
#     2   2   2   2   2   2   2   2
#     4  12  26  45  61  91 135 174 205 262 321 376
#     4  10  20  35  61  93 121 160 212 263 310 373
#     4  11  24  38  63  93 124 170 213 256 318 381
#     4  12  23  41  68  96 125 165 216 263 310 379
#     4  11  18  39  64  90 129 159 207 272 318 360
#     4  10  20  33  61  95 120 160 213 261 310 370
#     4  11  21  39  60  87 131 168 204 253 323 372
#     4  11  18  38  64  93 125 162 206 271 315 360
#
# _framework density 20.914000000000001
#
# number of rings (size 3 to 8) (size 9 to 14) (size 15 to 20)
#    0.000    1.000    6.250    2.250    0.000    1.500 
#    0.000    0.625    0.000    3.750    0.000    0.000 
#    0.000    0.000    0.000    0.000    0.000    0.000 
#
# Total GULP energy -89451.699475 kJ/mol
# GULP energy per Si atom -5590.731217 kJ/mol
# Density = 2.086640 g / cm^3
# Si number density = 20.914000 Si / 1000 Ang^3
#
#
#
# Elastic Constant Matrix: (Units=GPa)
#
#
# Indices 1 2 3 4 5 6 
#
# 1 92.2999 3.1996 3.2628 1.3292 -16.2636 -3.0787
# 2 3.1996 44.1813 13.3011 20.2415 -5.3043 -4.5858
# 3 3.2628 13.3011 84.2081 34.9761 -8.4613 -0.4413
# 4 1.3292 20.2415 34.9761 33.9569 -3.9107 -5.1428
# 5 -16.2636 -5.3043 -8.4613 -3.9107 29.4024 13.7451
# 6 -3.0787 -4.5858 -0.4413 -5.1428 13.7451 21.6991
#
#
#
# Elastic Compliance Matrix: (Units=1/GPa)
#
#
# Indices 1 2 3 4 5 6 
#
# 1 0.012224 -0.000135 0.000697 -0.000714 0.008692 -0.003955
# 2 -0.000135 0.032905 0.005873 -0.025401 0.005242 -0.002286
# 3 0.000697 0.005873 0.023641 -0.028439 0.009611 -0.011008
# 4 -0.000714 -0.025401 -0.028439 0.075467 -0.012300 0.019630
# 5 0.008692 0.005242 0.009611 -0.012300 0.058350 -0.037340
# 6 -0.003955 -0.002286 -0.011008 0.019630 -0.037340 0.073122
#
#
# Mechanical properties :
#
#
# Convention : Reuss Voigt Hill
#
# Bulk Modulus (GPa) = 12.24909 28.91292 20.58101
# Shear Modulus (GPa) = 17.23823 30.40675 23.82249
#
# Velocity S-wave (km/s) = 2.87408 3.81713 3.37867
# Velocity P-wave (km/s) = 4.10894 5.76906 5.00826
#
# Compressibility (1/GPa) = 0.08163872
#
# Stress axis : x y z
#
# Youngs Moduli (GPa) = 81.80514 30.39050 42.29960
#
# Poissons Ratio (x) = 0.00411 -0.02947
# Poissons Ratio (y) = 0.01105 -0.24841
# Poissons Ratio (z) = -0.05699 -0.17848
#
# Static dielectric constant tensor:
#      x y z
#    x 1.780440 0.016830 0.007830 
#    y 0.016830 1.765970 0.042700 
#    z 0.007830 0.042700 1.772470 
# 
# From -- ./inp_files/457424.got.cif
#   From: 2010.05.17/outbox.cif.g08.bks.cpg/sg2_229_cif.got.tgz:457424.got - 2010.06.03 11:33:40.
