data_PCOD9093441
_publ_section_title
;
Structure prediction by ZEFSAII (Michael W. Deem and Ramdas Pophale) SiO2 
 PCOD9093441
Probable space group: P -1
;
_chemical_formula_sum "Si O2"
_cell_formula_units_Z 16
_cell_length_a 7.807948
_cell_length_b 15.643175
_cell_length_c 8.288558
_cell_angle_alpha 81.322905
_cell_angle_beta 52.280510
_cell_angle_gamma 108.787446
_cell_volume 671.358777
_symmetry_space_group_name_H-M "P -1"
_symmetry_group_IT_number 2
_symmetry_cell_setting 'triclinic'
loop_
_space_group_symop_operation_xyz
x,y,z
-x,-y,-z
loop_
_atom_site_type_symbol
_atom_site_label
_atom_site_fract_x
_atom_site_fract_y
_atom_site_fract_z
Si Si1 0.424508 0.172196 0.182803
Si Si2 0.308124 0.982325 0.432767
Si Si3 0.592956 0.419333 0.836968
Si Si4 0.625266 0.263636 0.686858
Si Si5 0.077916 0.241784 0.324835
Si Si6 0.290401 0.066759 0.759362
Si Si7 0.388529 0.514718 0.723178
Si Si8 0.201181 0.632647 0.951054
O O1 0.284862 0.051310 0.293446
O O2 0.235395 0.206198 0.350804
O O3 0.683357 0.248939 0.109391
O O4 0.503335 0.209468 0.943532
O O5 0.333530 0.049124 0.554307
O O6 0.548406 0.976536 0.239196
O O7 0.101934 0.866244 0.630164
O O8 0.669394 0.374580 0.654738
O O9 0.566460 0.511545 0.763739
O O10 0.297869 0.333731 0.071019
O O11 0.758460 0.419189 0.894117
O O12 0.426799 0.185259 0.692808
O O13 0.890252 0.270118 0.504783
O O14 0.000000 0.000000 0.000000
O O15 0.500000 0.500000 0.500000
O O16 0.361879 0.611719 0.734265
O O17 0.089733 0.423610 0.921332
#
# Coordination Sequence:
#
# PCOD9093441 Si02
#       8
#     2   2   2   2   2   2   2   2
#     4  10  21  37  58  84 117 152 195 246 290 341
#     4  10  21  34  54  83 115 155 197 241 286 340
#     4  10  22  41  64  87 123 160 191 245 302 353
#     4   9  20  35  55  82 109 154 201 231 285 355
#     4   9  19  36  57  83 118 156 196 237 290 347
#     4  10  20  33  48  74 113 151 196 243 289 337
#     4  11  24  41  65  92 117 151 198 249 302 361
#     4   9  23  42  59  91 123 151 196 244 299 362
#
# _framework density 23.832265
#
# number of rings (size 3 to 8) (size 9 to 14) (size 15 to 20)
#    0.000    2.500    0.000    2.250    0.000   14.500 
#    0.000    0.000    0.000    0.000    0.000    0.000 
#    0.000    0.000    0.000    0.000    0.000    0.000 
#
# Total GULP energy -89176.944187 kJ/mol
# GULP energy per Si atom -5573.559012 kJ/mol
# Density = 2.377802 g / cm^3
# Si number density = 23.832265 Si / 1000 Ang^3
#
#
#
# Elastic Constant Matrix: (Units=GPa)
#
#
# Indices 1 2 3 4 5 6 
#
# 1 63.1705 8.2844 15.9361 -0.0660 -13.4818 1.2856
# 2 8.2844 79.6307 22.6847 19.7376 -4.4659 10.9641
# 3 15.9361 22.6847 59.0862 17.3889 -16.6127 -8.2521
# 4 -0.0660 19.7376 17.3889 34.7681 -3.5824 -0.1630
# 5 -13.4818 -4.4659 -16.6127 -3.5824 34.3497 2.9764
# 6 1.2856 10.9641 -8.2521 -0.1630 2.9764 40.8089
#
#
#
# Elastic Compliance Matrix: (Units=1/GPa)
#
#
# Indices 1 2 3 4 5 6 
#
# 1 0.018213 -0.000994 -0.004156 0.003235 0.005479 -0.001534
# 2 -0.000994 0.016514 -0.005033 -0.006982 -0.000939 -0.005383
# 3 -0.004156 -0.005033 0.026017 -0.009227 0.008809 0.006065
# 4 0.003235 -0.006982 -0.009227 0.037324 -0.000214 0.000073
# 5 0.005479 -0.000939 0.008809 -0.000214 0.035442 -0.000725
# 6 -0.001534 -0.005383 0.006065 0.000073 -0.000725 0.027279
#
#
# Mechanical properties :
#
#
# Convention : Reuss Voigt Hill
#
# Bulk Modulus (GPa) = 24.76663 32.85533 28.81098
# Shear Modulus (GPa) = 25.69172 32.31747 29.00459
#
# Velocity S-wave (km/s) = 3.28689 3.68644 3.49238
# Velocity P-wave (km/s) = 4.98191 5.65117 5.32706
#
# Compressibility (1/GPa) = 0.04037690
#
# Stress axis : x y z
#
# Youngs Moduli (GPa) = 54.90568 60.55407 38.43639
#
# Poissons Ratio (x) = 0.06020 0.15975
# Poissons Ratio (y) = 0.05459 0.19346
# Poissons Ratio (z) = 0.22820 0.30478
#
# Static dielectric constant tensor:
#      x y z
#    x 2.096020 -0.026960 0.064420 
#    y -0.026960 2.012650 -0.061340 
#    z 0.064420 -0.061340 1.921410 
# 
# From -- ./inp_files/201819.got.cif
#   From: 2010.05.17/outbox.cif.g08.bks.cpg/sg2_101_cif.got.tgz:201819.got - 2010.06.03 11:33:40.
