data_PCOD9093473
_publ_section_title
;
Structure prediction by ZEFSAII (Michael W. Deem and Ramdas Pophale) SiO2 
 PCOD9093473
Probable space group: P -1
;
_chemical_formula_sum "Si O2"
_cell_formula_units_Z 14
_cell_length_a 18.660373
_cell_length_b 9.011713
_cell_length_c 10.110073
_cell_angle_alpha 49.500646
_cell_angle_beta 144.163844
_cell_angle_gamma 141.972400
_cell_volume 612.913771
_symmetry_space_group_name_H-M "P -1"
_symmetry_group_IT_number 2
_symmetry_cell_setting 'triclinic'
loop_
_space_group_symop_operation_xyz
x,y,z
-x,-y,-z
loop_
_atom_site_type_symbol
_atom_site_label
_atom_site_fract_x
_atom_site_fract_y
_atom_site_fract_z
Si Si1 0.271084 0.399250 0.780371
Si Si2 0.128733 0.871831 0.915979
Si Si3 0.124032 0.608117 0.299390
Si Si4 0.527679 0.310650 0.593929
Si Si5 0.184769 0.643537 0.901874
Si Si6 0.567197 0.576195 0.259613
Si Si7 0.650017 0.033458 0.262304
O O1 0.211171 0.555578 0.564358
O O2 0.349029 0.396373 0.764774
O O3 0.148761 0.121846 0.799102
O O4 0.403929 0.516814 0.018150
O O5 0.957546 0.634442 0.776337
O O6 0.188430 0.823481 0.166539
O O7 0.208201 0.850480 0.917748
O O8 0.984733 0.577679 0.187490
O O9 0.500000 0.500000 0.500000
O O10 0.686805 0.385524 0.845015
O O11 0.541039 0.355655 0.432159
O O12 0.394694 0.050351 0.603815
O O13 0.213119 0.728484 0.743521
O O14 0.657119 0.822568 0.332929
O O15 0.500000 0.000000 0.000000
#
# Coordination Sequence:
#
# PCOD9093473 Si02
#       7
#     2   2   2   2   2   2   2
#     4  11  20  34  52  82 118 139 162 213 285 328
#     4   9  18  32  52  80 107 139 177 209 263 323
#     4   9  19  33  52  78 110 141 176 215 253 328
#     4   9  18  32  53  75 100 135 181 225 251 302
#     4   9  16  32  53  78 100 129 185 219 259 300
#     4  10  20  33  50  81 111 139 167 215 277 322
#     4   9  17  33  55  75  97 137 186 220 252 300
#
# _framework density 22.841711
#
# number of rings (size 3 to 8) (size 9 to 14) (size 15 to 20)
#    0.857    1.714    1.429    1.286    0.000    0.000 
#    7.714    2.143    0.000    8.571    0.000    0.000 
#    0.000    0.000    0.000    0.000    0.000    0.000 
#
# Total GULP energy -78029.323132 kJ/mol
# GULP energy per Si atom -5573.523081 kJ/mol
# Density = 2.278972 g / cm^3
# Si number density = 22.841711 Si / 1000 Ang^3
#
#
#
# Elastic Constant Matrix: (Units=GPa)
#
#
# Indices 1 2 3 4 5 6 
#
# 1 49.8287 14.7227 14.5943 -13.8196 -11.9641 16.3553
# 2 14.7227 69.8144 26.3098 -31.8231 -9.4558 9.8023
# 3 14.5943 26.3098 117.9173 -25.4870 -14.3166 11.3860
# 4 -13.8196 -31.8231 -25.4870 28.2657 12.0343 -8.0772
# 5 -11.9641 -9.4558 -14.3166 12.0343 44.2407 -12.8946
# 6 16.3553 9.8023 11.3860 -8.0772 -12.8946 28.8524
#
#
#
# Elastic Compliance Matrix: (Units=1/GPa)
#
#
# Indices 1 2 3 4 5 6 
#
# 1 0.026904 0.000776 -0.000016 0.010040 0.001155 -0.012181
# 2 0.000776 0.029976 0.000715 0.035565 -0.003568 -0.002544
# 3 -0.000016 0.000715 0.010634 0.009748 0.000508 -0.001474
# 4 0.010040 0.035565 0.009748 0.094159 -0.012372 -0.000790
# 5 0.001155 -0.003568 0.000508 -0.012372 0.028489 0.009625
# 6 -0.012181 -0.002544 -0.001474 -0.000790 0.009625 0.047091
#
#
# Mechanical properties :
#
#
# Convention : Reuss Voigt Hill
#
# Bulk Modulus (GPa) = 14.19182 38.75710 26.47446
# Shear Modulus (GPa) = 19.39548 32.40066 25.89807
#
# Velocity S-wave (km/s) = 2.91714 3.77037 3.37086
# Velocity P-wave (km/s) = 4.19200 5.99656 5.17357
#
# Compressibility (1/GPa) = 0.07046313
#
# Stress axis : x y z
#
# Youngs Moduli (GPa) = 37.16857 33.36031 94.03781
#
# Poissons Ratio (x) = -0.02587 0.00155
# Poissons Ratio (y) = -0.02883 -0.06727
# Poissons Ratio (z) = 0.00061 -0.02386
#
# Static dielectric constant tensor:
#      x y z
#    x 1.897330 -0.006700 -0.057450 
#    y -0.006700 1.908780 0.020400 
#    z -0.057450 0.020400 1.875850 
# 
# From -- ./inp_files/470305.got.cif
#   From: 2010.05.17/outbox.cif.g08.bks.cpg/sg2_236_cif.got.tgz:470305.got - 2010.06.03 11:33:40.
