data_PCOD9093054
_publ_section_title
;
Structure prediction by ZEFSAII (Michael W. Deem and Ramdas Pophale) SiO2 
 PCOD9093054
Probable space group: P -1
;
_chemical_formula_sum "Si O2"
_cell_formula_units_Z 16
_cell_length_a 13.505983
_cell_length_b 11.432071
_cell_length_c 13.104235
_cell_angle_alpha 92.398511
_cell_angle_beta 118.378641
_cell_angle_gamma 33.512568
_cell_volume 672.114994
_symmetry_space_group_name_H-M "P -1"
_symmetry_group_IT_number 2
_symmetry_cell_setting 'triclinic'
loop_
_space_group_symop_operation_xyz
x,y,z
-x,-y,-z
loop_
_atom_site_type_symbol
_atom_site_label
_atom_site_fract_x
_atom_site_fract_y
_atom_site_fract_z
Si Si1 0.392080 0.693106 0.366701
Si Si2 0.865684 0.784403 0.250350
Si Si3 0.049301 0.527850 0.626318
Si Si4 0.741938 0.383131 0.827967
Si Si5 0.716652 0.113617 0.044278
Si Si6 0.728411 0.269503 0.232247
Si Si7 0.903815 0.293794 0.455798
Si Si8 0.478592 0.809831 0.543897
O O1 0.500000 0.500000 0.500000
O O2 0.202186 0.799372 0.200697
O O3 0.655771 0.485040 0.417079
O O4 0.286214 0.911873 0.378203
O O5 0.799081 0.712692 0.234813
O O6 0.873523 0.851702 0.362914
O O7 0.206663 0.461525 0.362891
O O8 0.668461 0.039960 0.078876
O O9 0.000000 0.500000 0.500000
O O10 0.203392 0.499394 0.664555
O O11 0.727301 0.882781 0.519864
O O12 0.525301 0.558992 0.822406
O O13 0.562427 0.646911 0.676130
O O14 0.078621 0.105875 0.963714
O O15 0.865366 0.049307 0.208175
O O16 0.445829 0.457685 0.897707
O O17 0.958754 0.123342 0.409092
#
# Coordination Sequence:
#
# PCOD9093054 Si02
#       8
#     2   2   2   2   2   2   2   2
#     4   8  15  30  46  75 107 131 165 209 261 315
#     4   9  19  36  52  75 103 138 180 218 254 312
#     4  10  20  31  49  78 106 138 176 218 260 305
#     4   9  18  32  52  78 105 139 171 212 265 323
#     4  10  21  35  54  78 107 140 177 214 267 321
#     4  10  21  35  53  79 109 139 171 219 270 318
#     4   9  19  33  50  78 106 132 173 217 262 309
#     4   9  17  30  50  77 106 136 169 218 267 305
#
# _framework density 23.80545
#
# number of rings (size 3 to 8) (size 9 to 14) (size 15 to 20)
#    0.000    2.750    0.000    1.500    5.250    0.500 
#    0.000    0.625    0.000    0.000    0.000   11.375 
#    0.000    0.000    0.000    0.000    0.000    0.000 
#
# Total GULP energy -89100.759519 kJ/mol
# GULP energy per Si atom -5568.797470 kJ/mol
# Density = 2.375127 g / cm^3
# Si number density = 23.805450 Si / 1000 Ang^3
#
#
#
# Elastic Constant Matrix: (Units=GPa)
#
#
# Indices 1 2 3 4 5 6 
#
# 1 157.3691 25.4061 34.9556 -2.1119 -39.7462 2.2985
# 2 25.4061 124.4478 -0.4826 -2.4623 -0.2008 -2.3462
# 3 34.9556 -0.4826 52.9983 -11.4729 -25.7800 13.5855
# 4 -2.1119 -2.4623 -11.4729 23.4781 11.0463 -5.5479
# 5 -39.7462 -0.2008 -25.7800 11.0463 43.0179 -9.2843
# 6 2.2985 -2.3462 13.5855 -5.5479 -9.2843 48.9347
#
#
#
# Elastic Compliance Matrix: (Units=1/GPa)
#
#
# Indices 1 2 3 4 5 6 
#
# 1 0.009435 -0.001990 -0.003741 -0.004583 0.007965 0.001492
# 2 -0.001990 0.008485 0.000958 0.002018 -0.001714 0.000138
# 3 -0.003741 0.000958 0.029842 0.007825 0.011338 -0.005025
# 4 -0.004583 0.002018 0.007825 0.052579 -0.012671 0.001697
# 5 0.007965 -0.001714 0.011338 -0.012671 0.041247 0.002785
# 6 0.001492 0.000138 -0.005025 0.001697 0.002785 0.022488
#
#
# Mechanical properties :
#
#
# Convention : Reuss Voigt Hill
#
# Bulk Modulus (GPa) = 26.16789 50.50814 38.33802
# Shear Modulus (GPa) = 26.82952 41.41522 34.12237
#
# Velocity S-wave (km/s) = 3.36077 4.17554 3.79011
# Velocity P-wave (km/s) = 5.10647 6.67158 5.94079
#
# Compressibility (1/GPa) = 0.03821477
#
# Stress axis : x y z
#
# Youngs Moduli (GPa) = 105.98493 117.85054 33.50994
#
# Poissons Ratio (x) = 0.23457 0.12537
# Poissons Ratio (y) = 0.21096 -0.03210
# Poissons Ratio (z) = 0.39652 -0.11289
#
# Static dielectric constant tensor:
#      x y z
#    x 1.988210 -0.024880 0.006400 
#    y -0.024880 1.925860 0.063570 
#    z 0.006400 0.063570 2.006000 
# 
# From -- ./inp_files/284145.got.cif
#   From: 2010.05.17/outbox.cif.g08.bks.cpg/sg2_143_cif.got.tgz:284145.got - 2010.06.03 11:33:40.
