data_PCOD9093802
_publ_section_title
;
Structure prediction by ZEFSAII (Michael W. Deem and Ramdas Pophale) SiO2 
 PCOD9093802
Probable space group: P -1
;
_chemical_formula_sum "Si O2"
_cell_formula_units_Z 14
_cell_length_a 17.733863
_cell_length_b 10.707643
_cell_length_c 7.969852
_cell_angle_alpha 53.620389
_cell_angle_beta 88.489051
_cell_angle_gamma 131.116259
_cell_volume 667.443203
_symmetry_space_group_name_H-M "P -1"
_symmetry_group_IT_number 2
_symmetry_cell_setting 'triclinic'
loop_
_space_group_symop_operation_xyz
x,y,z
-x,-y,-z
loop_
_atom_site_type_symbol
_atom_site_label
_atom_site_fract_x
_atom_site_fract_y
_atom_site_fract_z
Si Si1 0.089647 0.261083 0.509828
Si Si2 0.603488 0.656239 0.214484
Si Si3 0.323658 0.785837 0.490570
Si Si4 0.323205 0.515824 0.474071
Si Si5 0.852244 0.327633 0.646190
Si Si6 0.795703 0.676924 0.893620
Si Si7 0.560121 0.420736 0.933967
O O1 0.164964 0.277576 0.624486
O O2 0.138617 0.519206 0.340309
O O3 0.074013 0.034934 0.242331
O O4 0.143607 0.299241 0.296055
O O5 0.500000 0.500000 0.500000
O O6 0.659467 0.581049 0.303973
O O7 0.512228 0.544222 0.147079
O O8 0.729477 0.994136 0.949429
O O9 0.374167 0.766119 0.347022
O O10 0.193567 0.661733 0.530029
O O11 0.281342 0.592072 0.788865
O O12 0.444399 0.111482 0.267660
O O13 0.395813 0.582126 0.246586
O O14 0.000000 0.500000 0.500000
O O15 0.695237 0.640520 0.864330
#
# Coordination Sequence:
#
# PCOD9093802 Si02
#       7
#     2   2   2   2   2   2   2
#     4   9  21  38  57  81 110 150 183 228 278 327
#     4   9  19  35  58  83 112 143 186 232 277 324
#     4  10  20  33  58  84 107 145 191 231 271 326
#     4   9  18  33  61  81 106 143 192 232 270 321
#     4  10  22  37  60  84 113 140 191 242 274 319
#     4  10  20  35  58  79 116 147 186 217 277 347
#     4   9  18  36  53  81 117 145 178 231 278 329
#
# _framework density 20.975567000000002
#
# number of rings (size 3 to 8) (size 9 to 14) (size 15 to 20)
#    0.000    2.571    0.000    0.857    4.000    4.571 
#    0.000    1.429    3.143    0.000    0.000    0.000 
#    0.000    0.000    0.000    0.000    0.000    0.000 
#
# Total GULP energy -78128.412055 kJ/mol
# GULP energy per Si atom -5580.600861 kJ/mol
# Density = 2.092783 g / cm^3
# Si number density = 20.975567 Si / 1000 Ang^3
#
#
#
# Elastic Constant Matrix: (Units=GPa)
#
#
# Indices 1 2 3 4 5 6 
#
# 1 135.9390 39.8850 37.4299 -9.1256 2.3705 36.7769
# 2 39.8850 71.5281 33.3754 -11.4368 2.0129 30.5702
# 3 37.4299 33.3754 84.4530 -1.0536 4.5285 30.4722
# 4 -9.1256 -11.4368 -1.0536 30.4416 1.1488 -4.6308
# 5 2.3705 2.0129 4.5285 1.1488 31.4257 4.3340
# 6 36.7769 30.5702 30.4722 -4.6308 4.3340 37.2579
#
#
#
# Elastic Compliance Matrix: (Units=1/GPa)
#
#
# Indices 1 2 3 4 5 6 
#
# 1 0.010353 -0.001752 -0.001096 0.001202 0.000521 -0.007797
# 2 -0.001752 0.023523 -0.003382 0.006010 0.000846 -0.014157
# 3 -0.001096 -0.003382 0.017539 -0.002601 -0.000653 -0.010736
# 4 0.001202 0.006010 -0.002601 0.035525 -0.001482 0.000597
# 5 0.000521 0.000846 -0.000653 -0.001482 0.032516 -0.004640
# 6 -0.007797 -0.014157 -0.010736 0.000597 -0.004640 0.055546
#
#
# Mechanical properties :
#
#
# Convention : Reuss Voigt Hill
#
# Bulk Modulus (GPa) = 25.67022 57.03340 41.35181
# Shear Modulus (GPa) = 24.94432 31.90703 28.42567
#
# Velocity S-wave (km/s) = 3.45223 3.90443 3.68527
# Velocity P-wave (km/s) = 5.30615 6.89750 6.15348
#
# Compressibility (1/GPa) = 0.03895564
#
# Stress axis : x y z
#
# Youngs Moduli (GPa) = 96.59129 42.51165 57.01485
#
# Poissons Ratio (x) = 0.07447 0.06248
# Poissons Ratio (y) = 0.16921 0.19283
# Poissons Ratio (z) = 0.10585 0.14378
#
# Static dielectric constant tensor:
#      x y z
#    x 1.972180 -0.069420 -0.105680 
#    y -0.069420 1.809530 0.049910 
#    z -0.105680 0.049910 1.736940 
# 
# From -- ./inp_files/331622.got.cif
#   From: 2010.05.17/outbox.cif.g08.bks.cpg/sg2_166_cif.got.tgz:331622.got - 2010.06.03 11:33:40.
