data_PCOD9093062
_publ_section_title
;
Structure prediction by ZEFSAII (Michael W. Deem and Ramdas Pophale) SiO2 
 PCOD9093062
Probable space group: P -1
;
_chemical_formula_sum "Si O2"
_cell_formula_units_Z 12
_cell_length_a 18.507470
_cell_length_b 8.677860
_cell_length_c 5.094135
_cell_angle_alpha 98.814584
_cell_angle_beta 91.560797
_cell_angle_gamma 146.597012
_cell_volume 426.601576
_symmetry_space_group_name_H-M "P -1"
_symmetry_group_IT_number 2
_symmetry_cell_setting 'triclinic'
loop_
_space_group_symop_operation_xyz
x,y,z
-x,-y,-z
loop_
_atom_site_type_symbol
_atom_site_label
_atom_site_fract_x
_atom_site_fract_y
_atom_site_fract_z
Si Si1 0.663147 0.943682 0.470246
Si Si2 0.503490 0.156326 0.236398
Si Si3 0.059506 0.699931 0.308586
Si Si4 0.614314 0.496785 0.839433
Si Si5 0.157251 0.268873 0.144892
Si Si6 0.821634 0.490210 0.281535
O O1 0.727964 0.179133 0.316950
O O2 0.777057 0.025555 0.572970
O O3 0.508685 0.613046 0.282353
O O4 0.631046 0.991148 0.733418
O O5 0.591244 0.427368 0.124852
O O6 0.571739 0.278508 0.568442
O O7 0.500000 0.000000 0.000000
O O8 0.975943 0.707820 0.314592
O O9 0.000000 0.500000 0.500000
O O10 0.000000 0.500000 0.000000
O O11 0.777328 0.783704 0.893952
O O12 0.178007 0.381374 0.458083
O O13 0.220075 0.492201 0.978324
O O14 0.000000 0.000000 0.000000
#
# Coordination Sequence:
#
# PCOD9093062 Si02
#       6
#     2   2   2   2   2   2
#     4   9  23  34  60  90 123 140 185 233 309 357
#     4  10  20  31  50  88 118 146 176 225 297 362
#     4  10  21  36  56  88 124 153 183 229 297 371
#     4  10  23  33  57  83 117 149 183 242 298 343
#     4  12  26  42  58  83 118 162 208 244 279 337
#     4  11  23  38  62  86 118 159 193 241 295 350
#
# _framework density 28.129292
#
# number of rings (size 3 to 8) (size 9 to 14) (size 15 to 20)
#    1.000    0.667    0.000    5.000   11.667    0.000 
#    0.000    0.000    0.000    2.000    0.000    0.000 
#    0.000    0.000    0.000    0.000    0.000    0.000 
#
# Total GULP energy -66963.216177 kJ/mol
# GULP energy per Si atom -5580.268015 kJ/mol
# Density = 2.806527 g / cm^3
# Si number density = 28.129292 Si / 1000 Ang^3
#
#
#
# Elastic Constant Matrix: (Units=GPa)
#
#
# Indices 1 2 3 4 5 6 
#
# 1 157.0106 80.0429 38.5778 -17.0197 4.0039 49.0330
# 2 80.0429 141.8769 25.1817 -14.3598 -3.1372 76.3813
# 3 38.5778 25.1817 207.7404 -34.1079 -8.6128 -6.5190
# 4 -17.0197 -14.3598 -34.1079 39.4819 1.3121 -6.0064
# 5 4.0039 -3.1372 -8.6128 1.3121 44.5099 -6.1063
# 6 49.0330 76.3813 -6.5190 -6.0064 -6.1063 71.2161
#
#
#
# Elastic Compliance Matrix: (Units=1/GPa)
#
#
# Indices 1 2 3 4 5 6 
#
# 1 0.009596 -0.003403 -0.001323 0.001342 -0.001827 -0.003122
# 2 -0.003403 0.019643 -0.002256 0.000888 -0.001375 -0.018974
# 3 -0.001323 -0.002256 0.006309 0.004681 0.001653 0.004444
# 4 0.001342 0.000888 0.004681 0.030441 0.000105 0.001129
# 5 -0.001827 -0.001375 0.001653 0.000105 0.023525 0.004910
# 6 -0.003122 -0.018974 0.004444 0.001129 0.004910 0.037465
#
#
# Mechanical properties :
#
#
# Convention : Reuss Voigt Hill
#
# Bulk Modulus (GPa) = 46.32826 88.24808 67.28817
# Shear Modulus (GPa) = 33.75253 55.22996 44.49124
#
# Velocity S-wave (km/s) = 3.46773 4.43587 3.98134
# Velocity P-wave (km/s) = 5.70430 7.59449 6.71622
#
# Compressibility (1/GPa) = 0.02158510
#
# Stress axis : x y z
#
# Youngs Moduli (GPa) = 104.21393 50.90838 158.49507
#
# Poissons Ratio (x) = 0.17323 0.20966
# Poissons Ratio (y) = 0.35462 0.35754
# Poissons Ratio (z) = 0.13786 0.11484
#
# Static dielectric constant tensor:
#      x y z
#    x 2.278620 -0.028380 0.057300 
#    y -0.028380 2.416730 0.052930 
#    z 0.057300 0.052930 2.092590 
# 
# From -- ./inp_files/127049.got.cif
#   From: 2010.05.17/outbox.cif.g08.bks.cpg/sg2_64_cif.got.tgz:127049.got - 2010.06.03 11:33:40.
