data_PCOD9093866
_publ_section_title
;
Structure prediction by ZEFSAII (Michael W. Deem and Ramdas Pophale) SiO2 
 PCOD9093866
Probable space group: P -1
;
_chemical_formula_sum "Si O2"
_cell_formula_units_Z 12
_cell_length_a 7.179062
_cell_length_b 9.735373
_cell_length_c 10.407595
_cell_angle_alpha 106.294126
_cell_angle_beta 103.743262
_cell_angle_gamma 124.179024
_cell_volume 500.981133
_symmetry_space_group_name_H-M "P -1"
_symmetry_group_IT_number 2
_symmetry_cell_setting 'triclinic'
loop_
_space_group_symop_operation_xyz
x,y,z
-x,-y,-z
loop_
_atom_site_type_symbol
_atom_site_label
_atom_site_fract_x
_atom_site_fract_y
_atom_site_fract_z
Si Si1 0.332696 0.127196 0.484540
Si Si2 0.511564 0.608451 0.178347
Si Si3 0.072785 0.370614 0.882392
Si Si4 0.944429 0.803069 0.932469
Si Si5 0.857707 0.276786 0.559719
Si Si6 0.816825 0.676335 0.601065
O O1 0.413108 0.257513 0.656385
O O2 0.591255 0.222912 0.470851
O O3 0.144931 0.137802 0.381454
O O4 0.220545 0.922777 0.461907
O O5 0.757297 0.675190 0.160541
O O6 0.359952 0.388865 0.142199
O O7 0.291720 0.572693 0.045409
O O8 0.957113 0.386704 0.742432
O O9 0.917658 0.214393 0.931971
O O10 0.964144 0.741531 0.778464
O O11 0.000000 0.000000 0.000000
O O12 0.055089 0.358167 0.496431
O O13 0.500000 0.500000 0.500000
#
# Coordination Sequence:
#
# PCOD9093866 Si02
#       6
#     2   2   2   2   2   2
#     4  11  23  40  60  93 118 159 210 236 298 354
#     4   9  19  36  58  86 114 155 200 238 294 353
#     4   9  18  38  59  85 111 159 198 237 297 347
#     4  10  20  33  59  88 115 152 196 239 302 354
#     4  11  24  38  66  87 120 160 204 251 281 360
#     4  12  22  40  63  90 122 158 193 252 307 348
#
# _framework density 23.952995999999999
#
# number of rings (size 3 to 8) (size 9 to 14) (size 15 to 20)
#    1.000    0.667    3.333    1.500    2.333    1.333 
#    0.000    0.000    3.667    3.000    0.000    0.000 
#    0.000    0.000    0.000    0.000    0.000    0.000 
#
# Total GULP energy -66903.669225 kJ/mol
# GULP energy per Si atom -5575.305769 kJ/mol
# Density = 2.389848 g / cm^3
# Si number density = 23.952996 Si / 1000 Ang^3
#
#
#
# Elastic Constant Matrix: (Units=GPa)
#
#
# Indices 1 2 3 4 5 6 
#
# 1 83.5885 36.5852 18.8852 -22.3936 -12.2686 9.8744
# 2 36.5852 79.0838 33.1146 2.1733 -15.3572 -3.8074
# 3 18.8852 33.1146 110.9743 -12.7721 -24.5606 11.8196
# 4 -22.3936 2.1733 -12.7721 37.4096 7.3392 -8.7673
# 5 -12.2686 -15.3572 -24.5606 7.3392 22.5022 -6.4220
# 6 9.8744 -3.8074 11.8196 -8.7673 -6.4220 37.7534
#
#
#
# Elastic Compliance Matrix: (Units=1/GPa)
#
#
# Indices 1 2 3 4 5 6 
#
# 1 0.019845 -0.010258 0.001597 0.012012 0.000547 -0.003842
# 2 -0.010258 0.021472 -0.004348 -0.009323 0.008945 0.005566
# 3 0.001597 -0.004348 0.012932 0.003023 0.010335 -0.002445
# 4 0.012012 -0.009323 0.003023 0.037635 -0.008124 0.002330
# 5 0.000547 0.008945 0.010335 -0.008124 0.066769 0.006995
# 6 -0.003842 0.005566 -0.002445 0.002330 0.006995 0.030550
#
#
# Mechanical properties :
#
#
# Convention : Reuss Voigt Hill
#
# Bulk Modulus (GPa) = 35.42157 50.09075 42.75616
# Shear Modulus (GPa) = 22.25870 31.87047 27.06459
#
# Velocity S-wave (km/s) = 3.05169 3.65162 3.36505
# Velocity P-wave (km/s) = 5.21892 6.22387 5.74342
#
# Compressibility (1/GPa) = 0.02823138
#
# Stress axis : x y z
#
# Youngs Moduli (GPa) = 50.39158 46.57261 77.32562
#
# Poissons Ratio (x) = 0.47773 -0.12346
# Poissons Ratio (y) = 0.51690 0.33618
# Poissons Ratio (z) = -0.08046 0.20248
#
# Static dielectric constant tensor:
#      x y z
#    x 1.899270 0.023570 0.011800 
#    y 0.023570 2.008100 -0.049960 
#    z 0.011800 -0.049960 2.026180 
# 
# From -- ./inp_files/388074.got.cif
#   From: 2010.05.17/outbox.cif.g08.bks.cpg/sg2_195_cif.got.tgz:388074.got - 2010.06.03 11:33:40.
