data_PCOD9093360
_publ_section_title
;
Structure prediction by ZEFSAII (Michael W. Deem and Ramdas Pophale) SiO2 
 PCOD9093360
Probable space group: P -1
;
_chemical_formula_sum "Si O2"
_cell_formula_units_Z 14
_cell_length_a 5.893930
_cell_length_b 13.855510
_cell_length_c 12.144311
_cell_angle_alpha 54.482165
_cell_angle_beta 111.203956
_cell_angle_gamma 118.330324
_cell_volume 705.396267
_symmetry_space_group_name_H-M "P -1"
_symmetry_group_IT_number 2
_symmetry_cell_setting 'triclinic'
loop_
_space_group_symop_operation_xyz
x,y,z
-x,-y,-z
loop_
_atom_site_type_symbol
_atom_site_label
_atom_site_fract_x
_atom_site_fract_y
_atom_site_fract_z
Si Si1 0.242349 0.543782 0.423013
Si Si2 0.804422 0.132544 0.517438
Si Si3 0.039921 0.704664 0.876346
Si Si4 0.057844 0.503349 0.825366
Si Si5 0.655471 0.039969 0.324685
Si Si6 0.650488 0.772640 0.420805
Si Si7 0.534952 0.690945 0.696415
O O1 0.500000 0.500000 0.500000
O O2 0.115200 0.508286 0.304928
O O3 0.394107 0.694627 0.362370
O O4 0.000000 0.500000 0.500000
O O5 0.842926 0.082217 0.437066
O O6 0.638429 0.220434 0.399821
O O7 0.060515 0.213250 0.574673
O O8 0.630210 0.014704 0.636103
O O9 0.042957 0.608633 0.841060
O O10 0.780738 0.737118 0.787892
O O11 0.277339 0.835487 0.819197
O O12 0.019438 0.627004 0.035488
O O13 0.352689 0.554863 0.797843
O O14 0.677366 0.917561 0.350208
O O15 0.621167 0.697595 0.581068
#
# Coordination Sequence:
#
# PCOD9093360 Si02
#       7
#     2   2   2   2   2   2   2
#     4  12  26  44  69  94 130 169 215 266 316 381
#     4  10  20  32  57  90 124 153 202 264 312 369
#     4  11  23  39  60  90 127 164 206 259 319 386
#     4  11  24  41  60  89 126 166 210 256 322 380
#     4  10  21  33  57  88 120 159 205 254 320 363
#     4  11  22  36  61  90 124 159 208 262 312 371
#     4  11  18  35  59  92 119 154 204 261 320 368
#
# _framework density 19.846999
#
# number of rings (size 3 to 8) (size 9 to 14) (size 15 to 20)
#    0.000    1.143    4.286    2.571    6.000    0.000 
#    0.000    0.714    0.000    0.857    0.000    0.000 
#    0.000    0.000    0.000    0.000    0.000    0.000 
#
# Total GULP energy -78034.657702 kJ/mol
# GULP energy per Si atom -5573.904122 kJ/mol
# Density = 1.980183 g / cm^3
# Si number density = 19.846999 Si / 1000 Ang^3
#
#
#
# Elastic Constant Matrix: (Units=GPa)
#
#
# Indices 1 2 3 4 5 6 
#
# 1 75.3474 29.5461 39.6731 -11.3489 -6.2337 15.6605
# 2 29.5461 91.5060 40.8902 -16.9043 -10.6330 14.9231
# 3 39.6731 40.8902 117.2880 -24.8729 -28.0936 8.0576
# 4 -11.3489 -16.9043 -24.8729 39.8857 9.8799 -4.3788
# 5 -6.2337 -10.6330 -28.0936 9.8799 22.4633 -11.3555
# 6 15.6605 14.9231 8.0576 -4.3788 -11.3555 34.6341
#
#
#
# Elastic Compliance Matrix: (Units=1/GPa)
#
#
# Indices 1 2 3 4 5 6 
#
# 1 0.019258 -0.002445 -0.007104 0.001478 -0.009934 -0.009072
# 2 -0.002445 0.014473 -0.003778 0.003136 -0.002254 -0.004594
# 3 -0.007104 -0.003778 0.017234 0.002912 0.020521 0.007927
# 4 0.001478 0.003136 0.002912 0.030629 -0.008799 -0.001709
# 5 -0.009934 -0.002254 0.020521 -0.008799 0.083923 0.027092
# 6 -0.009072 -0.004594 0.007927 -0.001709 0.027092 0.041777
#
#
# Mechanical properties :
#
#
# Convention : Reuss Voigt Hill
#
# Bulk Modulus (GPa) = 41.13584 56.04002 48.58793
# Shear Modulus (GPa) = 20.65672 30.99875 25.82774
#
# Velocity S-wave (km/s) = 3.22964 3.95636 3.61133
# Velocity P-wave (km/s) = 5.88888 7.01197 6.47482
#
# Compressibility (1/GPa) = 0.02430970
#
# Stress axis : x y z
#
# Youngs Moduli (GPa) = 51.92756 69.09652 58.02359
#
# Poissons Ratio (x) = 0.16897 0.41222
# Poissons Ratio (y) = 0.12698 0.21919
# Poissons Ratio (z) = 0.36891 0.26102
#
# Static dielectric constant tensor:
#      x y z
#    x 1.844290 -0.027520 -0.001320 
#    y -0.027520 1.773680 -0.022460 
#    z -0.001320 -0.022460 1.674940 
# 
# From -- ./inp_files/366735.got.cif
#   From: 2010.05.17/outbox.cif.g08.bks.cpg/sg2_184_cif.got.tgz:366735.got - 2010.06.03 11:33:40.
