data_PCOD9093427
_publ_section_title
;
Structure prediction by ZEFSAII (Michael W. Deem and Ramdas Pophale) SiO2 
 PCOD9093427
Probable space group: P -1
;
_chemical_formula_sum "Si O2"
_cell_formula_units_Z 16
_cell_length_a 13.326160
_cell_length_b 6.478395
_cell_length_c 19.893773
_cell_angle_alpha 63.576000
_cell_angle_beta 24.449107
_cell_angle_gamma 64.880543
_cell_volume 635.698574
_symmetry_space_group_name_H-M "P -1"
_symmetry_group_IT_number 2
_symmetry_cell_setting 'triclinic'
loop_
_space_group_symop_operation_xyz
x,y,z
-x,-y,-z
loop_
_atom_site_type_symbol
_atom_site_label
_atom_site_fract_x
_atom_site_fract_y
_atom_site_fract_z
Si Si1 0.770373 0.808765 0.111473
Si Si2 0.951768 0.872281 0.447188
Si Si3 0.116349 0.499764 0.792522
Si Si4 0.252019 0.992844 0.762209
Si Si5 0.616879 0.943270 0.764760
Si Si6 0.331714 0.485373 0.023382
Si Si7 0.239843 0.957100 0.588040
Si Si8 0.847781 0.327824 0.766637
O O1 0.207254 0.160911 0.385995
O O2 0.822910 0.581673 0.156808
O O3 0.731010 0.004650 0.166402
O O4 0.539135 0.838228 0.201586
O O5 0.206773 0.968765 0.298929
O O6 0.000623 0.656475 0.397703
O O7 0.811337 0.061733 0.457785
O O8 0.201043 0.262429 0.737039
O O9 0.251933 0.714814 0.651857
O O10 0.835860 0.545905 0.934410
O O11 0.505945 0.919477 0.584219
O O12 0.007740 0.867061 0.916639
O O13 0.568347 0.316269 0.914873
O O14 0.438729 0.741083 0.919577
O O15 0.170365 0.486377 0.189730
O O16 0.999881 0.105986 0.736063
#
# Coordination Sequence:
#
# PCOD9093427 Si02
#       8
#     2   2   2   2   2   2   2   2
#     4   9  17  34  58  93 118 165 204 245 295 372
#     4   9  22  37  60  93 124 163 192 264 308 363
#     4  10  20  32  64  93 116 165 203 249 306 368
#     4   9  16  33  59  88 123 162 199 247 298 366
#     4  11  19  38  65  88 127 162 208 241 316 373
#     4  11  22  38  64  89 119 168 212 248 315 369
#     4  10  20  38  59  92 127 155 201 257 314 355
#     4   9  24  39  57  91 127 160 203 264 305 363
#
# _framework density 25.169162
#
# number of rings (size 3 to 8) (size 9 to 14) (size 15 to 20)
#    1.500    0.750    2.500    0.375    3.500    2.500 
#    0.000    0.625    0.000    4.500    0.000    0.000 
#    0.000    0.000    0.000    0.000    0.000    0.000 
#
# Total GULP energy -89255.390676 kJ/mol
# GULP energy per Si atom -5578.461917 kJ/mol
# Density = 2.511188 g / cm^3
# Si number density = 25.169162 Si / 1000 Ang^3
#
#
#
# Elastic Constant Matrix: (Units=GPa)
#
#
# Indices 1 2 3 4 5 6 
#
# 1 84.1429 29.9264 25.4487 1.2116 4.7800 -18.8619
# 2 29.9264 116.0416 56.6594 16.5827 0.8587 -21.6024
# 3 25.4487 56.6594 119.7965 14.5611 -7.3920 -13.7532
# 4 1.2116 16.5827 14.5611 23.7083 3.1559 5.0019
# 5 4.7800 0.8587 -7.3920 3.1559 38.5144 16.3112
# 6 -18.8619 -21.6024 -13.7532 5.0019 16.3112 31.1926
#
#
#
# Elastic Compliance Matrix: (Units=1/GPa)
#
#
# Indices 1 2 3 4 5 6 
#
# 1 0.015935 -0.000669 -0.002034 -0.000696 -0.007512 0.012315
# 2 -0.000669 0.014638 -0.004623 -0.009174 -0.005473 0.012028
# 3 -0.002034 -0.004623 0.011634 -0.004165 0.003020 -0.000213
# 4 -0.000696 -0.009174 -0.004165 0.054791 0.003044 -0.018988
# 5 -0.007512 -0.005473 0.003020 0.003044 0.039202 -0.027989
# 6 0.012315 0.012028 -0.000213 -0.018988 -0.027989 0.065422
#
#
# Mechanical properties :
#
#
# Convention : Reuss Voigt Hill
#
# Bulk Modulus (GPa) = 36.28987 60.45001 48.36994
# Shear Modulus (GPa) = 22.17701 32.54616 27.36159
#
# Velocity S-wave (km/s) = 2.97158 3.59987 3.30071
# Velocity P-wave (km/s) = 5.12088 6.43027 5.81256
#
# Compressibility (1/GPa) = 0.02755590
#
# Stress axis : x y z
#
# Youngs Moduli (GPa) = 62.75490 68.31603 85.95386
#
# Poissons Ratio (x) = 0.04569 0.17482
# Poissons Ratio (y) = 0.04197 0.39735
# Poissons Ratio (z) = 0.12764 0.31582
#
# Static dielectric constant tensor:
#      x y z
#    x 2.063530 0.015510 0.027980 
#    y 0.015510 1.999860 0.030630 
#    z 0.027980 0.030630 1.952330 
# 
# From -- ./inp_files/609784.got.cif
#   From: 2010.05.17/outbox.cif.g08.bks.cpg/sg2_305_cif.got.tgz:609784.got - 2010.06.03 11:33:40.
