data_PCOD9093342
_publ_section_title
;
Structure prediction by ZEFSAII (Michael W. Deem and Ramdas Pophale) SiO2 
 PCOD9093342
Probable space group: P -1
;
_chemical_formula_sum "Si O2"
_cell_formula_units_Z 13
_cell_length_a 11.056052
_cell_length_b 13.890613
_cell_length_c 4.881610
_cell_angle_alpha 71.318684
_cell_angle_beta 89.260805
_cell_angle_gamma 125.539371
_cell_volume 558.293335
_symmetry_space_group_name_H-M "P -1"
_symmetry_group_IT_number 2
_symmetry_cell_setting 'triclinic'
loop_
_space_group_symop_operation_xyz
x,y,z
-x,-y,-z
loop_
_atom_site_type_symbol
_atom_site_label
_atom_site_fract_x
_atom_site_fract_y
_atom_site_fract_z
Si Si1 0.500000 0.500000 0.000000
Si Si2 0.978614 0.322191 0.680499
Si Si3 0.794321 0.398166 0.860348
Si Si4 0.492594 0.336614 0.684255
Si Si5 0.912730 0.080851 0.696030
Si Si6 0.254461 0.461826 0.893251
Si Si7 0.199343 0.093624 0.621543
O O1 0.563908 0.631357 0.079871
O O2 0.682252 0.566377 0.825548
O O3 0.075789 0.456709 0.389018
O O4 0.111084 0.343795 0.850667
O O5 0.855639 0.318603 0.871446
O O6 0.910905 0.201163 0.599490
O O7 0.631455 0.335941 0.778646
O O8 0.776838 0.436263 0.129872
O O9 0.574793 0.451199 0.339658
O O10 0.356855 0.211419 0.643969
O O11 0.078507 0.122923 0.564483
O O12 0.790587 0.963757 0.606869
O O13 0.879575 0.023954 0.053007
#
# Coordination Sequence:
#
# PCOD9093342 Si02
#       7
#     1   2   2   2   2   2   2
#     4  10  20  32  56  88 114 152 194 242 318 360
#     4  10  20  39  60  87 120 157 209 249 303 371
#     4   9  21  37  61  89 118 156 199 259 312 354
#     4  10  21  38  57  86 121 152 200 254 309 359
#     4  10  23  41  64  88 119 168 207 249 307 361
#     4  10  20  34  57  88 118 154 190 256 311 361
#     4  10  23  42  62  89 123 163 206 255 300 371
#
# _framework density 23.285249
#
# number of rings (size 3 to 8) (size 9 to 14) (size 15 to 20)
#    0.000    2.154    0.000    1.846    6.462    2.462 
#    8.308    1.538    0.000    0.000    0.000    0.000 
#    0.000    0.000    0.000    0.000    0.000    0.000 
#
# Total GULP energy -72487.425560 kJ/mol
# GULP energy per Si atom -5575.955812 kJ/mol
# Density = 2.323225 g / cm^3
# Si number density = 23.285249 Si / 1000 Ang^3
#
#
#
# Elastic Constant Matrix: (Units=GPa)
#
#
# Indices 1 2 3 4 5 6 
#
# 1 117.6948 61.4279 7.4591 14.9898 -13.6925 -4.6952
# 2 61.4279 153.1006 18.2897 29.4742 -5.7234 -1.7606
# 3 7.4591 18.2897 56.2509 21.0003 -3.3897 -7.2083
# 4 14.9898 29.4742 21.0003 37.9480 -2.5999 -3.7517
# 5 -13.6925 -5.7234 -3.3897 -2.5999 28.3121 12.5523
# 6 -4.6952 -1.7606 -7.2083 -3.7517 12.5523 36.1770
#
#
#
# Elastic Compliance Matrix: (Units=1/GPa)
#
#
# Indices 1 2 3 4 5 6 
#
# 1 0.011356 -0.004211 0.000562 -0.001239 0.004773 -0.000404
# 2 -0.004211 0.009292 -0.000580 -0.005323 -0.000448 -0.000607
# 3 0.000562 -0.000580 0.022829 -0.012062 0.000352 0.003220
# 4 -0.001239 -0.005323 -0.012062 0.037753 -0.000161 0.001148
# 5 0.004773 -0.000448 0.000352 -0.000161 0.044054 -0.014634
# 6 -0.000404 -0.000607 0.003220 0.001148 -0.014634 0.033398
#
#
# Mechanical properties :
#
#
# Convention : Reuss Voigt Hill
#
# Bulk Modulus (GPa) = 28.55763 55.71106 42.13435
# Shear Modulus (GPa) = 27.96218 36.47873 32.22046
#
# Velocity S-wave (km/s) = 3.46909 3.96233 3.72389
# Velocity P-wave (km/s) = 5.32325 6.70155 6.05177
#
# Compressibility (1/GPa) = 0.03501691
#
# Stress axis : x y z
#
# Youngs Moduli (GPa) = 88.06090 107.62407 43.80452
#
# Poissons Ratio (x) = 0.45321 -0.02460
# Poissons Ratio (y) = 0.37083 0.02542
# Poissons Ratio (z) = -0.04946 0.06244
#
# Static dielectric constant tensor:
#      x y z
#    x 2.077090 -0.021820 0.189140 
#    y -0.021820 1.869070 0.016280 
#    z 0.189140 0.016280 2.232150 
# 
# From -- ./inp_files/24878.got.cif
#   From: 2010.05.17/outbox.cif.g08.bks.cpg/sg2_13_cif.got.tgz:24878.got - 2010.06.03 11:33:40.
