data_PCOD9093890
_publ_section_title
;
Structure prediction by ZEFSAII (Michael W. Deem and Ramdas Pophale) SiO2 
 PCOD9093890
Probable space group: P -1
;
_chemical_formula_sum "Si O2"
_cell_formula_units_Z 14
_cell_length_a 11.934582
_cell_length_b 10.785629
_cell_length_c 8.663652
_cell_angle_alpha 106.958405
_cell_angle_beta 114.051726
_cell_angle_gamma 112.855225
_cell_volume 792.983721
_symmetry_space_group_name_H-M "P -1"
_symmetry_group_IT_number 2
_symmetry_cell_setting 'triclinic'
loop_
_space_group_symop_operation_xyz
x,y,z
-x,-y,-z
loop_
_atom_site_type_symbol
_atom_site_label
_atom_site_fract_x
_atom_site_fract_y
_atom_site_fract_z
Si Si1 0.360572 0.377706 0.574299
Si Si2 0.427442 0.257216 0.287155
Si Si3 0.813845 0.525572 0.339481
Si Si4 0.373048 0.031069 0.903043
Si Si5 0.555978 0.308152 0.870553
Si Si6 0.618255 0.182105 0.579573
Si Si7 0.151500 0.705549 0.512314
O O1 0.329626 0.270136 0.367677
O O2 0.466589 0.564394 0.655258
O O3 0.458928 0.356597 0.744416
O O4 0.211741 0.351779 0.549683
O O5 0.529088 0.219472 0.425472
O O6 0.356960 0.127404 0.064460
O O7 0.811828 0.408857 0.423297
O O8 0.972488 0.610562 0.373035
O O9 0.436709 0.143539 0.830249
O O10 0.674024 0.426664 0.107941
O O11 0.223436 0.860656 0.717060
O O12 0.500000 0.000000 0.000000
O O13 0.648438 0.284032 0.786156
O O14 0.764705 0.231349 0.582516
O O15 0.500000 0.000000 0.500000
#
# Coordination Sequence:
#
# PCOD9093890 Si02
#       7
#     2   2   2   2   2   2   2
#     4  10  20  37  57  86 113 150 192 237 272 344
#     4  10  20  33  60  85 111 144 199 233 277 325
#     4  11  22  40  57  86 118 153 183 236 290 342
#     4  12  18  36  59  89 108 147 196 236 277 338
#     4  11  21  32  64  85 108 150 199 232 276 337
#     4  11  19  34  58  90 111 142 190 245 279 327
#     4  11  23  37  60  85 120 148 185 237 298 331
#
# _framework density 17.654838999999999
#
# number of rings (size 3 to 8) (size 9 to 14) (size 15 to 20)
#    0.000    1.143    7.143    0.429    0.000    0.571 
#    0.000    1.429    0.000    0.000    0.000    0.000 
#    0.000    0.000    0.000    0.000    0.000    0.000 
#
# Total GULP energy -78059.612423 kJ/mol
# GULP energy per Si atom -5575.686602 kJ/mol
# Density = 1.761466 g / cm^3
# Si number density = 17.654839 Si / 1000 Ang^3
#
#
#
# Elastic Constant Matrix: (Units=GPa)
#
#
# Indices 1 2 3 4 5 6 
#
# 1 116.1463 42.9624 37.0739 -2.3361 -24.8812 9.5758
# 2 42.9624 109.9043 8.6840 -5.8741 7.1035 -5.3255
# 3 37.0739 8.6840 52.9893 -1.7796 -18.1772 1.5777
# 4 -2.3361 -5.8741 -1.7796 23.6233 2.3372 -2.2891
# 5 -24.8812 7.1035 -18.1772 2.3372 26.8624 -1.5970
# 6 9.5758 -5.3255 1.5777 -2.2891 -1.5970 28.7480
#
#
#
# Elastic Compliance Matrix: (Units=1/GPa)
#
#
# Indices 1 2 3 4 5 6 
#
# 1 0.016309 -0.007189 -0.005668 -0.002465 0.013035 -0.005925
# 2 -0.007189 0.013103 -0.000805 0.003994 -0.010743 0.004587
# 3 -0.005668 -0.000805 0.027651 0.000060 0.013727 0.000989
# 4 -0.002465 0.003994 0.000060 0.044219 -0.006867 0.004697
# 5 0.013035 -0.010743 0.013727 -0.006867 0.061778 -0.004200
# 6 -0.005925 0.004587 0.000989 0.004697 -0.004200 0.037695
#
#
# Mechanical properties :
#
#
# Convention : Reuss Voigt Hill
#
# Bulk Modulus (GPa) = 33.62619 50.72005 42.17312
# Shear Modulus (GPa) = 21.00906 28.53472 24.77189
#
# Velocity S-wave (km/s) = 3.45336 4.02463 3.74989
# Velocity P-wave (km/s) = 5.91513 7.09844 6.53363
#
# Compressibility (1/GPa) = 0.02973873
#
# Stress axis : x y z
#
# Youngs Moduli (GPa) = 61.31413 76.31938 36.16536
#
# Poissons Ratio (x) = 0.54866 0.20498
# Poissons Ratio (y) = 0.44079 0.02913
# Poissons Ratio (z) = 0.34751 0.06147
#
# Static dielectric constant tensor:
#      x y z
#    x 1.634520 0.005970 -0.063490 
#    y 0.005970 1.606490 -0.007740 
#    z -0.063490 -0.007740 1.621900 
# 
# From -- ./inp_files/255078.got.cif
#   From: 2010.05.17/outbox.cif.g08.bks.cpg/sg2_128_cif.got.tgz:255078.got - 2010.06.03 11:33:40.
