data_PCOD9093148
_publ_section_title
;
Structure prediction by ZEFSAII (Michael W. Deem and Ramdas Pophale) SiO2 
 PCOD9093148
Probable space group: P -1
;
_chemical_formula_sum "Si O2"
_cell_formula_units_Z 12
_cell_length_a 11.398729
_cell_length_b 8.234883
_cell_length_c 8.221612
_cell_angle_alpha 88.583787
_cell_angle_beta 120.294008
_cell_angle_gamma 125.099154
_cell_volume 505.269779
_symmetry_space_group_name_H-M "P -1"
_symmetry_group_IT_number 2
_symmetry_cell_setting 'triclinic'
loop_
_space_group_symop_operation_xyz
x,y,z
-x,-y,-z
loop_
_atom_site_type_symbol
_atom_site_label
_atom_site_fract_x
_atom_site_fract_y
_atom_site_fract_z
Si Si1 0.270285 0.203614 0.189814
Si Si2 0.459368 0.233987 0.044613
Si Si3 0.337027 0.588363 0.384026
Si Si4 0.197038 0.345165 0.598721
Si Si5 0.124058 0.940712 0.387224
Si Si6 0.526503 0.942565 0.271027
O O1 0.281176 0.162907 0.009580
O O2 0.272233 0.395680 0.222516
O O3 0.464540 0.302983 0.406229
O O4 0.122512 0.992803 0.196542
O O5 0.613762 0.482260 0.186271
O O6 0.497986 0.095559 0.171319
O O7 0.467578 0.184711 0.867019
O O8 0.204121 0.474541 0.447304
O O9 0.375094 0.775723 0.298758
O O10 0.046702 0.254440 0.630087
O O11 0.177177 0.152179 0.509428
O O12 0.280029 0.930806 0.517702
#
# Coordination Sequence:
#
# PCOD9093148 Si02
#       6
#     2   2   2   2   2   2
#     4   8  15  29  49  70  91 120 158 194 230 276
#     4  10  20  32  47  70  98 127 159 192 229 277
#     4   8  15  29  49  70  91 120 158 194 230 276
#     4   9  18  33  52  73  95 120 155 197 237 279
#     4   9  18  33  52  73  95 120 155 197 237 279
#     4  10  20  32  47  70  98 127 159 192 229 277
#
# _framework density 23.749689
#
# number of rings (size 3 to 8) (size 9 to 14) (size 15 to 20)
#    0.000    3.000    0.000    3.000    0.000    9.333 
#    0.000    1.667    0.000   10.000    0.000    0.000 
#    0.000    0.000    0.000    0.000    0.000    0.000 
#
# Total GULP energy -67042.551657 kJ/mol
# GULP energy per Si atom -5586.879305 kJ/mol
# Density = 2.369563 g / cm^3
# Si number density = 23.749689 Si / 1000 Ang^3
#
#
#
# Elastic Constant Matrix: (Units=GPa)
#
#
# Indices 1 2 3 4 5 6 
#
# 1 89.2198 47.7400 28.9932 -8.0752 -37.9720 36.9933
# 2 47.7400 123.3771 27.7931 -27.1471 -4.8857 49.9149
# 3 28.9932 27.7931 50.6352 -11.2540 -18.1583 3.2734
# 4 -8.0752 -27.1471 -11.2540 32.0305 -7.2591 -13.7547
# 5 -37.9720 -4.8857 -18.1583 -7.2591 35.6538 -5.3090
# 6 36.9933 49.9149 3.2734 -13.7547 -5.3090 40.4954
#
#
#
# Elastic Compliance Matrix: (Units=1/GPa)
#
#
# Indices 1 2 3 4 5 6 
#
# 1 0.045678 0.001746 -0.010494 0.001980 0.038387 -0.037326
# 2 0.001746 0.021299 -0.012640 0.001152 -0.005468 -0.027152
# 3 -0.010494 -0.012640 0.040053 0.016950 0.015364 0.029701
# 4 0.001980 0.001152 0.016950 0.050748 0.023573 0.015730
# 5 0.038387 -0.005468 0.015364 0.023573 0.079140 -0.011187
# 6 -0.037326 -0.027152 0.029701 0.015730 -0.011187 0.093736
#
#
# Mechanical properties :
#
#
# Convention : Reuss Voigt Hill
#
# Bulk Modulus (GPa) = 15.56337 52.47609 34.01973
# Shear Modulus (GPa) = 12.66314 32.21631 22.43973
#
# Velocity S-wave (km/s) = 2.31160 3.68706 3.07716
# Velocity P-wave (km/s) = 3.70027 6.34581 5.19429
#
# Compressibility (1/GPa) = 0.06425345
#
# Stress axis : x y z
#
# Youngs Moduli (GPa) = 21.89261 46.95059 24.96706
#
# Poissons Ratio (x) = -0.08198 0.26200
# Poissons Ratio (y) = -0.03823 0.31559
# Poissons Ratio (z) = 0.22974 0.59346
#
# Static dielectric constant tensor:
#      x y z
#    x 1.929040 0.022590 -0.006960 
#    y 0.022590 1.898360 -0.038750 
#    z -0.006960 -0.038750 1.950970 
# 
# From -- ./inp_files/146515.got.cif
#   From: 2010.05.17/outbox.cif.g08.bks.cpg/sg2_74_cif.got.tgz:146515.got - 2010.06.03 11:33:40.
