data_PCOD9093018
_publ_section_title
;
Structure prediction by ZEFSAII (Michael W. Deem and Ramdas Pophale) SiO2 
 PCOD9093018
Probable space group: P -1
;
_chemical_formula_sum "Si O2"
_cell_formula_units_Z 12
_cell_length_a 14.659582
_cell_length_b 14.071345
_cell_length_c 13.084377
_cell_angle_alpha 141.152083
_cell_angle_beta 30.185821
_cell_angle_gamma 160.532299
_cell_volume 441.626812
_symmetry_space_group_name_H-M "P -1"
_symmetry_group_IT_number 2
_symmetry_cell_setting 'triclinic'
loop_
_space_group_symop_operation_xyz
x,y,z
-x,-y,-z
loop_
_atom_site_type_symbol
_atom_site_label
_atom_site_fract_x
_atom_site_fract_y
_atom_site_fract_z
Si Si1 0.579976 0.712635 0.156379
Si Si2 0.671120 0.626345 0.698895
Si Si3 0.896250 0.238128 0.840354
Si Si4 0.210280 0.214773 0.614212
Si Si5 0.391232 0.733672 0.162323
Si Si6 0.157315 0.660836 0.810203
O O1 0.381269 0.550056 0.319849
O O2 0.427725 0.735134 0.250000
O O3 0.500000 0.500000 0.000000
O O4 0.000000 0.000000 0.000000
O O5 0.348245 0.373859 0.722751
O O6 0.609791 0.743915 0.916398
O O7 0.064703 0.940134 0.539464
O O8 0.886114 0.056731 0.731828
O O9 0.155478 0.485966 0.707818
O O10 0.018250 0.396990 0.964119
O O11 0.500000 0.000000 0.000000
O O12 0.500000 0.500000 0.500000
O O13 0.044072 0.471583 0.211930
O O14 0.529339 0.998682 0.222541
#
# Coordination Sequence:
#
# PCOD9093018 Si02
#       6
#     2   2   2   2   2   2
#     4  10  20  30  53  83 111 148 185 230 296 348
#     4  11  20  38  53  79 121 151 185 240 283 336
#     4  11  22  35  56  82 113 152 189 234 288 327
#     4  12  25  39  57  82 117 161 194 225 280 344
#     4  11  18  33  53  83 112 142 180 231 295 335
#     4  11  20  31  52  80 113 141 175 231 287 330
#
# _framework density 27.172262
#
# number of rings (size 3 to 8) (size 9 to 14) (size 15 to 20)
#    0.000    1.000    5.000    4.500    2.333    0.000 
#    0.000    0.000    0.000    0.000    0.000    7.000 
#    0.000    0.000    0.000    0.000    0.000    0.000 
#
# Total GULP energy -66927.764780 kJ/mol
# GULP energy per Si atom -5577.313732 kJ/mol
# Density = 2.711042 g / cm^3
# Si number density = 27.172262 Si / 1000 Ang^3
#
#
#
# Elastic Constant Matrix: (Units=GPa)
#
#
# Indices 1 2 3 4 5 6 
#
# 1 208.0418 50.5281 54.3223 -6.6715 45.5004 -15.4649
# 2 50.5281 210.5785 27.6844 -19.5170 6.6346 11.6237
# 3 54.3223 27.6844 51.6458 -16.8343 14.7285 0.5277
# 4 -6.6715 -19.5170 -16.8343 29.5793 -8.4651 3.4042
# 5 45.5004 6.6346 14.7285 -8.4651 46.3548 -2.0460
# 6 -15.4649 11.6237 0.5277 3.4042 -2.0460 60.2164
#
#
#
# Elastic Compliance Matrix: (Units=1/GPa)
#
#
# Indices 1 2 3 4 5 6 
#
# 1 0.008945 -0.001516 -0.008706 -0.006207 -0.006808 0.002786
# 2 -0.001516 0.005570 -0.000626 0.003584 0.001474 -0.001612
# 3 -0.008706 -0.000626 0.034490 0.017870 0.000790 -0.003401
# 4 -0.006207 0.003584 0.017870 0.047917 0.008437 -0.004865
# 5 -0.006808 0.001474 0.000790 0.008437 0.029267 -0.001522
# 6 0.002786 -0.001612 -0.003401 -0.004865 -0.001522 0.017886
#
#
# Mechanical properties :
#
#
# Convention : Reuss Voigt Hill
#
# Bulk Modulus (GPa) = 36.62024 81.70396 59.16210
# Shear Modulus (GPa) = 28.59193 49.74551 39.16872
#
# Velocity S-wave (km/s) = 3.24735 4.28336 3.80082
# Velocity P-wave (km/s) = 5.25040 7.38898 6.40952
#
# Compressibility (1/GPa) = 0.02730730
#
# Stress axis : x y z
#
# Youngs Moduli (GPa) = 111.79161 179.54323 28.99394
#
# Poissons Ratio (x) = 0.27225 0.25243
# Poissons Ratio (y) = 0.16952 0.01816
# Poissons Ratio (z) = 0.97327 0.11244
#
# Static dielectric constant tensor:
#      x y z
#    x 2.277940 -0.099380 -0.151960 
#    y -0.099380 2.123350 0.109730 
#    z -0.151960 0.109730 2.797110 
# 
# From -- ./inp_files/339295.got.cif
#   From: 2010.05.17/outbox.cif.g08.bks.cpg/sg2_170_cif.got.tgz:339295.got - 2010.06.03 11:33:40.
