data_PCOD9093758
_publ_section_title
;
Structure prediction by ZEFSAII (Michael W. Deem and Ramdas Pophale) SiO2 
 PCOD9093758
Probable space group: P -1
;
_chemical_formula_sum "Si O2"
_cell_formula_units_Z 16
_cell_length_a 13.585990
_cell_length_b 8.598922
_cell_length_c 11.385383
_cell_angle_alpha 34.390903
_cell_angle_beta 58.251260
_cell_angle_gamma 68.395354
_cell_volume 632.803023
_symmetry_space_group_name_H-M "P -1"
_symmetry_group_IT_number 2
_symmetry_cell_setting 'triclinic'
loop_
_space_group_symop_operation_xyz
x,y,z
-x,-y,-z
loop_
_atom_site_type_symbol
_atom_site_label
_atom_site_fract_x
_atom_site_fract_y
_atom_site_fract_z
Si Si1 0.066104 0.424450 0.702769
Si Si2 0.411230 0.430491 0.261008
Si Si3 0.777414 0.631632 0.136838
Si Si4 0.980636 0.979384 0.663418
Si Si5 0.132207 0.936894 0.810062
Si Si6 0.627823 0.811631 0.804974
Si Si7 0.347821 0.725733 0.745030
Si Si8 0.361264 0.896074 0.152483
O O1 0.063696 0.727513 0.462673
O O2 0.090971 0.206834 0.724912
O O3 0.162955 0.413128 0.749739
O O4 0.943385 0.313286 0.914457
O O5 0.356165 0.224842 0.321168
O O6 0.512583 0.273432 0.351820
O O7 0.341232 0.587729 0.301835
O O8 0.487933 0.698054 0.980056
O O9 0.883965 0.731384 0.919101
O O10 0.700779 0.886263 0.020763
O O11 0.701508 0.363165 0.296680
O O12 0.000000 0.000000 0.500000
O O13 0.091333 0.939540 0.698562
O O14 0.269904 0.923866 0.738408
O O15 0.665912 0.054635 0.723560
O O16 0.685197 0.558820 0.982011
O O17 0.500000 0.000000 0.000000
#
# Coordination Sequence:
#
# PCOD9093758 Si02
#       8
#     2   2   2   2   2   2   2   2
#     4  10  22  37  55  82 110 143 182 233 283 327
#     4   8  14  25  44  74 109 142 172 225 276 313
#     4  10  20  33  57  86 106 144 191 218 281 339
#     4  11  22  38  57  77 113 147 180 235 277 330
#     4  10  21  36  57  81 109 143 187 228 277 339
#     4   7  14  23  40  70 110 136 175 218 269 323
#     4   9  16  29  47  80 107 134 185 221 261 337
#     4   9  15  28  49  80 112 140 180 233 268 330
#
# _framework density 25.284330000000001
#
# number of rings (size 3 to 8) (size 9 to 14) (size 15 to 20)
#    0.750    2.000    1.250    1.875    1.750    2.000 
#    0.000    0.000    0.000    0.750    0.000    0.875 
#    0.000    1.125    0.000    0.000    0.000    0.000 
#
# Total GULP energy -89322.106052 kJ/mol
# GULP energy per Si atom -5582.631628 kJ/mol
# Density = 2.522678 g / cm^3
# Si number density = 25.284330 Si / 1000 Ang^3
#
#
#
# Elastic Constant Matrix: (Units=GPa)
#
#
# Indices 1 2 3 4 5 6 
#
# 1 84.6900 22.8951 10.7058 1.4196 15.5572 -7.0008
# 2 22.8951 163.4451 32.1580 -19.6299 12.4339 4.8327
# 3 10.7058 32.1580 65.4213 4.2105 -1.6412 2.3588
# 4 1.4196 -19.6299 4.2105 39.8087 6.9467 5.8926
# 5 15.5572 12.4339 -1.6412 6.9467 22.8682 -5.2722
# 6 -7.0008 4.8327 2.3588 5.8926 -5.2722 46.4354
#
#
#
# Elastic Compliance Matrix: (Units=1/GPa)
#
#
# Indices 1 2 3 4 5 6 
#
# 1 0.014092 -0.000755 -0.002263 0.000820 -0.009321 0.001156
# 2 -0.000755 0.008445 -0.004514 0.006203 -0.006822 -0.002325
# 3 -0.002263 -0.004514 0.018378 -0.005435 0.007124 0.000694
# 4 0.000820 0.006203 -0.005435 0.032345 -0.015556 -0.006117
# 5 -0.009321 -0.006822 0.007124 -0.015556 0.060820 0.007822
# 6 0.001156 -0.002325 0.000694 -0.006117 0.007822 0.023581
#
#
# Mechanical properties :
#
#
# Convention : Reuss Voigt Hill
#
# Bulk Modulus (GPa) = 38.68423 49.45270 44.06847
# Shear Modulus (GPa) = 27.57217 38.34230 32.95724
#
# Velocity S-wave (km/s) = 3.30583 3.89838 3.61427
# Velocity P-wave (km/s) = 5.46848 6.31381 5.90629
#
# Compressibility (1/GPa) = 0.02585032
#
# Stress axis : x y z
#
# Youngs Moduli (GPa) = 70.96178 118.41313 54.41204
#
# Poissons Ratio (x) = 0.08944 0.12314
# Poissons Ratio (y) = 0.05360 0.24562
# Poissons Ratio (z) = 0.16059 0.53453
#
# Static dielectric constant tensor:
#      x y z
#    x 2.034480 0.009100 -0.029050 
#    y 0.009100 2.039790 -0.021490 
#    z -0.029050 -0.021490 2.062610 
# 
# From -- ./inp_files/443893.got.cif
#   From: 2010.05.17/outbox.cif.g08.bks.cpg/sg2_222_cif.got.tgz:443893.got - 2010.06.03 11:33:40.
