data_PCOD9093916
_publ_section_title
;
Structure prediction by ZEFSAII (Michael W. Deem and Ramdas Pophale) SiO2 
 PCOD9093916
Probable space group: P -1
;
_chemical_formula_sum "Si O2"
_cell_formula_units_Z 12
_cell_length_a 19.275279
_cell_length_b 5.521708
_cell_length_c 11.961111
_cell_angle_alpha 108.155126
_cell_angle_beta 144.569831
_cell_angle_gamma 56.580447
_cell_volume 590.703081
_symmetry_space_group_name_H-M "P -1"
_symmetry_group_IT_number 2
_symmetry_cell_setting 'triclinic'
loop_
_space_group_symop_operation_xyz
x,y,z
-x,-y,-z
loop_
_atom_site_type_symbol
_atom_site_label
_atom_site_fract_x
_atom_site_fract_y
_atom_site_fract_z
Si Si1 0.887973 0.351128 0.419892
Si Si2 0.665654 0.837878 0.329659
Si Si3 0.394396 0.849355 0.937004
Si Si4 0.160485 0.339332 0.822290
Si Si5 0.817097 0.928028 0.747444
Si Si6 0.843286 0.484916 0.908180
O O1 0.819841 0.486955 0.229267
O O2 0.994667 0.456309 0.613070
O O3 0.769661 0.482610 0.380289
O O4 0.000000 0.000000 0.500000
O O5 0.503386 0.936358 0.141017
O O6 0.725965 0.918562 0.525055
O O7 0.668514 0.000042 0.243728
O O8 0.500000 0.500000 0.000000
O O9 0.264855 0.987364 0.873529
O O10 0.192752 0.403890 0.995906
O O11 0.794132 0.765713 0.799843
O O12 0.788848 0.261286 0.777809
O O13 0.984821 0.719070 0.907349
#
# Coordination Sequence:
#
# PCOD9093916 Si02
#       6
#     2   2   2   2   2   2
#     4  10  20  33  61  87 117 153 197 265 311 356
#     4  10  21  39  58  90 117 161 209 245 312 372
#     4  10  22  39  61  84 122 164 199 257 310 363
#     4  10  21  37  55  92 118 152 209 254 305 363
#     4  10  22  39  63  89 125 163 203 253 310 369
#     4  10  22  39  61  93 123 162 202 257 308 366
#
# _framework density 20.314774
#
# number of rings (size 3 to 8) (size 9 to 14) (size 15 to 20)
#    0.000    2.000    1.667    1.000    4.667    1.333 
#    0.000    1.667    0.000    0.000    0.000    0.000 
#    0.000    0.000    0.000    0.000    0.000    0.000 
#
# Total GULP energy -66903.712667 kJ/mol
# GULP energy per Si atom -5575.309389 kJ/mol
# Density = 2.026854 g / cm^3
# Si number density = 20.314774 Si / 1000 Ang^3
#
#
#
# Elastic Constant Matrix: (Units=GPa)
#
#
# Indices 1 2 3 4 5 6 
#
# 1 87.1937 43.6982 62.2055 12.7127 -13.3192 -6.5277
# 2 43.6982 104.0127 42.8360 4.5779 -18.6933 -0.6197
# 3 62.2055 42.8360 143.9546 19.8971 -23.9067 -2.7800
# 4 12.7127 4.5779 19.8971 28.8257 -12.8683 3.9753
# 5 -13.3192 -18.6933 -23.9067 -12.8683 35.7134 -0.5900
# 6 -6.5277 -0.6197 -2.7800 3.9753 -0.5900 31.5276
#
#
#
# Elastic Compliance Matrix: (Units=1/GPa)
#
#
# Indices 1 2 3 4 5 6 
#
# 1 0.019525 -0.005651 -0.006293 -0.004567 -0.001469 0.003925
# 2 -0.005651 0.013261 -0.001157 0.003787 0.005400 -0.001388
# 3 -0.006293 -0.001157 0.010994 -0.003190 0.003260 0.000107
# 4 -0.004567 0.003787 -0.003190 0.045694 0.014499 -0.006643
# 5 -0.001469 0.005400 0.003260 0.014499 0.037669 -0.001034
# 6 0.003925 -0.001388 0.000107 -0.006643 -0.001034 0.033331
#
#
# Mechanical properties :
#
#
# Convention : Reuss Voigt Hill
#
# Bulk Modulus (GPa) = 56.88887 70.29340 63.59114
# Shear Modulus (GPa) = 25.96907 31.64143 28.80525
#
# Velocity S-wave (km/s) = 3.57926 3.95087 3.76965
# Velocity P-wave (km/s) = 6.71907 7.44914 7.09351
#
# Compressibility (1/GPa) = 0.01757813
#
# Stress axis : x y z
#
# Youngs Moduli (GPa) = 51.21509 75.41097 90.95508
#
# Poissons Ratio (x) = 0.42617 0.57235
# Poissons Ratio (y) = 0.28943 0.10527
# Poissons Ratio (z) = 0.32228 0.08728
#
# Static dielectric constant tensor:
#      x y z
#    x 1.734210 0.035130 0.050210 
#    y 0.035130 1.856240 -0.000690 
#    z 0.050210 -0.000690 1.703960 
# 
# From -- ./inp_files/60911.got.cif
#   From: 2010.05.17/outbox.cif.g08.bks.cpg/sg2_31_cif.got.tgz:60911.got - 2010.06.03 11:33:40.
