data_PCOD9093737
_publ_section_title
;
Structure prediction by ZEFSAII (Michael W. Deem and Ramdas Pophale) SiO2 
 PCOD9093737
Probable space group: P -1
;
_chemical_formula_sum "Si O2"
_cell_formula_units_Z 14
_cell_length_a 12.593827
_cell_length_b 16.153602
_cell_length_c 12.679410
_cell_angle_alpha 35.697231
_cell_angle_beta 130.293683
_cell_angle_gamma 154.123566
_cell_volume 620.130771
_symmetry_space_group_name_H-M "P -1"
_symmetry_group_IT_number 2
_symmetry_cell_setting 'triclinic'
loop_
_space_group_symop_operation_xyz
x,y,z
-x,-y,-z
loop_
_atom_site_type_symbol
_atom_site_label
_atom_site_fract_x
_atom_site_fract_y
_atom_site_fract_z
Si Si1 0.792816 0.969297 0.922845
Si Si2 0.880412 0.921494 0.242322
Si Si3 0.105248 0.632522 0.794196
Si Si4 0.619274 0.122409 0.707544
Si Si5 0.769693 0.591237 0.885228
Si Si6 0.934721 0.333208 0.495696
Si Si7 0.719716 0.530850 0.675384
O O1 0.680588 0.008441 0.878124
O O2 0.944661 0.187929 0.706172
O O3 0.929103 0.991365 0.076335
O O4 0.538085 0.679283 0.011226
O O5 0.868113 0.751100 0.455239
O O6 0.584293 0.718130 0.281362
O O7 0.077041 0.178822 0.173979
O O8 0.186791 0.755714 0.603669
O O9 0.832060 0.468975 0.809941
O O10 0.316598 0.878824 0.754591
O O11 0.125902 0.480883 0.964267
O O12 0.758287 0.270905 0.529542
O O13 0.780598 0.355633 0.648940
O O14 0.781959 0.644890 0.714220
#
# Coordination Sequence:
#
# PCOD9093737 Si02
#       7
#     2   2   2   2   2   2   2
#     4   8  17  31  52  80  97 129 179 206 239 312
#     4  10  20  38  56  68 102 146 171 207 252 306
#     4  11  20  32  54  82 107 129 163 223 258 288
#     4   8  17  30  51  79 108 129 169 204 252 308
#     4  10  20  33  57  76  98 137 175 211 255 297
#     4   9  17  31  52  81 105 135 163 204 262 308
#     4  10  23  37  49  77 106 133 177 211 252 305
#
# _framework density 22.575883000000001
#
# number of rings (size 3 to 8) (size 9 to 14) (size 15 to 20)
#    0.857    1.714    0.000    2.143    0.000    1.714 
#    0.000    0.714    0.000    1.714    0.000    0.000 
#    0.000    0.000    0.000    0.000    0.000    0.000 
#
# Total GULP energy -78069.525170 kJ/mol
# GULP energy per Si atom -5576.394655 kJ/mol
# Density = 2.252450 g / cm^3
# Si number density = 22.575883 Si / 1000 Ang^3
#
#
#
# Elastic Constant Matrix: (Units=GPa)
#
#
# Indices 1 2 3 4 5 6 
#
# 1 26.6853 20.6719 2.9901 0.3072 4.9217 7.8738
# 2 20.6719 137.6376 55.2297 -7.2657 13.5664 -19.4163
# 3 2.9901 55.2297 104.1540 4.2344 -1.8475 -12.1469
# 4 0.3072 -7.2657 4.2344 29.9428 -3.9824 1.9161
# 5 4.9217 13.5664 -1.8475 -3.9824 17.0535 9.7544
# 6 7.8738 -19.4163 -12.1469 1.9161 9.7544 26.7685
#
#
#
# Elastic Compliance Matrix: (Units=1/GPa)
#
#
# Indices 1 2 3 4 5 6 
#
# 1 0.055830 -0.015621 0.003305 -0.000895 0.014456 -0.031457
# 2 -0.015621 0.017968 -0.006848 0.000893 -0.023482 0.023013
# 3 0.003305 -0.006848 0.013099 -0.002530 0.006590 -0.002215
# 4 -0.000895 0.000893 -0.002530 0.035995 0.011735 -0.007090
# 5 0.014456 -0.023482 0.006590 0.011735 0.110598 -0.059436
# 6 -0.031457 0.023013 -0.002215 -0.007090 -0.059436 0.084463
#
#
# Mechanical properties :
#
#
# Convention : Reuss Voigt Hill
#
# Bulk Modulus (GPa) = 20.58975 47.36224 33.97600
# Shear Modulus (GPa) = 13.42387 27.39199 20.40793
#
# Velocity S-wave (km/s) = 2.44111 3.48707 3.00987
# Velocity P-wave (km/s) = 4.13345 6.10226 5.21167
#
# Compressibility (1/GPa) = 0.04856786
#
# Stress axis : x y z
#
# Youngs Moduli (GPa) = 17.91151 55.65600 76.34156
#
# Poissons Ratio (x) = 0.86940 -0.25228
# Poissons Ratio (y) = 0.27979 0.52280
# Poissons Ratio (z) = -0.05919 0.38114
#
# Static dielectric constant tensor:
#      x y z
#    x 1.892350 0.030700 -0.035060 
#    y 0.030700 1.829340 0.018710 
#    z -0.035060 0.018710 1.862090 
# 
# From -- ./inp_files/208031.got.cif
#   From: 2010.05.17/outbox.cif.g08.bks.cpg/sg2_105_cif.got.tgz:208031.got - 2010.06.03 11:33:40.
