data_PCOD9093683
_publ_section_title
;
Structure prediction by ZEFSAII (Michael W. Deem and Ramdas Pophale) SiO2 
 PCOD9093683
Probable space group: P -1
;
_chemical_formula_sum "Si O2"
_cell_formula_units_Z 16
_cell_length_a 14.426014
_cell_length_b 16.855456
_cell_length_c 5.156954
_cell_angle_alpha 62.594207
_cell_angle_beta 67.989679
_cell_angle_gamma 34.068963
_cell_volume 623.560202
_symmetry_space_group_name_H-M "P -1"
_symmetry_group_IT_number 2
_symmetry_cell_setting 'triclinic'
loop_
_space_group_symop_operation_xyz
x,y,z
-x,-y,-z
loop_
_atom_site_type_symbol
_atom_site_label
_atom_site_fract_x
_atom_site_fract_y
_atom_site_fract_z
Si Si1 0.284483 0.336081 0.554039
Si Si2 0.762656 0.827243 0.375334
Si Si3 0.201432 0.579729 0.353221
Si Si4 0.374191 0.845480 0.731677
Si Si5 0.816620 0.964505 0.848145
Si Si6 0.559295 0.375257 0.300419
Si Si7 0.416752 0.121105 0.119754
Si Si8 0.154773 0.723544 0.668006
O O1 0.228969 0.277210 0.606081
O O2 0.157085 0.506889 0.479127
O O3 0.430569 0.268823 0.317101
O O4 0.370925 0.248941 0.864131
O O5 0.753212 0.802619 0.718671
O O6 0.578590 0.007887 0.302625
O O7 0.859937 0.834622 0.115119
O O8 0.390469 0.450054 0.463229
O O9 0.110307 0.703506 0.479688
O O10 0.204099 0.620628 0.003719
O O11 0.357111 0.757620 0.770261
O O12 0.286628 0.966632 0.413803
O O13 0.284129 0.916789 0.994406
O O14 0.989046 0.886720 0.706417
O O15 0.690840 0.319219 0.452205
O O16 0.500000 0.500000 0.000000
O O17 0.500000 0.000000 0.000000
#
# Coordination Sequence:
#
# PCOD9093683 Si02
#       8
#     2   2   2   2   2   2   2   2
#     4  10  21  35  62  91 121 156 214 263 302 350
#     4  10  20  33  55  86 126 165 197 252 311 351
#     4  10  23  42  67  91 118 158 216 259 299 359
#     4  11  24  39  64  98 122 159 204 255 305 366
#     4  12  25  40  60  91 134 164 202 243 305 380
#     4   9  22  44  71  94 122 155 203 260 313 357
#     4   9  16  30  52  81 114 153 199 246 301 347
#     4  11  24  44  63  88 125 169 200 250 313 367
#
# _framework density 25.659110999999999
#
# number of rings (size 3 to 8) (size 9 to 14) (size 15 to 20)
#    0.000    1.750    1.250    3.375    3.500    8.000 
#    0.000    1.250    0.000    0.000    0.000    0.000 
#    0.000    0.000    0.000    0.000    0.000    0.000 
#
# Total GULP energy -89267.268211 kJ/mol
# GULP energy per Si atom -5579.204263 kJ/mol
# Density = 2.560071 g / cm^3
# Si number density = 25.659111 Si / 1000 Ang^3
#
#
#
# Elastic Constant Matrix: (Units=GPa)
#
#
# Indices 1 2 3 4 5 6 
#
# 1 77.2527 24.3615 15.0154 0.5750 -2.6035 16.8194
# 2 24.3615 61.0857 14.7125 12.0739 -5.3649 24.7838
# 3 15.0154 14.7125 88.6343 9.6721 11.2047 15.2884
# 4 0.5750 12.0739 9.6721 34.2373 12.5464 -3.9876
# 5 -2.6035 -5.3649 11.2047 12.5464 35.1161 4.2296
# 6 16.8194 24.7838 15.2884 -3.9876 4.2296 48.6234
#
#
#
# Elastic Compliance Matrix: (Units=1/GPa)
#
#
# Indices 1 2 3 4 5 6 
#
# 1 0.015345 -0.005133 -0.001627 0.001559 0.000569 -0.002101
# 2 -0.005133 0.028945 -0.001121 -0.015902 0.011883 -0.014963
# 3 -0.001627 -0.001121 0.012899 -0.002372 -0.003218 -0.002836
# 4 0.001559 -0.015902 -0.002372 0.043965 -0.018898 0.013562
# 5 0.000569 0.011883 -0.003218 -0.018898 0.039344 -0.010214
# 6 -0.002101 -0.014963 -0.002836 0.013562 -0.010214 0.031813
#
#
# Mechanical properties :
#
#
# Convention : Reuss Voigt Hill
#
# Bulk Modulus (GPa) = 24.13910 37.23903 30.68907
# Shear Modulus (GPa) = 24.76703 35.12092 29.94398
#
# Velocity S-wave (km/s) = 3.11019 3.70368 3.41983
# Velocity P-wave (km/s) = 4.72501 5.73011 5.25166
#
# Compressibility (1/GPa) = 0.04142657
#
# Stress axis : x y z
#
# Youngs Moduli (GPa) = 65.16938 34.54779 77.52575
#
# Poissons Ratio (x) = 0.17735 0.12613
# Poissons Ratio (y) = 0.33454 0.08690
# Poissons Ratio (z) = 0.10603 0.03872
#
# Static dielectric constant tensor:
#      x y z
#    x 2.240850 -0.059460 -0.027780 
#    y -0.059460 2.049690 -0.000580 
#    z -0.027780 -0.000580 2.120130 
# 
# From -- ./inp_files/111347.got.cif
#   From: 2010.05.17/outbox.cif.g08.bks.cpg/sg2_56_cif.got.tgz:111347.got - 2010.06.03 11:33:40.
