data_PCOD9093095
_publ_section_title
;
Structure prediction by ZEFSAII (Michael W. Deem and Ramdas Pophale) SiO2 
 PCOD9093095
Probable space group: P -1
;
_chemical_formula_sum "Si O2"
_cell_formula_units_Z 14
_cell_length_a 12.052165
_cell_length_b 9.687359
_cell_length_c 7.637992
_cell_angle_alpha 46.960303
_cell_angle_beta 72.836923
_cell_angle_gamma 79.655006
_cell_volume 622.444411
_symmetry_space_group_name_H-M "P -1"
_symmetry_group_IT_number 2
_symmetry_cell_setting 'triclinic'
loop_
_space_group_symop_operation_xyz
x,y,z
-x,-y,-z
loop_
_atom_site_type_symbol
_atom_site_label
_atom_site_fract_x
_atom_site_fract_y
_atom_site_fract_z
Si Si1 0.842432 0.052494 0.692338
Si Si2 0.621266 0.118584 0.540821
Si Si3 0.047767 0.790144 0.162326
Si Si4 0.370999 0.052412 0.680857
Si Si5 0.728738 0.321659 0.010348
Si Si6 0.174089 0.310106 0.486458
Si Si7 0.032651 0.282072 0.211006
O O1 0.708011 0.054437 0.704081
O O2 0.870840 0.189036 0.723087
O O3 0.916809 0.157164 0.413926
O O4 0.894047 0.841104 0.855750
O O5 0.487236 0.141892 0.629921
O O6 0.617521 0.956853 0.529767
O O7 0.678616 0.296198 0.251820
O O8 0.135651 0.735695 0.016765
O O9 0.934316 0.657824 0.363298
O O10 0.000000 0.000000 0.000000
O O11 0.250056 0.151056 0.676760
O O12 0.349613 0.832465 0.924678
O O13 0.734154 0.522899 0.744617
O O14 0.111238 0.269650 0.363549
O O15 0.000000 0.500000 0.000000
#
# Coordination Sequence:
#
# PCOD9093095 Si02
#       7
#     2   2   2   2   2   2   2
#     4  10  21  36  53  78 111 143 176 228 269 316
#     4   9  18  39  59  77 109 141 189 227 262 315
#     4  11  22  36  55  80 116 146 176 217 279 333
#     4   9  19  36  58  81 107 139 190 227 263 313
#     4  10  20  35  56  82 111 144 176 223 271 324
#     4  11  20  34  59  82 110 143 181 221 277 324
#     4  10  20  31  54  83 107 139 179 227 272 319
#
# _framework density 22.491966999999999
#
# number of rings (size 3 to 8) (size 9 to 14) (size 15 to 20)
#    0.857    1.143    2.857    1.286    6.000    0.571 
#    0.000    0.714    0.000    0.857    0.000    0.000 
#    0.000    0.000    0.000    0.000    0.000    0.000 
#
# Total GULP energy -77991.123762 kJ/mol
# GULP energy per Si atom -5570.794554 kJ/mol
# Density = 2.244077 g / cm^3
# Si number density = 22.491967 Si / 1000 Ang^3
#
#
#
# Elastic Constant Matrix: (Units=GPa)
#
#
# Indices 1 2 3 4 5 6 
#
# 1 143.9233 16.6463 18.8777 2.3818 -6.3573 0.4837
# 2 16.6463 39.6505 17.5919 -4.1284 -1.2334 2.8486
# 3 18.8777 17.5919 54.8100 -11.1376 -13.4504 9.6997
# 4 2.3818 -4.1284 -11.1376 33.5393 -0.2097 -1.3314
# 5 -6.3573 -1.2334 -13.4504 -0.2097 31.4455 2.5904
# 6 0.4837 2.8486 9.6997 -1.3314 2.5904 22.0243
#
#
#
# Elastic Compliance Matrix: (Units=1/GPa)
#
#
# Indices 1 2 3 4 5 6 
#
# 1 0.007557 -0.002406 -0.002219 -0.001528 0.000393 0.000984
# 2 -0.002406 0.030500 -0.009867 0.000662 -0.003581 0.000915
# 3 -0.002219 -0.009867 0.029189 0.008218 0.012737 -0.012532
# 4 -0.001528 0.000662 0.008218 0.032673 0.003625 -0.002123
# 5 0.000393 -0.003581 0.012737 0.003625 0.037987 -0.009404
# 6 0.000984 0.000915 -0.012532 -0.002123 -0.009404 0.051761
#
#
# Mechanical properties :
#
#
# Convention : Reuss Voigt Hill
#
# Bulk Modulus (GPa) = 26.13463 38.29061 32.21262
# Shear Modulus (GPa) = 21.60720 29.75301 25.68011
#
# Velocity S-wave (km/s) = 3.10282 3.64102 3.38264
# Velocity P-wave (km/s) = 4.94787 5.89382 5.44144
#
# Compressibility (1/GPa) = 0.03826341
#
# Stress axis : x y z
#
# Youngs Moduli (GPa) = 132.33195 32.78700 34.25922
#
# Poissons Ratio (x) = 0.07888 0.07601
# Poissons Ratio (y) = 0.31835 0.33803
# Poissons Ratio (z) = 0.29360 0.32350
#
# Static dielectric constant tensor:
#      x y z
#    x 1.867240 -0.011320 0.030080 
#    y -0.011320 1.895660 0.015750 
#    z 0.030080 0.015750 1.913860 
# 
# From -- ./inp_files/251282.got.cif
#   From: 2010.05.17/outbox.cif.g08.bks.cpg/sg2_126_cif.got.tgz:251282.got - 2010.06.03 11:33:40.
