data_PCOD9093813
_publ_section_title
;
Structure prediction by ZEFSAII (Michael W. Deem and Ramdas Pophale) SiO2 
 PCOD9093813
Probable space group: P -1
;
_chemical_formula_sum "Si O2"
_cell_formula_units_Z 14
_cell_length_a 13.068649
_cell_length_b 15.734925
_cell_length_c 16.679675
_cell_angle_alpha 43.790716
_cell_angle_beta 16.184008
_cell_angle_gamma 44.738519
_cell_volume 658.980946
_symmetry_space_group_name_H-M "P -1"
_symmetry_group_IT_number 2
_symmetry_cell_setting 'triclinic'
loop_
_space_group_symop_operation_xyz
x,y,z
-x,-y,-z
loop_
_atom_site_type_symbol
_atom_site_label
_atom_site_fract_x
_atom_site_fract_y
_atom_site_fract_z
Si Si1 0.123477 0.168448 0.828725
Si Si2 0.055091 0.082428 0.480075
Si Si3 0.696722 0.507576 0.152804
Si Si4 0.191027 0.639423 0.570311
Si Si5 0.896839 0.707246 0.083065
Si Si6 0.941329 0.046792 0.280288
Si Si7 0.090917 0.920150 0.107304
O O1 0.057363 0.278620 0.866164
O O2 0.553092 0.121799 0.538212
O O3 0.988728 0.180068 0.830818
O O4 0.958282 0.049848 0.074893
O O5 0.900877 0.221422 0.484946
O O6 0.887589 0.014153 0.727729
O O7 0.482586 0.086453 0.182928
O O8 0.000000 0.000000 0.500000
O O9 0.333342 0.560297 0.438601
O O10 0.000000 0.500000 0.000000
O O11 0.850353 0.592673 0.908727
O O12 0.749073 0.371481 0.167335
O O13 0.535045 0.643275 0.371309
O O14 0.839379 0.846330 0.996630
O O15 0.888312 0.936041 0.333767
#
# Coordination Sequence:
#
# PCOD9093813 Si02
#       7
#     2   2   2   2   2   2   2
#     4   9  18  33  56  83 114 148 196 247 293 342
#     4  11  24  36  57  84 124 157 191 233 300 369
#     4  10  23  39  62  85 121 157 202 248 292 346
#     4  11  24  39  60  89 124 160 193 242 300 360
#     4  10  21  35  60  87 114 147 200 251 294 343
#     4  10  20  33  58  86 117 150 193 240 305 350
#     4   9  19  35  52  83 118 153 191 238 296 356
#
# _framework density 21.244923
#
# number of rings (size 3 to 8) (size 9 to 14) (size 15 to 20)
#    0.000    2.000    0.000    4.714   12.000    2.286 
#    0.000    0.000    0.000    1.714    0.000    0.000 
#    0.000    0.000    0.000    0.000    0.000    0.000 
#
# Total GULP energy -78063.328433 kJ/mol
# GULP energy per Si atom -5575.952031 kJ/mol
# Density = 2.119657 g / cm^3
# Si number density = 21.244923 Si / 1000 Ang^3
#
#
#
# Elastic Constant Matrix: (Units=GPa)
#
#
# Indices 1 2 3 4 5 6 
#
# 1 154.4225 73.7483 37.4003 7.8402 26.7441 31.2443
# 2 73.7483 123.9110 25.6885 11.2397 15.8625 19.6488
# 3 37.4003 25.6885 60.5069 4.4243 12.5767 4.8336
# 4 7.8402 11.2397 4.4243 31.5539 -0.4919 15.8480
# 5 26.7441 15.8625 12.5767 -0.4919 37.3818 9.3585
# 6 31.2443 19.6488 4.8336 15.8480 9.3585 38.0379
#
#
#
# Elastic Compliance Matrix: (Units=1/GPa)
#
#
# Indices 1 2 3 4 5 6 
#
# 1 0.011547 -0.004785 -0.004122 0.002839 -0.003075 -0.006915
# 2 -0.004785 0.011687 -0.001593 -0.002421 -0.000860 -0.000684
# 3 -0.004122 -0.001593 0.020582 -0.003418 -0.004369 0.004092
# 4 0.002839 -0.002421 -0.003418 0.042283 0.005621 -0.019647
# 5 -0.003075 -0.000860 -0.004369 0.005621 0.032570 -0.006830
# 6 -0.006915 -0.000684 0.004092 -0.019647 -0.006830 0.041669
#
#
# Mechanical properties :
#
#
# Convention : Reuss Voigt Hill
#
# Bulk Modulus (GPa) = 43.82999 68.05717 55.94358
# Shear Modulus (GPa) = 26.46298 34.86161 30.66230
#
# Velocity S-wave (km/s) = 3.53315 4.05524 3.80317
# Velocity P-wave (km/s) = 6.10900 7.35056 6.75835
#
# Compressibility (1/GPa) = 0.02281543
#
# Stress axis : x y z
#
# Youngs Moduli (GPa) = 86.60373 85.56700 48.58513
#
# Poissons Ratio (x) = 0.40945 0.20025
# Poissons Ratio (y) = 0.41441 0.07742
# Poissons Ratio (z) = 0.35695 0.13635
#
# Static dielectric constant tensor:
#      x y z
#    x 1.797240 0.052560 0.031900 
#    y 0.052560 1.809070 -0.045760 
#    z 0.031900 -0.045760 1.900140 
# 
# From -- ./inp_files/63477.got.cif
#   From: 2010.05.17/outbox.cif.g08.bks.cpg/sg2_32_cif.got.tgz:63477.got - 2010.06.03 11:33:40.
