data_PCOD9093426
_publ_section_title
;
Structure prediction by ZEFSAII (Michael W. Deem and Ramdas Pophale) SiO2 
 PCOD9093426
Probable space group: P -1
;
_chemical_formula_sum "Si O2"
_cell_formula_units_Z 16
_cell_length_a 19.465203
_cell_length_b 7.047019
_cell_length_c 8.484800
_cell_angle_alpha 75.281460
_cell_angle_beta 58.845159
_cell_angle_gamma 44.148906
_cell_volume 680.217349
_symmetry_space_group_name_H-M "P -1"
_symmetry_group_IT_number 2
_symmetry_cell_setting 'triclinic'
loop_
_space_group_symop_operation_xyz
x,y,z
-x,-y,-z
loop_
_atom_site_type_symbol
_atom_site_label
_atom_site_fract_x
_atom_site_fract_y
_atom_site_fract_z
Si Si1 0.955771 0.825890 0.364019
Si Si2 0.685945 0.541695 0.082591
Si Si3 0.082881 0.040688 0.947682
Si Si4 0.282594 0.127510 0.822857
Si Si5 0.899872 0.381308 0.308183
Si Si6 0.536362 0.101690 0.564499
Si Si7 0.714143 0.722741 0.704754
Si Si8 0.822003 0.804553 0.773828
O O1 0.896314 0.831634 0.583894
O O2 0.087098 0.534140 0.248406
O O3 0.902297 0.859308 0.250201
O O4 0.929492 0.100079 0.352854
O O5 0.798444 0.248161 0.077600
O O6 0.679036 0.767564 0.125847
O O7 0.572884 0.636407 0.264856
O O8 0.697412 0.571427 0.877543
O O9 0.000000 0.000000 0.000000
O O10 0.017058 0.258077 0.123061
O O11 0.189541 0.394017 0.765835
O O12 0.384827 0.891706 0.635928
O O13 0.228786 0.065991 0.020963
O O14 0.836440 0.530457 0.514332
O O15 0.620466 0.873487 0.648165
O O16 0.500000 0.000000 0.500000
O O17 0.717736 0.914783 0.763591
#
# Coordination Sequence:
#
# PCOD9093426 Si02
#       8
#     2   2   2   2   2   2   2   2
#     4  10  19  32  54  80 111 144 178 203 259 339
#     4  10  17  29  50  81 102 133 175 226 257 299
#     4  10  16  29  53  76 104 137 175 211 257 316
#     4   9  15  31  53  76 101 138 177 212 258 311
#     4  10  17  31  55  79 106 137 174 216 258 313
#     4   9  19  31  53  80 100 137 181 226 255 310
#     4  10  20  32  53  82 111 130 174 231 265 296
#     4  10  20  33  53  80 112 143 170 215 271 310
#
# _framework density 23.521895000000001
#
# number of rings (size 3 to 8) (size 9 to 14) (size 15 to 20)
#    0.000    2.250    3.750    2.625    0.000    2.000 
#    0.000    0.625    5.500    1.500    0.000    0.000 
#    0.000    0.000    0.000    0.000    0.000    0.000 
#
# Total GULP energy -89207.481155 kJ/mol
# GULP energy per Si atom -5575.467572 kJ/mol
# Density = 2.346836 g / cm^3
# Si number density = 23.521895 Si / 1000 Ang^3
#
#
#
# Elastic Constant Matrix: (Units=GPa)
#
#
# Indices 1 2 3 4 5 6 
#
# 1 53.9930 24.2508 16.8751 -9.6787 1.5195 -13.3647
# 2 24.2508 73.7523 69.8768 1.5960 0.3295 -28.1180
# 3 16.8751 69.8768 252.4234 9.1285 8.4610 -20.5266
# 4 -9.6787 1.5960 9.1285 38.7189 -10.6360 -2.3958
# 5 1.5195 0.3295 8.4610 -10.6360 25.8163 -4.8553
# 6 -13.3647 -28.1180 -20.5266 -2.3958 -4.8553 29.8743
#
#
#
# Elastic Compliance Matrix: (Units=1/GPa)
#
#
# Indices 1 2 3 4 5 6 
#
# 1 0.023873 -0.005685 0.000143 0.007358 0.002872 0.006484
# 2 -0.005685 0.030109 -0.006431 0.002256 0.007264 0.022738
# 3 0.000143 -0.006431 0.005689 -0.002082 -0.003168 -0.002762
# 4 0.007358 0.002256 -0.002082 0.032884 0.015487 0.009140
# 5 0.002872 0.007264 -0.003168 0.015487 0.048734 0.015107
# 6 0.006484 0.022738 -0.002762 0.009140 0.015107 0.059067
#
#
# Mechanical properties :
#
#
# Convention : Reuss Voigt Hill
#
# Bulk Modulus (GPa) = 27.99191 66.90824 47.45008
# Shear Modulus (GPa) = 21.16766 36.82629 28.99697
#
# Velocity S-wave (km/s) = 3.00311 3.96108 3.51488
# Velocity P-wave (km/s) = 4.89398 7.03044 6.05715
#
# Compressibility (1/GPa) = 0.03572460
#
# Stress axis : x y z
#
# Youngs Moduli (GPa) = 41.88853 33.21293 175.77322
#
# Poissons Ratio (x) = 0.18881 -0.02508
# Poissons Ratio (y) = 0.23813 1.13036
# Poissons Ratio (z) = -0.00598 0.21359
#
# Static dielectric constant tensor:
#      x y z
#    x 2.026300 0.016680 0.000670 
#    y 0.016680 1.857110 -0.006530 
#    z 0.000670 -0.006530 2.011990 
# 
# From -- ./inp_files/356821.got.cif
#   From: 2010.05.17/outbox.cif.g08.bks.cpg/sg2_179_cif.got.tgz:356821.got - 2010.06.03 11:33:40.
