data_PCOD9093997
_publ_section_title
;
Structure prediction by ZEFSAII (Michael W. Deem and Ramdas Pophale) SiO2 
 PCOD9093997
Probable space group: P -1
;
_chemical_formula_sum "Si O2"
_cell_formula_units_Z 14
_cell_length_a 17.419602
_cell_length_b 14.471296
_cell_length_c 11.409677
_cell_angle_alpha 30.238992
_cell_angle_beta 149.181193
_cell_angle_gamma 142.120287
_cell_volume 729.479800
_symmetry_space_group_name_H-M "P -1"
_symmetry_group_IT_number 2
_symmetry_cell_setting 'triclinic'
loop_
_space_group_symop_operation_xyz
x,y,z
-x,-y,-z
loop_
_atom_site_type_symbol
_atom_site_label
_atom_site_fract_x
_atom_site_fract_y
_atom_site_fract_z
Si Si1 0.934705 0.875542 0.831057
Si Si2 0.841797 0.758880 0.370522
Si Si3 0.790098 0.248201 0.561818
Si Si4 0.319918 0.911863 0.153252
Si Si5 0.666059 0.936373 0.568204
Si Si6 0.008511 0.784693 0.780302
Si Si7 0.677968 0.588127 0.123843
O O1 0.774645 0.899760 0.645811
O O2 0.928021 0.757839 0.830807
O O3 0.033464 0.081316 0.705110
O O4 0.037982 0.783423 0.158174
O O5 0.762011 0.612438 0.332220
O O6 0.924015 0.678516 0.675265
O O7 0.717194 0.878820 0.121753
O O8 0.703015 0.159746 0.663617
O O9 0.762002 0.457541 0.297137
O O10 0.720712 0.137184 0.478930
O O11 0.488445 0.907396 0.337686
O O12 0.186160 0.790749 0.033011
O O13 0.687930 0.789881 0.858923
O O14 0.000000 0.000000 0.500000
O O15 0.500000 0.500000 0.000000
#
# Coordination Sequence:
#
# PCOD9093997 Si02
#       7
#     2   2   2   2   2   2   2
#     4   9  19  35  55  80 108 144 174 221 272 309
#     4   9  18  37  57  77 109 140 183 221 254 323
#     4  10  20  34  51  79 112 143 179 205 271 327
#     4   9  16  32  54  76 107 140 174 220 258 314
#     4  12  20  34  55  83 115 135 172 228 271 311
#     4   7  15  34  57  77 100 142 188 213 254 321
#     4  12  22  32  57  86 106 140 181 217 266 320
#
# _framework density 19.191759999999999
#
# number of rings (size 3 to 8) (size 9 to 14) (size 15 to 20)
#    0.000    2.857    4.286    1.714    0.000    0.571 
#    0.000    9.286    0.000    0.857    0.000    0.000 
#    0.000    0.000    0.000    0.000    0.000    0.000 
#
# Total GULP energy -78061.277033 kJ/mol
# GULP energy per Si atom -5575.805502 kJ/mol
# Density = 1.914808 g / cm^3
# Si number density = 19.191760 Si / 1000 Ang^3
#
#
#
# Elastic Constant Matrix: (Units=GPa)
#
#
# Indices 1 2 3 4 5 6 
#
# 1 75.7617 45.8537 39.7480 36.5443 28.9372 6.3378
# 2 45.8537 71.3184 33.8814 16.9004 8.8572 -23.3456
# 3 39.7480 33.8814 84.1932 23.4629 25.3729 -3.6761
# 4 36.5443 16.9004 23.4629 33.9889 3.9242 0.9394
# 5 28.9372 8.8572 25.3729 3.9242 34.1935 10.3946
# 6 6.3378 -23.3456 -3.6761 0.9394 10.3946 24.9591
#
#
#
# Elastic Compliance Matrix: (Units=1/GPa)
#
#
# Indices 1 2 3 4 5 6 
#
# 1 0.230624 -0.154390 0.029668 -0.174613 -0.113100 -0.144927
# 2 -0.154390 0.136353 -0.022824 0.103366 0.059454 0.134729
# 3 0.029668 -0.022824 0.025367 -0.034207 -0.030731 -0.011060
# 4 -0.174613 0.103366 -0.034207 0.175460 0.099510 0.087939
# 5 -0.113100 0.059454 -0.030731 0.099510 0.112000 0.029414
# 6 -0.144927 0.134729 -0.011060 0.087939 0.029414 0.185698
#
#
# Mechanical properties :
#
#
# Convention : Reuss Voigt Hill
#
# Bulk Modulus (GPa) = 10.28243 52.24884 31.26564
# Shear Modulus (GPa) = 4.19108 26.08098 15.13603
#
# Velocity S-wave (km/s) = 1.47937 3.69042 2.81138
# Velocity P-wave (km/s) = 2.87879 6.74112 5.18315
#
# Compressibility (1/GPa) = 0.09725327
#
# Stress axis : x y z
#
# Youngs Moduli (GPa) = 4.33606 7.33392 39.42147
#
# Poissons Ratio (x) = 1.13228 -1.16957
# Poissons Ratio (y) = 0.66944 0.89976
# Poissons Ratio (z) = -0.12864 0.16739
#
# Static dielectric constant tensor:
#      x y z
#    x 1.676080 -0.022100 -0.011910 
#    y -0.022100 1.710800 -0.013050 
#    z -0.011910 -0.013050 1.700410 
# 
# From -- ./inp_files/276050.got.cif
#   From: 2010.05.17/outbox.cif.g08.bks.cpg/sg2_139_cif.got.tgz:276050.got - 2010.06.03 11:33:40.
