data_PCOD9093660
_publ_section_title
;
Structure prediction by ZEFSAII (Michael W. Deem and Ramdas Pophale) SiO2 
 PCOD9093660
Probable space group: P -1
;
_chemical_formula_sum "Si O2"
_cell_formula_units_Z 16
_cell_length_a 12.095762
_cell_length_b 14.329418
_cell_length_c 5.428463
_cell_angle_alpha 116.287385
_cell_angle_beta 86.345233
_cell_angle_gamma 67.639159
_cell_volume 748.930351
_symmetry_space_group_name_H-M "P -1"
_symmetry_group_IT_number 2
_symmetry_cell_setting 'triclinic'
loop_
_space_group_symop_operation_xyz
x,y,z
-x,-y,-z
loop_
_atom_site_type_symbol
_atom_site_label
_atom_site_fract_x
_atom_site_fract_y
_atom_site_fract_z
Si Si1 0.951365 0.438597 0.735762
Si Si2 0.292654 0.329094 0.937834
Si Si3 0.849611 0.147002 0.391506
Si Si4 0.699368 0.363658 0.342380
Si Si5 0.930457 0.256917 0.879494
Si Si6 0.483371 0.413545 0.094156
Si Si7 0.791740 0.736897 0.645839
Si Si8 0.889153 0.902956 0.968958
O O1 0.814378 0.539999 0.826248
O O2 0.938157 0.332537 0.743181
O O3 0.067792 0.371711 0.458395
O O4 0.000000 0.500000 0.000000
O O5 0.420648 0.338137 0.903889
O O6 0.289641 0.257711 0.097328
O O7 0.257344 0.288343 0.636572
O O8 0.742481 0.266826 0.437055
O O9 0.877014 0.168934 0.692774
O O10 0.981389 0.119695 0.208896
O O11 0.824856 0.037346 0.215281
O O12 0.612845 0.341866 0.131815
O O13 0.615921 0.495520 0.593411
O O14 0.827908 0.346370 0.183115
O O15 0.061688 0.180868 0.897396
O O16 0.500000 0.500000 0.000000
O O17 0.810721 0.853301 0.769107
#
# Coordination Sequence:
#
# PCOD9093660 Si02
#       8
#     2   2   2   2   2   2   2   2
#     4  10  20  33  55  82 127 163 196 236 300 375
#     4  11  25  38  62  88 127 165 212 250 313 379
#     4  10  20  37  58  91 119 162 207 258 305 364
#     4  10  23  37  62  90 119 154 206 263 314 367
#     4  11  20  37  57  92 124 162 205 253 306 376
#     4  11  24  41  64  89 119 160 204 265 318 365
#     4  11  23  40  56  92 125 172 206 251 305 382
#     4  10  21  35  60  85 127 164 206 248 309 364
#
# _framework density 21.363800999999999
#
# number of rings (size 3 to 8) (size 9 to 14) (size 15 to 20)
#    0.000    1.500    1.250    4.500    8.750    0.000 
#    0.000    0.000    0.000    1.500    0.000    0.000 
#    0.000    0.000    0.000    0.000    0.000    0.000 
#
# Total GULP energy -89349.406202 kJ/mol
# GULP energy per Si atom -5584.337888 kJ/mol
# Density = 2.131518 g / cm^3
# Si number density = 21.363801 Si / 1000 Ang^3
#
#
#
# Elastic Constant Matrix: (Units=GPa)
#
#
# Indices 1 2 3 4 5 6 
#
# 1 96.7797 20.9755 25.0679 -7.5421 34.2753 9.9416
# 2 20.9755 42.9745 24.3411 -0.0015 12.0098 7.2596
# 3 25.0679 24.3411 76.8362 -3.0249 29.2597 9.2155
# 4 -7.5421 -0.0015 -3.0249 32.6474 7.6638 3.2990
# 5 34.2753 12.0098 29.2597 7.6638 41.3890 1.6648
# 6 9.9416 7.2596 9.2155 3.2990 1.6648 31.6483
#
#
#
# Elastic Compliance Matrix: (Units=1/GPa)
#
#
# Indices 1 2 3 4 5 6 
#
# 1 0.017879 -0.004846 0.003241 0.009008 -0.017138 -0.005486
# 2 -0.004846 0.030434 -0.008403 -0.001981 0.001605 -0.002890
# 3 0.003241 -0.008403 0.021999 0.007304 -0.016935 -0.005367
# 4 0.009008 -0.001981 0.007304 0.038583 -0.018890 -0.007530
# 5 -0.017138 0.001605 -0.016935 -0.018890 0.052990 0.009128
# 6 -0.005486 -0.002890 -0.005367 -0.007530 0.009128 0.035851
#
#
# Mechanical properties :
#
#
# Convention : Reuss Voigt Hill
#
# Bulk Modulus (GPa) = 19.88214 39.70661 29.79437
# Shear Modulus (GPa) = 21.32045 30.88398 26.10222
#
# Velocity S-wave (km/s) = 3.16250 3.80626 3.49921
# Velocity P-wave (km/s) = 4.76044 6.15980 5.50477
#
# Compressibility (1/GPa) = 0.05029638
#
# Stress axis : x y z
#
# Youngs Moduli (GPa) = 55.93284 32.85826 45.45588
#
# Poissons Ratio (x) = 0.15922 -0.14732
# Poissons Ratio (y) = 0.27103 0.38197
# Poissons Ratio (z) = -0.18128 0.27611
#
# Static dielectric constant tensor:
#      x y z
#    x 1.807430 0.035900 0.011380 
#    y 0.035900 1.785600 -0.029970 
#    z 0.011380 -0.029970 1.899150 
# 
# From -- ./inp_files/78604.got.cif
#   From: 2010.05.17/outbox.cif.g08.bks.cpg/sg2_40_cif.got.tgz:78604.got - 2010.06.03 11:33:40.
