data_PCOD9093146
_publ_section_title
;
Structure prediction by ZEFSAII (Michael W. Deem and Ramdas Pophale) SiO2 
 PCOD9093146
Probable space group: P -1
;
_chemical_formula_sum "Si O2"
_cell_formula_units_Z 14
_cell_length_a 22.757138
_cell_length_b 13.844239
_cell_length_c 22.936296
_cell_angle_alpha 29.404989
_cell_angle_beta 11.723204
_cell_angle_gamma 30.585056
_cell_volume 718.629407
_symmetry_space_group_name_H-M "P -1"
_symmetry_group_IT_number 2
_symmetry_cell_setting 'triclinic'
loop_
_space_group_symop_operation_xyz
x,y,z
-x,-y,-z
loop_
_atom_site_type_symbol
_atom_site_label
_atom_site_fract_x
_atom_site_fract_y
_atom_site_fract_z
Si Si1 0.471277 0.462877 0.454733
Si Si2 0.727563 0.056551 0.976092
Si Si3 0.796317 0.480904 0.651460
Si Si4 0.211877 0.743838 0.068865
Si Si5 0.395777 0.055060 0.636501
Si Si6 0.919027 0.287514 0.036248
Si Si7 0.758388 0.209197 0.412847
O O1 0.677168 0.465196 0.196124
O O2 0.670083 0.353626 0.368922
O O3 0.339960 0.671435 0.496763
O O4 0.194570 0.331913 0.785109
O O5 0.747048 0.251174 0.815769
O O6 0.848903 0.109711 0.894048
O O7 0.908422 0.866147 0.874696
O O8 0.405873 0.989843 0.330033
O O9 0.000000 0.500000 0.500000
O O10 0.963134 0.595447 0.379761
O O11 0.494237 0.607062 0.885905
O O12 0.283454 0.872978 0.876468
O O13 0.686431 0.120774 0.352341
O O14 0.500000 0.000000 0.500000
O O15 0.120379 0.221812 0.818814
#
# Coordination Sequence:
#
# PCOD9093146 Si02
#       7
#     2   2   2   2   2   2   2
#     4  10  20  33  46  72 101 139 169 199 249 297
#     4  11  19  31  48  73 102 142 174 199 240 289
#     4  10  20  32  47  70 101 137 175 200 237 299
#     4  11  20  33  50  70 104 139 165 206 252 292
#     4  11  22  36  55  78 100 129 172 213 253 304
#     4  10  20  34  50  68 102 132 161 201 250 303
#     4  11  20  29  48  71 104 134 174 208 231 292
#
# _framework density 19.481528999999998
#
# number of rings (size 3 to 8) (size 9 to 14) (size 15 to 20)
#    0.000    1.429    0.000    9.857    0.000    3.429 
#    0.000    0.000    0.000    0.000    0.000    0.000 
#    0.000   80.000    0.000    0.000    0.000    0.000 
#
# Total GULP energy -77962.216241 kJ/mol
# GULP energy per Si atom -5568.729731 kJ/mol
# Density = 1.943719 g / cm^3
# Si number density = 19.481529 Si / 1000 Ang^3
#
#
#
# Elastic Constant Matrix: (Units=GPa)
#
#
# Indices 1 2 3 4 5 6 
#
# 1 46.9720 31.1314 22.4082 1.9052 22.2613 11.9627
# 2 31.1314 78.5795 22.1309 14.4875 15.5880 16.4035
# 3 22.4082 22.1309 115.6218 14.6977 13.8533 8.9627
# 4 1.9052 14.4875 14.6977 41.9893 3.8897 3.9542
# 5 22.2613 15.5880 13.8533 3.8897 31.6101 8.6724
# 6 11.9627 16.4035 8.9627 3.9542 8.6724 11.0906
#
#
#
# Elastic Compliance Matrix: (Units=1/GPa)
#
#
# Indices 1 2 3 4 5 6 
#
# 1 0.042701 -0.009904 -0.003563 0.006001 -0.020307 -0.014791
# 2 -0.009904 0.021569 -0.000243 -0.005158 0.002983 -0.021515
# 3 -0.003563 -0.000243 0.010032 -0.002984 -0.000791 -0.002223
# 4 0.006001 -0.005158 -0.002984 0.026987 -0.002590 -0.004029
# 5 -0.020307 0.002983 -0.000791 -0.002590 0.050802 -0.020670
# 6 -0.014791 -0.021515 -0.002223 -0.004029 -0.020670 0.157339
#
#
# Mechanical properties :
#
#
# Convention : Reuss Voigt Hill
#
# Bulk Modulus (GPa) = 21.33036 43.61270 32.47153
# Shear Modulus (GPa) = 14.18539 27.97153 21.07846
#
# Velocity S-wave (km/s) = 2.70134 3.79330 3.29290
# Velocity P-wave (km/s) = 4.55000 6.45142 5.58226
#
# Compressibility (1/GPa) = 0.04688153
#
# Stress axis : x y z
#
# Youngs Moduli (GPa) = 23.41892 46.36358 99.67864
#
# Poissons Ratio (x) = 0.45918 0.35517
# Poissons Ratio (y) = 0.23194 0.02421
# Poissons Ratio (z) = 0.08345 0.01126
#
# Static dielectric constant tensor:
#      x y z
#    x 1.720720 0.029970 0.019270 
#    y 0.029970 1.734830 0.000790 
#    z 0.019270 0.000790 1.738710 
# 
# From -- ./inp_files/433763.got.cif
#   From: 2010.05.17/outbox.cif.g08.bks.cpg/sg2_217_cif.got.tgz:433763.got - 2010.06.03 11:33:40.
