data_PCOD9093902
_publ_section_title
;
Structure prediction by ZEFSAII (Michael W. Deem and Ramdas Pophale) SiO2 
 PCOD9093902
Probable space group: P -1
;
_chemical_formula_sum "Si O2"
_cell_formula_units_Z 16
_cell_length_a 11.661041
_cell_length_b 11.811392
_cell_length_c 20.055580
_cell_angle_alpha 65.553249
_cell_angle_beta 147.565570
_cell_angle_gamma 137.843830
_cell_volume 803.930941
_symmetry_space_group_name_H-M "P -1"
_symmetry_group_IT_number 2
_symmetry_cell_setting 'triclinic'
loop_
_space_group_symop_operation_xyz
x,y,z
-x,-y,-z
loop_
_atom_site_type_symbol
_atom_site_label
_atom_site_fract_x
_atom_site_fract_y
_atom_site_fract_z
Si Si1 0.081070 0.761901 0.668991
Si Si2 0.439389 0.425252 0.658848
Si Si3 0.598399 0.332272 0.366260
Si Si4 0.881415 0.623311 0.137932
Si Si5 0.271133 0.029258 0.158130
Si Si6 0.549029 0.157300 0.518565
Si Si7 0.077345 0.034759 0.430643
Si Si8 0.856447 0.489945 0.750852
O O1 0.414736 0.860177 0.767405
O O2 0.754792 0.608834 0.493552
O O3 0.123727 0.926697 0.671485
O O4 0.956589 0.627045 0.705436
O O5 0.491610 0.563429 0.701090
O O6 0.805205 0.537339 0.783302
O O7 0.166173 0.190169 0.605876
O O8 0.389551 0.153701 0.253540
O O9 0.581868 0.267573 0.447368
O O10 0.000000 0.500000 0.500000
O O11 0.114570 0.697611 0.300535
O O12 0.856219 0.485023 0.117240
O O13 0.500000 0.500000 0.000000
O O14 0.090893 0.819322 0.147369
O O15 0.000000 0.000000 0.000000
O O16 0.211975 0.048545 0.422265
O O17 0.500000 0.000000 0.500000
O O18 0.462198 0.241416 0.605726
#
# Coordination Sequence:
#
# PCOD9093902 Si02
#       8
#     2   2   2   2   2   2   2   2
#     4  11  19  37  59  88 122 160 207 252 303 365
#     4  11  19  35  59  92 123 154 206 257 307 356
#     4  12  24  38  64  93 126 162 206 259 308 360
#     4  11  23  41  64  91 124 166 205 251 308 372
#     4  12  26  42  62  90 128 167 206 252 310 374
#     4  11  21  40  62  94 125 156 207 255 309 357
#     4  10  20  33  60  90 122 158 201 259 303 361
#     4  10  20  34  60  89 121 160 205 252 303 366
#
# _framework density 19.902206
#
# number of rings (size 3 to 8) (size 9 to 14) (size 15 to 20)
#    0.000    1.000    2.500    9.000    1.750    0.000 
#    0.000    0.000    2.750    3.750    0.000    0.000 
#    0.000    0.000    0.000    0.000    0.000    0.000 
#
# Total GULP energy -89293.889691 kJ/mol
# GULP energy per Si atom -5580.868106 kJ/mol
# Density = 1.985691 g / cm^3
# Si number density = 19.902206 Si / 1000 Ang^3
#
#
#
# Elastic Constant Matrix: (Units=GPa)
#
#
# Indices 1 2 3 4 5 6 
#
# 1 171.5749 62.6140 32.3934 -10.3478 42.9657 -2.1163
# 2 62.6140 133.5910 13.4560 -16.0785 10.6771 1.1255
# 3 32.3934 13.4560 57.7857 -18.7441 21.6824 5.6463
# 4 -10.3478 -16.0785 -18.7441 17.0364 -0.1058 8.0136
# 5 42.9657 10.6771 21.6824 -0.1058 35.2856 -10.2218
# 6 -2.1163 1.1255 5.6463 8.0136 -10.2218 47.6121
#
#
#
# Elastic Compliance Matrix: (Units=1/GPa)
#
#
# Indices 1 2 3 4 5 6 
#
# 1 0.010987 -0.002385 0.007509 0.015939 -0.019301 -0.007172
# 2 -0.002385 0.011455 0.011818 0.026244 -0.010174 -0.008380
# 3 0.007509 0.011818 0.095592 0.145981 -0.086807 -0.054489
# 4 0.015939 0.026244 0.145981 0.299277 -0.144739 -0.098669
# 5 -0.019301 -0.010174 -0.086807 -0.144739 0.125494 0.060980
# 6 -0.007172 -0.008380 -0.054489 -0.098669 0.060980 0.057043
#
#
# Mechanical properties :
#
#
# Convention : Reuss Voigt Hill
#
# Bulk Modulus (GPa) = 6.58238 64.43095 35.50667
# Shear Modulus (GPa) = 8.10897 36.95269 22.53083
#
# Velocity S-wave (km/s) = 2.02071 4.31363 3.36829
# Velocity P-wave (km/s) = 2.95954 7.56664 5.74512
#
# Compressibility (1/GPa) = 0.15192072
#
# Stress axis : x y z
#
# Youngs Moduli (GPa) = 91.01629 87.29701 10.46113
#
# Poissons Ratio (x) = 0.20817 -0.07856
# Poissons Ratio (y) = 0.21704 -0.12363
# Poissons Ratio (z) = -0.68348 -1.03171
#
# Static dielectric constant tensor:
#      x y z
#    x 1.714160 -0.040650 0.022460 
#    y -0.040650 1.709630 -0.015490 
#    z 0.022460 -0.015490 1.681030 
# 
# From -- ./inp_files/403446.got.cif
#   From: 2010.05.17/outbox.cif.g08.bks.cpg/sg2_202_cif.got.tgz:403446.got - 2010.06.03 11:33:40.
