data_PCOD9093692
_publ_section_title
;
Structure prediction by ZEFSAII (Michael W. Deem and Ramdas Pophale) SiO2 
 PCOD9093692
Probable space group: P -1
;
_chemical_formula_sum "Si O2"
_cell_formula_units_Z 16
_cell_length_a 16.435463
_cell_length_b 15.036072
_cell_length_c 8.674144
_cell_angle_alpha 59.228648
_cell_angle_beta 112.073576
_cell_angle_gamma 153.961779
_cell_volume 788.249955
_symmetry_space_group_name_H-M "P -1"
_symmetry_group_IT_number 2
_symmetry_cell_setting 'triclinic'
loop_
_space_group_symop_operation_xyz
x,y,z
-x,-y,-z
loop_
_atom_site_type_symbol
_atom_site_label
_atom_site_fract_x
_atom_site_fract_y
_atom_site_fract_z
Si Si1 0.498066 0.409156 0.784254
Si Si2 0.538160 0.922959 0.431216
Si Si3 0.801724 0.887726 0.606361
Si Si4 0.607629 0.808862 0.806504
Si Si5 0.699439 0.958124 0.249091
Si Si6 0.947359 0.216052 0.919906
Si Si7 0.077201 0.045998 0.847387
Si Si8 0.813303 0.358571 0.425060
O O1 0.669726 0.662040 0.637231
O O2 0.446180 0.268131 0.746999
O O3 0.529312 0.384487 0.992254
O O4 0.304861 0.273557 0.795959
O O5 0.526075 0.815385 0.639700
O O6 0.594625 0.932652 0.300649
O O7 0.339271 0.774579 0.432670
O O8 0.702604 0.169924 0.393377
O O9 0.686604 0.805579 0.748448
O O10 0.813949 0.999808 0.406528
O O11 0.993546 0.036271 0.670419
O O12 0.788947 0.040479 0.827370
O O13 0.840620 0.150429 0.050807
O O14 0.116700 0.463613 0.764340
O O15 0.995018 0.147208 0.056096
O O16 0.000000 0.000000 0.000000
O O17 0.000000 0.500000 0.500000
#
# Coordination Sequence:
#
# PCOD9093692 Si02
#       8
#     2   2   2   2   2   2   2   2
#     4  10  21  34  55  85 124 163 201 241 289 349
#     4  10  22  41  66  89 115 151 202 250 307 362
#     4  11  19  35  59  83 123 167 201 238 289 345
#     4   9  18  35  58  87 118 156 204 245 281 356
#     4   9  22  41  57  90 131 156 195 252 299 364
#     4  10  21  39  60  87 129 155 197 255 298 345
#     4  10  20  33  55  89 120 158 207 244 279 346
#     4  11  23  41  69  91 111 150 205 255 301 364
#
# _framework density 20.298128999999999
#
# number of rings (size 3 to 8) (size 9 to 14) (size 15 to 20)
#    0.000    2.250    3.750    0.750    1.750    3.500 
#    0.000    3.125    0.000    0.000    0.000    0.000 
#    0.000    0.000    0.000    0.000    0.000    0.000 
#
# Total GULP energy -89370.902244 kJ/mol
# GULP energy per Si atom -5585.681390 kJ/mol
# Density = 2.025193 g / cm^3
# Si number density = 20.298129 Si / 1000 Ang^3
#
#
#
# Elastic Constant Matrix: (Units=GPa)
#
#
# Indices 1 2 3 4 5 6 
#
# 1 105.0464 35.5743 18.5273 3.1221 -32.7108 -0.3932
# 2 35.5743 66.1887 13.4160 -6.5035 -15.9033 15.1620
# 3 18.5273 13.4160 44.4832 0.9190 -19.6807 -8.1012
# 4 3.1221 -6.5035 0.9190 23.6144 -2.7298 3.0988
# 5 -32.7108 -15.9033 -19.6807 -2.7298 35.7461 6.6165
# 6 -0.3932 15.1620 -8.1012 3.0988 6.6165 16.3592
#
#
#
# Elastic Compliance Matrix: (Units=1/GPa)
#
#
# Indices 1 2 3 4 5 6 
#
# 1 0.015018 -0.007115 0.001233 -0.003340 0.010251 0.004053
# 2 -0.007115 0.039361 -0.011995 0.021025 0.015805 -0.052966
# 3 0.001233 -0.011995 0.034656 -0.007094 0.009558 0.025787
# 4 -0.003340 0.021025 -0.007094 0.055611 0.013901 -0.039236
# 5 0.010251 0.015805 0.009558 0.013901 0.057276 -0.035468
# 6 0.004053 -0.052966 0.025787 -0.039236 -0.035468 0.144862
#
#
# Mechanical properties :
#
#
# Convention : Reuss Voigt Hill
#
# Bulk Modulus (GPa) = 18.76860 38.97260 28.87060
# Shear Modulus (GPa) = 12.49068 25.02399 18.75734
#
# Velocity S-wave (km/s) = 2.48334 3.51497 3.04319
# Velocity P-wave (km/s) = 4.18201 5.97621 5.15773
#
# Compressibility (1/GPa) = 0.05328048
#
# Stress axis : x y z
#
# Youngs Moduli (GPa) = 66.58519 25.40611 28.85510
#
# Poissons Ratio (x) = 0.18078 -0.03559
# Poissons Ratio (y) = 0.47379 0.34612
# Poissons Ratio (z) = -0.08213 0.30475
#
# Static dielectric constant tensor:
#      x y z
#    x 1.732550 0.007620 0.007580 
#    y 0.007620 1.716960 0.020970 
#    z 0.007580 0.020970 1.736520 
# 
# From -- ./inp_files/312839.got.cif
#   From: 2010.05.17/outbox.cif.g08.bks.cpg/sg2_157_cif.got.tgz:312839.got - 2010.06.03 11:33:40.
