data_PCOD9093527
_publ_section_title
;
Structure prediction by ZEFSAII (Michael W. Deem and Ramdas Pophale) SiO2 
 PCOD9093527
Probable space group: P -1
;
_chemical_formula_sum "Si O2"
_cell_formula_units_Z 16
_cell_length_a 8.641176
_cell_length_b 15.696326
_cell_length_c 7.695743
_cell_angle_alpha 118.620120
_cell_angle_beta 79.053246
_cell_angle_gamma 137.053707
_cell_volume 601.301327
_symmetry_space_group_name_H-M "P -1"
_symmetry_group_IT_number 2
_symmetry_cell_setting 'triclinic'
loop_
_space_group_symop_operation_xyz
x,y,z
-x,-y,-z
loop_
_atom_site_type_symbol
_atom_site_label
_atom_site_fract_x
_atom_site_fract_y
_atom_site_fract_z
Si Si1 0.861492 0.080846 0.032718
Si Si2 0.654702 0.391098 0.332045
Si Si3 0.887804 0.318197 0.309285
Si Si4 0.217412 0.473422 0.909320
Si Si5 0.848371 0.883059 0.679215
Si Si6 0.469470 0.050422 0.746539
Si Si7 0.082026 0.843967 0.358166
Si Si8 0.286366 0.689710 0.295786
O O1 0.104182 0.788783 0.854680
O O2 0.886469 0.016433 0.808247
O O3 0.604121 0.951995 0.048939
O O4 0.025849 0.108514 0.172999
O O5 0.793113 0.352972 0.224344
O O6 0.614915 0.430363 0.198706
O O7 0.420617 0.266576 0.369285
O O8 0.848240 0.536662 0.544597
O O9 0.731572 0.278824 0.473407
O O10 0.138394 0.326580 0.812423
O O11 0.963273 0.394671 0.817577
O O12 0.305384 0.583150 0.152078
O O13 0.956677 0.884093 0.487456
O O14 0.694540 0.083112 0.738340
O O15 0.523546 0.166076 0.721783
O O16 0.240039 0.895007 0.553660
#
# Coordination Sequence:
#
# PCOD9093527 Si02
#       8
#     2   2   2   2   2   2   2   2
#     4  10  20  34  55  82 110 142 183 228 272 324
#     4  10  20  35  53  77 114 148 176 222 280 327
#     4  10  21  35  53  80 113 146 181 221 274 333
#     4   9  17  29  50  79 104 132 177 223 264 315
#     4  10  20  33  52  81 113 140 179 230 276 319
#     4   9  15  29  52  74 102 137 177 220 265 315
#     4   9  17  29  49  78 107 134 175 225 269 314
#     4   9  16  29  50  76 101 132 180 227 258 307
#
# _framework density 26.608955999999999
#
# number of rings (size 3 to 8) (size 9 to 14) (size 15 to 20)
#    0.000    2.500    0.000    6.000    0.000    3.500 
#    0.000    0.000    0.000    7.500    0.000   12.250 
#    0.000   41.000    0.000    0.000    0.000    0.000 
#
# Total GULP energy -89356.934928 kJ/mol
# GULP energy per Si atom -5584.808433 kJ/mol
# Density = 2.654839 g / cm^3
# Si number density = 26.608956 Si / 1000 Ang^3
#
#
#
# Elastic Constant Matrix: (Units=GPa)
#
#
# Indices 1 2 3 4 5 6 
#
# 1 97.7328 51.1752 62.0038 5.0491 -43.5242 6.1416
# 2 51.1752 115.0003 71.4786 2.1342 -32.8712 2.8224
# 3 62.0038 71.4786 159.8622 -2.8105 -52.2168 -7.5723
# 4 5.0491 2.1342 -2.8105 47.5866 -8.3941 -14.1108
# 5 -43.5242 -32.8712 -52.2168 -8.3941 48.4037 1.9248
# 6 6.1416 2.8224 -7.5723 -14.1108 1.9248 29.7649
#
#
#
# Elastic Compliance Matrix: (Units=1/GPa)
#
#
# Indices 1 2 3 4 5 6 
#
# 1 0.019632 -0.003567 -0.002089 -0.001476 0.012951 -0.005782
# 2 -0.003567 0.013374 -0.004354 -0.000921 0.001105 -0.002148
# 3 -0.002089 -0.004354 0.012262 0.004328 0.008927 0.005438
# 4 -0.001476 -0.000921 0.004328 0.026740 0.006808 0.013730
# 5 0.012951 0.001105 0.008927 0.006808 0.043870 -0.000116
# 6 -0.005782 -0.002148 0.005438 0.013730 -0.000116 0.042893
#
#
# Mechanical properties :
#
#
# Convention : Reuss Voigt Hill
#
# Bulk Modulus (GPa) = 39.60548 82.43451 61.02000
# Shear Modulus (GPa) = 26.70826 37.68021 32.19424
#
# Velocity S-wave (km/s) = 3.17161 3.76716 3.48214
# Velocity P-wave (km/s) = 5.32247 7.06889 6.25691
#
# Compressibility (1/GPa) = 0.02524903
#
# Stress axis : x y z
#
# Youngs Moduli (GPa) = 50.93673 74.76962 81.55255
#
# Poissons Ratio (x) = 0.26667 0.17039
# Poissons Ratio (y) = 0.18167 0.35507
# Poissons Ratio (z) = 0.10643 0.32554
#
# Static dielectric constant tensor:
#      x y z
#    x 2.137170 -0.082930 -0.014050 
#    y -0.082930 2.188800 -0.011450 
#    z -0.014050 -0.011450 2.186420 
# 
# From -- ./inp_files/284368.got.cif
#   From: 2010.05.17/outbox.cif.g08.bks.cpg/sg2_143_cif.got.tgz:284368.got - 2010.06.03 11:33:40.
