data_PCOD9093497
_publ_section_title
;
Structure prediction by ZEFSAII (Michael W. Deem and Ramdas Pophale) SiO2 
 PCOD9093497
Probable space group: P -1
;
_chemical_formula_sum "Si O2"
_cell_formula_units_Z 16
_cell_length_a 10.438607
_cell_length_b 16.799986
_cell_length_c 21.044240
_cell_angle_alpha 19.896173
_cell_angle_beta 33.723653
_cell_angle_gamma 33.312019
_cell_volume 668.621246
_symmetry_space_group_name_H-M "P -1"
_symmetry_group_IT_number 2
_symmetry_cell_setting 'triclinic'
loop_
_space_group_symop_operation_xyz
x,y,z
-x,-y,-z
loop_
_atom_site_type_symbol
_atom_site_label
_atom_site_fract_x
_atom_site_fract_y
_atom_site_fract_z
Si Si1 0.615888 0.780643 0.240188
Si Si2 0.681073 0.088809 0.422846
Si Si3 0.307291 0.466926 0.466227
Si Si4 0.209303 0.449294 0.007817
Si Si5 0.803734 0.306383 0.343073
Si Si6 0.852211 0.260723 0.494543
Si Si7 0.254422 0.819726 0.057265
Si Si8 0.803189 0.710228 0.485057
O O1 0.661639 0.670974 0.375931
O O2 0.762559 0.552336 0.310510
O O3 0.330290 0.824316 0.320327
O O4 0.698236 0.020381 0.023467
O O5 0.738526 0.184592 0.397607
O O6 0.405350 0.095754 0.537646
O O7 0.729539 0.295237 0.202691
O O8 0.876801 0.835082 0.522951
O O9 0.552495 0.512223 0.306134
O O10 0.245914 0.291608 0.568753
O O11 0.076836 0.698152 0.392016
O O12 0.049938 0.379102 0.181046
O O13 0.473847 0.255865 0.031328
O O14 0.000000 0.500000 0.000000
O O15 0.828761 0.159679 0.509169
O O16 0.217928 0.556469 0.283717
O O17 0.000000 0.000000 0.000000
#
# Coordination Sequence:
#
# PCOD9093497 Si02
#       8
#     2   2   2   2   2   2   2   2
#     4  10  20  34  52  75 110 142 174 211 264 319
#     4   9  17  31  52  77 104 133 173 215 262 311
#     4   9  17  32  51  77 105 130 174 218 260 308
#     4   9  18  32  54  80 106 134 173 224 264 305
#     4   9  17  31  53  79 104 132 175 224 256 299
#     4  10  20  33  51  79 108 141 173 214 263 316
#     4  11  20  34  57  81 106 139 176 220 264 314
#     4   9  18  32  53  79 102 132 174 221 262 304
#
# _framework density 23.929842000000001
#
# number of rings (size 3 to 8) (size 9 to 14) (size 15 to 20)
#    0.000    2.500    1.250    2.625    0.000    2.000 
#    0.000    1.875    0.000   15.000    0.000    0.000 
#    0.000    0.000    0.000    0.000    0.000    0.000 
#
# Total GULP energy -89116.421711 kJ/mol
# GULP energy per Si atom -5569.776357 kJ/mol
# Density = 2.387538 g / cm^3
# Si number density = 23.929842 Si / 1000 Ang^3
#
#
#
# Elastic Constant Matrix: (Units=GPa)
#
#
# Indices 1 2 3 4 5 6 
#
# 1 83.1333 30.2931 11.2344 4.1515 -0.9130 -16.5686
# 2 30.2931 160.3642 50.9638 30.4058 -6.3130 -51.0356
# 3 11.2344 50.9638 53.3171 3.0704 -10.7376 -2.7592
# 4 4.1515 30.4058 3.0704 33.1209 -4.9681 -8.3718
# 5 -0.9130 -6.3130 -10.7376 -4.9681 23.6623 2.9521
# 6 -16.5686 -51.0356 -2.7592 -8.3718 2.9521 39.9805
#
#
#
# Elastic Compliance Matrix: (Units=1/GPa)
#
#
# Indices 1 2 3 4 5 6 
#
# 1 0.013502 0.000343 -0.003177 -0.000487 -0.001659 0.005835
# 2 0.000343 0.025543 -0.024335 -0.015667 -0.011073 0.028606
# 3 -0.003177 -0.024335 0.044455 0.014620 0.020087 -0.027735
# 4 -0.000487 -0.015667 0.014620 0.042343 0.012731 -0.011265
# 5 -0.001659 -0.011073 0.020087 0.012731 0.052862 -0.014674
# 6 0.005835 0.028606 -0.027735 -0.011265 -0.014674 0.060756
#
#
# Mechanical properties :
#
#
# Convention : Reuss Voigt Hill
#
# Bulk Modulus (GPa) = 34.29249 53.53302 43.91275
# Shear Modulus (GPa) = 16.47334 32.97429 24.72382
#
# Velocity S-wave (km/s) = 2.62659 3.71611 3.21780
# Velocity P-wave (km/s) = 4.85388 6.38999 5.67416
#
# Compressibility (1/GPa) = 0.02916090
#
# Stress axis : x y z
#
# Youngs Moduli (GPa) = 74.06206 39.14936 22.49484
#
# Poissons Ratio (x) = -0.01342 0.07147
# Poissons Ratio (y) = -0.02539 0.54742
# Poissons Ratio (z) = 0.23529 0.95272
#
# Static dielectric constant tensor:
#      x y z
#    x 2.034600 -0.031220 0.014620 
#    y -0.031220 2.036750 0.010940 
#    z 0.014620 0.010940 1.945200 
# 
# From -- ./inp_files/253150.got.cif
#   From: 2010.05.17/outbox.cif.g08.bks.cpg/sg2_127_cif.got.tgz:253150.got - 2010.06.03 11:33:40.
