data_PCOD9093090
_publ_section_title
;
Structure prediction by ZEFSAII (Michael W. Deem and Ramdas Pophale) SiO2 
 PCOD9093090
Probable space group: P -1
;
_chemical_formula_sum "Si O2"
_cell_formula_units_Z 16
_cell_length_a 9.492712
_cell_length_b 9.385447
_cell_length_c 15.727362
_cell_angle_alpha 113.141451
_cell_angle_beta 31.425894
_cell_angle_gamma 98.614808
_cell_volume 619.438180
_symmetry_space_group_name_H-M "P -1"
_symmetry_group_IT_number 2
_symmetry_cell_setting 'triclinic'
loop_
_space_group_symop_operation_xyz
x,y,z
-x,-y,-z
loop_
_atom_site_type_symbol
_atom_site_label
_atom_site_fract_x
_atom_site_fract_y
_atom_site_fract_z
Si Si1 0.256923 0.721721 0.471598
Si Si2 0.453512 0.282306 0.430193
Si Si3 0.363191 0.184183 0.228625
Si Si4 0.353339 0.093342 0.739667
Si Si5 0.067466 0.635048 0.715534
Si Si6 0.557199 0.181900 0.930301
Si Si7 0.056792 0.242881 0.765043
Si Si8 0.768007 0.368781 0.108486
O O1 0.368577 0.858616 0.408292
O O2 0.103617 0.756521 0.651376
O O3 0.551006 0.554766 0.286736
O O4 0.984650 0.710578 0.556335
O O5 0.197108 0.448715 0.565220
O O6 0.725109 0.339660 0.313214
O O7 0.306577 0.281284 0.598260
O O8 0.557381 0.087529 0.306629
O O9 0.475320 0.182644 0.073045
O O10 0.567512 0.258751 0.190514
O O11 0.405026 0.991759 0.174422
O O12 0.209925 0.093743 0.719529
O O13 0.084854 0.250297 0.955083
O O14 0.736461 0.679353 0.923210
O O15 0.854744 0.211502 0.789877
O O16 0.855335 0.382095 0.967360
#
# Coordination Sequence:
#
# PCOD9093090 Si02
#       8
#     2   2   2   2   2   2   2   2
#     4  11  19  33  51  76 101 136 168 201 246 297
#     4  11  20  35  49  78 102 132 164 207 259 290
#     4   9  17  28  51  75 104 126 162 214 249 290
#     4  10  20  31  54  75 100 131 168 208 245 292
#     4  10  22  32  52  73 108 131 161 207 252 305
#     4   9  17  31  49  79  98 130 164 203 260 292
#     4   9  19  31  53  75 100 130 162 215 242 294
#     4   9  19  31  49  77 101 131 168 209 242 287
#
# _framework density 25.829857000000001
#
# number of rings (size 3 to 8) (size 9 to 14) (size 15 to 20)
#    0.750    1.500    1.250    2.625    3.500    0.500 
#    0.000    0.625    0.000    1.500    0.000   10.500 
#    0.000    0.000    0.000    0.000    0.000    0.000 
#
# Total GULP energy -89272.634117 kJ/mol
# GULP energy per Si atom -5579.539632 kJ/mol
# Density = 2.577107 g / cm^3
# Si number density = 25.829857 Si / 1000 Ang^3
#
#
#
# Elastic Constant Matrix: (Units=GPa)
#
#
# Indices 1 2 3 4 5 6 
#
# 1 36.2807 20.8749 17.8218 -6.0870 -5.2054 11.4733
# 2 20.8749 118.3775 43.4499 1.7372 -11.0819 6.5546
# 3 17.8218 43.4499 142.1757 -5.2050 -14.6477 9.3755
# 4 -6.0870 1.7372 -5.2050 33.1580 12.7962 -2.7460
# 5 -5.2054 -11.0819 -14.6477 12.7962 35.0238 -8.9867
# 6 11.4733 6.5546 9.3755 -2.7460 -8.9867 28.9628
#
#
#
# Elastic Compliance Matrix: (Units=1/GPa)
#
#
# Indices 1 2 3 4 5 6 
#
# 1 0.036419 -0.005290 -0.002158 0.006678 -0.002886 -0.012794
# 2 -0.005290 0.010526 -0.002438 -0.002924 0.002880 0.001119
# 3 -0.002158 -0.002438 0.008318 0.000147 0.002180 -0.000596
# 4 0.006678 -0.002924 0.000147 0.036738 -0.014039 -0.002904
# 5 -0.002886 0.002880 0.002180 -0.014039 0.037679 0.010146
# 6 -0.012794 0.001119 -0.000596 -0.002904 0.010146 0.042407
#
#
# Mechanical properties :
#
#
# Convention : Reuss Voigt Hill
#
# Bulk Modulus (GPa) = 28.17545 51.23634 39.70589
# Shear Modulus (GPa) = 24.54733 33.74141 29.14437
#
# Velocity S-wave (km/s) = 3.08611 3.61819 3.36269
# Velocity P-wave (km/s) = 4.86113 6.11017 5.52109
#
# Compressibility (1/GPa) = 0.03549189
#
# Stress axis : x y z
#
# Youngs Moduli (GPa) = 27.45853 95.00526 120.21679
#
# Poissons Ratio (x) = 0.50257 0.25939
# Poissons Ratio (y) = 0.14525 0.29306
# Poissons Ratio (z) = 0.05925 0.23160
#
# Static dielectric constant tensor:
#      x y z
#    x 2.176730 -0.014390 0.010840 
#    y -0.014390 2.013950 0.015860 
#    z 0.010840 0.015860 2.025610 
# 
# From -- ./inp_files/619159.got.cif
#   From: 2010.05.17/outbox.cif.g08.bks.cpg/sg2_310_cif.got.tgz:619159.got - 2010.06.03 11:33:40.
