data_PCOD9093954
_publ_section_title
;
Structure prediction by ZEFSAII (Michael W. Deem and Ramdas Pophale) SiO2 
 PCOD9093954
Probable space group: P -1
;
_chemical_formula_sum "Si O2"
_cell_formula_units_Z 14
_cell_length_a 10.763924
_cell_length_b 11.476465
_cell_length_c 11.059721
_cell_angle_alpha 123.565331
_cell_angle_beta 43.052340
_cell_angle_gamma 89.191724
_cell_volume 526.930110
_symmetry_space_group_name_H-M "P -1"
_symmetry_group_IT_number 2
_symmetry_cell_setting 'triclinic'
loop_
_space_group_symop_operation_xyz
x,y,z
-x,-y,-z
loop_
_atom_site_type_symbol
_atom_site_label
_atom_site_fract_x
_atom_site_fract_y
_atom_site_fract_z
Si Si1 0.237512 0.868422 0.123214
Si Si2 0.984491 0.812554 0.884921
Si Si3 0.417046 0.747656 0.661969
Si Si4 0.599166 0.733812 0.004182
Si Si5 0.203847 0.338006 0.944124
Si Si6 0.948612 0.330332 0.913812
Si Si7 0.963155 0.744942 0.615475
O O1 0.428975 0.763009 0.805916
O O2 0.383385 0.784939 0.099796
O O3 0.070635 0.819899 0.194946
O O4 0.101311 0.097236 0.341235
O O5 0.167898 0.785300 0.834549
O O6 0.968331 0.661214 0.843442
O O7 0.102310 0.750007 0.630978
O O8 0.698611 0.051134 0.210506
O O9 0.674854 0.534654 0.294927
O O10 0.541189 0.786942 0.219724
O O11 0.704499 0.811272 0.897924
O O12 0.842158 0.486114 0.695736
O O13 0.186057 0.249577 0.786588
O O14 0.064702 0.559501 0.128883
#
# Coordination Sequence:
#
# PCOD9093954 Si02
#       7
#     2   2   2   2   2   2   2
#     4  11  21  36  62  92 115 149 204 249 292 355
#     4   9  18  37  58  89 118 146 195 257 288 347
#     4  10  20  33  63  91 113 147 201 248 298 340
#     4  10  21  38  61  85 121 156 191 249 300 350
#     4  10  23  41  55  84 127 159 195 238 298 354
#     4  11  23  38  60  85 121 163 195 241 292 358
#     4   9  20  35  60  90 120 147 194 250 305 340
#
# _framework density 26.568987
#
# number of rings (size 3 to 8) (size 9 to 14) (size 15 to 20)
#    0.000    2.000    1.429    1.714    6.000    1.143 
#    0.000    0.714    0.000    0.000    0.000    0.000 
#    0.000    0.000    0.000    0.000    0.000    0.000 
#
# Total GULP energy -78206.844058 kJ/mol
# GULP energy per Si atom -5586.203147 kJ/mol
# Density = 2.650852 g / cm^3
# Si number density = 26.568987 Si / 1000 Ang^3
#
#
#
# Elastic Constant Matrix: (Units=GPa)
#
#
# Indices 1 2 3 4 5 6 
#
# 1 211.4159 79.3538 36.6268 15.6051 3.5506 -21.6106
# 2 79.3538 137.9387 37.4504 23.1685 -3.2653 3.3336
# 3 36.6268 37.4504 96.3131 16.9151 13.6581 6.9708
# 4 15.6051 23.1685 16.9151 31.5132 8.9098 13.7029
# 5 3.5506 -3.2653 13.6581 8.9098 17.0471 8.6892
# 6 -21.6106 3.3336 6.9708 13.7029 8.6892 62.7799
#
#
#
# Elastic Compliance Matrix: (Units=1/GPa)
#
#
# Indices 1 2 3 4 5 6 
#
# 1 0.006645 -0.003588 -0.000851 -0.000828 -0.002539 0.003105
# 2 -0.003588 0.011700 -0.003225 -0.007389 0.010087 -0.001282
# 3 -0.000851 -0.003225 0.013753 -0.001649 -0.010695 0.000191
# 4 -0.000828 -0.007389 -0.001649 0.047547 -0.021121 -0.007164
# 5 -0.002539 0.010087 -0.010695 -0.021121 0.084451 -0.007301
# 6 0.003105 -0.001282 0.000191 -0.007164 -0.007301 0.019618
#
#
# Mechanical properties :
#
#
# Convention : Reuss Voigt Hill
#
# Bulk Modulus (GPa) = 59.63054 83.61440 71.62247
# Shear Modulus (GPa) = 24.43397 41.75050 33.09223
#
# Velocity S-wave (km/s) = 3.03585 3.96839 3.53302
# Velocity P-wave (km/s) = 5.89753 7.24821 6.60747
#
# Compressibility (1/GPa) = 0.01676993
#
# Stress axis : x y z
#
# Youngs Moduli (GPa) = 150.48247 85.46980 72.71167
#
# Poissons Ratio (x) = 0.30665 0.06189
# Poissons Ratio (y) = 0.53991 0.23450
# Poissons Ratio (z) = 0.12810 0.27565
#
# Static dielectric constant tensor:
#      x y z
#    x 2.184800 -0.009520 -0.033060 
#    y -0.009520 2.085400 -0.006410 
#    z -0.033060 -0.006410 2.118470 
# 
# From -- ./inp_files/282360.got.cif
#   From: 2010.05.17/outbox.cif.g08.bks.cpg/sg2_142_cif.got.tgz:282360.got - 2010.06.03 11:33:40.
