data_PCOD9093483
_publ_section_title
;
Structure prediction by ZEFSAII (Michael W. Deem and Ramdas Pophale) SiO2 
 PCOD9093483
Probable space group: P -1
;
_chemical_formula_sum "Si O2"
_cell_formula_units_Z 16
_cell_length_a 24.916293
_cell_length_b 20.984314
_cell_length_c 5.964837
_cell_angle_alpha 69.745988
_cell_angle_beta 56.672314
_cell_angle_gamma 19.441708
_cell_volume 681.775104
_symmetry_space_group_name_H-M "P -1"
_symmetry_group_IT_number 2
_symmetry_cell_setting 'triclinic'
loop_
_space_group_symop_operation_xyz
x,y,z
-x,-y,-z
loop_
_atom_site_type_symbol
_atom_site_label
_atom_site_fract_x
_atom_site_fract_y
_atom_site_fract_z
Si Si1 0.395079 0.003812 0.806267
Si Si2 0.747822 0.599594 0.873638
Si Si3 0.602855 0.120078 0.328147
Si Si4 0.324774 0.645946 0.548619
Si Si5 0.320196 0.205070 0.970977
Si Si6 0.028912 0.067394 0.651781
Si Si7 0.306521 0.540540 0.442548
Si Si8 0.951646 0.827752 0.238913
O O1 0.285645 0.049958 0.879934
O O2 0.534736 0.903452 0.419898
O O3 0.583911 0.784874 0.816859
O O4 0.234404 0.222708 0.030802
O O5 0.584804 0.729464 0.275255
O O6 0.837265 0.577837 0.815643
O O7 0.938760 0.350019 0.681170
O O8 0.478643 0.307039 0.251948
O O9 0.770189 0.985472 0.283937
O O10 0.500000 0.500000 0.500000
O O11 0.423239 0.487372 0.355593
O O12 0.129285 0.807483 0.948666
O O13 0.208695 0.826650 0.464314
O O14 0.500000 0.000000 0.000000
O O15 0.863305 0.259807 0.600315
O O16 0.137915 0.023820 0.567162
O O17 0.152400 0.660318 0.839373
#
# Coordination Sequence:
#
# PCOD9093483 Si02
#       8
#     2   2   2   2   2   2   2   2
#     4   9  16  30  53  75  99 135 171 205 252 301
#     4   9  18  33  51  73 102 133 167 208 252 299
#     4  10  20  33  51  76 102 131 170 210 249 298
#     4  10  21  36  54  77 103 131 167 210 251 296
#     4   8  15  29  52  76 100 133 169 208 253 297
#     4  10  21  36  53  75 103 134 168 206 251 301
#     4  10  21  36  54  76 102 134 169 205 251 302
#     4  10  21  35  51  75 105 133 166 209 251 296
#
# _framework density 23.468150000000001
#
# number of rings (size 3 to 8) (size 9 to 14) (size 15 to 20)
#    0.000    2.500    0.000    1.875    0.000    2.500 
#    0.000    0.625    0.000   25.500    0.000    0.000 
#    0.000    0.000    0.000    0.000    0.000    0.000 
#
# Total GULP energy -89369.333273 kJ/mol
# GULP energy per Si atom -5585.583330 kJ/mol
# Density = 2.341474 g / cm^3
# Si number density = 23.468150 Si / 1000 Ang^3
#
#
#
# Elastic Constant Matrix: (Units=GPa)
#
#
# Indices 1 2 3 4 5 6 
#
# 1 205.3936 54.9795 15.4989 -2.0248 13.0519 23.7865
# 2 54.9795 97.2908 9.2911 -36.6077 -17.8888 20.0231
# 3 15.4989 9.2911 78.2408 -11.8768 -6.6657 17.0294
# 4 -2.0248 -36.6077 -11.8768 22.6099 -12.8591 -3.7316
# 5 13.0519 -17.8888 -6.6657 -12.8591 -1.6706 -6.7648
# 6 23.7865 20.0231 17.0294 -3.7316 -6.7648 36.4902
#
#
#
# Elastic Compliance Matrix: (Units=1/GPa)
#
#
# Indices 1 2 3 4 5 6 
#
# 1 0.004641 0.000366 0.000601 0.004217 0.005673 -0.002024
# 2 0.000366 0.007136 -0.001364 -0.002167 -0.020724 -0.007581
# 3 0.000601 -0.001364 0.013861 0.000071 -0.006753 -0.007356
# 4 0.004217 -0.002167 0.000071 0.016544 -0.041056 -0.007512
# 5 0.005673 -0.020724 -0.006753 -0.041056 -0.009271 0.004908
# 6 -0.002024 -0.007581 -0.007356 -0.007512 0.004908 0.036459
#
#
# Mechanical properties :
#
#
# Convention : Reuss Voigt Hill
#
# Bulk Modulus (GPa) = 40.25246 60.05160 50.15203
# Shear Modulus (GPa) = 63.73946 31.56294 47.65120
#
# Velocity S-wave (km/s) = 5.21718 3.67130 4.51095
# Velocity P-wave (km/s) = 7.31308 6.60419 6.96766
#
# Compressibility (1/GPa) = 0.02484320
#
# Stress axis : x y z
#
# Youngs Moduli (GPa) = 215.48296 140.13385 72.14727
#
# Poissons Ratio (x) = -0.05133 -0.04337
# Poissons Ratio (y) = -0.07893 0.09844
# Poissons Ratio (z) = -0.12952 0.19120
#
# Static dielectric constant tensor:
#      x y z
#    x 1.938740 0.033880 0.004730 
#    y 0.033880 1.855970 0.017830 
#    z 0.004730 0.017830 1.862040 
# 
# From -- ./inp_files/116535.got.cif
#   From: 2010.05.17/outbox.cif.g08.bks.cpg/sg2_59_cif.got.tgz:116535.got - 2010.06.03 11:33:40.
