data_PCOD9093117
_publ_section_title
;
Structure prediction by ZEFSAII (Michael W. Deem and Ramdas Pophale) SiO2 
 PCOD9093117
Probable space group: P -1
;
_chemical_formula_sum "Si O2"
_cell_formula_units_Z 14
_cell_length_a 12.057114
_cell_length_b 13.113060
_cell_length_c 11.618055
_cell_angle_alpha 41.729154
_cell_angle_beta 31.184512
_cell_angle_gamma 61.753028
_cell_volume 555.625729
_symmetry_space_group_name_H-M "P -1"
_symmetry_group_IT_number 2
_symmetry_cell_setting 'triclinic'
loop_
_space_group_symop_operation_xyz
x,y,z
-x,-y,-z
loop_
_atom_site_type_symbol
_atom_site_label
_atom_site_fract_x
_atom_site_fract_y
_atom_site_fract_z
Si Si1 0.684183 0.247768 0.574367
Si Si2 0.341533 0.713843 0.677897
Si Si3 0.885241 0.043686 0.676582
Si Si4 0.418606 0.497880 0.409220
Si Si5 0.365687 0.572431 0.143635
Si Si6 0.146035 0.746442 0.061366
Si Si7 0.104067 0.101690 0.977641
O O1 0.766382 0.242345 0.375318
O O2 0.648601 0.408281 0.512080
O O3 0.858946 0.215186 0.532052
O O4 0.400402 0.100331 0.948267
O O5 0.360238 0.545704 0.758501
O O6 0.622907 0.866636 0.323340
O O7 0.208274 0.680598 0.943549
O O8 0.989349 0.029893 0.720749
O O9 0.000000 0.000000 0.500000
O O10 0.453684 0.602963 0.171102
O O11 0.199523 0.299754 0.770697
O O12 0.347399 0.739723 0.972096
O O13 0.102634 0.399309 0.538266
O O14 0.500000 0.500000 0.000000
O O15 0.090748 0.903377 0.939775
#
# Coordination Sequence:
#
# PCOD9093117 Si02
#       7
#     2   2   2   2   2   2   2
#     4  10  20  35  53  73 109 137 166 214 256 296
#     4   9  17  30  49  75 103 130 169 204 254 300
#     4  10  20  35  50  73 102 142 175 201 251 314
#     4   9  18  34  50  78 105 133 168 215 256 293
#     4  10  18  31  47  75 110 132 167 207 259 305
#     4  10  16  29  51  74 101 138 164 207 257 301
#     4   8  18  31  48  74 102 127 172 206 249 297
#
# _framework density 25.196818
#
# number of rings (size 3 to 8) (size 9 to 14) (size 15 to 20)
#    0.857    1.714    1.429    1.286    0.000    0.000 
#    5.143    3.571    0.000    0.857    0.000   30.000 
#    0.000    0.000    0.000    0.000    0.000    0.000 
#
# Total GULP energy -77941.371143 kJ/mol
# GULP energy per Si atom -5567.240796 kJ/mol
# Density = 2.513947 g / cm^3
# Si number density = 25.196818 Si / 1000 Ang^3
#
#
#
# Elastic Constant Matrix: (Units=GPa)
#
#
# Indices 1 2 3 4 5 6 
#
# 1 92.8415 32.4629 40.4940 -13.5606 39.3431 -34.1158
# 2 32.4629 99.5642 30.6137 19.5019 19.8841 -16.2925
# 3 40.4940 30.6137 117.9578 33.3554 27.2239 -6.3067
# 4 -13.5606 19.5019 33.3554 35.2656 0.5187 6.3075
# 5 39.3431 19.8841 27.2239 0.5187 34.5464 -17.6811
# 6 -34.1158 -16.2925 -6.3067 6.3075 -17.6811 45.6319
#
#
#
# Elastic Compliance Matrix: (Units=1/GPa)
#
#
# Indices 1 2 3 4 5 6 
#
# 1 0.036511 -0.007474 -0.013191 0.029147 -0.022093 0.010216
# 2 -0.007474 0.014881 0.003228 -0.014409 -0.001589 0.001548
# 3 -0.013191 0.003228 0.020018 -0.024978 -0.004377 -0.004187
# 4 0.029147 -0.014409 -0.024978 0.071031 -0.005683 0.001174
# 5 -0.022093 -0.001589 -0.004377 -0.005683 0.062249 0.007216
# 6 0.010216 0.001548 -0.004187 0.001174 0.007216 0.032160
#
#
# Mechanical properties :
#
#
# Convention : Reuss Voigt Hill
#
# Bulk Modulus (GPa) = 27.37067 57.50052 42.43559
# Shear Modulus (GPa) = 17.61155 36.87496 27.24326
#
# Velocity S-wave (km/s) = 2.64665 3.82969 3.29176
# Velocity P-wave (km/s) = 4.49733 6.51348 5.59694
#
# Compressibility (1/GPa) = 0.03653546
#
# Stress axis : x y z
#
# Youngs Moduli (GPa) = 27.38864 67.19920 49.95518
#
# Poissons Ratio (x) = 0.50222 0.65898
# Poissons Ratio (y) = 0.20469 -0.16123
# Poissons Ratio (z) = 0.36129 -0.21689
#
# Static dielectric constant tensor:
#      x y z
#    x 2.153320 -0.069980 -0.008820 
#    y -0.069980 2.005670 -0.044400 
#    z -0.008820 -0.044400 2.017820 
# 
# From -- ./inp_files/268186.got.cif
#   From: 2010.05.17/outbox.cif.g08.bks.cpg/sg2_135_cif.got.tgz:268186.got - 2010.06.03 11:33:40.
