data_PCOD9093864
_publ_section_title
;
Structure prediction by ZEFSAII (Michael W. Deem and Ramdas Pophale) SiO2 
 PCOD9093864
Probable space group: P -1
;
_chemical_formula_sum "Si O2"
_cell_formula_units_Z 16
_cell_length_a 11.879028
_cell_length_b 14.044841
_cell_length_c 8.067659
_cell_angle_alpha 44.570512
_cell_angle_beta 82.772348
_cell_angle_gamma 59.550239
_cell_volume 750.254627
_symmetry_space_group_name_H-M "P -1"
_symmetry_group_IT_number 2
_symmetry_cell_setting 'triclinic'
loop_
_space_group_symop_operation_xyz
x,y,z
-x,-y,-z
loop_
_atom_site_type_symbol
_atom_site_label
_atom_site_fract_x
_atom_site_fract_y
_atom_site_fract_z
Si Si1 0.903550 0.385682 0.911240
Si Si2 0.304344 0.039429 0.908662
Si Si3 0.791158 0.475757 0.445137
Si Si4 0.199457 0.111260 0.314618
Si Si5 0.159078 0.856589 0.713528
Si Si6 0.409292 0.138052 0.074135
Si Si7 0.833498 0.139225 0.895804
Si Si8 0.071677 0.335931 0.376482
O O1 0.843297 0.452402 0.655402
O O2 0.895262 0.531434 0.831868
O O3 0.823505 0.317343 0.098820
O O4 0.071348 0.227757 0.062360
O O5 0.369162 0.059652 0.034119
O O6 0.168656 0.221112 0.653833
O O7 0.422508 0.966753 0.832381
O O8 0.255600 0.920539 0.086388
O O9 0.658499 0.667980 0.198631
O O10 0.777573 0.323841 0.613767
O O11 0.912916 0.436930 0.345184
O O12 0.115933 0.204465 0.384436
O O13 0.244961 0.921048 0.540237
O O14 0.326359 0.126954 0.253589
O O15 0.174753 0.858642 0.905901
O O16 0.000000 0.000000 0.500000
O O17 0.000000 0.000000 0.000000
#
# Coordination Sequence:
#
# PCOD9093864 Si02
#       8
#     2   2   2   2   2   2   2   2
#     4  10  20  33  59  87 119 151 195 250 289 341
#     4  11  24  42  60  87 120 159 208 238 296 356
#     4  11  21  37  63  88 118 155 200 245 298 342
#     4  11  21  36  58  87 122 151 194 249 304 344
#     4   9  20  34  53  88 121 149 186 242 302 347
#     4  11  25  41  60  86 121 166 196 243 297 361
#     4  11  21  37  62  90 117 152 198 252 291 345
#     4  12  20  36  60  92 117 149 202 253 287 352
#
# _framework density 21.326094000000001
#
# number of rings (size 3 to 8) (size 9 to 14) (size 15 to 20)
#    0.000    1.250    5.000    1.500    3.500    1.000 
#    0.000    0.000    0.000    0.750    0.000    0.000 
#    0.000    0.000    0.000    0.000    0.000    0.000 
#
# Total GULP energy -89351.329182 kJ/mol
# GULP energy per Si atom -5584.458074 kJ/mol
# Density = 2.127756 g / cm^3
# Si number density = 21.326094 Si / 1000 Ang^3
#
#
#
# Elastic Constant Matrix: (Units=GPa)
#
#
# Indices 1 2 3 4 5 6 
#
# 1 58.2057 19.5461 23.3232 -23.0158 -29.9800 11.3744
# 2 19.5461 34.9575 14.8729 -10.5736 -8.8223 7.4271
# 3 23.3232 14.8729 84.8865 -15.4777 -41.6497 16.7901
# 4 -23.0158 -10.5736 -15.4777 30.2287 17.1493 -7.7543
# 5 -29.9800 -8.8223 -41.6497 17.1493 39.2654 -10.7584
# 6 11.3744 7.4271 16.7901 -7.7543 -10.7584 29.8978
#
#
#
# Elastic Compliance Matrix: (Units=1/GPa)
#
#
# Indices 1 2 3 4 5 6 
#
# 1 0.039200 -0.014119 0.009658 0.011430 0.031298 -0.002604
# 2 -0.014119 0.038868 -0.008164 0.005861 -0.014163 -0.003276
# 3 0.009658 -0.008164 0.028578 -0.002358 0.035353 -0.005586
# 4 0.011430 0.005861 -0.002358 0.051500 -0.013887 0.003880
# 5 0.031298 -0.014163 0.035353 -0.013887 0.089883 0.000500
# 6 -0.002604 -0.003276 -0.005586 0.003880 0.000500 0.039575
#
#
# Mechanical properties :
#
#
# Convention : Reuss Voigt Hill
#
# Bulk Modulus (GPa) = 12.28525 32.61491 22.45008
# Shear Modulus (GPa) = 14.70654 27.89889 21.30271
#
# Velocity S-wave (km/s) = 2.62888 3.62083 3.16397
# Velocity P-wave (km/s) = 3.87141 5.72776 4.88851
#
# Compressibility (1/GPa) = 0.08139840
#
# Stress axis : x y z
#
# Youngs Moduli (GPa) = 25.50992 25.72810 34.99228
#
# Poissons Ratio (x) = 0.36325 -0.33797
# Poissons Ratio (y) = 0.36017 0.28566
# Poissons Ratio (z) = -0.24638 0.21003
#
# Static dielectric constant tensor:
#      x y z
#    x 1.801790 0.021670 -0.034460 
#    y 0.021670 1.805730 0.035710 
#    z -0.034460 0.035710 1.812410 
# 
# From -- ./inp_files/259426.got.cif
#   From: 2010.05.17/outbox.cif.g08.bks.cpg/sg2_130_cif.got.tgz:259426.got - 2010.06.03 11:33:40.
