data_PCOD9093885
_publ_section_title
;
Structure prediction by ZEFSAII (Michael W. Deem and Ramdas Pophale) SiO2 
 PCOD9093885
Probable space group: P -1
;
_chemical_formula_sum "Si O2"
_cell_formula_units_Z 14
_cell_length_a 8.815110
_cell_length_b 15.354958
_cell_length_c 10.249639
_cell_angle_alpha 36.598086
_cell_angle_beta 80.187468
_cell_angle_gamma 56.395391
_cell_volume 574.608420
_symmetry_space_group_name_H-M "P -1"
_symmetry_group_IT_number 2
_symmetry_cell_setting 'triclinic'
loop_
_space_group_symop_operation_xyz
x,y,z
-x,-y,-z
loop_
_atom_site_type_symbol
_atom_site_label
_atom_site_fract_x
_atom_site_fract_y
_atom_site_fract_z
Si Si1 0.513598 0.659907 0.099028
Si Si2 0.479406 0.121766 0.551791
Si Si3 0.025505 0.207719 0.852125
Si Si4 0.028124 0.062807 0.746965
Si Si5 0.249157 0.046212 0.509075
Si Si6 0.370125 0.212625 0.874211
Si Si7 0.572066 0.607091 0.569136
O O1 0.689270 0.633377 0.186825
O O2 0.557534 0.458969 0.324280
O O3 0.283108 0.837842 0.996102
O O4 0.439195 0.796872 0.815929
O O5 0.719120 0.961599 0.640303
O O6 0.419077 0.316639 0.386490
O O7 0.317430 0.153691 0.434688
O O8 0.481905 0.002246 0.811651
O O9 0.182050 0.240720 0.806581
O O10 0.809253 0.400376 0.729693
O O11 0.987648 0.185744 0.733643
O O12 0.099548 0.004242 0.152765
O O13 0.041795 0.130678 0.521187
O O14 0.483606 0.234068 0.722389
#
# Coordination Sequence:
#
# PCOD9093885 Si02
#       7
#     2   2   2   2   2   2   2
#     4   8  19  35  56  78 107 139 181 224 259 311
#     4  10  20  33  60  81 104 143 186 219 260 315
#     4  10  20  34  55  83 111 140 174 218 282 314
#     4   8  17  36  57  76 106 147 172 217 265 332
#     4   8  17  37  57  78 101 149 184 214 257 327
#     4  11  21  34  53  84 112 138 180 224 263 321
#     4  11  21  34  54  86 110 138 174 227 274 316
#
# _framework density 24.364418000000001
#
# number of rings (size 3 to 8) (size 9 to 14) (size 15 to 20)
#    0.857    1.714    0.000    2.143    2.000    0.571 
#    2.571    0.714    0.000   13.714    0.000    0.000 
#    0.000    0.000    0.000    0.000    0.000    0.000 
#
# Total GULP energy -78030.548624 kJ/mol
# GULP energy per Si atom -5573.610616 kJ/mol
# Density = 2.430896 g / cm^3
# Si number density = 24.364418 Si / 1000 Ang^3
#
#
#
# Elastic Constant Matrix: (Units=GPa)
#
#
# Indices 1 2 3 4 5 6 
#
# 1 125.3899 36.9880 37.2936 -3.7435 -43.4422 7.4245
# 2 36.9880 113.8596 23.6336 -18.2233 -16.2356 9.1732
# 3 37.2936 23.6336 53.0449 -12.0293 -33.1406 17.6133
# 4 -3.7435 -18.2233 -12.0293 29.1443 4.1751 -16.2699
# 5 -43.4422 -16.2356 -33.1406 4.1751 37.1894 -4.8378
# 6 7.4245 9.1732 17.6133 -16.2699 -4.8378 41.3603
#
#
#
# Elastic Compliance Matrix: (Units=1/GPa)
#
#
# Indices 1 2 3 4 5 6 
#
# 1 0.014207 -0.002853 0.002076 -0.002578 0.017256 -0.001797
# 2 -0.002853 0.010993 -0.003166 0.006435 -0.001852 0.001737
# 3 0.002076 -0.003166 0.054440 0.005559 0.046958 -0.015175
# 4 -0.002578 0.006435 0.005559 0.049122 0.001338 0.016148
# 5 0.017256 -0.001852 0.046958 0.001338 0.086365 -0.012056
# 6 -0.001797 0.001737 -0.015175 0.016148 -0.012056 0.035519
#
#
# Mechanical properties :
#
#
# Convention : Reuss Voigt Hill
#
# Bulk Modulus (GPa) = 13.93687 54.23609 34.08648
# Shear Modulus (GPa) = 17.70215 34.49741 26.09978
#
# Velocity S-wave (km/s) = 2.69840 3.76692 3.27651
# Velocity P-wave (km/s) = 3.92951 6.42092 5.32303
#
# Compressibility (1/GPa) = 0.07175211
#
# Stress axis : x y z
#
# Youngs Moduli (GPa) = 70.38649 90.96845 18.36880
#
# Poissons Ratio (x) = 0.25957 -0.03813
# Poissons Ratio (y) = 0.20084 0.05816
# Poissons Ratio (z) = -0.14609 0.28803
#
# Static dielectric constant tensor:
#      x y z
#    x 2.023810 -0.037960 0.021320 
#    y -0.037960 1.955700 -0.019040 
#    z 0.021320 -0.019040 2.029060 
# 
# From -- ./inp_files/396935.got.cif
#   From: 2010.05.17/outbox.cif.g08.bks.cpg/sg2_199_cif.got.tgz:396935.got - 2010.06.03 11:33:40.
