data_PCOD9093138
_publ_section_title
;
Structure prediction by ZEFSAII (Michael W. Deem and Ramdas Pophale) SiO2 
 PCOD9093138
Probable space group: P -1
;
_chemical_formula_sum "Si O2"
_cell_formula_units_Z 16
_cell_length_a 14.473055
_cell_length_b 11.434985
_cell_length_c 5.514833
_cell_angle_alpha 68.827228
_cell_angle_beta 69.594358
_cell_angle_gamma 50.055378
_cell_volume 643.737947
_symmetry_space_group_name_H-M "P -1"
_symmetry_group_IT_number 2
_symmetry_cell_setting 'triclinic'
loop_
_space_group_symop_operation_xyz
x,y,z
-x,-y,-z
loop_
_atom_site_type_symbol
_atom_site_label
_atom_site_fract_x
_atom_site_fract_y
_atom_site_fract_z
Si Si1 0.243185 0.335277 0.259172
Si Si2 0.086607 0.239409 0.459970
Si Si3 0.377685 0.245420 0.697317
Si Si4 0.921549 0.188203 0.922383
Si Si5 0.346040 0.485228 0.227288
Si Si6 0.395624 0.739252 0.022763
Si Si7 0.346026 0.912440 0.438573
Si Si8 0.084359 0.812736 0.574150
O O1 0.314560 0.236786 0.515640
O O2 0.234833 0.490959 0.202353
O O3 0.112401 0.366290 0.348801
O O4 0.309969 0.262319 0.995308
O O5 0.222649 0.084110 0.415618
O O6 0.001439 0.245259 0.323368
O O7 0.022584 0.220022 0.762505
O O8 0.360209 0.407904 0.535380
O O9 0.523164 0.113867 0.668421
O O10 0.847758 0.240452 0.197815
O O11 0.846777 0.240048 0.702163
O O12 0.000000 0.000000 0.000000
O O13 0.379318 0.603771 0.118802
O O14 0.459923 0.341402 0.073748
O O15 0.347601 0.827185 0.256722
O O16 0.341265 0.843280 0.751710
O O17 0.000000 0.000000 0.500000
#
# Coordination Sequence:
#
# PCOD9093138 Si02
#       8
#     2   2   2   2   2   2   2   2
#     4  10  20  32  46  68  91 131 162 192 233 264
#     4  10  23  29  51  69 107 121 149 193 230 296
#     4   9  19  33  43  66  91 128 163 194 228 267
#     4   8  16  31  47  65  89 123 150 181 229 277
#     4   8  19  33  52  61  88 122 174 209 227 254
#     4  10  20  32  50  65  88 125 172 204 230 265
#     4  11  21  32  45  72  94 127 160 189 244 273
#     4   8  16  30  47  65  89 123 149 181 227 277
#
# _framework density 24.854835999999999
#
# number of rings (size 3 to 8) (size 9 to 14) (size 15 to 20)
#    1.500    1.250    1.250    0.000    5.250    2.500 
#    0.000    0.000    0.000    0.000    0.000    0.000 
#    0.000    6.000    0.000    0.000    0.000    0.000 
#
# Total GULP energy -89173.872749 kJ/mol
# GULP energy per Si atom -5573.367047 kJ/mol
# Density = 2.479827 g / cm^3
# Si number density = 24.854836 Si / 1000 Ang^3
#
#
#
# Elastic Constant Matrix: (Units=GPa)
#
#
# Indices 1 2 3 4 5 6 
#
# 1 92.7868 18.5240 36.0199 8.5214 -17.4646 11.2426
# 2 18.5240 44.3291 32.8688 9.6689 -7.1733 15.6135
# 3 36.0199 32.8688 184.0920 32.4376 20.8025 5.8633
# 4 8.5214 9.6689 32.4376 37.3457 15.7700 -3.7398
# 5 -17.4646 -7.1733 20.8025 15.7700 39.2131 7.1382
# 6 11.2426 15.6135 5.8633 -3.7398 7.1382 25.1089
#
#
#
# Elastic Compliance Matrix: (Units=1/GPa)
#
#
# Indices 1 2 3 4 5 6 
#
# 1 0.019084 0.010830 -0.004921 -0.015037 0.023326 -0.023002
# 2 0.010830 0.061719 -0.010330 -0.035033 0.046467 -0.059244
# 3 -0.004921 -0.010330 0.008868 0.001914 -0.011391 0.010079
# 4 -0.015037 -0.035033 0.001914 0.063464 -0.049011 0.051456
# 5 0.023326 0.046467 -0.011391 -0.049011 0.082415 -0.067409
# 6 -0.023002 -0.059244 0.010079 0.051456 -0.067409 0.111440
#
#
# Mechanical properties :
#
#
# Convention : Reuss Voigt Hill
#
# Bulk Modulus (GPa) = 12.37167 55.11482 33.74325
# Shear Modulus (GPa) = 13.06247 35.91987 24.49117
#
# Velocity S-wave (km/s) = 2.29498 3.80569 3.14246
# Velocity P-wave (km/s) = 3.46568 6.44467 5.17420
#
# Compressibility (1/GPa) = 0.08082983
#
# Stress axis : x y z
#
# Youngs Moduli (GPa) = 52.39908 16.20239 112.76195
#
# Poissons Ratio (x) = -0.17548 0.55495
# Poissons Ratio (y) = -0.56750 1.16481
# Poissons Ratio (z) = 0.25788 0.16737
#
# Static dielectric constant tensor:
#      x y z
#    x 2.039350 -0.108870 0.002440 
#    y -0.108870 2.223880 -0.003240 
#    z 0.002440 -0.003240 1.966820 
# 
# From -- ./inp_files/108460.got.cif
#   From: 2010.05.17/outbox.cif.g08.bks.cpg/sg2_55_cif.got.tgz:108460.got - 2010.06.03 11:33:40.
