data_PCOD9093889
_publ_section_title
;
Structure prediction by ZEFSAII (Michael W. Deem and Ramdas Pophale) SiO2 
 PCOD9093889
Probable space group: P -1
;
_chemical_formula_sum "Si O2"
_cell_formula_units_Z 12
_cell_length_a 17.658580
_cell_length_b 4.971329
_cell_length_c 16.640150
_cell_angle_alpha 109.765673
_cell_angle_beta 151.605291
_cell_angle_gamma 74.933077
_cell_volume 651.433290
_symmetry_space_group_name_H-M "P -1"
_symmetry_group_IT_number 2
_symmetry_cell_setting 'triclinic'
loop_
_space_group_symop_operation_xyz
x,y,z
-x,-y,-z
loop_
_atom_site_type_symbol
_atom_site_label
_atom_site_fract_x
_atom_site_fract_y
_atom_site_fract_z
Si Si1 0.668009 0.137243 0.497167
Si Si2 0.146866 0.833020 0.593353
Si Si3 0.267080 0.457020 0.549531
Si Si4 0.350906 0.403111 0.796978
Si Si5 0.375502 0.943281 0.304545
Si Si6 0.189502 0.492871 0.181128
O O1 0.664448 0.346240 0.438986
O O2 0.491892 0.996973 0.342791
O O3 0.743220 0.324302 0.660332
O O4 0.769833 0.866780 0.547294
O O5 0.124930 0.621053 0.474407
O O6 0.213664 0.625339 0.701833
O O7 0.283105 0.081492 0.721134
O O8 0.000000 0.000000 0.500000
O O9 0.380295 0.432067 0.731195
O O10 0.500000 0.500000 0.000000
O O11 0.247519 0.177853 0.211713
O O12 0.500000 0.000000 0.500000
O O13 0.280297 0.640344 0.203537
O O14 0.000000 0.500000 0.000000
#
# Coordination Sequence:
#
# PCOD9093889 Si02
#       6
#     2   2   2   2   2   2
#     4  11  19  36  59  81 114 146 192 235 264 335
#     4  10  20  36  60  83 110 148 194 223 271 352
#     4  10  20  33  60  85 109 147 192 227 285 315
#     4  10  20  36  60  83 110 141 192 227 281 328
#     4  10  20  36  59  86 103 153 195 219 269 346
#     4  11  22  37  60  84 114 149 186 231 283 328
#
# _framework density 18.420918
#
# number of rings (size 3 to 8) (size 9 to 14) (size 15 to 20)
#    1.000    0.667    1.667    6.500    0.000    0.000 
#    0.000    0.000   14.667    0.000    0.000    0.000 
#    0.000    0.000    0.000    0.000    0.000    0.000 
#
# Total GULP energy -66806.412491 kJ/mol
# GULP energy per Si atom -5567.201041 kJ/mol
# Density = 1.837899 g / cm^3
# Si number density = 18.420918 Si / 1000 Ang^3
#
#
#
# Elastic Constant Matrix: (Units=GPa)
#
#
# Indices 1 2 3 4 5 6 
#
# 1 55.4491 -7.5362 4.6337 8.2443 -10.4534 3.9534
# 2 -7.5362 79.7064 -13.3855 -9.7462 -9.2819 0.6118
# 3 4.6337 -13.3855 35.1293 -7.6951 5.4881 -1.4305
# 4 8.2443 -9.7462 -7.6951 23.9912 -2.5644 5.7082
# 5 -10.4534 -9.2819 5.4881 -2.5644 17.4732 -0.1784
# 6 3.9534 0.6118 -1.4305 5.7082 -0.1784 38.9494
#
#
#
# Elastic Compliance Matrix: (Units=1/GPa)
#
#
# Indices 1 2 3 4 5 6 
#
# 1 0.022974 0.002109 -0.006291 -0.007011 0.015797 -0.001496
# 2 0.002109 0.015999 0.006337 0.009144 0.009097 -0.001531
# 3 -0.006291 0.006337 0.036602 0.015553 -0.009615 -0.000440
# 4 -0.007011 0.009144 0.015553 0.054833 0.003755 -0.006879
# 5 0.015797 0.009097 -0.009615 0.003755 0.075061 -0.002306
# 6 -0.001496 -0.001531 -0.000440 -0.006879 -0.002306 0.026832
#
#
# Mechanical properties :
#
#
# Convention : Reuss Voigt Hill
#
# Bulk Modulus (GPa) = 12.51783 15.30099 13.90941
# Shear Modulus (GPa) = 19.63727 28.52094 24.07911
#
# Velocity S-wave (km/s) = 3.26856 3.93910 3.61939
# Velocity P-wave (km/s) = 4.58855 5.38638 5.00339
#
# Compressibility (1/GPa) = 0.07988608
#
# Stress axis : x y z
#
# Youngs Moduli (GPa) = 43.52728 62.50443 27.32086
#
# Poissons Ratio (x) = -0.13185 0.17188
# Poissons Ratio (y) = -0.09182 -0.17314
# Poissons Ratio (z) = 0.27384 -0.39611
#
# Static dielectric constant tensor:
#      x y z
#    x 1.704650 0.012510 0.018320 
#    y 0.012510 1.732840 0.004930 
#    z 0.018320 0.004930 1.605990 
# 
# From -- ./inp_files/105739.got.cif
#   From: 2010.05.17/outbox.cif.g08.bks.cpg/sg2_53_cif.got.tgz:105739.got - 2010.06.03 11:33:40.
