data_PCOD9093371
_publ_section_title
;
Structure prediction by ZEFSAII (Michael W. Deem and Ramdas Pophale) SiO2 
 PCOD9093371
Probable space group: P -1
;
_chemical_formula_sum "Si O2"
_cell_formula_units_Z 16
_cell_length_a 7.583062
_cell_length_b 9.115324
_cell_length_c 15.252066
_cell_angle_alpha 102.028301
_cell_angle_beta 137.574960
_cell_angle_gamma 69.674715
_cell_volume 665.019435
_symmetry_space_group_name_H-M "P -1"
_symmetry_group_IT_number 2
_symmetry_cell_setting 'triclinic'
loop_
_space_group_symop_operation_xyz
x,y,z
-x,-y,-z
loop_
_atom_site_type_symbol
_atom_site_label
_atom_site_fract_x
_atom_site_fract_y
_atom_site_fract_z
Si Si1 0.370737 0.261676 0.340711
Si Si2 0.427630 0.355708 0.913453
Si Si3 0.856230 0.876086 0.393504
Si Si4 0.022040 0.927598 0.903456
Si Si5 0.782190 0.772340 0.537102
Si Si6 0.360488 0.834160 0.749552
Si Si7 0.960222 0.454602 0.639096
Si Si8 0.261541 0.158739 0.955432
O O1 0.559881 0.256324 0.324667
O O2 0.183000 0.161231 0.218795
O O3 0.425596 0.185602 0.450699
O O4 0.210972 0.440974 0.331140
O O5 0.281883 0.411147 0.775012
O O6 0.500000 0.500000 0.000000
O O7 0.695744 0.211414 0.002133
O O8 0.214346 0.294602 0.884622
O O9 0.060741 0.716939 0.410622
O O10 0.706133 0.834666 0.418908
O O11 0.678380 0.981482 0.264726
O O12 0.000000 0.000000 0.500000
O O13 0.017787 0.081834 0.865284
O O14 0.000000 0.000000 0.000000
O O15 0.068193 0.814243 0.670325
O O16 0.869737 0.582828 0.545982
O O17 0.607113 0.783727 0.903125
O O18 0.500000 0.000000 0.000000
#
# Coordination Sequence:
#
# PCOD9093371 Si02
#       8
#     2   2   2   2   2   2   2   2
#     4  10  22  37  62  86 126 156 200 248 301 356
#     4  11  20  37  61  87 119 166 195 237 301 360
#     4  10  21  38  68  90 112 158 205 252 308 359
#     4  11  20  36  54  85 122 157 198 245 289 352
#     4   9  21  40  63  82 123 154 201 246 314 350
#     4  11  20  39  62  90 115 159 204 248 298 360
#     4  10  21  40  61  86 124 158 200 246 304 361
#     4  10  20  32  58  84 119 161 197 239 298 351
#
# _framework density 24.059446000000001
#
# number of rings (size 3 to 8) (size 9 to 14) (size 15 to 20)
#    0.750    1.000    2.500    4.125    0.000    1.500 
#    0.000    6.250    5.500    0.000    0.000    0.000 
#    0.000    0.000    0.000    0.000    0.000    0.000 
#
# Total GULP energy -89106.422502 kJ/mol
# GULP energy per Si atom -5569.151406 kJ/mol
# Density = 2.400469 g / cm^3
# Si number density = 24.059446 Si / 1000 Ang^3
#
#
#
# Elastic Constant Matrix: (Units=GPa)
#
#
# Indices 1 2 3 4 5 6 
#
# 1 68.5744 29.1920 -2.4622 9.4766 -21.9757 -0.7666
# 2 29.1920 154.1304 9.1520 14.6020 -16.8564 -7.8951
# 3 -2.4622 9.1520 54.5396 17.1199 -10.1966 -3.9857
# 4 9.4766 14.6020 17.1199 46.2734 0.5989 -6.9923
# 5 -21.9757 -16.8564 -10.1966 0.5989 30.1596 6.8161
# 6 -0.7666 -7.8951 -3.9857 -6.9923 6.8161 22.9135
#
#
#
# Elastic Compliance Matrix: (Units=1/GPa)
#
#
# Indices 1 2 3 4 5 6 
#
# 1 0.023162 -0.002251 0.007113 -0.007991 0.019783 -0.007087
# 2 -0.002251 0.007380 -0.000361 -0.001564 0.002099 0.001303
# 3 0.007113 -0.000361 0.024642 -0.011134 0.014265 -0.003241
# 4 -0.007991 -0.001564 -0.011134 0.029584 -0.013368 0.010261
# 5 0.019783 0.002099 0.014265 -0.013368 0.057765 -0.017396
# 6 -0.007087 0.001303 -0.003241 0.010261 -0.017396 0.051597
#
#
# Mechanical properties :
#
#
# Convention : Reuss Voigt Hill
#
# Bulk Modulus (GPa) = 15.58031 38.77869 27.17950
# Shear Modulus (GPa) = 24.21016 35.96013 30.08515
#
# Velocity S-wave (km/s) = 3.17561 3.87025 3.54001
# Velocity P-wave (km/s) = 4.46495 6.01037 5.29436
#
# Compressibility (1/GPa) = 0.06418357
#
# Stress axis : x y z
#
# Youngs Moduli (GPa) = 43.17501 135.49430 40.58091
#
# Poissons Ratio (x) = 0.30506 -0.28864
# Poissons Ratio (y) = 0.09721 0.01467
# Poissons Ratio (z) = -0.30709 0.04897
#
# Static dielectric constant tensor:
#      x y z
#    x 2.276260 0.113920 0.146030 
#    y 0.113920 1.952060 0.043000 
#    z 0.146030 0.043000 2.087330 
# 
# From -- ./inp_files/495296.got.cif
#   From: 2010.05.17/outbox.cif.g08.bks.cpg/sg2_248_cif.got.tgz:495296.got - 2010.06.03 11:33:40.
