data_PCOD9093652
_publ_section_title
;
Structure prediction by ZEFSAII (Michael W. Deem and Ramdas Pophale) SiO2 
 PCOD9093652
Probable space group: P -1
;
_chemical_formula_sum "Si O2"
_cell_formula_units_Z 16
_cell_length_a 12.912993
_cell_length_b 13.881265
_cell_length_c 8.612013
_cell_angle_alpha 74.428305
_cell_angle_beta 49.994029
_cell_angle_gamma 40.721355
_cell_volume 693.536380
_symmetry_space_group_name_H-M "P -1"
_symmetry_group_IT_number 2
_symmetry_cell_setting 'triclinic'
loop_
_space_group_symop_operation_xyz
x,y,z
-x,-y,-z
loop_
_atom_site_type_symbol
_atom_site_label
_atom_site_fract_x
_atom_site_fract_y
_atom_site_fract_z
Si Si1 0.016785 0.611697 0.420400
Si Si2 0.366578 0.753810 0.827099
Si Si3 0.014523 0.703908 0.714426
Si Si4 0.242102 0.306813 0.870845
Si Si5 0.543862 0.624965 0.382848
Si Si6 0.411125 0.179251 0.417670
Si Si7 0.705743 0.414706 0.050632
Si Si8 0.900502 0.910107 0.981919
O O1 0.767403 0.776814 0.525212
O O2 0.000000 0.500000 0.500000
O O3 0.047126 0.659801 0.524011
O O4 0.196475 0.549431 0.153151
O O5 0.371661 0.739066 0.639832
O O6 0.567047 0.713366 0.689503
O O7 0.380659 0.634178 0.930724
O O8 0.154246 0.940894 0.008001
O O9 0.232838 0.538468 0.668561
O O10 0.807716 0.755624 0.943506
O O11 0.961161 0.843195 0.777350
O O12 0.406735 0.296381 0.774009
O O13 0.332735 0.224621 0.650688
O O14 0.000000 0.500000 0.000000
O O15 0.474149 0.442843 0.710098
O O16 0.336109 0.999014 0.778345
O O17 0.917890 0.245336 0.013594
#
# Coordination Sequence:
#
# PCOD9093652 Si02
#       8
#     2   2   2   2   2   2   2   2
#     4  12  23  37  56  85 118 152 189 230 278 336
#     4   9  19  37  60  87 113 142 187 244 282 326
#     4  10  20  33  55  81 117 155 184 224 285 334
#     4   9  15  30  53  79 108 142 182 231 276 316
#     4   9  17  34  57  86 110 142 191 242 275 329
#     4   9  20  36  58  80 118 139 187 236 284 322
#     4  11  21  36  63  86 111 149 191 231 287 334
#     4   9  21  38  60  84 114 144 190 237 282 332
#
# _framework density 23.070166
#
# number of rings (size 3 to 8) (size 9 to 14) (size 15 to 20)
#    0.750    1.500    0.000    6.000    0.000    2.500 
#    0.000    3.125    0.000    3.000    0.000    0.000 
#    0.000    0.000    0.000    0.000    0.000    0.000 
#
# Total GULP energy -89207.268729 kJ/mol
# GULP energy per Si atom -5575.454296 kJ/mol
# Density = 2.301766 g / cm^3
# Si number density = 23.070166 Si / 1000 Ang^3
#
#
#
# Elastic Constant Matrix: (Units=GPa)
#
#
# Indices 1 2 3 4 5 6 
#
# 1 76.6240 33.1361 31.4222 0.6048 5.1741 27.5894
# 2 33.1361 74.0480 31.1216 5.7047 8.0105 39.2804
# 3 31.4222 31.1216 102.0760 4.9682 -3.3004 14.5872
# 4 0.6048 5.7047 4.9682 41.5867 14.2471 -3.3887
# 5 5.1741 8.0105 -3.3004 14.2471 37.4266 6.5867
# 6 27.5894 39.2804 14.5872 -3.3887 6.5867 36.4916
#
#
#
# Elastic Compliance Matrix: (Units=1/GPa)
#
#
# Indices 1 2 3 4 5 6 
#
# 1 0.019477 0.000120 -0.004130 -0.000712 -0.000492 -0.013182
# 2 0.000120 0.036309 -0.005227 -0.007973 0.001490 -0.038095
# 3 -0.004130 -0.005227 0.012363 -0.001381 0.002745 0.003183
# 4 -0.000712 -0.007973 -0.001381 0.030866 -0.012676 0.014827
# 5 -0.000492 0.001490 0.002745 -0.012676 0.033207 -0.009501
# 6 -0.013182 -0.038095 0.003183 0.014827 -0.009501 0.080195
#
#
# Mechanical properties :
#
#
# Convention : Reuss Voigt Hill
#
# Bulk Modulus (GPa) = 20.13041 49.34530 34.73786
# Shear Modulus (GPa) = 20.20614 33.57217 26.88916
#
# Velocity S-wave (km/s) = 2.96270 3.81887 3.41770
# Velocity P-wave (km/s) = 4.52196 6.39380 5.53755
#
# Compressibility (1/GPa) = 0.04967608
#
# Stress axis : x y z
#
# Youngs Moduli (GPa) = 51.34147 27.54140 80.88872
#
# Poissons Ratio (x) = -0.00332 0.33407
# Poissons Ratio (y) = -0.00618 0.42280
# Poissons Ratio (z) = 0.21204 0.14396
#
# Static dielectric constant tensor:
#      x y z
#    x 1.925890 0.024950 -0.033120 
#    y 0.024950 1.944250 -0.012260 
#    z -0.033120 -0.012260 1.855980 
# 
# From -- ./inp_files/311256.got.cif
#   From: 2010.05.17/outbox.cif.g08.bks.cpg/sg2_156_cif.got.tgz:311256.got - 2010.06.03 11:33:40.
