data_PCOD9093796
_publ_section_title
;
Structure prediction by ZEFSAII (Michael W. Deem and Ramdas Pophale) SiO2 
 PCOD9093796
Probable space group: P -1
;
_chemical_formula_sum "Si O2"
_cell_formula_units_Z 14
_cell_length_a 13.366042
_cell_length_b 9.564540
_cell_length_c 8.770848
_cell_angle_alpha 87.029300
_cell_angle_beta 98.284920
_cell_angle_gamma 149.339002
_cell_volume 560.021138
_symmetry_space_group_name_H-M "P -1"
_symmetry_group_IT_number 2
_symmetry_cell_setting 'triclinic'
loop_
_space_group_symop_operation_xyz
x,y,z
-x,-y,-z
loop_
_atom_site_type_symbol
_atom_site_label
_atom_site_fract_x
_atom_site_fract_y
_atom_site_fract_z
Si Si1 0.810008 0.748792 0.166910
Si Si2 0.886460 0.438792 0.616767
Si Si3 0.018880 0.862340 0.456889
Si Si4 0.594210 0.704254 0.317808
Si Si5 0.780989 0.616152 0.831531
Si Si6 0.739682 0.146965 0.139507
Si Si7 0.603684 0.094011 0.800171
O O1 0.641529 0.616688 0.244289
O O2 0.921309 0.753180 0.275491
O O3 0.738254 0.619681 0.993015
O O4 0.987103 0.074718 0.164439
O O5 0.895680 0.610489 0.553213
O O6 0.028617 0.573570 0.784602
O O7 0.000000 0.500000 0.500000
O O8 0.670003 0.128872 0.643534
O O9 0.251119 0.100214 0.518985
O O10 0.000000 0.000000 0.500000
O O11 0.363485 0.465460 0.305117
O O12 0.663629 0.912324 0.209562
O O13 0.719209 0.381220 0.826112
O O14 0.623318 0.133093 0.203296
O O15 0.676807 0.084010 0.954032
#
# Coordination Sequence:
#
# PCOD9093796 Si02
#       7
#     2   2   2   2   2   2   2
#     4  10  20  34  53  84 115 143 194 239 282 337
#     4  11  23  37  59  86 117 153 191 241 290 341
#     4   9  19  37  57  79 117 153 189 235 287 349
#     4   9  18  36  56  80 113 149 187 234 289 339
#     4  10  20  33  58  82 111 152 188 238 286 339
#     4   9  20  37  60  84 111 151 193 235 281 350
#     4  10  20  38  60  82 113 154 193 230 292 342
#
# _framework density 24.999058000000002
#
# number of rings (size 3 to 8) (size 9 to 14) (size 15 to 20)
#    0.000    2.286    0.000    3.429    2.000    1.143 
#    2.571    4.286    0.000    0.000    0.000    0.000 
#    0.000    0.000    0.000    0.000    0.000    0.000 
#
# Total GULP energy -78259.571363 kJ/mol
# GULP energy per Si atom -5589.969383 kJ/mol
# Density = 2.494216 g / cm^3
# Si number density = 24.999058 Si / 1000 Ang^3
#
#
#
# Elastic Constant Matrix: (Units=GPa)
#
#
# Indices 1 2 3 4 5 6 
#
# 1 89.0171 18.9842 35.5718 0.8962 9.7309 18.9694
# 2 18.9842 56.5227 10.1640 2.0419 9.5849 8.6570
# 3 35.5718 10.1640 89.8101 -11.8579 34.9442 7.2763
# 4 0.8962 2.0419 -11.8579 35.3684 8.5038 9.7010
# 5 9.7309 9.5849 34.9442 8.5038 46.8997 -3.3954
# 6 18.9694 8.6570 7.2763 9.7010 -3.3954 40.0451
#
#
#
# Elastic Compliance Matrix: (Units=1/GPa)
#
#
# Indices 1 2 3 4 5 6 
#
# 1 0.015324 -0.003596 -0.006336 -0.001527 0.002208 -0.004773
# 2 -0.003596 0.019996 0.001766 0.001847 -0.005269 -0.003835
# 3 -0.006336 0.001766 0.023652 0.014650 -0.019826 -0.006908
# 4 -0.001527 0.001847 0.014650 0.041685 -0.019555 -0.014094
# 5 0.002208 -0.005269 -0.019826 -0.019555 0.041121 0.011919
# 6 -0.004773 -0.003835 -0.006908 -0.014094 0.011919 0.033742
#
#
# Mechanical properties :
#
#
# Convention : Reuss Voigt Hill
#
# Bulk Modulus (GPa) = 23.45220 40.53219 31.99220
# Shear Modulus (GPa) = 24.26404 35.83799 30.05101
#
# Velocity S-wave (km/s) = 3.11882 3.79036 3.47087
# Velocity P-wave (km/s) = 4.72980 5.95017 5.37473
#
# Compressibility (1/GPa) = 0.04263992
#
# Stress axis : x y z
#
# Youngs Moduli (GPa) = 65.25772 50.00959 42.27912
#
# Poissons Ratio (x) = 0.17981 0.26790
# Poissons Ratio (y) = 0.23464 -0.07465
# Poissons Ratio (z) = 0.41350 -0.08830
#
# Static dielectric constant tensor:
#      x y z
#    x 2.043880 0.037550 -0.062120 
#    y 0.037550 2.000010 -0.010170 
#    z -0.062120 -0.010170 2.013620 
# 
# From -- ./inp_files/290545.got.cif
#   From: 2010.05.17/outbox.cif.g08.bks.cpg/sg2_146_cif.got.tgz:290545.got - 2010.06.03 11:33:40.
