data_PCOD9093945
_publ_section_title
;
Structure prediction by ZEFSAII (Michael W. Deem and Ramdas Pophale) SiO2 
 PCOD9093945
Probable space group: P -1
;
_chemical_formula_sum "Si O2"
_cell_formula_units_Z 14
_cell_length_a 7.986286
_cell_length_b 14.771201
_cell_length_c 8.700832
_cell_angle_alpha 116.615242
_cell_angle_beta 84.244563
_cell_angle_gamma 133.139688
_cell_volume 635.320609
_symmetry_space_group_name_H-M "P -1"
_symmetry_group_IT_number 2
_symmetry_cell_setting 'triclinic'
loop_
_space_group_symop_operation_xyz
x,y,z
-x,-y,-z
loop_
_atom_site_type_symbol
_atom_site_label
_atom_site_fract_x
_atom_site_fract_y
_atom_site_fract_z
Si Si1 0.077787 0.327856 0.331152
Si Si2 0.540003 0.098800 0.756357
Si Si3 0.814907 0.233297 0.559477
Si Si4 0.596652 0.344451 0.541516
Si Si5 0.000906 0.104101 0.979733
Si Si6 0.463858 0.840526 0.844291
Si Si7 0.230818 0.143729 0.672550
O O1 0.055455 0.307627 0.501884
O O2 0.804382 0.240797 0.240583
O O3 0.255896 0.492381 0.388296
O O4 0.119056 0.240689 0.177410
O O5 0.793861 0.205031 0.721941
O O6 0.388493 0.115146 0.685705
O O7 0.395812 0.931410 0.617228
O O8 0.539385 0.145210 0.961179
O O9 0.763204 0.328209 0.592960
O O10 0.510222 0.254457 0.321822
O O11 0.386918 0.271354 0.629723
O O12 0.141552 0.156262 0.846982
O O13 0.715836 0.004866 0.899737
O O14 0.000000 0.000000 0.000000
O O15 0.000000 0.000000 0.500000
#
# Coordination Sequence:
#
# PCOD9093945 Si02
#       7
#     2   2   2   2   2   2   2
#     4  11  23  40  61  90 127 159 199 248 312 357
#     4  10  20  33  62  94 116 150 211 257 282 348
#     4   9  18  35  58  86 122 146 196 250 304 333
#     4  10  23  39  61  87 126 161 193 250 312 361
#     4  12  23  39  67  89 121 158 209 251 291 359
#     4  11  20  38  65  94 114 158 207 249 297 353
#     4  11  22  39  62  88 121 163 205 244 300 365
#
# _framework density 22.036116
#
# number of rings (size 3 to 8) (size 9 to 14) (size 15 to 20)
#    0.000    1.429    4.286    2.143    2.000    1.714 
#    0.000    7.143    3.143    0.000    0.000    0.000 
#    0.000    0.000    0.000    0.000    0.000    0.000 
#
# Total GULP energy -78138.072566 kJ/mol
# GULP energy per Si atom -5581.290898 kJ/mol
# Density = 2.198596 g / cm^3
# Si number density = 22.036116 Si / 1000 Ang^3
#
#
#
# Elastic Constant Matrix: (Units=GPa)
#
#
# Indices 1 2 3 4 5 6 
#
# 1 43.1609 39.2332 29.5054 -6.5882 -6.6794 2.0055
# 2 39.2332 204.4972 95.9029 -16.0242 -53.0187 9.4586
# 3 29.5054 95.9029 114.5779 -22.9970 -48.6231 7.6735
# 4 -6.5882 -16.0242 -22.9970 47.9088 8.3451 -17.0149
# 5 -6.6794 -53.0187 -48.6231 8.3451 35.3188 -3.8494
# 6 2.0055 9.4586 7.6735 -17.0149 -3.8494 27.6675
#
#
#
# Elastic Compliance Matrix: (Units=1/GPa)
#
#
# Indices 1 2 3 4 5 6 
#
# 1 0.033432 -0.005727 -0.011395 0.000536 -0.018032 0.000516
# 2 -0.005727 0.009808 -0.002444 -0.000991 0.010354 -0.001429
# 3 -0.011395 -0.002444 0.028480 0.006483 0.032095 0.002215
# 4 0.000536 -0.000991 0.006483 0.029285 0.002456 0.016853
# 5 -0.018032 0.010354 0.032095 0.002456 0.084280 0.002102
# 6 0.000516 -0.001429 0.002215 0.016853 0.002102 0.046637
#
#
# Mechanical properties :
#
#
# Convention : Reuss Voigt Hill
#
# Bulk Modulus (GPa) = 30.68543 76.83544 53.76044
# Shear Modulus (GPa) = 17.73579 35.35197 26.54388
#
# Velocity S-wave (km/s) = 2.84007 4.00968 3.47445
# Velocity P-wave (km/s) = 4.97091 7.50869 6.36751
#
# Compressibility (1/GPa) = 0.03258876
#
# Stress axis : x y z
#
# Youngs Moduli (GPa) = 29.91144 101.96146 35.11214
#
# Poissons Ratio (x) = 0.58396 0.40009
# Poissons Ratio (y) = 0.17131 0.08580
# Poissons Ratio (z) = 0.34083 0.24916
#
# Static dielectric constant tensor:
#      x y z
#    x 1.932950 -0.020240 0.016190 
#    y -0.020240 1.861450 -0.105100 
#    z 0.016190 -0.105100 1.826820 
# 
# From -- ./inp_files/190119.got.cif
#   From: 2010.05.17/outbox.cif.g08.bks.cpg/sg2_96_cif.got.tgz:190119.got - 2010.06.03 11:33:40.
