data_PCOD9093053
_publ_section_title
;
Structure prediction by ZEFSAII (Michael W. Deem and Ramdas Pophale) SiO2 
 PCOD9093053
Probable space group: P -1
;
_chemical_formula_sum "Si O2"
_cell_formula_units_Z 16
_cell_length_a 5.258812
_cell_length_b 14.329967
_cell_length_c 14.979830
_cell_angle_alpha 70.565274
_cell_angle_beta 69.022335
_cell_angle_gamma 64.238104
_cell_volume 927.976626
_symmetry_space_group_name_H-M "P -1"
_symmetry_group_IT_number 2
_symmetry_cell_setting 'triclinic'
loop_
_space_group_symop_operation_xyz
x,y,z
-x,-y,-z
loop_
_atom_site_type_symbol
_atom_site_label
_atom_site_fract_x
_atom_site_fract_y
_atom_site_fract_z
Si Si1 0.653190 0.652658 0.803969
Si Si2 0.349114 0.412691 0.557759
Si Si3 0.132346 0.763080 0.122401
Si Si4 0.294633 0.429656 0.367861
Si Si5 0.917458 0.417783 0.917339
Si Si6 0.985855 0.718141 0.888998
Si Si7 0.499759 0.617477 0.259498
Si Si8 0.602669 0.874485 0.032521
O O1 0.734354 0.632334 0.696274
O O2 0.728692 0.536271 0.876310
O O3 0.829826 0.709773 0.819788
O O4 0.309667 0.714384 0.833710
O O5 0.500000 0.500000 0.500000
O O6 0.379617 0.364183 0.470229
O O7 0.475993 0.349966 0.651847
O O8 0.012934 0.478082 0.601314
O O9 0.233875 0.664369 0.071356
O O10 0.207073 0.698696 0.226083
O O11 0.331454 0.834386 0.075562
O O12 0.808233 0.831180 0.107751
O O13 0.498846 0.497588 0.298107
O O14 0.220516 0.387293 0.833030
O O15 0.986688 0.385517 0.021251
O O16 0.801928 0.817092 0.941489
O O17 0.500000 0.000000 0.000000
#
# Coordination Sequence:
#
# PCOD9093053 Si02
#       8
#     2   2   2   2   2   2   2   2
#     4  12  22  33  51  76 116 148 183 210 256 315
#     4   9  19  32  49  70 105 154 194 213 260 300
#     4  11  20  34  58  80 103 140 184 221 271 318
#     4  10  20  31  49  74 108 159 182 220 256 305
#     4  11  21  33  50  76 117 147 180 213 260 302
#     4  11  24  34  51  77 104 146 188 217 261 327
#     4  11  17  33  53  76 112 143 186 227 254 307
#     4  11  24  42  57  73 104 141 186 241 282 311
#
# _framework density 17.241813
#
# number of rings (size 3 to 8) (size 9 to 14) (size 15 to 20)
#    0.000    1.250    5.000    3.375    1.750    0.000 
#    0.000    0.000    0.000    0.000    0.000    0.000 
#    0.000    6.000    0.000    0.000    0.000    0.000 
#
# Total GULP energy -89247.066322 kJ/mol
# GULP energy per Si atom -5577.941645 kJ/mol
# Density = 1.720257 g / cm^3
# Si number density = 17.241813 Si / 1000 Ang^3
#
#
#
# Elastic Constant Matrix: (Units=GPa)
#
#
# Indices 1 2 3 4 5 6 
#
# 1 113.9609 15.6684 35.4912 3.5383 17.4773 4.6434
# 2 15.6684 44.7543 -1.2745 1.2044 7.4299 -1.1879
# 3 35.4912 -1.2745 77.4935 19.7278 28.1831 2.3250
# 4 3.5383 1.2044 19.7278 16.3472 7.0810 2.6583
# 5 17.4773 7.4299 28.1831 7.0810 45.4650 1.4791
# 6 4.6434 -1.1879 2.3250 2.6583 1.4791 17.0664
#
#
#
# Elastic Compliance Matrix: (Units=1/GPa)
#
#
# Indices 1 2 3 4 5 6 
#
# 1 0.011505 -0.004430 -0.006821 0.006824 -0.000418 -0.003536
# 2 -0.004430 0.025179 0.005799 -0.006246 -0.005150 0.003587
# 3 -0.006821 0.005799 0.026932 -0.027355 -0.010883 0.003794
# 4 0.006824 -0.006246 -0.027355 0.094915 0.001009 -0.013436
# 5 -0.000418 -0.005150 -0.010883 0.001009 0.029635 -0.001488
# 6 -0.003536 0.003587 0.003794 -0.013436 -0.001488 0.061511
#
#
# Mechanical properties :
#
#
# Convention : Reuss Voigt Hill
#
# Bulk Modulus (GPa) = 18.97173 37.33100 28.15136
# Shear Modulus (GPa) = 17.97585 28.19730 23.08658
#
# Velocity S-wave (km/s) = 3.23239 4.04840 3.66319
# Velocity P-wave (km/s) = 4.99583 6.59933 5.85276
#
# Compressibility (1/GPa) = 0.05271002
#
# Stress axis : x y z
#
# Youngs Moduli (GPa) = 86.92175 39.71627 37.13122
#
# Poissons Ratio (x) = 0.17594 0.25327
# Poissons Ratio (y) = 0.38507 -0.21531
# Poissons Ratio (z) = 0.59288 -0.23030
#
# Static dielectric constant tensor:
#      x y z
#    x 1.691460 0.004090 0.008100 
#    y 0.004090 1.557740 0.011210 
#    z 0.008100 0.011210 1.645680 
# 
# From -- ./inp_files/119159.got.cif
#   From: 2010.05.17/outbox.cif.g08.bks.cpg/sg2_60_cif.got.tgz:119159.got - 2010.06.03 11:33:40.
