data_PCOD9093735
_publ_section_title
;
Structure prediction by ZEFSAII (Michael W. Deem and Ramdas Pophale) SiO2 
 PCOD9093735
Probable space group: P -1
;
_chemical_formula_sum "Si O2"
_cell_formula_units_Z 14
_cell_length_a 14.801116
_cell_length_b 4.933356
_cell_length_c 23.344073
_cell_angle_alpha 113.206578
_cell_angle_beta 27.823645
_cell_angle_gamma 107.678858
_cell_volume 727.235820
_symmetry_space_group_name_H-M "P -1"
_symmetry_group_IT_number 2
_symmetry_cell_setting 'triclinic'
loop_
_space_group_symop_operation_xyz
x,y,z
-x,-y,-z
loop_
_atom_site_type_symbol
_atom_site_label
_atom_site_fract_x
_atom_site_fract_y
_atom_site_fract_z
Si Si1 0.242622 0.146282 0.988338
Si Si2 0.331958 0.912823 0.281970
Si Si3 0.261150 0.342238 0.174821
Si Si4 0.272346 0.699702 0.089170
Si Si5 0.385351 0.549361 0.332611
Si Si6 0.979538 0.742703 0.583683
Si Si7 0.815849 0.499551 0.062624
O O1 0.475361 0.094330 0.864960
O O2 0.181590 0.444206 0.083159
O O3 0.199624 0.244721 0.955101
O O4 0.176352 0.818033 0.001336
O O5 0.367445 0.639543 0.282521
O O6 0.341844 0.211874 0.338449
O O7 0.137481 0.977998 0.359507
O O8 0.493845 0.317215 0.053702
O O9 0.143119 0.341876 0.299943
O O10 0.230733 0.615842 0.171221
O O11 0.209075 0.046873 0.145852
O O12 0.613381 0.552643 0.216500
O O13 0.203808 0.757789 0.477705
O O14 0.000000 0.500000 0.500000
O O15 0.000000 0.500000 0.000000
#
# Coordination Sequence:
#
# PCOD9093735 Si02
#       7
#     2   2   2   2   2   2   2
#     4  10  20  33  57  75 107 143 177 221 273 322
#     4   9  19  29  48  73 106 138 179 199 253 326
#     4  10  23  34  51  76 110 149 190 220 242 314
#     4  10  22  37  51  75 108 151 189 219 253 301
#     4   9  19  33  46  75 106 142 167 211 266 328
#     4  10  21  33  52  77 111 148 180 212 271 317
#     4  10  20  35  56  84 107 132 176 233 284 326
#
# _framework density 19.250979000000001
#
# number of rings (size 3 to 8) (size 9 to 14) (size 15 to 20)
#    0.000    2.286    0.000    1.714   16.000    2.286 
#    0.000    0.000    0.000    0.000    0.000    6.000 
#    0.000    0.000    0.000    0.000    0.000    0.000 
#
# Total GULP energy -77952.327355 kJ/mol
# GULP energy per Si atom -5568.023383 kJ/mol
# Density = 1.920716 g / cm^3
# Si number density = 19.250979 Si / 1000 Ang^3
#
#
#
# Elastic Constant Matrix: (Units=GPa)
#
#
# Indices 1 2 3 4 5 6 
#
# 1 52.0653 16.7851 47.7466 0.2622 -12.9707 0.2834
# 2 16.7851 93.4815 13.3259 6.1465 -1.2372 -7.2499
# 3 47.7466 13.3259 85.9647 -15.4365 -11.2067 -0.6768
# 4 0.2622 6.1465 -15.4365 26.3742 -5.6926 5.3155
# 5 -12.9707 -1.2372 -11.2067 -5.6926 34.0112 -0.2703
# 6 0.2834 -7.2499 -0.6768 5.3155 -0.2703 27.6483
#
#
#
# Elastic Compliance Matrix: (Units=1/GPa)
#
#
# Indices 1 2 3 4 5 6 
#
# 1 0.047086 -0.003456 -0.027373 -0.014461 0.006398 0.000784
# 2 -0.003456 0.012048 -0.000993 -0.004587 -0.001943 0.004033
# 3 -0.027373 -0.000993 0.030926 0.019862 0.003015 -0.003012
# 4 -0.014461 -0.004587 0.019862 0.055145 0.010005 -0.011072
# 5 0.006398 -0.001943 0.003015 0.010005 0.034423 -0.002088
# 6 0.000784 0.004033 -0.003012 -0.011072 -0.002088 0.039253
#
#
# Mechanical properties :
#
#
# Convention : Reuss Voigt Hill
#
# Bulk Modulus (GPa) = 37.85715 43.02520 40.44117
# Shear Modulus (GPa) = 17.16265 27.85035 22.50650
#
# Velocity S-wave (km/s) = 2.98907 3.80767 3.42293
# Velocity P-wave (km/s) = 5.62321 6.45982 6.05598
#
# Compressibility (1/GPa) = 0.02641509
#
# Stress axis : x y z
#
# Youngs Moduli (GPa) = 21.23782 83.00043 32.33496
#
# Poissons Ratio (x) = 0.28686 0.88511
# Poissons Ratio (y) = 0.07340 0.03212
# Poissons Ratio (z) = 0.58135 0.08244
#
# Static dielectric constant tensor:
#      x y z
#    x 1.677140 0.032860 0.018870 
#    y 0.032860 1.746180 0.010240 
#    z 0.018870 0.010240 1.757950 
# 
# From -- ./inp_files/611074.got.cif
#   From: 2010.05.17/outbox.cif.g08.bks.cpg/sg2_306_cif.got.tgz:611074.got - 2010.06.03 11:33:40.
