data_PCOD9093036
_publ_section_title
;
Structure prediction by ZEFSAII (Michael W. Deem and Ramdas Pophale) SiO2 
 PCOD9093036
Probable space group: P -1
;
_chemical_formula_sum "Si O2"
_cell_formula_units_Z 16
_cell_length_a 16.385429
_cell_length_b 16.670399
_cell_length_c 9.483329
_cell_angle_alpha 71.393192
_cell_angle_beta 109.978759
_cell_angle_gamma 162.829976
_cell_volume 718.429372
_symmetry_space_group_name_H-M "P -1"
_symmetry_group_IT_number 2
_symmetry_cell_setting 'triclinic'
loop_
_space_group_symop_operation_xyz
x,y,z
-x,-y,-z
loop_
_atom_site_type_symbol
_atom_site_label
_atom_site_fract_x
_atom_site_fract_y
_atom_site_fract_z
Si Si1 0.693308 0.665885 0.160534
Si Si2 0.797085 0.234456 0.010696
Si Si3 0.430020 0.098302 0.465907
Si Si4 0.842551 0.567996 0.929261
Si Si5 0.598886 0.196890 0.197815
Si Si6 0.996712 0.562171 0.594460
Si Si7 0.315605 0.171100 0.242566
Si Si8 0.296368 0.131265 0.927675
O O1 0.498909 0.419645 0.266206
O O2 0.500000 0.500000 0.000000
O O3 0.757640 0.820228 0.163753
O O4 0.992606 0.898727 0.186692
O O5 0.964204 0.308496 0.131774
O O6 0.698276 0.102369 0.876603
O O7 0.000000 0.500000 0.000000
O O8 0.500000 0.000000 0.000000
O O9 0.533695 0.166259 0.333778
O O10 0.683312 0.297021 0.600074
O O11 0.368334 0.139960 0.391113
O O12 0.152247 0.790940 0.511558
O O13 0.743284 0.404588 0.076273
O O14 0.537245 0.322871 0.855808
O O15 0.032887 0.824339 0.940760
O O16 0.800476 0.301959 0.259970
O O17 0.000000 0.500000 0.500000
O O18 0.403864 0.229697 0.099775
#
# Coordination Sequence:
#
# PCOD9093036 Si02
#       8
#     2   2   2   2   2   2   2   2
#     4  10  20  31  44  69  99 136 173 220 250 294
#     4  12  24  38  53  76 100 136 178 219 271 319
#     4  11  22  34  52  76 103 143 185 216 246 296
#     4  12  21  33  54  71  98 136 178 210 254 301
#     4  11  23  35  55  72 105 140 183 216 259 295
#     4  10  23  33  50  74 104 134 183 225 249 286
#     4  11  19  31  48  67 104 136 178 214 254 291
#     4  11  20  31  48  71  96 135 182 210 246 302
#
# _framework density 22.270804999999999
#
# number of rings (size 3 to 8) (size 9 to 14) (size 15 to 20)
#    0.000    1.000    3.750    6.000    8.750    0.000 
#    0.000    0.000    0.000    0.000    0.000    0.000 
#    0.000    0.000    0.000   78.750    0.000    4.375 
#
# Total GULP energy -89184.759528 kJ/mol
# GULP energy per Si atom -5574.047471 kJ/mol
# Density = 2.222012 g / cm^3
# Si number density = 22.270805 Si / 1000 Ang^3
#
#
#
# Elastic Constant Matrix: (Units=GPa)
#
#
# Indices 1 2 3 4 5 6 
#
# 1 114.3564 57.4621 19.6773 -3.9686 42.4567 6.3892
# 2 57.4621 172.7727 16.4492 -1.4684 20.6800 -15.5296
# 3 19.6773 16.4492 30.9974 -1.1153 18.7872 -10.9442
# 4 -3.9686 -1.4684 -1.1153 29.1698 -3.2371 17.2196
# 5 42.4567 20.6800 18.7872 -3.2371 32.6393 -7.5592
# 6 6.3892 -15.5296 -10.9442 17.2196 -7.5592 56.7852
#
#
#
# Elastic Compliance Matrix: (Units=1/GPa)
#
#
# Indices 1 2 3 4 5 6 
#
# 1 0.022004 -0.004891 0.003368 0.004636 -0.028953 -0.008424
# 2 -0.004891 0.007475 -0.001695 -0.001937 0.003169 0.003277
# 3 0.003368 -0.001695 0.053056 -0.005117 -0.032834 0.006564
# 4 0.004636 -0.001937 -0.005117 0.043590 -0.001102 -0.015402
# 5 -0.028953 0.003169 -0.032834 -0.001102 0.087341 0.009757
# 6 -0.008424 0.003277 0.006564 -0.015402 0.009757 0.026689
#
#
# Mechanical properties :
#
#
# Convention : Reuss Voigt Hill
#
# Bulk Modulus (GPa) = 13.14091 56.14486 34.64288
# Shear Modulus (GPa) = 18.38535 38.68806 28.53671
#
# Velocity S-wave (km/s) = 2.87633 4.17245 3.58348
# Velocity P-wave (km/s) = 4.11635 6.96256 5.71934
#
# Compressibility (1/GPa) = 0.07609826
#
# Stress axis : x y z
#
# Youngs Moduli (GPa) = 45.44729 133.78200 18.84813
#
# Poissons Ratio (x) = 0.65434 -0.06348
# Poissons Ratio (y) = 0.22229 0.03195
# Poissons Ratio (z) = -0.15307 0.22676
#
# Static dielectric constant tensor:
#      x y z
#    x 1.949270 0.075390 -0.027680 
#    y 0.075390 1.934360 0.022060 
#    z -0.027680 0.022060 1.887810 
# 
# From -- ./inp_files/454766.got.cif
#   From: 2010.05.17/outbox.cif.g08.bks.cpg/sg2_228_cif.got.tgz:454766.got - 2010.06.03 11:33:40.
