data_PCOD9093459
_publ_section_title
;
Structure prediction by ZEFSAII (Michael W. Deem and Ramdas Pophale) SiO2 
 PCOD9093459
Probable space group: P -1
;
_chemical_formula_sum "Si O2"
_cell_formula_units_Z 14
_cell_length_a 12.777631
_cell_length_b 8.956641
_cell_length_c 15.321162
_cell_angle_alpha 111.844941
_cell_angle_beta 131.971620
_cell_angle_gamma 105.409158
_cell_volume 806.306341
_symmetry_space_group_name_H-M "P -1"
_symmetry_group_IT_number 2
_symmetry_cell_setting 'triclinic'
loop_
_space_group_symop_operation_xyz
x,y,z
-x,-y,-z
loop_
_atom_site_type_symbol
_atom_site_label
_atom_site_fract_x
_atom_site_fract_y
_atom_site_fract_z
Si Si1 0.160366 0.185964 0.773357
Si Si2 0.422062 0.424090 0.802410
Si Si3 0.584770 0.810812 0.514355
Si Si4 0.020629 0.653401 0.199314
Si Si5 0.233601 0.352218 0.507522
Si Si6 0.306850 0.684328 0.485480
Si Si7 0.585105 0.230178 0.772220
O O1 0.231092 0.256674 0.728063
O O2 0.063463 0.272951 0.770226
O O3 0.372728 0.338863 0.980720
O O4 0.990554 0.905865 0.640450
O O5 0.372030 0.482042 0.700704
O O6 0.473886 0.287158 0.769811
O O7 0.666342 0.705426 0.508340
O O8 0.453005 0.705692 0.506010
O O9 0.442241 0.756634 0.343115
O O10 0.787802 0.102084 0.694798
O O11 0.120441 0.602365 0.305357
O O12 0.825540 0.430194 0.982821
O O13 0.227151 0.506687 0.480860
O O14 0.453187 0.957122 0.657743
#
# Coordination Sequence:
#
# PCOD9093459 Si02
#       7
#     2   2   2   2   2   2   2
#     4   9  18  35  56  72  91 126 167 200 233 283
#     4   9  18  35  56  72  91 126 167 200 233 283
#     4   9  19  34  50  69  95 133 170 193 227 283
#     4   9  18  33  52  73  96 126 165 200 233 281
#     4  10  20  33  50  73 100 127 158 198 242 288
#     4  11  21  31  47  74 105 128 153 199 248 283
#     4   9  18  33  52  73  96 126 165 200 233 281
#
# _framework density 17.363126999999999
#
# number of rings (size 3 to 8) (size 9 to 14) (size 15 to 20)
#    0.000    2.571    0.000    3.429    0.000    3.429 
#    0.000    2.857    0.000   13.714    0.000    0.000 
#    0.000    0.000    0.000    0.000    0.000    0.000 
#
# Total GULP energy -78097.649573 kJ/mol
# GULP energy per Si atom -5578.403541 kJ/mol
# Density = 1.732361 g / cm^3
# Si number density = 17.363127 Si / 1000 Ang^3
#
#
#
# Elastic Constant Matrix: (Units=GPa)
#
#
# Indices 1 2 3 4 5 6 
#
# 1 35.8489 1.4985 7.3667 1.7361 9.7462 17.2060
# 2 1.4985 84.4321 17.4418 -2.5227 11.6633 0.7627
# 3 7.3667 17.4418 87.7123 -2.3523 9.7212 -4.5694
# 4 1.7361 -2.5227 -2.3523 4.8899 -3.6417 1.1151
# 5 9.7462 11.6633 9.7212 -3.6417 18.9354 7.3426
# 6 17.2060 0.7627 -4.5694 1.1151 7.3426 15.1328
#
#
#
# Elastic Compliance Matrix: (Units=1/GPa)
#
#
# Indices 1 2 3 4 5 6 
#
# 1 0.069999 0.001665 -0.010411 -0.012914 -0.003017 -0.080401
# 2 0.001665 0.013367 -0.001767 -0.001590 -0.009032 0.001399
# 3 -0.010411 -0.001767 0.014768 -0.002315 -0.009854 0.021337
# 4 -0.012914 -0.001590 -0.002315 0.276478 0.079366 -0.044817
# 5 -0.003017 -0.009032 -0.009854 0.079366 0.101207 -0.054044
# 6 -0.080401 0.001399 0.021337 -0.044817 -0.054044 0.193394
#
#
# Mechanical properties :
#
#
# Convention : Reuss Voigt Hill
#
# Bulk Modulus (GPa) = 12.96843 28.95638 20.96240
# Shear Modulus (GPa) = 6.98383 19.90405 13.44394
#
# Velocity S-wave (km/s) = 2.00772 3.38944 2.78561
# Velocity P-wave (km/s) = 3.58605 5.65958 4.73765
#
# Compressibility (1/GPa) = 0.07711036
#
# Stress axis : x y z
#
# Youngs Moduli (GPa) = 14.28589 74.81277 67.71304
#
# Poissons Ratio (x) = -0.12460 0.70493
# Poissons Ratio (y) = -0.02379 0.11963
# Poissons Ratio (z) = 0.14872 0.13217
#
# Static dielectric constant tensor:
#      x y z
#    x 1.606070 -0.008750 0.003600 
#    y -0.008750 1.543700 -0.005310 
#    z 0.003600 -0.005310 1.599490 
# 
# From -- ./inp_files/212089.got.cif
#   From: 2010.05.17/outbox.cif.g08.bks.cpg/sg2_107_cif.got.tgz:212089.got - 2010.06.03 11:33:40.
