data_PCOD9093307
_publ_section_title
;
Structure prediction by ZEFSAII (Michael W. Deem and Ramdas Pophale) SiO2 
 PCOD9093307
Probable space group: P -1
;
_chemical_formula_sum "Si O2"
_cell_formula_units_Z 16
_cell_length_a 9.270504
_cell_length_b 26.136153
_cell_length_c 18.786221
_cell_angle_alpha 154.380854
_cell_angle_beta 151.740162
_cell_angle_gamma 35.070006
_cell_volume 925.306955
_symmetry_space_group_name_H-M "P -1"
_symmetry_group_IT_number 2
_symmetry_cell_setting 'triclinic'
loop_
_space_group_symop_operation_xyz
x,y,z
-x,-y,-z
loop_
_atom_site_type_symbol
_atom_site_label
_atom_site_fract_x
_atom_site_fract_y
_atom_site_fract_z
Si Si1 0.831046 0.641930 0.023293
Si Si2 0.135831 0.818239 0.281760
Si Si3 0.498141 0.197429 0.723402
Si Si4 0.539342 0.002933 0.276038
Si Si5 0.145955 0.873265 0.665175
Si Si6 0.721743 0.169539 0.943828
Si Si7 0.326575 0.031020 0.066211
Si Si8 0.047455 0.634782 0.268177
O O1 0.490865 0.713356 0.973459
O O2 0.007790 0.703288 0.115000
O O3 0.008847 0.658139 0.195831
O O4 0.831492 0.501434 0.837184
O O5 0.283645 0.805935 0.253192
O O6 0.380607 0.868244 0.503797
O O7 0.850677 0.921588 0.287085
O O8 0.666787 0.167497 0.833193
O O9 0.221213 0.114740 0.490594
O O10 0.299857 0.328048 0.807772
O O11 0.329060 0.007677 0.121416
O O12 0.409989 0.938055 0.206026
O O13 0.336369 0.943918 0.781379
O O14 0.230456 0.732623 0.508606
O O15 0.229908 0.922745 0.840415
O O16 0.082552 0.145540 0.085788
#
# Coordination Sequence:
#
# PCOD9093307 Si02
#       8
#     2   2   2   2   2   2   2   2
#     4   9  17  35  57  81 106 136 180 226 261 306
#     4  10  20  32  55  83 108 137 178 223 262 316
#     4   9  20  35  54  81 105 140 180 216 264 313
#     4  10  22  33  50  81 114 140 171 221 269 315
#     4   9  21  34  52  81 108 144 169 223 262 317
#     4  10  21  35  55  81 108 142 178 218 263 320
#     4  11  21  34  53  79 112 144 174 212 271 324
#     4   8  17  36  57  76 109 138 178 222 265 304
#
# _framework density 17.291558999999999
#
# number of rings (size 3 to 8) (size 9 to 14) (size 15 to 20)
#    0.750    1.750    0.000    1.875    7.000    1.500 
#    0.000    0.625    0.000    3.000    0.000    0.000 
#    0.000    0.000    0.000    0.000    0.000    0.000 
#
# Total GULP energy -89088.959930 kJ/mol
# GULP energy per Si atom -5568.059996 kJ/mol
# Density = 1.725220 g / cm^3
# Si number density = 17.291559 Si / 1000 Ang^3
#
#
#
# Elastic Constant Matrix: (Units=GPa)
#
#
# Indices 1 2 3 4 5 6 
#
# 1 134.3341 36.3005 35.6457 -3.9584 1.0292 4.9753
# 2 36.3005 75.9386 36.2671 7.8278 -9.4145 5.2333
# 3 35.6457 36.2671 44.4582 6.0729 -11.0147 8.6024
# 4 -3.9584 7.8278 6.0729 21.8261 -4.8133 -5.8171
# 5 1.0292 -9.4145 -11.0147 -4.8133 23.6879 -5.1104
# 6 4.9753 5.2333 8.6024 -5.8171 -5.1104 17.9003
#
#
#
# Elastic Compliance Matrix: (Units=1/GPa)
#
#
# Indices 1 2 3 4 5 6 
#
# 1 0.010385 -0.001860 -0.008878 0.004817 -0.003823 0.002398
# 2 -0.001860 0.022116 -0.016043 -0.003349 0.000933 0.000939
# 3 -0.008878 -0.016043 0.050619 -0.012262 0.011181 -0.017961
# 4 0.004817 -0.003349 -0.012262 0.061507 0.011468 0.028795
# 5 -0.003823 0.000933 0.011181 0.011468 0.053385 0.014384
# 6 0.002398 0.000939 -0.017961 0.028795 0.014384 0.077019
#
#
# Mechanical properties :
#
#
# Convention : Reuss Voigt Hill
#
# Bulk Modulus (GPa) = 33.83250 52.35084 43.09167
# Shear Modulus (GPa) = 14.77346 22.45071 18.61208
#
# Velocity S-wave (km/s) = 2.92614 3.60719 3.28436
# Velocity P-wave (km/s) = 5.56999 6.90581 6.27355
#
# Compressibility (1/GPa) = 0.02955738
#
# Stress axis : x y z
#
# Youngs Moduli (GPa) = 96.29290 45.21706 19.75550
#
# Poissons Ratio (x) = 0.08410 0.17540
# Poissons Ratio (y) = 0.17909 0.31693
# Poissons Ratio (z) = 0.85492 0.72541
#
# Static dielectric constant tensor:
#      x y z
#    x 1.601970 -0.030550 -0.002620 
#    y -0.030550 1.588910 -0.011870 
#    z -0.002620 -0.011870 1.593210 
# 
# From -- ./inp_files/177706.got.cif
#   From: 2010.05.17/outbox.cif.g08.bks.cpg/sg2_89_cif.got.tgz:177706.got - 2010.06.03 11:33:40.
