data_PCOD9093405
_publ_section_title
;
Structure prediction by ZEFSAII (Michael W. Deem and Ramdas Pophale) SiO2 
 PCOD9093405
Probable space group: P -1
;
_chemical_formula_sum "Si O2"
_cell_formula_units_Z 12
_cell_length_a 15.107767
_cell_length_b 10.517478
_cell_length_c 9.014958
_cell_angle_alpha 52.460141
_cell_angle_beta 143.052363
_cell_angle_gamma 145.112010
_cell_volume 488.005217
_symmetry_space_group_name_H-M "P -1"
_symmetry_group_IT_number 2
_symmetry_cell_setting 'triclinic'
loop_
_space_group_symop_operation_xyz
x,y,z
-x,-y,-z
loop_
_atom_site_type_symbol
_atom_site_label
_atom_site_fract_x
_atom_site_fract_y
_atom_site_fract_z
Si Si1 0.996999 0.294793 0.321638
Si Si2 0.704638 0.632198 0.778134
Si Si3 0.727757 0.233916 0.783140
Si Si4 0.692391 0.260137 0.119318
Si Si5 0.272613 0.884672 0.462127
Si Si6 0.040676 0.117068 0.782787
O O1 0.902736 0.348036 0.275109
O O2 0.065012 0.200550 0.586574
O O3 0.151231 0.507328 0.268773
O O4 0.799848 0.146536 0.053097
O O5 0.500000 0.500000 0.500000
O O6 0.898408 0.849704 0.788936
O O7 0.689177 0.433425 0.930738
O O8 0.759334 0.743925 0.939934
O O9 0.747629 0.164975 0.700749
O O10 0.505267 0.126003 0.611973
O O11 0.710718 0.267531 0.315151
O O12 0.500000 0.000000 0.000000
O O13 0.107965 0.869924 0.335161
#
# Coordination Sequence:
#
# PCOD9093405 Si02
#       6
#     2   2   2   2   2   2
#     4  10  20  37  60  92 116 155 202 252 303 354
#     4  11  23  37  63  93 124 159 203 257 303 348
#     4  10  20  32  60  92 124 150 194 258 306 354
#     4  11  20  37  65  93 116 157 209 255 295 356
#     4  10  20  37  60  92 116 155 202 252 303 354
#     4  10  23  42  63  91 124 160 208 249 297 371
#
# _framework density 24.589901000000001
#
# number of rings (size 3 to 8) (size 9 to 14) (size 15 to 20)
#    0.000    1.667    1.667    4.000    0.000    2.667 
#    0.000    0.000    0.000   36.000    0.000    0.000 
#    0.000    0.000    0.000    0.000    0.000    0.000 
#
# Total GULP energy -66838.981037 kJ/mol
# GULP energy per Si atom -5569.915086 kJ/mol
# Density = 2.453393 g / cm^3
# Si number density = 24.589901 Si / 1000 Ang^3
#
#
#
# Elastic Constant Matrix: (Units=GPa)
#
#
# Indices 1 2 3 4 5 6 
#
# 1 46.3103 0.2881 26.9428 2.8994 -17.1578 9.6922
# 2 0.2881 138.3159 71.5070 -5.3034 -3.0295 -3.0813
# 3 26.9428 71.5070 211.7728 -19.0325 -38.2895 7.3797
# 4 2.8994 -5.3034 -19.0325 59.5021 8.1210 -0.3459
# 5 -17.1578 -3.0295 -38.2895 8.1210 44.0781 -0.7863
# 6 9.6922 -3.0813 7.3797 -0.3459 -0.7863 29.1839
#
#
#
# Elastic Compliance Matrix: (Units=1/GPa)
#
#
# Indices 1 2 3 4 5 6 
#
# 1 0.028470 0.000970 -0.002199 -0.003379 0.009708 -0.008575
# 2 0.000970 0.009091 -0.003636 -0.000103 -0.002111 0.001499
# 3 -0.002199 -0.003636 0.007300 0.001435 0.004947 -0.001349
# 4 -0.003379 -0.000103 0.001435 0.017884 -0.003355 0.000870
# 5 0.009708 -0.002111 0.004947 -0.003355 0.031167 -0.003898
# 6 -0.008575 0.001499 -0.001349 0.000870 -0.003898 0.037518
#
#
# Mechanical properties :
#
#
# Convention : Reuss Voigt Hill
#
# Bulk Modulus (GPa) = 28.46597 65.98606 47.22601
# Shear Modulus (GPa) = 32.70750 46.39690 39.55220
#
# Velocity S-wave (km/s) = 3.65104 4.34848 4.01493
# Velocity P-wave (km/s) = 5.41986 7.21839 6.38279
#
# Compressibility (1/GPa) = 0.03512966
#
# Stress axis : x y z
#
# Youngs Moduli (GPa) = 35.12481 110.00124 136.98662
#
# Poissons Ratio (x) = -0.10666 0.30125
# Poissons Ratio (y) = -0.03406 0.49809
# Poissons Ratio (z) = 0.07724 0.39997
#
# Static dielectric constant tensor:
#      x y z
#    x 1.987210 -0.041020 0.000730 
#    y -0.041020 2.107310 0.081580 
#    z 0.000730 0.081580 2.101840 
# 
# From -- ./inp_files/332973.got.cif
#   From: 2010.05.17/outbox.cif.g08.bks.cpg/sg2_167_cif.got.tgz:332973.got - 2010.06.03 11:33:40.
