data_PCOD9093151
_publ_section_title
;
Structure prediction by ZEFSAII (Michael W. Deem and Ramdas Pophale) SiO2 
 PCOD9093151
Probable space group: P -1
;
_chemical_formula_sum "Si O2"
_cell_formula_units_Z 16
_cell_length_a 28.992455
_cell_length_b 16.387653
_cell_length_c 28.803757
_cell_angle_alpha 22.584389
_cell_angle_beta 10.029111
_cell_angle_gamma 22.105591
_cell_volume 884.175855
_symmetry_space_group_name_H-M "P -1"
_symmetry_group_IT_number 2
_symmetry_cell_setting 'triclinic'
loop_
_space_group_symop_operation_xyz
x,y,z
-x,-y,-z
loop_
_atom_site_type_symbol
_atom_site_label
_atom_site_fract_x
_atom_site_fract_y
_atom_site_fract_z
Si Si1 0.317531 0.249553 0.557207
Si Si2 0.785741 0.897686 0.166234
Si Si3 0.118449 0.900905 0.233943
Si Si4 0.739725 0.090401 0.374494
Si Si5 0.739877 0.357145 0.020784
Si Si6 0.679290 0.670234 0.831395
Si Si7 0.797704 0.345312 0.276874
Si Si8 0.117907 0.669197 0.264238
O O1 0.245730 0.259568 0.677482
O O2 0.036642 0.290099 0.785793
O O3 0.500000 0.000000 0.500000
O O4 0.505135 0.394267 0.273253
O O5 0.570977 0.884944 0.345546
O O6 0.088414 0.853224 0.868675
O O7 0.713775 0.146168 0.127240
O O8 0.210161 0.816047 0.135004
O O9 0.939037 0.754972 0.513158
O O10 0.402359 0.862908 0.999720
O O11 0.918481 0.141521 0.298879
O O12 0.778639 0.236961 0.302492
O O13 0.884202 0.838156 0.377898
O O14 0.713424 0.559169 0.906069
O O15 0.668382 0.475470 0.907586
O O16 0.500000 0.500000 0.500000
O O17 0.000000 0.500000 0.000000
O O18 0.000000 0.500000 0.500000
#
# Coordination Sequence:
#
# PCOD9093151 Si02
#       8
#     2   2   2   2   2   2   2   2
#     4  10  20  32  47  71 107 153 187 213 253 298
#     4  11  20  33  51  74 112 140 190 221 247 309
#     4  10  22  35  51  77 102 140 179 220 261 310
#     4  11  22  34  54  81 101 143 186 218 265 314
#     4  11  20  31  50  74 111 155 180 207 259 303
#     4  11  20  32  51  76 112 140 181 210 244 320
#     4  11  23  42  60  76 107 138 177 233 286 318
#     4   9  20  31  48  70 109 141 174 208 250 297
#
# _framework density 18.095948
#
# number of rings (size 3 to 8) (size 9 to 14) (size 15 to 20)
#    0.000    1.500    1.250    6.375    3.500    5.000 
#    0.000    0.000    0.000    0.000    0.000    0.000 
#    0.000   70.000    0.000    0.000    0.000    0.000 
#
# Total GULP energy -89296.326492 kJ/mol
# GULP energy per Si atom -5581.020406 kJ/mol
# Density = 1.805476 g / cm^3
# Si number density = 18.095948 Si / 1000 Ang^3
#
#
#
# Elastic Constant Matrix: (Units=GPa)
#
#
# Indices 1 2 3 4 5 6 
#
# 1 62.5541 33.1884 21.9907 -2.0269 4.9095 -26.3778
# 2 33.1884 69.8555 16.1512 2.1890 3.9723 -9.4026
# 3 21.9907 16.1512 81.7891 4.7159 0.3141 -10.5110
# 4 -2.0269 2.1890 4.7159 22.0214 -8.0138 2.0458
# 5 4.9095 3.9723 0.3141 -8.0138 39.5147 0.1411
# 6 -26.3778 -9.4026 -10.5110 2.0458 0.1411 27.6597
#
#
#
# Elastic Compliance Matrix: (Units=1/GPa)
#
#
# Indices 1 2 3 4 5 6 
#
# 1 0.036362 -0.012403 -0.003685 0.001578 -0.003025 0.028959
# 2 -0.012403 0.019897 -0.001110 -0.002752 -0.000989 -0.005278
# 3 -0.003685 -0.001110 0.013844 -0.003433 -0.000243 0.001624
# 4 0.001578 -0.002752 -0.003433 0.050779 0.010422 -0.004544
# 5 -0.003025 -0.000989 -0.000243 0.010422 0.027913 -0.004227
# 6 0.028959 -0.005278 0.001624 -0.004544 -0.004227 0.062951
#
#
# Mechanical properties :
#
#
# Convention : Reuss Voigt Hill
#
# Bulk Modulus (GPa) = 28.00626 39.65103 33.82865
# Shear Modulus (GPa) = 19.37645 27.36374 23.37009
#
# Velocity S-wave (km/s) = 3.27580 3.89285 3.59758
# Velocity P-wave (km/s) = 5.46058 6.49345 5.99928
#
# Compressibility (1/GPa) = 0.03570631
#
# Stress axis : x y z
#
# Youngs Moduli (GPa) = 27.50114 50.25953 72.23224
#
# Poissons Ratio (x) = 0.62338 0.26619
# Poissons Ratio (y) = 0.34110 0.08018
# Poissons Ratio (z) = 0.10135 0.05579
#
# Static dielectric constant tensor:
#      x y z
#    x 1.640720 -0.006120 0.017550 
#    y -0.006120 1.624650 -0.006540 
#    z 0.017550 -0.006540 1.634400 
# 
# From -- ./inp_files/96891.got.cif
#   From: 2010.05.17/outbox.cif.g08.bks.cpg/sg2_49_cif.got.tgz:96891.got - 2010.06.03 11:33:40.
