data_PCOD9093043
_publ_section_title
;
Structure prediction by ZEFSAII (Michael W. Deem and Ramdas Pophale) SiO2 
 PCOD9093043
Probable space group: P -1
;
_chemical_formula_sum "Si O2"
_cell_formula_units_Z 14
_cell_length_a 13.537048
_cell_length_b 16.206681
_cell_length_c 16.616320
_cell_angle_alpha 141.921278
_cell_angle_beta 156.543875
_cell_angle_gamma 53.098989
_cell_volume 777.262636
_symmetry_space_group_name_H-M "P -1"
_symmetry_group_IT_number 2
_symmetry_cell_setting 'triclinic'
loop_
_space_group_symop_operation_xyz
x,y,z
-x,-y,-z
loop_
_atom_site_type_symbol
_atom_site_label
_atom_site_fract_x
_atom_site_fract_y
_atom_site_fract_z
Si Si1 0.331679 0.941385 0.746355
Si Si2 0.614400 0.750743 0.754694
Si Si3 0.870257 0.685323 0.035880
Si Si4 0.303196 0.108878 0.354999
Si Si5 0.791219 0.944344 0.399698
Si Si6 0.267246 0.027903 0.446311
Si Si7 0.646719 0.387923 0.716317
O O1 0.407222 0.818202 0.672195
O O2 0.008897 0.890496 0.490990
O O3 0.418106 0.072948 0.843095
O O4 0.500000 0.000000 0.000000
O O5 0.522597 0.668632 0.537915
O O6 0.623595 0.657242 0.766772
O O7 0.939804 0.889482 0.096386
O O8 0.088068 0.643566 0.120637
O O9 0.758278 0.569476 0.938616
O O10 0.028764 0.866773 0.313586
O O11 0.287779 0.113795 0.444074
O O12 0.449892 0.277680 0.554594
O O13 0.512718 0.037808 0.441647
O O14 0.000000 0.000000 0.000000
O O15 0.682165 0.888688 0.365311
#
# Coordination Sequence:
#
# PCOD9093043 Si02
#       7
#     2   2   2   2   2   2   2
#     4  11  19  30  56  75 104 131 167 219 267 298
#     4  11  18  33  50  79 105 132 170 209 261 301
#     4  10  20  32  50  72 112 136 165 204 257 318
#     4  11  20  32  50  71 103 145 175 203 245 300
#     4  10  20  34  49  81 104 130 172 213 260 307
#     4  10  20  31  48  72 106 132 171 216 240 302
#     4  11  20  33  49  75 108 144 162 203 257 307
#
# _framework density 18.01193
#
# number of rings (size 3 to 8) (size 9 to 14) (size 15 to 20)
#    0.000    1.429    8.571    0.429    0.000    0.000 
#    0.000    0.000    0.000    0.000    0.000    8.000 
#    0.000    0.143    0.000    0.000    0.000    0.000 
#
# Total GULP energy -77987.519801 kJ/mol
# GULP energy per Si atom -5570.537129 kJ/mol
# Density = 1.797093 g / cm^3
# Si number density = 18.011930 Si / 1000 Ang^3
#
#
#
# Elastic Constant Matrix: (Units=GPa)
#
#
# Indices 1 2 3 4 5 6 
#
# 1 112.9572 39.1042 19.8351 -4.2386 1.3354 29.6984
# 2 39.1042 95.9695 35.5593 -12.1676 13.8020 22.6277
# 3 19.8351 35.5593 47.4374 -11.6225 1.5316 10.2497
# 4 -4.2386 -12.1676 -11.6225 33.4592 8.9444 0.9437
# 5 1.3354 13.8020 1.5316 8.9444 27.2625 -3.8109
# 6 29.6984 22.6277 10.2497 0.9437 -3.8109 37.9582
#
#
#
# Elastic Compliance Matrix: (Units=1/GPa)
#
#
# Indices 1 2 3 4 5 6 
#
# 1 0.011961 -0.002429 -0.001403 0.000493 -0.000501 -0.007594
# 2 -0.002429 0.019916 -0.009811 0.007257 -0.013025 -0.008811
# 3 -0.001403 -0.009811 0.030996 0.006840 0.000839 -0.001509
# 4 0.000493 0.007257 0.006840 0.040199 -0.018588 -0.009424
# 5 -0.000501 -0.013025 0.000839 -0.018588 0.051243 0.013536
# 6 -0.007594 -0.008811 -0.001509 -0.009424 0.013536 0.039539
#
#
# Mechanical properties :
#
#
# Convention : Reuss Voigt Hill
#
# Bulk Modulus (GPa) = 28.09992 49.48459 38.79226
# Shear Modulus (GPa) = 21.45904 30.52703 25.99304
#
# Velocity S-wave (km/s) = 3.45538 4.12129 3.80294
# Velocity P-wave (km/s) = 5.61731 7.08375 6.39272
#
# Compressibility (1/GPa) = 0.03558729
#
# Stress axis : x y z
#
# Youngs Moduli (GPa) = 83.60401 50.21200 32.26212
#
# Poissons Ratio (x) = 0.12196 0.04526
# Poissons Ratio (y) = 0.20307 0.31652
# Poissons Ratio (z) = 0.11728 0.49263
#
# Static dielectric constant tensor:
#      x y z
#    x 1.668010 0.030570 -0.032600 
#    y 0.030570 1.662070 -0.009270 
#    z -0.032600 -0.009270 1.667360 
# 
# From -- ./inp_files/81743.got.cif
#   From: 2010.05.17/outbox.cif.g08.bks.cpg/sg2_41_cif.got.tgz:81743.got - 2010.06.03 11:33:40.
