data_PCOD9093873
_publ_section_title
;
Structure prediction by ZEFSAII (Michael W. Deem and Ramdas Pophale) SiO2 
 PCOD9093873
Probable space group: P -1
;
_chemical_formula_sum "Si O2"
_cell_formula_units_Z 16
_cell_length_a 15.745239
_cell_length_b 11.410407
_cell_length_c 8.079527
_cell_angle_alpha 40.385840
_cell_angle_beta 44.597559
_cell_angle_gamma 65.312634
_cell_volume 635.061843
_symmetry_space_group_name_H-M "P -1"
_symmetry_group_IT_number 2
_symmetry_cell_setting 'triclinic'
loop_
_space_group_symop_operation_xyz
x,y,z
-x,-y,-z
loop_
_atom_site_type_symbol
_atom_site_label
_atom_site_fract_x
_atom_site_fract_y
_atom_site_fract_z
Si Si1 0.837093 0.242102 0.050506
Si Si2 0.437822 0.397470 0.370001
Si Si3 0.021630 0.501978 0.696842
Si Si4 0.378342 0.284056 0.054715
Si Si5 0.828994 0.915749 0.652363
Si Si6 0.798125 0.755684 0.336296
Si Si7 0.098679 0.852387 0.384427
Si Si8 0.558518 0.075327 0.516484
O O1 0.938119 0.333316 0.673305
O O2 0.875490 0.398129 0.976954
O O3 0.847015 0.047831 0.322508
O O4 0.701527 0.209836 0.187237
O O5 0.292779 0.338238 0.587277
O O6 0.474723 0.205006 0.553544
O O7 0.500000 0.500000 0.000000
O O8 0.503970 0.539348 0.267135
O O9 0.089282 0.339790 0.738109
O O10 0.087076 0.632228 0.617865
O O11 0.280346 0.288074 0.337839
O O12 0.294498 0.247748 0.045542
O O13 0.433235 0.104680 0.197825
O O14 0.827716 0.058779 0.649002
O O15 0.951632 0.848758 0.593604
O O16 0.840042 0.980972 0.010574
O O17 0.500000 0.000000 0.500000
#
# Coordination Sequence:
#
# PCOD9093873 Si02
#       8
#     2   2   2   2   2   2   2   2
#     4  10  22  39  60  95 120 149 204 245 301 354
#     4  10  20  33  59  90 118 154 193 245 301 350
#     4  11  24  37  62  93 122 154 194 258 304 352
#     4  10  22  37  62  87 122 152 201 254 287 359
#     4  10  23  43  59  86 121 166 205 239 303 355
#     4  11  22  39  60  97 121 152 203 249 307 353
#     4  11  24  41  61  83 125 167 197 247 298 362
#     4  11  19  34  55  90 119 156 185 239 301 350
#
# _framework density 25.194398
#
# number of rings (size 3 to 8) (size 9 to 14) (size 15 to 20)
#    0.000    1.500    3.750    3.000    5.250    1.500 
#    0.000    0.625    0.000    3.750    0.000    0.000 
#    0.000    0.000    0.000    0.000    0.000    0.000 
#
# Total GULP energy -89379.883652 kJ/mol
# GULP energy per Si atom -5586.242728 kJ/mol
# Density = 2.513705 g / cm^3
# Si number density = 25.194398 Si / 1000 Ang^3
#
#
#
# Elastic Constant Matrix: (Units=GPa)
#
#
# Indices 1 2 3 4 5 6 
#
# 1 169.3261 42.0218 41.6418 -14.6265 -49.4396 25.9843
# 2 42.0218 70.3627 27.3537 -25.2019 -17.0531 7.9518
# 3 41.6418 27.3537 107.9454 -22.9270 -33.6056 15.6600
# 4 -14.6265 -25.2019 -22.9270 26.2964 18.5291 -10.0059
# 5 -49.4396 -17.0531 -33.6056 18.5291 61.8811 -16.4683
# 6 25.9843 7.9518 15.6600 -10.0059 -16.4683 45.9653
#
#
#
# Elastic Compliance Matrix: (Units=1/GPa)
#
#
# Indices 1 2 3 4 5 6 
#
# 1 0.009420 -0.005782 -0.001183 -0.007176 0.006610 -0.003116
# 2 -0.005782 0.025414 -0.000822 0.024855 -0.004743 0.002864
# 3 -0.001183 -0.000822 0.012543 0.006804 0.003399 -0.000763
# 4 -0.007176 0.024855 0.006804 0.078672 -0.016437 0.008676
# 5 0.006610 -0.004743 0.003399 -0.016437 0.027486 0.002195
# 6 -0.003116 0.002864 -0.000763 0.008676 0.002195 0.025957
#
#
# Mechanical properties :
#
#
# Convention : Reuss Voigt Hill
#
# Bulk Modulus (GPa) = 31.44513 63.29654 47.37083
# Shear Modulus (GPa) = 24.31115 42.60301 33.45708
#
# Velocity S-wave (km/s) = 3.10972 4.11660 3.64807
# Velocity P-wave (km/s) = 5.04003 6.91180 6.04876
#
# Compressibility (1/GPa) = 0.03180143
#
# Stress axis : x y z
#
# Youngs Moduli (GPa) = 106.15972 39.34819 79.72667
#
# Poissons Ratio (x) = 0.22751 0.09433
# Poissons Ratio (y) = 0.61382 0.06557
# Poissons Ratio (z) = 0.12560 0.03236
#
# Static dielectric constant tensor:
#      x y z
#    x 2.051160 0.158910 0.034170 
#    y 0.158910 2.129650 0.076030 
#    z 0.034170 0.076030 2.046520 
# 
# From -- ./inp_files/306180.got.cif
#   From: 2010.05.17/outbox.cif.g08.bks.cpg/sg2_154_cif.got.tgz:306180.got - 2010.06.03 11:33:40.
