data_PCOD9093319
_publ_section_title
;
Structure prediction by ZEFSAII (Michael W. Deem and Ramdas Pophale) SiO2 
 PCOD9093319
Probable space group: P -1
;
_chemical_formula_sum "Si O2"
_cell_formula_units_Z 16
_cell_length_a 9.350298
_cell_length_b 17.097735
_cell_length_c 8.887664
_cell_angle_alpha 36.597299
_cell_angle_beta 133.444528
_cell_angle_gamma 132.166561
_cell_volume 591.244358
_symmetry_space_group_name_H-M "P -1"
_symmetry_group_IT_number 2
_symmetry_cell_setting 'triclinic'
loop_
_space_group_symop_operation_xyz
x,y,z
-x,-y,-z
loop_
_atom_site_type_symbol
_atom_site_label
_atom_site_fract_x
_atom_site_fract_y
_atom_site_fract_z
Si Si1 0.006955 0.612275 0.456052
Si Si2 0.351884 0.860452 0.822977
Si Si3 0.239857 0.864805 0.083670
Si Si4 0.599335 0.420973 0.067386
Si Si5 0.173025 0.088019 0.880320
Si Si6 0.347337 0.582820 0.320017
Si Si7 0.723956 0.703560 0.591544
Si Si8 0.641013 0.849831 0.592948
O O1 0.826352 0.537188 0.548044
O O2 0.000000 0.500000 0.500000
O O3 0.041148 0.751797 0.175734
O O4 0.217519 0.633884 0.659966
O O5 0.291533 0.999153 0.513718
O O6 0.279295 0.860640 0.943561
O O7 0.595801 0.886733 0.927739
O O8 0.278547 0.694742 0.995348
O O9 0.441728 0.863564 0.329303
O O10 0.190428 0.003330 0.875133
O O11 0.425321 0.277518 0.140226
O O12 0.500000 0.500000 0.000000
O O13 0.719928 0.547724 0.856660
O O14 0.147655 0.224868 0.571293
O O15 0.000000 0.000000 0.000000
O O16 0.500000 0.500000 0.500000
O O17 0.485136 0.675314 0.409961
O O18 0.761986 0.790987 0.639027
#
# Coordination Sequence:
#
# PCOD9093319 Si02
#       8
#     2   2   2   2   2   2   2   2
#     4  11  20  34  57  86 113 143 190 226 280 352
#     4  10  17  33  53  76 108 143 187 237 281 324
#     4  10  16  29  52  78 104 140 186 234 277 322
#     4   9  19  32  59  88 112 141 183 240 289 323
#     4  10  19  28  52  82 110 140 185 242 279 321
#     4  11  23  35  54  80 115 155 185 233 288 338
#     4  10  18  36  56  82 114 143 185 236 283 327
#     4   9  14  30  56  81 100 138 184 230 279 324
#
# _framework density 27.061568999999999
#
# number of rings (size 3 to 8) (size 9 to 14) (size 15 to 20)
#    0.000    2.000    5.000    2.250    3.500    0.000 
#    0.000    0.625    0.000    9.000    0.000    0.000 
#    0.000    0.000    0.000    0.000    0.000    0.000 
#
# Total GULP energy -89155.266631 kJ/mol
# GULP energy per Si atom -5572.204164 kJ/mol
# Density = 2.699998 g / cm^3
# Si number density = 27.061569 Si / 1000 Ang^3
#
#
#
# Elastic Constant Matrix: (Units=GPa)
#
#
# Indices 1 2 3 4 5 6 
#
# 1 149.1743 48.0745 43.4867 -20.8904 -15.8725 28.0280
# 2 48.0745 60.6589 28.8437 -25.2077 -4.8274 15.2381
# 3 43.4867 28.8437 133.7540 -52.9708 -27.6183 0.8047
# 4 -20.8904 -25.2077 -52.9708 56.9421 10.6521 2.8428
# 5 -15.8725 -4.8274 -27.6183 10.6521 45.1420 -24.0838
# 6 28.0280 15.2381 0.8047 2.8428 -24.0838 53.7828
#
#
#
# Elastic Compliance Matrix: (Units=1/GPa)
#
#
# Indices 1 2 3 4 5 6 
#
# 1 0.009880 -0.006409 -0.002288 -0.001162 -0.000084 -0.003275
# 2 -0.006409 0.028072 -0.001065 0.010775 -0.006835 -0.008228
# 3 -0.002288 -0.001065 0.013943 0.010072 0.007407 0.004070
# 4 -0.001162 0.010775 0.010072 0.032320 -0.003966 -0.006083
# 5 -0.000084 -0.006835 0.007407 -0.003966 0.036748 0.018535
# 6 -0.003275 -0.008228 0.004070 -0.006083 0.018535 0.031192
#
#
# Mechanical properties :
#
#
# Convention : Reuss Voigt Hill
#
# Bulk Modulus (GPa) = 30.89039 64.93301 47.91170
# Shear Modulus (GPa) = 27.40213 46.05220 36.72716
#
# Velocity S-wave (km/s) = 3.18557 4.12971 3.68798
# Velocity P-wave (km/s) = 4.99701 6.84003 5.98983
#
# Compressibility (1/GPa) = 0.03237252
#
# Stress axis : x y z
#
# Youngs Moduli (GPa) = 101.21947 35.62308 71.71830
#
# Poissons Ratio (x) = 0.22830 0.16407
# Poissons Ratio (y) = 0.64869 0.07635
# Poissons Ratio (z) = 0.23157 0.03792
#
# Static dielectric constant tensor:
#      x y z
#    x 1.948450 -0.234360 0.017150 
#    y -0.234360 1.949660 0.195530 
#    z 0.017150 0.195530 2.181090 
# 
# From -- ./inp_files/302753.got.cif
#   From: 2010.05.17/outbox.cif.g08.bks.cpg/sg2_152_cif.got.tgz:302753.got - 2010.06.03 11:33:40.
