data_PCOD9093932
_publ_section_title
;
Structure prediction by ZEFSAII (Michael W. Deem and Ramdas Pophale) SiO2 
 PCOD9093932
Probable space group: P -1
;
_chemical_formula_sum "Si O2"
_cell_formula_units_Z 16
_cell_length_a 24.709783
_cell_length_b 5.912051
_cell_length_c 7.800362
_cell_angle_alpha 67.494932
_cell_angle_beta 42.304288
_cell_angle_gamma 87.108887
_cell_volume 657.102634
_symmetry_space_group_name_H-M "P -1"
_symmetry_group_IT_number 2
_symmetry_cell_setting 'triclinic'
loop_
_space_group_symop_operation_xyz
x,y,z
-x,-y,-z
loop_
_atom_site_type_symbol
_atom_site_label
_atom_site_fract_x
_atom_site_fract_y
_atom_site_fract_z
Si Si1 0.851506 0.744287 0.734157
Si Si2 0.363612 0.418709 0.207354
Si Si3 0.476506 0.091595 0.343097
Si Si4 0.746484 0.940263 0.135785
Si Si5 0.480213 0.595268 0.334066
Si Si6 0.087604 0.746782 0.752501
Si Si7 0.232123 0.610764 0.268674
Si Si8 0.907868 0.332388 0.849607
O O1 0.838028 0.589202 0.633374
O O2 0.873140 0.571812 0.878574
O O3 0.913982 0.032834 0.444303
O O4 0.762615 0.762943 0.000571
O O5 0.304810 0.222385 0.539685
O O6 0.297209 0.484377 0.221810
O O7 0.425478 0.288859 0.010929
O O8 0.433722 0.707079 0.013226
O O9 0.442957 0.823911 0.386968
O O10 0.564177 0.684748 0.581865
O O11 0.500000 0.000000 0.500000
O O12 0.715885 0.147374 0.048864
O O13 0.842163 0.117437 0.938846
O O14 0.500000 0.500000 0.500000
O O15 0.176017 0.698497 0.512803
O O16 0.089387 0.800715 0.936269
O O17 0.000000 0.500000 0.000000
O O18 0.000000 0.500000 0.500000
#
# Coordination Sequence:
#
# PCOD9093932 Si02
#       8
#     2   2   2   2   2   2   2   2
#     4  10  22  39  56  76 118 150 190 254 294 366
#     4  10  20  33  62  86 116 160 198 260 302 370
#     4   8  16  31  54  88 118 154 201 242 304 373
#     4  10  22  38  55  87 115 151 203 245 308 356
#     4   8  16  31  54  88 118 154 201 242 304 373
#     4  11  23  38  58  82 114 154 199 248 302 366
#     4  10  22  38  55  87 115 151 203 245 308 356
#     4  11  23  38  58  82 114 154 199 248 302 366
#
# _framework density 24.349316999999999
#
# number of rings (size 3 to 8) (size 9 to 14) (size 15 to 20)
#    0.750    1.500    0.000    3.750    0.000   10.000 
#    0.000    0.000    0.000    1.500    0.000    0.000 
#    0.000    0.000    0.000    0.000    0.000    0.000 
#
# Total GULP energy -89250.083969 kJ/mol
# GULP energy per Si atom -5578.130248 kJ/mol
# Density = 2.429390 g / cm^3
# Si number density = 24.349317 Si / 1000 Ang^3
#
#
#
# Elastic Constant Matrix: (Units=GPa)
#
#
# Indices 1 2 3 4 5 6 
#
# 1 71.5794 4.2589 14.0418 -4.8230 11.7801 -4.9047
# 2 4.2589 122.9586 33.4931 -3.4625 3.2742 -1.5177
# 3 14.0418 33.4931 155.6797 -16.2067 25.8091 2.2559
# 4 -4.8230 -3.4625 -16.2067 35.9130 -1.5875 4.7670
# 5 11.7801 3.2742 25.8091 -1.5875 33.3115 -2.4944
# 6 -4.9047 -1.5177 2.2559 4.7670 -2.4944 30.9344
#
#
#
# Elastic Compliance Matrix: (Units=1/GPa)
#
#
# Indices 1 2 3 4 5 6 
#
# 1 0.015068 -0.000225 -0.000399 0.001370 -0.004796 0.001809
# 2 -0.000225 0.008668 -0.002005 -0.000146 0.000821 0.000625
# 3 -0.000399 -0.002005 0.008279 0.003459 -0.006045 -0.001786
# 4 0.001370 -0.000146 0.003459 0.030128 -0.002078 -0.004853
# 5 -0.004796 0.000821 -0.006045 -0.002078 0.036443 0.002979
# 6 0.001809 0.000625 -0.001786 -0.004853 0.002979 0.033762
#
#
# Mechanical properties :
#
#
# Convention : Reuss Voigt Hill
#
# Bulk Modulus (GPa) = 37.37244 50.42284 43.89764
# Shear Modulus (GPa) = 34.12384 39.92671 37.02527
#
# Velocity S-wave (km/s) = 3.74763 4.05377 3.90370
# Velocity P-wave (km/s) = 5.84021 6.53175 6.19564
#
# Compressibility (1/GPa) = 0.02675768
#
# Stress axis : x y z
#
# Youngs Moduli (GPa) = 66.36679 115.36039 120.78840
#
# Poissons Ratio (x) = 0.02590 0.04823
# Poissons Ratio (y) = 0.01490 0.24218
# Poissons Ratio (z) = 0.02650 0.23129
#
# Static dielectric constant tensor:
#      x y z
#    x 1.980390 -0.010880 -0.027590 
#    y -0.010880 1.978360 0.007280 
#    z -0.027590 0.007280 1.947660 
# 
# From -- ./inp_files/358144.got.cif
#   From: 2010.05.17/outbox.cif.g08.bks.cpg/sg2_180_cif.got.tgz:358144.got - 2010.06.03 11:33:40.
