data_PCOD9093243
_publ_section_title
;
Structure prediction by ZEFSAII (Michael W. Deem and Ramdas Pophale) SiO2 
 PCOD9093243
Probable space group: P -1
;
_chemical_formula_sum "Si O2"
_cell_formula_units_Z 16
_cell_length_a 5.043555
_cell_length_b 15.406008
_cell_length_c 19.860359
_cell_angle_alpha 145.436195
_cell_angle_beta 73.283150
_cell_angle_gamma 102.305246
_cell_volume 837.676238
_symmetry_space_group_name_H-M "P -1"
_symmetry_group_IT_number 2
_symmetry_cell_setting 'triclinic'
loop_
_space_group_symop_operation_xyz
x,y,z
-x,-y,-z
loop_
_atom_site_type_symbol
_atom_site_label
_atom_site_fract_x
_atom_site_fract_y
_atom_site_fract_z
Si Si1 0.010001 0.566209 0.368796
Si Si2 0.153715 0.796359 0.993776
Si Si3 0.593298 0.564774 0.125767
Si Si4 0.564961 0.892889 0.837636
Si Si5 0.024414 0.205519 0.144646
Si Si6 0.135408 0.357834 0.970594
Si Si7 0.381021 0.450935 0.734879
Si Si8 0.762540 0.606383 0.550121
O O1 0.982200 0.386893 0.273458
O O2 0.862476 0.594967 0.326224
O O3 0.863797 0.649374 0.495442
O O4 0.334386 0.585326 0.347958
O O5 0.335468 0.942005 0.085655
O O6 0.994785 0.816394 0.947616
O O7 0.333787 0.635013 0.869205
O O8 0.935600 0.771399 0.053589
O O9 0.305119 0.488000 0.080294
O O10 0.604673 0.620323 0.237059
O O11 0.834968 0.429953 0.017262
O O12 0.682140 0.677848 0.131950
O O13 0.238669 0.872102 0.852989
O O14 0.691524 0.758759 0.695003
O O15 0.300917 0.145203 0.123017
O O16 0.500000 0.500000 0.500000
O O17 0.000000 0.500000 0.500000
#
# Coordination Sequence:
#
# PCOD9093243 Si02
#       8
#     2   2   2   2   2   2   2   2
#     4  11  20  34  53  73  97 132 173 210 254 277
#     4  10  22  34  51  77 108 132 168 203 254 307
#     4   9  16  31  49  73 102 132 160 192 253 298
#     4  12  23  36  51  72  98 143 170 210 252 294
#     4  11  21  34  50  73 102 132 171 206 253 297
#     4   9  18  30  48  72 103 134 159 197 241 311
#     4  10  20  32  52  78 102 128 159 211 249 309
#     4  12  22  39  54  69  98 133 182 220 246 287
#
# _framework density 19.100458
#
# number of rings (size 3 to 8) (size 9 to 14) (size 15 to 20)
#    0.000    1.500    2.500    5.250    0.000    5.000 
#    0.000    0.000    0.000    0.000    0.000    1.750 
#    0.000    0.000    0.000    0.750    0.000    0.000 
#
# Total GULP energy -89373.771484 kJ/mol
# GULP energy per Si atom -5585.860718 kJ/mol
# Density = 1.905698 g / cm^3
# Si number density = 19.100458 Si / 1000 Ang^3
#
#
#
# Elastic Constant Matrix: (Units=GPa)
#
#
# Indices 1 2 3 4 5 6 
#
# 1 83.6020 -1.1640 6.5675 0.2484 -8.8243 2.4714
# 2 -1.1640 86.6475 30.7909 -26.7954 -6.0713 10.1009
# 3 6.5675 30.7909 63.1962 -13.4495 -0.3925 -5.0685
# 4 0.2484 -26.7954 -13.4495 23.4510 1.8160 4.2686
# 5 -8.8243 -6.0713 -0.3925 1.8160 14.7530 -3.9651
# 6 2.4714 10.1009 -5.0685 4.2686 -3.9651 24.2905
#
#
#
# Elastic Compliance Matrix: (Units=1/GPa)
#
#
# Indices 1 2 3 4 5 6 
#
# 1 0.013050 0.001712 -0.002206 0.000143 0.008111 -0.001201
# 2 0.001712 0.024572 -0.007837 0.026231 0.003375 -0.016086
# 3 -0.002206 -0.007837 0.020832 0.001899 -0.002311 0.007119
# 4 0.000143 0.026231 0.001899 0.078731 -0.005552 -0.025268
# 5 0.008111 0.003375 -0.002311 -0.005552 0.077582 0.010929
# 6 -0.001201 -0.016086 0.007119 -0.025268 0.010929 0.055690
#
#
# Mechanical properties :
#
#
# Convention : Reuss Voigt Hill
#
# Bulk Modulus (GPa) = 23.92775 33.98158 28.95466
# Shear Modulus (GPa) = 16.60855 25.64898 21.12876
#
# Velocity S-wave (km/s) = 2.95199 3.66846 3.32955
# Velocity P-wave (km/s) = 4.91666 5.98106 5.47479
#
# Compressibility (1/GPa) = 0.04179249
#
# Stress axis : x y z
#
# Youngs Moduli (GPa) = 76.63000 40.69598 48.00259
#
# Poissons Ratio (x) = -0.06966 0.10587
# Poissons Ratio (y) = -0.13116 0.37620
# Poissons Ratio (z) = 0.16902 0.31893
#
# Static dielectric constant tensor:
#      x y z
#    x 1.658050 -0.015690 0.002690 
#    y -0.015690 1.712400 -0.034480 
#    z 0.002690 -0.034480 1.674980 
# 
# From -- ./inp_files/583976.got.cif
#   From: 2010.05.17/outbox.cif.g08.bks.cpg/sg2_292_cif.got.tgz:583976.got - 2010.06.03 11:33:40.
