data_PCOD9093590
_publ_section_title
;
Structure prediction by ZEFSAII (Michael W. Deem and Ramdas Pophale) SiO2 
 PCOD9093590
Probable space group: P -1
;
_chemical_formula_sum "Si O2"
_cell_formula_units_Z 14
_cell_length_a 5.484696
_cell_length_b 14.788180
_cell_length_c 11.908510
_cell_angle_alpha 92.415272
_cell_angle_beta 57.675239
_cell_angle_gamma 65.313443
_cell_volume 695.867566
_symmetry_space_group_name_H-M "P -1"
_symmetry_group_IT_number 2
_symmetry_cell_setting 'triclinic'
loop_
_space_group_symop_operation_xyz
x,y,z
-x,-y,-z
loop_
_atom_site_type_symbol
_atom_site_label
_atom_site_fract_x
_atom_site_fract_y
_atom_site_fract_z
Si Si1 0.493069 0.971248 0.872641
Si Si2 0.724945 0.874476 0.414559
Si Si3 0.274026 0.252086 0.098254
Si Si4 0.738204 0.081500 0.659455
Si Si5 0.094076 0.814392 0.960414
Si Si6 0.229197 0.621088 0.597546
Si Si7 0.440097 0.257142 0.380749
O O1 0.719794 0.002668 0.748282
O O2 0.631071 0.847131 0.842795
O O3 0.113711 0.064556 0.937192
O O4 0.500000 0.000000 0.000000
O O5 0.610008 0.854359 0.321388
O O6 0.622541 0.821468 0.534279
O O7 0.104326 0.851697 0.328617
O O8 0.500000 0.000000 0.500000
O O9 0.614453 0.253511 0.025765
O O10 0.170278 0.222088 0.006217
O O11 0.963394 0.356149 0.234066
O O12 0.000000 0.000000 0.500000
O O13 0.276896 0.797115 0.791468
O O14 0.500000 0.500000 0.500000
O O15 0.424022 0.685066 0.568489
O O16 0.921498 0.665591 0.586238
#
# Coordination Sequence:
#
# PCOD9093590 Si02
#       7
#     2   2   2   2   2   2   2
#     4  10  21  34  53  76 112 151 181 220 268 327
#     4  10  22  33  53  72 112 151 184 206 270 331
#     4   9  19  30  48  71 105 134 174 214 279 302
#     4  10  23  33  49  74 110 149 191 212 255 320
#     4   9  19  30  50  72 102 141 177 202 278 315
#     4  10  20  33  54  78 109 141 186 231 287 324
#     4  10  20  35  55  77 114 145 176 230 281 314
#
# _framework density 20.118772
#
# number of rings (size 3 to 8) (size 9 to 14) (size 15 to 20)
#    0.000    2.286    0.000    1.714   20.000    2.286 
#    0.000    0.000    0.000    0.000    0.000    0.000 
#    0.000  144.000    0.000    0.000    0.000    0.000 
#
# Total GULP energy -77961.639825 kJ/mol
# GULP energy per Si atom -5568.688559 kJ/mol
# Density = 2.007298 g / cm^3
# Si number density = 20.118772 Si / 1000 Ang^3
#
#
#
# Elastic Constant Matrix: (Units=GPa)
#
#
# Indices 1 2 3 4 5 6 
#
# 1 167.4405 7.7069 7.3455 2.3926 -15.6046 -0.9934
# 2 7.7069 45.5257 25.1854 15.7187 -12.2090 1.4399
# 3 7.3455 25.1854 68.7485 0.4543 -7.4667 0.8651
# 4 2.3926 15.7187 0.4543 36.3411 -4.6283 -0.4647
# 5 -15.6046 -12.2090 -7.4667 -4.6283 21.5510 2.4798
# 6 -0.9934 1.4399 0.8651 -0.4647 2.4798 24.4636
#
#
#
# Elastic Compliance Matrix: (Units=1/GPa)
#
#
# Indices 1 2 3 4 5 6 
#
# 1 0.006412 0.000353 -0.000293 0.000034 0.004775 -0.000233
# 2 0.000353 0.037569 -0.012066 -0.014296 0.014695 -0.003531
# 3 -0.000293 -0.012066 0.019032 0.005081 0.000631 0.000058
# 4 0.000034 -0.014296 0.005081 0.033752 0.000794 0.001224
# 5 0.004775 0.014695 0.000631 0.000794 0.059343 -0.006694
# 6 -0.000233 -0.003531 0.000058 0.001224 -0.006694 0.041775
#
#
# Mechanical properties :
#
#
# Convention : Reuss Voigt Hill
#
# Bulk Modulus (GPa) = 25.64049 40.24338 32.94193
# Shear Modulus (GPa) = 21.28604 32.56960 26.92782
#
# Velocity S-wave (km/s) = 3.25625 4.02788 3.66244
# Velocity P-wave (km/s) = 5.18746 6.45585 5.85610
#
# Compressibility (1/GPa) = 0.03900082
#
# Stress axis : x y z
#
# Youngs Moduli (GPa) = 155.95620 26.61738 52.54441
#
# Poissons Ratio (x) = -0.00939 0.01540
# Poissons Ratio (y) = -0.05504 0.63400
# Poissons Ratio (z) = 0.04570 0.32116
#
# Static dielectric constant tensor:
#      x y z
#    x 1.875010 -0.034240 -0.088840 
#    y -0.034240 1.693900 -0.004460 
#    z -0.088840 -0.004460 1.746270 
# 
# From -- ./inp_files/66188.got.cif
#   From: 2010.05.17/outbox.cif.g08.bks.cpg/sg2_34_cif.got.tgz:66188.got - 2010.06.03 11:33:40.
