data_PCOD9093157
_publ_section_title
;
Structure prediction by ZEFSAII (Michael W. Deem and Ramdas Pophale) SiO2 
 PCOD9093157
Probable space group: P -1
;
_chemical_formula_sum "Si O2"
_cell_formula_units_Z 8
_cell_length_a 4.896884
_cell_length_b 11.530586
_cell_length_c 12.110977
_cell_angle_alpha 27.489674
_cell_angle_beta 59.681514
_cell_angle_gamma 63.014779
_cell_volume 272.448898
_symmetry_space_group_name_H-M "P -1"
_symmetry_group_IT_number 2
_symmetry_cell_setting 'triclinic'
loop_
_space_group_symop_operation_xyz
x,y,z
-x,-y,-z
loop_
_atom_site_type_symbol
_atom_site_label
_atom_site_fract_x
_atom_site_fract_y
_atom_site_fract_z
Si Si1 0.932240 0.363354 0.307444
Si Si2 0.765858 0.282706 0.635454
Si Si3 0.600770 0.206392 0.961037
Si Si4 0.431527 0.118312 0.294508
O O1 0.018329 0.346529 0.434643
O O2 0.218309 0.362272 0.163691
O O3 0.775565 0.095474 0.540040
O O4 0.666756 0.574840 0.167161
O O5 0.500000 0.500000 0.500000
O O6 0.584488 0.035246 0.842125
O O7 0.853116 0.253895 0.771109
O O8 0.691719 0.169321 0.103001
O O9 0.500000 0.000000 0.500000
#
# Coordination Sequence:
#
# PCOD9093157 Si02
#       4
#     2   2   2   2
#     4   9  18  33  51  71  97 128 160 196 238 282
#     4   8  15  29  52  74  92 123 163 198 237 283
#     4   9  16  30  52  72  95 128 160 195 240 284
#     4  10  20  32  48  73 101 127 159 197 236 283
#
# _framework density 29.363305
#
# number of rings (size 3 to 8) (size 9 to 14) (size 15 to 20)
#    0.000    3.000    0.000    0.750    0.000    1.000 
#    0.000    1.250    0.000   51.000    0.000    0.000 
#    0.000    0.000    0.000    0.000    0.000    0.000 
#
# Total GULP energy -44811.811813 kJ/mol
# GULP energy per Si atom -5601.476477 kJ/mol
# Density = 2.929647 g / cm^3
# Si number density = 29.363305 Si / 1000 Ang^3
#
#
#
# Elastic Constant Matrix: (Units=GPa)
#
#
# Indices 1 2 3 4 5 6 
#
# 1 92.8927 47.7937 30.4987 12.4406 -0.2338 4.0794
# 2 47.7937 249.3468 94.6369 46.4962 12.2773 33.8518
# 3 30.4987 94.6369 127.8228 30.9763 17.3295 -2.6617
# 4 12.4406 46.4962 30.9763 112.2213 10.5683 15.4046
# 5 -0.2338 12.2773 17.3295 10.5683 52.7309 12.0431
# 6 4.0794 33.8518 -2.6617 15.4046 12.0431 42.7261
#
#
#
# Elastic Compliance Matrix: (Units=1/GPa)
#
#
# Indices 1 2 3 4 5 6 
#
# 1 0.012248 -0.001645 -0.001799 -0.000258 0.001127 -0.000203
# 2 -0.001645 0.007093 -0.005015 -0.000696 0.001486 -0.005943
# 3 -0.001799 -0.005015 0.013157 -0.001888 -0.004356 0.006873
# 4 -0.000258 -0.000696 -0.001888 0.010224 -0.000567 -0.003068
# 5 0.001127 0.001486 -0.004356 -0.000567 0.021886 -0.007521
# 6 -0.000203 -0.005943 0.006873 -0.003068 -0.007521 0.031787
#
#
# Mechanical properties :
#
#
# Convention : Reuss Voigt Hill
#
# Bulk Modulus (GPa) = 64.18735 90.65791 77.42263
# Shear Modulus (GPa) = 42.19186 61.34453 51.76819
#
# Velocity S-wave (km/s) = 3.79475 4.57569 4.20339
# Velocity P-wave (km/s) = 6.41150 7.67186 7.06982
#
# Compressibility (1/GPa) = 0.01557939
#
# Stress axis : x y z
#
# Youngs Moduli (GPa) = 81.64390 140.98965 76.00507
#
# Poissons Ratio (x) = 0.23187 0.13676
# Poissons Ratio (y) = 0.13427 0.38120
# Poissons Ratio (z) = 0.14690 0.70712
#
# Static dielectric constant tensor:
#      x y z
#    x 2.208640 0.016000 0.003000 
#    y 0.016000 2.297220 0.080790 
#    z 0.003000 0.080790 2.393450 
# 
# From -- ./inp_files/1322.got.cif
#   From: 2010.05.17/outbox.cif.g08.bks.cpg/sg2_1_cif.got.tgz:1322.got - 2010.06.03 11:33:40.
