data_PCOD9093433
_publ_section_title
;
Structure prediction by ZEFSAII (Michael W. Deem and Ramdas Pophale) SiO2 
 PCOD9093433
Probable space group: P -1
;
_chemical_formula_sum "Si O2"
_cell_formula_units_Z 16
_cell_length_a 13.544310
_cell_length_b 22.883348
_cell_length_c 13.617697
_cell_angle_alpha 32.910521
_cell_angle_beta 21.319392
_cell_angle_gamma 35.017295
_cell_volume 819.049767
_symmetry_space_group_name_H-M "P -1"
_symmetry_group_IT_number 2
_symmetry_cell_setting 'triclinic'
loop_
_space_group_symop_operation_xyz
x,y,z
-x,-y,-z
loop_
_atom_site_type_symbol
_atom_site_label
_atom_site_fract_x
_atom_site_fract_y
_atom_site_fract_z
Si Si1 0.357448 0.946257 0.117750
Si Si2 0.626524 0.374692 0.032231
Si Si3 0.580607 0.255137 0.532517
Si Si4 0.922457 0.635213 0.537614
Si Si5 0.828303 0.068736 0.181894
Si Si6 0.038551 0.619008 0.095741
Si Si7 0.772015 0.855917 0.443409
Si Si8 0.263918 0.934611 0.505963
O O1 0.402722 0.818085 0.281541
O O2 0.035015 0.997330 0.343275
O O3 0.510080 0.987030 0.825311
O O4 0.500000 0.000000 0.000000
O O5 0.350770 0.328630 0.328717
O O6 0.500000 0.500000 0.000000
O O7 0.827578 0.341490 0.984515
O O8 0.811391 0.366708 0.774574
O O9 0.278495 0.324603 0.696684
O O10 0.651759 0.165643 0.505509
O O11 0.796129 0.336205 0.208370
O O12 0.927619 0.512295 0.744130
O O13 0.891831 0.727488 0.519258
O O14 0.558320 0.119256 0.296813
O O15 0.855256 0.937529 0.332306
O O16 0.770725 0.103327 0.297806
O O17 0.091205 0.105546 0.837475
#
# Coordination Sequence:
#
# PCOD9093433 Si02
#       8
#     2   2   2   2   2   2   2   2
#     4  10  20  37  51  76 107 136 169 218 266 318
#     4  10  20  33  45  70 105 141 179 210 236 302
#     4  11  21  32  52  77 108 135 172 217 255 312
#     4  11  21  35  51  70 108 146 172 214 261 298
#     4  10  22  38  56  80 103 134 187 222 259 315
#     4  11  21  32  47  77 104 142 178 204 248 321
#     4  10  22  38  54  78 109 137 176 231 260 290
#     4  11  21  35  56  76 103 141 173 211 272 319
#
# _framework density 19.534832999999999
#
# number of rings (size 3 to 8) (size 9 to 14) (size 15 to 20)
#    0.000    1.500    0.000    9.000    5.250    0.000 
#    0.000    0.000    0.000    0.000    0.000    5.250 
#    0.000    0.000    0.000    0.000    0.000    0.000 
#
# Total GULP energy -89344.619653 kJ/mol
# GULP energy per Si atom -5584.038728 kJ/mol
# Density = 1.949037 g / cm^3
# Si number density = 19.534833 Si / 1000 Ang^3
#
#
#
# Elastic Constant Matrix: (Units=GPa)
#
#
# Indices 1 2 3 4 5 6 
#
# 1 8.5379 11.9099 -0.6147 -0.4759 -2.6027 -3.1084
# 2 11.9099 126.8693 33.2053 2.0750 -15.8072 -8.7731
# 3 -0.6147 33.2053 90.6352 16.0051 -2.7864 -6.0288
# 4 -0.4759 2.0750 16.0051 32.1025 -5.2814 0.1537
# 5 -2.6027 -15.8072 -2.7864 -5.2814 22.5031 0.3660
# 6 -3.1084 -8.7731 -6.0288 0.1537 0.3660 20.5441
#
#
#
# Elastic Compliance Matrix: (Units=1/GPa)
#
#
# Indices 1 2 3 4 5 6 
#
# 1 0.145327 -0.013240 0.007183 0.000701 0.008265 0.018290
# 2 -0.013240 0.011071 -0.004258 0.002228 0.006219 0.001348
# 3 0.007183 -0.004258 0.014042 -0.006984 -0.002118 0.003479
# 4 0.000701 0.002228 -0.006984 0.036029 0.009260 -0.001426
# 5 0.008265 0.006219 -0.002118 0.009260 0.051637 0.002296
# 6 0.018290 0.001348 0.003479 -0.001426 0.002296 0.053009
#
#
# Mechanical properties :
#
#
# Convention : Reuss Voigt Hill
#
# Bulk Modulus (GPa) = 6.67512 35.00484 20.83998
# Shear Modulus (GPa) = 13.09991 27.13271 20.11631
#
# Velocity S-wave (km/s) = 2.59239 3.73089 3.21248
# Velocity P-wave (km/s) = 3.51925 6.04297 4.94483
#
# Compressibility (1/GPa) = 0.14981003
#
# Stress axis : x y z
#
# Youngs Moduli (GPa) = 6.88102 90.32463 71.21658
#
# Poissons Ratio (x) = 1.19586 -0.51154
# Poissons Ratio (y) = 0.09110 0.30327
# Poissons Ratio (z) = -0.04943 0.38464
#
# Static dielectric constant tensor:
#      x y z
#    x 1.693240 0.002340 0.018110 
#    y 0.002340 1.727130 -0.046140 
#    z 0.018110 -0.046140 1.731280 
# 
# From -- ./inp_files/533744.got.cif
#   From: 2010.05.17/outbox.cif.g08.bks.cpg/sg2_267_cif.got.tgz:533744.got - 2010.06.03 11:33:40.
