data_PCOD9093259
_publ_section_title
;
Structure prediction by ZEFSAII (Michael W. Deem and Ramdas Pophale) SiO2 
 PCOD9093259
Probable space group: P -1
;
_chemical_formula_sum "Si O2"
_cell_formula_units_Z 16
_cell_length_a 15.743130
_cell_length_b 6.690821
_cell_length_c 14.697443
_cell_angle_alpha 128.678715
_cell_angle_beta 145.936642
_cell_angle_gamma 52.361791
_cell_volume 661.465385
_symmetry_space_group_name_H-M "P -1"
_symmetry_group_IT_number 2
_symmetry_cell_setting 'triclinic'
loop_
_space_group_symop_operation_xyz
x,y,z
-x,-y,-z
loop_
_atom_site_type_symbol
_atom_site_label
_atom_site_fract_x
_atom_site_fract_y
_atom_site_fract_z
Si Si1 0.138201 0.037794 0.731525
Si Si2 0.680587 0.201239 0.331433
Si Si3 0.808265 0.508719 0.880944
Si Si4 0.867651 0.362954 0.086877
Si Si5 0.469031 0.813996 0.054278
Si Si6 0.023391 0.902138 0.209093
Si Si7 0.522803 0.241224 0.385247
Si Si8 0.474703 0.756414 0.249203
O O1 0.162072 0.880458 0.611951
O O2 0.138928 0.341681 0.803069
O O3 0.008885 0.038295 0.695685
O O4 0.297886 0.909834 0.890898
O O5 0.666047 0.212254 0.431067
O O6 0.591451 0.487439 0.299161
O O7 0.586942 0.971344 0.157315
O O8 0.631937 0.643195 0.783327
O O9 0.831553 0.307272 0.761133
O O10 0.896583 0.358679 0.003581
O O11 0.889116 0.754553 0.012096
O O12 0.993050 0.171235 0.203456
O O13 0.697982 0.293240 0.920824
O O14 0.494997 0.868312 0.198104
O O15 0.500000 0.500000 0.000000
O O16 0.500000 0.500000 0.500000
O O17 0.510688 0.025158 0.395014
#
# Coordination Sequence:
#
# PCOD9093259 Si02
#       8
#     2   2   2   2   2   2   2   2
#     4  11  20  28  48  81 112 140 170 203 261 335
#     4  11  21  33  49  76 108 141 177 217 263 319
#     4  10  20  36  52  77 109 141 182 214 255 317
#     4  11  17  32  52  81 112 142 170 203 265 327
#     4  11  18  26  46  76 114 146 161 198 262 330
#     4  10  20  32  53  80 112 143 166 210 266 322
#     4  11  24  39  55  75 102 141 188 231 263 298
#     4  11  18  32  52  75 108 141 170 218 265 313
#
# _framework density 24.18872
#
# number of rings (size 3 to 8) (size 9 to 14) (size 15 to 20)
#    0.000    1.250    6.250    3.000    0.000    0.500 
#    0.000    0.000    0.000    0.750    0.000    1.750 
#    0.000    0.000    0.000    0.000    0.000    0.000 
#
# Total GULP energy -89090.215298 kJ/mol
# GULP energy per Si atom -5568.138456 kJ/mol
# Density = 2.413367 g / cm^3
# Si number density = 24.188720 Si / 1000 Ang^3
#
#
#
# Elastic Constant Matrix: (Units=GPa)
#
#
# Indices 1 2 3 4 5 6 
#
# 1 131.8455 43.6679 20.4235 -4.6599 -15.2406 -15.5552
# 2 43.6679 163.5028 17.3259 17.7212 4.8168 3.5443
# 3 20.4235 17.3259 25.7085 -6.8834 -15.9207 -1.6114
# 4 -4.6599 17.7212 -6.8834 12.7380 -1.4604 0.0683
# 5 -15.2406 4.8168 -15.9207 -1.4604 35.7477 -4.6114
# 6 -15.5552 3.5443 -1.6114 0.0683 -4.6114 40.0556
#
#
#
# Elastic Compliance Matrix: (Units=1/GPa)
#
#
# Indices 1 2 3 4 5 6 
#
# 1 0.010934 -0.005598 0.005390 0.015727 0.009232 0.005994
# 2 -0.005598 0.017264 -0.034640 -0.047387 -0.023065 -0.007669
# 3 0.005390 -0.034640 0.145778 0.138016 0.080109 0.020010
# 4 0.015727 -0.047387 0.138016 0.234653 0.087435 0.025518
# 5 0.009232 -0.023065 0.080109 0.087435 0.076526 0.017510
# 6 0.005994 -0.007669 0.020010 0.025518 0.017510 0.030749
#
#
# Mechanical properties :
#
#
# Convention : Reuss Voigt Hill
#
# Bulk Modulus (GPa) = 9.58953 53.76573 31.67763
# Shear Modulus (GPa) = 8.05986 33.68422 20.87204
#
# Velocity S-wave (km/s) = 1.82738 3.73575 2.94067
# Velocity P-wave (km/s) = 2.90267 6.39403 4.96533
#
# Compressibility (1/GPa) = 0.10428039
#
# Stress axis : x y z
#
# Youngs Moduli (GPa) = 91.45841 57.92535 6.85975
#
# Poissons Ratio (x) = 0.32426 -0.03697
# Poissons Ratio (y) = 0.51197 0.23762
# Poissons Ratio (z) = -0.49297 2.00652
#
# Static dielectric constant tensor:
#      x y z
#    x 1.992250 0.015290 -0.007320 
#    y 0.015290 1.653830 -0.276340 
#    z -0.007320 -0.276340 1.690380 
# 
# From -- ./inp_files/110587.got.cif
#   From: 2010.05.17/outbox.cif.g08.bks.cpg/sg2_56_cif.got.tgz:110587.got - 2010.06.03 11:33:40.
