data_PCOD9093627
_publ_section_title
;
Structure prediction by ZEFSAII (Michael W. Deem and Ramdas Pophale) SiO2 
 PCOD9093627
Probable space group: P -1
;
_chemical_formula_sum "Si O2"
_cell_formula_units_Z 16
_cell_length_a 6.661481
_cell_length_b 18.551420
_cell_length_c 27.402078
_cell_angle_alpha 161.137098
_cell_angle_beta 72.034614
_cell_angle_gamma 116.862883
_cell_volume 889.445136
_symmetry_space_group_name_H-M "P -1"
_symmetry_group_IT_number 2
_symmetry_cell_setting 'triclinic'
loop_
_space_group_symop_operation_xyz
x,y,z
-x,-y,-z
loop_
_atom_site_type_symbol
_atom_site_label
_atom_site_fract_x
_atom_site_fract_y
_atom_site_fract_z
Si Si1 0.763864 0.182325 0.124313
Si Si2 0.156144 0.867851 0.264872
Si Si3 0.362138 0.536666 0.989060
Si Si4 0.160606 0.777607 0.322369
Si Si5 0.442608 0.471627 0.644990
Si Si6 0.010545 0.053664 0.108581
Si Si7 0.690723 0.649545 0.943563
Si Si8 0.634664 0.649170 0.314392
O O1 0.754807 0.442226 0.297189
O O2 0.825742 0.099866 0.118558
O O3 0.500000 0.000000 0.000000
O O4 0.953311 0.163219 0.061521
O O5 0.271183 0.727260 0.136062
O O6 0.131615 0.794205 0.276895
O O7 0.329173 0.178308 0.447198
O O8 0.877552 0.740942 0.185223
O O9 0.500000 0.500000 0.000000
O O10 0.539597 0.647352 0.000115
O O11 0.223397 0.556445 0.185335
O O12 0.912179 0.709264 0.325650
O O13 0.356331 0.076602 0.514424
O O14 0.718194 0.683981 0.742304
O O15 0.460274 0.466169 0.698981
O O16 0.907204 0.933889 0.092419
O O17 0.517458 0.540004 0.838959
#
# Coordination Sequence:
#
# PCOD9093627 Si02
#       8
#     2   2   2   2   2   2   2   2
#     4   9  17  34  53  82 118 157 189 218 273 341
#     4  10  22  42  60  83 111 149 198 239 288 342
#     4  11  23  41  62  83 110 149 196 244 294 331
#     4  10  20  35  55  86 118 149 183 230 291 342
#     4  10  21  38  59  83 121 155 186 230 280 346
#     4  10  21  34  54  86 118 154 190 225 280 341
#     4  12  21  35  58  86 117 149 189 237 280 340
#     4  10  20  33  54  87 123 149 181 228 282 345
#
# _framework density 17.988741000000001
#
# number of rings (size 3 to 8) (size 9 to 14) (size 15 to 20)
#    0.000    1.750    2.500    3.375    0.000    2.000 
#    2.250    0.625    0.000    1.500    0.000    0.000 
#    0.000    0.000    0.000    0.000    0.000    0.000 
#
# Total GULP energy -89240.122232 kJ/mol
# GULP energy per Si atom -5577.507640 kJ/mol
# Density = 1.794780 g / cm^3
# Si number density = 17.988741 Si / 1000 Ang^3
#
#
#
# Elastic Constant Matrix: (Units=GPa)
#
#
# Indices 1 2 3 4 5 6 
#
# 1 75.9200 41.1214 28.1808 13.1256 -4.7839 -5.3170
# 2 41.1214 127.8088 57.5584 12.1566 10.2545 14.0410
# 3 28.1808 57.5584 90.4517 11.5281 2.3482 4.5957
# 4 13.1256 12.1566 11.5281 27.7867 0.7201 1.2770
# 5 -4.7839 10.2545 2.3482 0.7201 19.3275 1.2234
# 6 -5.3170 14.0410 4.5957 1.2770 1.2234 23.5651
#
#
#
# Elastic Compliance Matrix: (Units=1/GPa)
#
#
# Indices 1 2 3 4 5 6 
#
# 1 0.019545 -0.006467 -0.001824 -0.006251 0.008183 0.008533
# 2 -0.006467 0.014388 -0.006518 0.000053 -0.007916 -0.008353
# 3 -0.001824 -0.006518 0.016104 -0.003018 0.001135 0.000436
# 4 -0.006251 0.000053 -0.003018 0.040369 -0.002529 -0.002910
# 5 0.008183 -0.007916 0.001135 -0.002529 0.057701 0.003483
# 6 0.008533 -0.008353 0.000436 -0.002910 0.003483 0.049230
#
#
# Mechanical properties :
#
#
# Convention : Reuss Voigt Hill
#
# Bulk Modulus (GPa) = 48.96870 60.87795 54.92333
# Shear Modulus (GPa) = 21.38946 25.29053 23.33999
#
# Velocity S-wave (km/s) = 3.45200 3.75361 3.60596
# Velocity P-wave (km/s) = 6.57034 7.25960 6.92355
#
# Compressibility (1/GPa) = 0.02042121
#
# Stress axis : x y z
#
# Youngs Moduli (GPa) = 51.16332 69.50419 62.09523
#
# Poissons Ratio (x) = 0.44945 0.11325
# Poissons Ratio (y) = 0.33085 0.40471
# Poissons Ratio (z) = 0.09331 0.45300
#
# Static dielectric constant tensor:
#      x y z
#    x 1.638400 0.007370 0.011890 
#    y 0.007370 1.607920 0.033180 
#    z 0.011890 0.033180 1.645240 
# 
# From -- ./inp_files/66335.got.cif
#   From: 2010.05.17/outbox.cif.g08.bks.cpg/sg2_34_cif.got.tgz:66335.got - 2010.06.03 11:33:40.
