data_PCOD9093424
_publ_section_title
;
Structure prediction by ZEFSAII (Michael W. Deem and Ramdas Pophale) SiO2 
 PCOD9093424
Probable space group: P -1
;
_chemical_formula_sum "Si O2"
_cell_formula_units_Z 13
_cell_length_a 13.817783
_cell_length_b 8.315890
_cell_length_c 6.952657
_cell_angle_alpha 121.872222
_cell_angle_beta 61.194792
_cell_angle_gamma 135.991494
_cell_volume 464.262804
_symmetry_space_group_name_H-M "P -1"
_symmetry_group_IT_number 2
_symmetry_cell_setting 'triclinic'
loop_
_space_group_symop_operation_xyz
x,y,z
-x,-y,-z
loop_
_atom_site_type_symbol
_atom_site_label
_atom_site_fract_x
_atom_site_fract_y
_atom_site_fract_z
Si Si1 0.176339 0.585615 0.466659
Si Si2 0.483989 0.760860 0.852386
Si Si3 0.025777 0.768451 0.873928
Si Si4 0.778368 0.039419 0.654284
Si Si5 0.000000 0.500000 0.000000
Si Si6 0.457721 0.737169 0.417514
Si Si7 0.716662 0.747332 0.159792
O O1 0.116992 0.661326 0.745494
O O2 0.235304 0.799654 0.387617
O O3 0.293776 0.566141 0.408068
O O4 0.045767 0.343278 0.333565
O O5 0.458745 0.687993 0.608921
O O6 0.360448 0.535024 0.948251
O O7 0.641216 0.856642 0.802051
O O8 0.500000 0.000000 0.000000
O O9 0.136935 0.053863 0.964465
O O10 0.918001 0.599441 0.034439
O O11 0.770863 0.861026 0.394724
O O12 0.900890 0.235338 0.801228
O O13 0.587594 0.748996 0.224214
O O14 0.500000 0.000000 0.500000
#
# Coordination Sequence:
#
# PCOD9093424 Si02
#       7
#     2   2   2   2   1   2   2
#     4   9  17  33  61  90 121 166 203 245 303 391
#     4  11  24  39  61  91 128 161 212 271 315 352
#     4   9  18  34  59  92 128 163 206 248 312 370
#     4   9  18  36  61  88 124 161 202 245 309 374
#     4  10  20  32  62  98 126 164 198 252 318 376
#     4  11  18  36  66  94 120 164 212 246 313 382
#     4  10  21  41  63  89 129 169 210 254 306 383
#
# _framework density 28.001379
#
# number of rings (size 3 to 8) (size 9 to 14) (size 15 to 20)
#    0.000    2.154    4.615    2.769    2.154    0.000 
#    0.000    5.385    3.385    1.846    0.000    0.000 
#    0.000    0.000    0.000    0.000    0.000    0.000 
#
# Total GULP energy -72485.123311 kJ/mol
# GULP energy per Si atom -5575.778716 kJ/mol
# Density = 2.793765 g / cm^3
# Si number density = 28.001379 Si / 1000 Ang^3
#
#
#
# Elastic Constant Matrix: (Units=GPa)
#
#
# Indices 1 2 3 4 5 6 
#
# 1 106.8254 19.3850 42.3700 9.7957 1.8532 33.3444
# 2 19.3850 177.7035 22.4479 38.1259 -6.3721 2.5019
# 3 42.3700 22.4479 97.5049 8.7534 6.8408 -3.6795
# 4 9.7957 38.1259 8.7534 47.1694 -2.9935 2.3298
# 5 1.8532 -6.3721 6.8408 -2.9935 46.0116 11.2356
# 6 33.3444 2.5019 -3.6795 2.3298 11.2356 39.4753
#
#
#
# Elastic Compliance Matrix: (Units=1/GPa)
#
#
# Indices 1 2 3 4 5 6 
#
# 1 0.018464 -0.000307 -0.008892 -0.000755 0.004817 -0.017732
# 2 -0.000307 0.006966 -0.001061 -0.005307 0.000840 -0.000207
# 3 -0.008892 -0.001061 0.015163 -0.000916 -0.004634 0.010365
# 4 -0.000755 -0.005307 -0.000916 0.025954 0.001373 -0.001034
# 5 0.004817 0.000840 -0.004634 0.001373 0.025326 -0.011843
# 6 -0.017732 -0.000207 0.010365 -0.001034 -0.011843 0.044722
#
#
# Mechanical properties :
#
#
# Convention : Reuss Voigt Hill
#
# Bulk Modulus (GPa) = 49.81642 61.15995 55.48818
# Shear Modulus (GPa) = 30.52383 46.38667 38.45525
#
# Velocity S-wave (km/s) = 3.30522 4.07453 3.70987
# Velocity P-wave (km/s) = 5.69169 6.63513 6.18143
#
# Compressibility (1/GPa) = 0.02007370
#
# Stress axis : x y z
#
# Youngs Moduli (GPa) = 54.15864 143.54626 65.95166
#
# Poissons Ratio (x) = 0.04400 0.58646
# Poissons Ratio (y) = 0.01660 0.06997
# Poissons Ratio (z) = 0.48159 0.15230
#
# Static dielectric constant tensor:
#      x y z
#    x 1.905540 0.861590 -0.822170 
#    y 0.861590 0.310150 1.546100 
#    z -0.822170 1.546100 0.967230 
# 
# From -- ./inp_files/221271.got.cif
#   From: 2010.05.17/outbox.cif.g08.bks.cpg/sg2_111_cif.got.tgz:221271.got - 2010.06.03 11:33:40.
