data_PCOD9093368
_publ_section_title
;
Structure prediction by ZEFSAII (Michael W. Deem and Ramdas Pophale) SiO2 
 PCOD9093368
Probable space group: P -1
;
_chemical_formula_sum "Si O2"
_cell_formula_units_Z 14
_cell_length_a 12.085841
_cell_length_b 9.404288
_cell_length_c 12.891378
_cell_angle_alpha 107.271428
_cell_angle_beta 24.751854
_cell_angle_gamma 115.772838
_cell_volume 533.474131
_symmetry_space_group_name_H-M "P -1"
_symmetry_group_IT_number 2
_symmetry_cell_setting 'triclinic'
loop_
_space_group_symop_operation_xyz
x,y,z
-x,-y,-z
loop_
_atom_site_type_symbol
_atom_site_label
_atom_site_fract_x
_atom_site_fract_y
_atom_site_fract_z
Si Si1 0.597451 0.746653 0.103202
Si Si2 0.837023 0.541270 0.243135
Si Si3 0.048008 0.742992 0.286413
Si Si4 0.578262 0.243480 0.525187
Si Si5 0.555007 0.620398 0.843901
Si Si6 0.201848 0.016651 0.622455
Si Si7 0.849651 0.120907 0.566904
O O1 0.598228 0.730470 0.224348
O O2 0.321665 0.769864 0.296572
O O3 0.562782 0.566836 0.061997
O O4 0.858502 0.923599 0.902915
O O5 0.500000 0.500000 0.500000
O O6 0.983141 0.719035 0.213438
O O7 0.826871 0.410107 0.310631
O O8 0.000000 0.500000 0.000000
O O9 0.295122 0.675719 0.072207
O O10 0.164520 0.900144 0.300590
O O11 0.739401 0.639837 0.583892
O O12 0.703234 0.122279 0.441721
O O13 0.376181 0.163404 0.581443
O O14 0.183988 0.240302 0.283964
O O15 0.264738 0.030895 0.448114
#
# Coordination Sequence:
#
# PCOD9093368 Si02
#       7
#     2   2   2   2   2   2   2
#     4  11  19  33  56  93 124 167 197 249 320 375
#     4  12  26  44  68  92 120 165 216 267 310 354
#     4  10  21  39  57  87 120 159 198 266 301 362
#     4  10  22  40  58  94 128 166 208 258 308 378
#     4  10  20  32  58  83 128 155 195 250 307 364
#     4  10  21  36  63  91 132 170 198 246 320 389
#     4   9  21  33  54  92 124 161 203 243 316 374
#
# _framework density 26.243069999999999
#
# number of rings (size 3 to 8) (size 9 to 14) (size 15 to 20)
#    0.857    0.857    1.429    3.429    4.000    1.143 
#    0.000    0.000    0.000    1.714    0.000    0.000 
#    0.000    0.000    0.000    0.000    0.000    0.000 
#
# Total GULP energy -78146.272109 kJ/mol
# GULP energy per Si atom -5581.876579 kJ/mol
# Density = 2.618334 g / cm^3
# Si number density = 26.243070 Si / 1000 Ang^3
#
#
#
# Elastic Constant Matrix: (Units=GPa)
#
#
# Indices 1 2 3 4 5 6 
#
# 1 149.5727 47.0928 37.6494 14.6345 -9.1073 39.2196
# 2 47.0928 108.3121 38.6932 -5.3379 8.6507 25.2576
# 3 37.6494 38.6932 127.8816 12.9361 0.3683 13.2259
# 4 14.6345 -5.3379 12.9361 33.4463 9.2669 13.1864
# 5 -9.1073 8.6507 0.3683 9.2669 49.1545 10.7320
# 6 39.2196 25.2576 13.2259 13.1864 10.7320 57.7051
#
#
#
# Elastic Compliance Matrix: (Units=1/GPa)
#
#
# Indices 1 2 3 4 5 6 
#
# 1 0.009908 -0.003280 -0.001050 -0.003643 0.004201 -0.005006
# 2 -0.003280 0.013444 -0.003438 0.007421 -0.003493 -0.003913
# 3 -0.001050 -0.003438 0.009521 -0.004380 0.000978 0.000855
# 4 -0.003643 0.007421 -0.004380 0.039416 -0.007779 -0.007329
# 5 0.004201 -0.003493 0.000978 -0.007779 0.024126 -0.004260
# 6 -0.005006 -0.003913 0.000855 -0.007329 -0.004260 0.024716
#
#
# Mechanical properties :
#
#
# Convention : Reuss Voigt Hill
#
# Bulk Modulus (GPa) = 57.68366 70.29302 63.98834
# Shear Modulus (GPa) = 35.10100 45.54994 40.32547
#
# Velocity S-wave (km/s) = 3.66120 4.17069 3.92422
# Velocity P-wave (km/s) = 6.31670 7.07364 6.70586
#
# Compressibility (1/GPa) = 0.01733593
#
# Stress axis : x y z
#
# Youngs Moduli (GPa) = 100.93180 74.38149 105.03147
#
# Poissons Ratio (x) = 0.24398 0.11032
# Poissons Ratio (y) = 0.33107 0.36110
# Poissons Ratio (z) = 0.10601 0.25573
#
# Static dielectric constant tensor:
#      x y z
#    x 2.122260 0.030420 0.056750 
#    y 0.030420 2.063080 0.065250 
#    z 0.056750 0.065250 2.124350 
# 
# From -- ./inp_files/426274.got.cif
#   From: 2010.05.17/outbox.cif.g08.bks.cpg/sg2_214_cif.got.tgz:426274.got - 2010.06.03 11:33:40.
