data_PCOD9093766
_publ_section_title
;
Structure prediction by ZEFSAII (Michael W. Deem and Ramdas Pophale) SiO2 
 PCOD9093766
Probable space group: P -1
;
_chemical_formula_sum "Si O2"
_cell_formula_units_Z 12
_cell_length_a 12.074624
_cell_length_b 6.880625
_cell_length_c 9.149413
_cell_angle_alpha 131.944622
_cell_angle_beta 99.760370
_cell_angle_gamma 104.039101
_cell_volume 487.121224
_symmetry_space_group_name_H-M "P -1"
_symmetry_group_IT_number 2
_symmetry_cell_setting 'triclinic'
loop_
_space_group_symop_operation_xyz
x,y,z
-x,-y,-z
loop_
_atom_site_type_symbol
_atom_site_label
_atom_site_fract_x
_atom_site_fract_y
_atom_site_fract_z
Si Si1 0.012325 0.247849 0.969043
Si Si2 0.591768 0.368333 0.492649
Si Si3 0.317315 0.020842 0.815250
Si Si4 0.155300 0.390173 0.495060
Si Si5 0.301914 0.565037 0.141439
Si Si6 0.222142 0.782483 0.965257
O O1 0.162275 0.389662 0.101647
O O2 0.962667 0.930945 0.719634
O O3 0.907717 0.192408 0.041858
O O4 0.000000 0.500000 0.000000
O O5 0.500000 0.500000 0.500000
O O6 0.578474 0.060162 0.266377
O O7 0.724327 0.603997 0.558400
O O8 0.602773 0.327030 0.646996
O O9 0.179374 0.715312 0.601539
O O10 0.320851 0.018581 0.991509
O O11 0.323724 0.327586 0.932038
O O12 0.179790 0.470402 0.712086
O O13 0.284308 0.781710 0.133335
#
# Coordination Sequence:
#
# PCOD9093766 Si02
#       6
#     2   2   2   2   2   2
#     4  10  20  33  57  87 118 150 183 228 277 344
#     4   9  21  39  58  82 112 148 194 240 280 329
#     4   8  21  37  54  83 115 149 182 239 278 331
#     4   8  20  38  52  82 118 145 181 236 281 325
#     4  11  20  34  60  84 111 155 192 220 285 340
#     4   8  20  36  54  83 118 147 184 227 277 338
#
# _framework density 24.634525
#
# number of rings (size 3 to 8) (size 9 to 14) (size 15 to 20)
#    2.000    0.667    0.000    1.000    0.000   10.667 
#    0.000    3.333    0.000   17.000    0.000    0.000 
#    0.000    0.000    0.000    0.000    0.000    0.000 
#
# Total GULP energy -66822.123152 kJ/mol
# GULP energy per Si atom -5568.510263 kJ/mol
# Density = 2.457846 g / cm^3
# Si number density = 24.634525 Si / 1000 Ang^3
#
#
#
# Elastic Constant Matrix: (Units=GPa)
#
#
# Indices 1 2 3 4 5 6 
#
# 1 89.3482 19.8186 28.2797 4.7754 -8.7684 -24.4734
# 2 19.8186 69.1239 26.8571 9.0958 -0.1547 -16.3768
# 3 28.2797 26.8571 77.2288 -5.9758 -6.7697 -4.9947
# 4 4.7754 9.0958 -5.9758 31.3813 -5.9584 1.9152
# 5 -8.7684 -0.1547 -6.7697 -5.9584 25.5662 1.1925
# 6 -24.4734 -16.3768 -4.9947 1.9152 1.1925 27.6972
#
#
#
# Elastic Compliance Matrix: (Units=1/GPa)
#
#
# Indices 1 2 3 4 5 6 
#
# 1 0.017550 0.001699 -0.006155 -0.004805 0.002551 0.015625
# 2 0.001699 0.021824 -0.008480 -0.009888 -0.004476 0.013753
# 3 -0.006155 -0.008480 0.018743 0.008418 0.005130 -0.007876
# 4 -0.004805 -0.009888 0.008418 0.039747 0.010334 -0.011767
# 5 0.002551 -0.004476 0.005130 0.010334 0.043825 -0.002069
# 6 0.015625 0.013753 -0.007876 -0.011767 -0.002069 0.057525
#
#
# Mechanical properties :
#
#
# Convention : Reuss Voigt Hill
#
# Bulk Modulus (GPa) = 31.01168 42.84574 36.92871
# Shear Modulus (GPa) = 21.20141 27.64532 24.42336
#
# Velocity S-wave (km/s) = 2.93685 3.35359 3.15211
# Velocity P-wave (km/s) = 4.91082 5.69436 5.31704
#
# Compressibility (1/GPa) = 0.03224591
#
# Stress axis : x y z
#
# Youngs Moduli (GPa) = 56.97895 45.82192 53.35305
#
# Poissons Ratio (x) = -0.07787 0.32840
# Poissons Ratio (y) = -0.09683 0.45242
# Poissons Ratio (z) = 0.35072 0.38856
#
# Static dielectric constant tensor:
#      x y z
#    x 1.989590 0.061960 0.012510 
#    y 0.061960 1.966150 0.043600 
#    z 0.012510 0.043600 2.047990 
# 
# From -- ./inp_files/236233.got.cif
#   From: 2010.05.17/outbox.cif.g08.bks.cpg/sg2_119_cif.got.tgz:236233.got - 2010.06.03 11:33:40.
