data_PCOD9093156
_publ_section_title
;
Structure prediction by ZEFSAII (Michael W. Deem and Ramdas Pophale) SiO2 
 PCOD9093156
Probable space group: P -1
;
_chemical_formula_sum "Si O2"
_cell_formula_units_Z 16
_cell_length_a 15.500964
_cell_length_b 15.727608
_cell_length_c 16.432982
_cell_angle_alpha 41.311397
_cell_angle_beta 161.762695
_cell_angle_gamma 140.236835
_cell_volume 797.483251
_symmetry_space_group_name_H-M "P -1"
_symmetry_group_IT_number 2
_symmetry_cell_setting 'triclinic'
loop_
_space_group_symop_operation_xyz
x,y,z
-x,-y,-z
loop_
_atom_site_type_symbol
_atom_site_label
_atom_site_fract_x
_atom_site_fract_y
_atom_site_fract_z
Si Si1 0.797933 0.348782 0.430346
Si Si2 0.578574 0.937988 0.969212
Si Si3 0.702805 0.405889 0.766501
Si Si4 0.494416 0.554497 0.759336
Si Si5 0.897826 0.444315 0.746131
Si Si6 0.183505 0.722996 0.890956
Si Si7 0.897527 0.926866 0.546678
Si Si8 0.347095 0.281041 0.928412
O O1 0.618889 0.347818 0.352722
O O2 0.000000 0.500000 0.500000
O O3 0.026824 0.262931 0.688710
O O4 0.580061 0.323182 0.178203
O O5 0.380365 0.832908 0.930102
O O6 0.405513 0.048483 0.721139
O O7 0.877295 0.001894 0.234448
O O8 0.617214 0.850284 0.989930
O O9 0.500000 0.500000 0.500000
O O10 0.769675 0.356628 0.773235
O O11 0.618014 0.307195 0.837328
O O12 0.000000 0.500000 0.000000
O O13 0.338536 0.550555 0.536022
O O14 0.407726 0.405718 0.829148
O O15 0.835143 0.596470 0.024455
O O16 0.037368 0.593432 0.799915
O O17 0.947929 0.781687 0.683054
O O18 0.000000 0.000000 0.500000
#
# Coordination Sequence:
#
# PCOD9093156 Si02
#       8
#     2   2   2   2   2   2   2   2
#     4  10  20  32  48  72 101 133 166 200 253 308
#     4  11  22  33  52  75 100 136 181 202 247 306
#     4  10  22  35  49  74  99 133 178 215 245 298
#     4  11  20  32  50  72 102 132 169 202 248 305
#     4  11  21  32  52  74  99 136 177 201 244 307
#     4  10  21  36  52  68 107 140 169 211 259 276
#     4  10  22  34  49  73  99 133 180 217 242 294
#     4  11  20  32  50  71 104 134 167 203 250 305
#
# _framework density 20.063117999999999
#
# number of rings (size 3 to 8) (size 9 to 14) (size 15 to 20)
#    0.000    1.500    1.250    7.500    3.500    5.000 
#    0.000    0.000    0.000    0.000    0.000    0.000 
#    0.000   20.000    0.000    0.000    0.000    0.000 
#
# Total GULP energy -89384.895200 kJ/mol
# GULP energy per Si atom -5586.555950 kJ/mol
# Density = 2.001745 g / cm^3
# Si number density = 20.063118 Si / 1000 Ang^3
#
#
#
# Elastic Constant Matrix: (Units=GPa)
#
#
# Indices 1 2 3 4 5 6 
#
# 1 74.1546 26.1863 25.4881 -9.1093 4.3744 -28.4183
# 2 26.1863 51.8348 26.7886 -4.1154 -4.0060 -20.1336
# 3 25.4881 26.7886 143.9698 -0.1759 -8.3532 -21.1413
# 4 -9.1093 -4.1154 -0.1759 29.2852 -16.3158 2.6334
# 5 4.3744 -4.0060 -8.3532 -16.3158 43.7041 0.4891
# 6 -28.4183 -20.1336 -21.1413 2.6334 0.4891 30.8524
#
#
#
# Elastic Compliance Matrix: (Units=1/GPa)
#
#
# Indices 1 2 3 4 5 6 
#
# 1 0.022287 -0.004029 -0.000770 0.004030 -0.001434 0.017050
# 2 -0.004029 0.028036 -0.002441 0.003614 0.003715 0.012544
# 3 -0.000770 -0.002441 0.008087 -0.000082 0.001332 0.003225
# 4 0.004030 0.003614 -0.000082 0.045044 0.016707 0.001904
# 5 -0.001434 0.003715 0.001332 0.016707 0.029856 0.000117
# 6 0.017050 0.012544 0.003225 0.001904 0.000117 0.058348
#
#
# Mechanical properties :
#
#
# Convention : Reuss Voigt Hill
#
# Bulk Modulus (GPa) = 22.76475 47.43169 35.09822
# Shear Modulus (GPa) = 22.64677 33.53477 28.09077
#
# Velocity S-wave (km/s) = 3.36337 4.09279 3.74588
# Velocity P-wave (km/s) = 5.14337 6.78433 6.02002
#
# Compressibility (1/GPa) = 0.04392757
#
# Stress axis : x y z
#
# Youngs Moduli (GPa) = 44.87018 35.66903 123.65050
#
# Poissons Ratio (x) = 0.14372 0.09526
# Poissons Ratio (y) = 0.18079 0.30187
# Poissons Ratio (z) = 0.03457 0.08708
#
# Static dielectric constant tensor:
#      x y z
#    x 1.767950 0.027670 0.048690 
#    y 0.027670 1.747830 -0.015050 
#    z 0.048690 -0.015050 1.746730 
# 
# From -- ./inp_files/454763.got.cif
#   From: 2010.05.17/outbox.cif.g08.bks.cpg/sg2_228_cif.got.tgz:454763.got - 2010.06.03 11:33:40.
