data_PCOD9093531
_publ_section_title
;
Structure prediction by ZEFSAII (Michael W. Deem and Ramdas Pophale) SiO2 
 PCOD9093531
Probable space group: P -1
;
_chemical_formula_sum "Si O2"
_cell_formula_units_Z 16
_cell_length_a 12.087523
_cell_length_b 11.105692
_cell_length_c 14.629995
_cell_angle_alpha 28.852371
_cell_angle_beta 53.262425
_cell_angle_gamma 72.937773
_cell_volume 609.832659
_symmetry_space_group_name_H-M "P -1"
_symmetry_group_IT_number 2
_symmetry_cell_setting 'triclinic'
loop_
_space_group_symop_operation_xyz
x,y,z
-x,-y,-z
loop_
_atom_site_type_symbol
_atom_site_label
_atom_site_fract_x
_atom_site_fract_y
_atom_site_fract_z
Si Si1 0.406072 0.902551 0.015585
Si Si2 0.722362 0.066807 0.648629
Si Si3 0.147981 0.691065 0.874974
Si Si4 0.122514 0.187719 0.664391
Si Si5 0.983201 0.663536 0.533572
Si Si6 0.563482 0.104404 0.546336
Si Si7 0.759568 0.598890 0.835344
Si Si8 0.717504 0.919750 0.190657
O O1 0.242873 0.551968 0.339830
O O2 0.530440 0.878838 0.905090
O O3 0.379297 0.138720 0.819901
O O4 0.500000 0.000000 0.000000
O O5 0.749443 0.842432 0.731367
O O6 0.713904 0.266671 0.441274
O O7 0.848200 0.217457 0.571028
O O8 0.328534 0.811149 0.656053
O O9 0.148687 0.954864 0.753044
O O10 0.130145 0.470221 0.110851
O O11 0.000000 0.500000 0.000000
O O12 0.962976 0.147652 0.714972
O O13 0.173583 0.184202 0.747043
O O14 0.866416 0.739199 0.596286
O O15 0.862571 0.290486 0.857215
O O16 0.430152 0.176381 0.595942
O O17 0.429194 0.725920 0.867112
#
# Coordination Sequence:
#
# PCOD9093531 Si02
#       8
#     2   2   2   2   2   2   2   2
#     4  10  24  44  67  89 112 157 216 262 304 348
#     4  11  21  36  59  87 121 158 203 256 295 358
#     4  12  22  32  54  93 129 165 200 235 291 371
#     4  11  21  40  63  82 129 164 194 248 303 353
#     4  10  20  37  57  90 126 158 193 234 305 369
#     4  10  20  33  52  82 123 160 201 239 292 366
#     4  11  20  34  53  86 129 160 200 232 300 369
#     4   9  21  40  62  88 116 162 194 250 308 365
#
# _framework density 26.236704
#
# number of rings (size 3 to 8) (size 9 to 14) (size 15 to 20)
#    0.000    1.500    2.500    4.875    1.750    0.500 
#    0.000    2.500    0.000    1.500    0.000    0.000 
#    0.000    0.000    0.000    0.000    0.000    0.000 
#
# Total GULP energy -89249.506490 kJ/mol
# GULP energy per Si atom -5578.094156 kJ/mol
# Density = 2.617699 g / cm^3
# Si number density = 26.236704 Si / 1000 Ang^3
#
#
#
# Elastic Constant Matrix: (Units=GPa)
#
#
# Indices 1 2 3 4 5 6 
#
# 1 177.1802 14.4063 42.0330 6.3499 17.0295 30.1128
# 2 14.4063 84.1879 14.0046 11.5584 0.4065 -8.5829
# 3 42.0330 14.0046 49.6806 9.6779 7.3758 -11.0828
# 4 6.3499 11.5584 9.6779 26.1529 0.5259 -7.5972
# 5 17.0295 0.4065 7.3758 0.5259 35.9919 -1.9177
# 6 30.1128 -8.5829 -11.0828 -7.5972 -1.9177 37.6589
#
#
#
# Elastic Compliance Matrix: (Units=1/GPa)
#
#
# Indices 1 2 3 4 5 6 
#
# 1 0.010857 -0.001088 -0.010832 -0.001750 -0.003553 -0.012651
# 2 -0.001088 0.013161 -0.001508 -0.004253 0.000877 0.002613
# 3 -0.010832 -0.001508 0.034638 -0.004396 -0.000955 0.017576
# 4 -0.001750 -0.004253 -0.004396 0.044518 0.001563 0.008197
# 5 -0.003553 0.000877 -0.000955 0.001563 0.029873 0.004596
# 6 -0.012651 0.002613 0.017576 0.008197 0.004596 0.044326
#
#
# Mechanical properties :
#
#
# Convention : Reuss Voigt Hill
#
# Bulk Modulus (GPa) = 31.44849 50.21516 40.83182
# Shear Modulus (GPa) = 23.27427 36.00106 29.63766
#
# Velocity S-wave (km/s) = 2.98163 3.70829 3.36464
# Velocity P-wave (km/s) = 4.88528 6.12504 5.53995
#
# Compressibility (1/GPa) = 0.03179803
#
# Stress axis : x y z
#
# Youngs Moduli (GPa) = 92.10977 75.98020 28.87018
#
# Poissons Ratio (x) = 0.08268 0.31273
# Poissons Ratio (y) = 0.10023 0.04354
# Poissons Ratio (z) = 0.99777 0.11460
#
# Static dielectric constant tensor:
#      x y z
#    x 2.662670 0.310520 -0.309350 
#    y 0.310520 2.309960 -0.080550 
#    z -0.309350 -0.080550 2.214050 
# 
# From -- ./inp_files/348590.got.cif
#   From: 2010.05.17/outbox.cif.g08.bks.cpg/sg2_175_cif.got.tgz:348590.got - 2010.06.03 11:33:40.
