data_PCOD9093248
_publ_section_title
;
Structure prediction by ZEFSAII (Michael W. Deem and Ramdas Pophale) SiO2 
 PCOD9093248
Probable space group: P -1
;
_chemical_formula_sum "Si O2"
_cell_formula_units_Z 12
_cell_length_a 10.763601
_cell_length_b 9.317308
_cell_length_c 7.118221
_cell_angle_alpha 84.173773
_cell_angle_beta 115.900754
_cell_angle_gamma 55.119623
_cell_volume 463.271122
_symmetry_space_group_name_H-M "P -1"
_symmetry_group_IT_number 2
_symmetry_cell_setting 'triclinic'
loop_
_space_group_symop_operation_xyz
x,y,z
-x,-y,-z
loop_
_atom_site_type_symbol
_atom_site_label
_atom_site_fract_x
_atom_site_fract_y
_atom_site_fract_z
Si Si1 0.290969 0.925650 0.599169
Si Si2 0.157336 0.681474 0.263151
Si Si3 0.285581 0.637456 0.766796
Si Si4 0.240486 0.915607 0.141608
Si Si5 0.264644 0.415826 0.065924
Si Si6 0.524963 0.000146 0.742032
O O1 0.210812 0.857169 0.685765
O O2 0.201173 0.989766 0.324915
O O3 0.509530 0.716703 0.729846
O O4 0.339344 0.050631 0.692405
O O5 0.259327 0.608076 0.538825
O O6 0.257894 0.731322 0.190019
O O7 0.162752 0.527517 0.177114
O O8 0.945551 0.895600 0.111596
O O9 0.500000 0.500000 0.000000
O O10 0.193731 0.577104 0.839638
O O11 0.424062 0.872440 0.199744
O O12 0.290043 0.230594 0.054395
O O13 0.500000 0.000000 0.500000
#
# Coordination Sequence:
#
# PCOD9093248 Si02
#       6
#     2   2   2   2   2   2
#     4   7  15  30  52  71  93 135 163 194 245 289
#     4  10  20  32  52  80  95 132 170 202 245 294
#     4   9  17  32  51  76 102 125 163 216 240 283
#     4   9  17  32  49  74 109 126 160 210 250 286
#     4   9  18  32  56  76  93 131 177 194 242 302
#     4   8  15  31  52  74  97 135 161 200 254 290
#
# _framework density 25.902761000000002
#
# number of rings (size 3 to 8) (size 9 to 14) (size 15 to 20)
#    1.000    2.333    0.000    0.000    0.000    6.667 
#    0.000    8.333    0.000    8.000    0.000    0.000 
#    0.000    0.000    0.000    0.000    0.000    0.000 
#
# Total GULP energy -66907.947470 kJ/mol
# GULP energy per Si atom -5575.662289 kJ/mol
# Density = 2.584381 g / cm^3
# Si number density = 25.902761 Si / 1000 Ang^3
#
#
#
# Elastic Constant Matrix: (Units=GPa)
#
#
# Indices 1 2 3 4 5 6 
#
# 1 61.1506 24.2051 28.1316 -11.8572 -11.3061 29.5104
# 2 24.2051 76.0470 26.3125 8.4804 -7.5206 7.2857
# 3 28.1316 26.3125 102.6643 -11.0818 -14.1852 -2.8082
# 4 -11.8572 8.4804 -11.0818 19.0352 2.9322 1.5189
# 5 -11.3061 -7.5206 -14.1852 2.9322 36.5104 -1.8217
# 6 29.5104 7.2857 -2.8082 1.5189 -1.8217 43.1577
#
#
#
# Elastic Compliance Matrix: (Units=1/GPa)
#
#
# Indices 1 2 3 4 5 6 
#
# 1 0.046504 -0.012908 -0.006010 0.032884 0.005222 -0.030947
# 2 -0.012908 0.020155 -0.003493 -0.019629 0.000669 0.005915
# 3 -0.006010 -0.003493 0.013285 0.004727 0.002476 0.005502
# 4 0.032884 -0.019629 0.004727 0.086269 -0.000045 -0.021903
# 5 0.005222 0.000669 0.002476 -0.000045 0.029997 -0.002255
# 6 -0.030947 0.005915 0.005502 -0.021903 -0.002255 0.044367
#
#
# Mechanical properties :
#
#
# Convention : Reuss Voigt Hill
#
# Bulk Modulus (GPa) = 28.47216 44.12890 36.30053
# Shear Modulus (GPa) = 16.82894 30.48818 23.65856
#
# Velocity S-wave (km/s) = 2.55168 3.43450 3.02546
# Velocity P-wave (km/s) = 4.43816 5.72722 5.12339
#
# Compressibility (1/GPa) = 0.03512203
#
# Stress axis : x y z
#
# Youngs Moduli (GPa) = 21.50373 49.61494 75.27065
#
# Poissons Ratio (x) = 0.64043 0.45236
# Poissons Ratio (y) = 0.27757 0.26294
# Poissons Ratio (z) = 0.12923 0.17332
#
# Static dielectric constant tensor:
#      x y z
#    x 2.155400 0.086310 -0.023680 
#    y 0.086310 2.010200 -0.004730 
#    z -0.023680 -0.004730 2.024040 
# 
# From -- ./inp_files/240031.got.cif
#   From: 2010.05.17/outbox.cif.g08.bks.cpg/sg2_121_cif.got.tgz:240031.got - 2010.06.03 11:33:40.
