data_PCOD9093534
_publ_section_title
;
Structure prediction by ZEFSAII (Michael W. Deem and Ramdas Pophale) SiO2 
 PCOD9093534
Probable space group: P -1
;
_chemical_formula_sum "Si O2"
_cell_formula_units_Z 14
_cell_length_a 8.611760
_cell_length_b 7.221296
_cell_length_c 11.924899
_cell_angle_alpha 127.694154
_cell_angle_beta 86.841071
_cell_angle_gamma 81.502145
_cell_volume 570.251485
_symmetry_space_group_name_H-M "P -1"
_symmetry_group_IT_number 2
_symmetry_cell_setting 'triclinic'
loop_
_space_group_symop_operation_xyz
x,y,z
-x,-y,-z
loop_
_atom_site_type_symbol
_atom_site_label
_atom_site_fract_x
_atom_site_fract_y
_atom_site_fract_z
Si Si1 0.707414 0.383464 0.175181
Si Si2 0.123295 0.664966 0.063399
Si Si3 0.427691 0.310316 0.021888
Si Si4 0.689737 0.811661 0.501045
Si Si5 0.352462 0.737427 0.487503
Si Si6 0.994190 0.916160 0.600126
Si Si7 0.458880 0.189491 0.213475
O O1 0.551272 0.447897 0.124657
O O2 0.728320 0.618762 0.326551
O O3 0.644121 0.213144 0.202148
O O4 0.843864 0.265865 0.040027
O O5 0.281284 0.490768 0.042287
O O6 0.063670 0.876210 0.230940
O O7 0.000000 0.500000 0.000000
O O8 0.376469 0.190982 0.093272
O O9 0.521659 0.089768 0.858694
O O10 0.521184 0.776474 0.546891
O O11 0.850846 0.773855 0.553905
O O12 0.659869 0.080299 0.550574
O O13 0.376125 0.457888 0.355151
O O14 0.180150 0.804327 0.577733
O O15 0.000000 0.000000 0.500000
#
# Coordination Sequence:
#
# PCOD9093534 Si02
#       7
#     2   2   2   2   2   2   2
#     4   9  19  36  57  89 110 143 196 244 289 335
#     4  12  23  35  55  89 124 147 187 245 302 335
#     4   9  18  36  58  84 113 154 190 238 289 350
#     4   9  17  31  57  83 111 146 197 240 283 339
#     4   9  16  30  52  82 107 141 191 234 277 336
#     4  10  20  33  52  84 116 151 189 241 281 343
#     4   8  17  34  62  83 110 150 201 234 282 351
#
# _framework density 24.55057
#
# number of rings (size 3 to 8) (size 9 to 14) (size 15 to 20)
#    0.857    1.714    0.000    3.857    2.000    0.000 
#    2.571    0.714    6.286    4.286    0.000    3.000 
#    0.000    0.000    0.000    0.000    0.000    0.000 
#
# Total GULP energy -77964.889019 kJ/mol
# GULP energy per Si atom -5568.920644 kJ/mol
# Density = 2.449469 g / cm^3
# Si number density = 24.550570 Si / 1000 Ang^3
#
#
#
# Elastic Constant Matrix: (Units=GPa)
#
#
# Indices 1 2 3 4 5 6 
#
# 1 171.5006 18.0985 78.7950 1.0636 7.9385 11.2948
# 2 18.0985 70.8765 45.0350 10.0466 -7.7333 6.6220
# 3 78.7950 45.0350 211.4553 35.7852 3.8047 -4.1816
# 4 1.0636 10.0466 35.7852 22.2318 2.2572 -0.6208
# 5 7.9385 -7.7333 3.8047 2.2572 41.7759 0.2593
# 6 11.2948 6.6220 -4.1816 -0.6208 0.2593 19.8174
#
#
#
# Elastic Compliance Matrix: (Units=1/GPa)
#
#
# Indices 1 2 3 4 5 6 
#
# 1 0.008130 0.000020 -0.004185 0.006339 -0.001470 -0.005305
# 2 0.000020 0.017806 -0.003496 -0.002998 0.003815 -0.006843
# 3 -0.004185 -0.003496 0.009358 -0.013138 -0.000026 0.005117
# 4 0.006339 -0.002998 -0.013138 0.067515 -0.004191 -0.003214
# 5 -0.001470 0.003815 -0.000026 -0.004191 0.025157 -0.000903
# 6 -0.005305 -0.006843 0.005117 -0.003214 -0.000903 0.056762
#
#
# Mechanical properties :
#
#
# Convention : Reuss Voigt Hill
#
# Bulk Modulus (GPa) = 50.07169 81.96549 66.01859
# Shear Modulus (GPa) = 24.18880 37.55860 30.87370
#
# Velocity S-wave (km/s) = 3.14230 3.91557 3.55005
# Velocity P-wave (km/s) = 5.79698 7.34174 6.61461
#
# Compressibility (1/GPa) = 0.01997136
#
# Stress axis : x y z
#
# Youngs Moduli (GPa) = 123.00709 56.16051 106.85889
#
# Poissons Ratio (x) = -0.00112 0.44719
# Poissons Ratio (y) = -0.00245 0.37361
# Poissons Ratio (z) = 0.51477 0.19635
#
# Static dielectric constant tensor:
#      x y z
#    x 2.022580 0.034440 0.006500 
#    y 0.034440 2.149950 -0.226240 
#    z 0.006500 -0.226240 2.190960 
# 
# From -- ./inp_files/495812.got.cif
#   From: 2010.05.17/outbox.cif.g08.bks.cpg/sg2_248_cif.got.tgz:495812.got - 2010.06.03 11:33:40.
