data_PCOD9093580
_publ_section_title
;
Structure prediction by ZEFSAII (Michael W. Deem and Ramdas Pophale) SiO2 
 PCOD9093580
Probable space group: P -1
;
_chemical_formula_sum "Si O2"
_cell_formula_units_Z 16
_cell_length_a 14.301269
_cell_length_b 9.660033
_cell_length_c 9.844433
_cell_angle_alpha 134.092086
_cell_angle_beta 45.103597
_cell_angle_gamma 130.859974
_cell_volume 655.432356
_symmetry_space_group_name_H-M "P -1"
_symmetry_group_IT_number 2
_symmetry_cell_setting 'triclinic'
loop_
_space_group_symop_operation_xyz
x,y,z
-x,-y,-z
loop_
_atom_site_type_symbol
_atom_site_label
_atom_site_fract_x
_atom_site_fract_y
_atom_site_fract_z
Si Si1 0.646576 0.898312 0.913314
Si Si2 0.885919 0.194851 0.010495
Si Si3 0.535798 0.288776 0.257951
Si Si4 0.161167 0.506828 0.958003
Si Si5 0.125511 0.646952 0.384776
Si Si6 0.434659 0.224169 0.607368
Si Si7 0.577437 0.249880 0.741893
Si Si8 0.146802 0.981283 0.793536
O O1 0.602783 0.777008 0.736418
O O2 0.803928 0.994056 0.870881
O O3 0.548617 0.764394 0.037803
O O4 0.589556 0.090588 0.081421
O O5 0.852865 0.376160 0.086822
O O6 0.827159 0.152425 0.195627
O O7 0.053763 0.279350 0.901936
O O8 0.494651 0.330081 0.478465
O O9 0.674829 0.448442 0.164070
O O10 0.112618 0.605356 0.208770
O O11 0.273801 0.628366 0.266205
O O12 0.133054 0.867117 0.585777
O O13 0.000000 0.500000 0.500000
O O14 0.542245 0.319021 0.680169
O O15 0.426916 0.985949 0.432493
O O16 0.276807 0.185588 0.792273
O O17 0.000000 0.000000 0.000000
#
# Coordination Sequence:
#
# PCOD9093580 Si02
#       8
#     2   2   2   2   2   2   2   2
#     4   9  15  27  45  76 109 136 171 226 284 322
#     4  10  20  33  54  81 116 148 179 232 289 336
#     4   9  17  27  49  79 111 137 172 235 291 328
#     4  10  20  33  53  88 117 138 180 241 302 326
#     4  11  21  34  57  87 115 146 189 236 287 338
#     4   9  18  30  52  77 109 144 188 230 276 329
#     4   9  16  27  49  80 106 132 183 240 276 315
#     4  11  23  38  55  81 116 156 191 228 281 341
#
# _framework density 24.411369000000001
#
# number of rings (size 3 to 8) (size 9 to 14) (size 15 to 20)
#    0.000    2.250    3.750    0.000   10.500    0.000 
#    0.000    0.625    0.000    1.500    0.000    0.000 
#    0.000    0.000    0.000    0.000    0.000    0.000 
#
# Total GULP energy -89370.629324 kJ/mol
# GULP energy per Si atom -5585.664333 kJ/mol
# Density = 2.435581 g / cm^3
# Si number density = 24.411369 Si / 1000 Ang^3
#
#
#
# Elastic Constant Matrix: (Units=GPa)
#
#
# Indices 1 2 3 4 5 6 
#
# 1 96.0386 48.9666 55.0536 -6.4246 26.5714 31.9411
# 2 48.9666 112.6631 53.2062 -28.6140 9.0992 18.5399
# 3 55.0536 53.2062 98.7889 -19.3417 12.8220 2.1851
# 4 -6.4246 -28.6140 -19.3417 45.3135 -4.8362 -0.4284
# 5 26.5714 9.0992 12.8220 -4.8362 36.3627 -7.0466
# 6 31.9411 18.5399 2.1851 -0.4284 -7.0466 47.9282
#
#
#
# Elastic Compliance Matrix: (Units=1/GPa)
#
#
# Indices 1 2 3 4 5 6 
#
# 1 0.037512 -0.003946 -0.016102 -0.007168 -0.026884 -0.026755
# 2 -0.003946 0.014846 -0.004522 0.006985 0.001174 -0.002672
# 3 -0.016102 -0.004522 0.021092 0.004903 0.008598 0.012827
# 4 -0.007168 0.006985 0.004903 0.028235 0.006098 0.003001
# 5 -0.026884 0.001174 0.008598 0.006098 0.049356 0.024381
# 6 -0.026755 -0.002672 0.012827 0.003001 0.024381 0.042755
#
#
# Mechanical properties :
#
#
# Convention : Reuss Voigt Hill
#
# Bulk Modulus (GPa) = 41.13731 69.10480 55.12105
# Shear Modulus (GPa) = 19.91726 35.93850 27.92788
#
# Velocity S-wave (km/s) = 2.85950 3.84109 3.38605
# Velocity P-wave (km/s) = 5.27168 6.93123 6.15762
#
# Compressibility (1/GPa) = 0.02430883
#
# Stress axis : x y z
#
# Youngs Moduli (GPa) = 26.65832 67.36037 47.41143
#
# Poissons Ratio (x) = 0.26579 0.76342
# Poissons Ratio (y) = 0.10519 0.21441
# Poissons Ratio (z) = 0.42925 0.30463
#
# Static dielectric constant tensor:
#      x y z
#    x 2.035860 -0.043840 -0.024290 
#    y -0.043840 2.011090 0.048890 
#    z -0.024290 0.048890 1.903320 
# 
# From -- ./inp_files/303830.got.cif
#   From: 2010.05.17/outbox.cif.g08.bks.cpg/sg2_152_cif.got.tgz:303830.got - 2010.06.03 11:33:40.
