data_PCOD9093586
_publ_section_title
;
Structure prediction by ZEFSAII (Michael W. Deem and Ramdas Pophale) SiO2 
 PCOD9093586
Probable space group: P -1
;
_chemical_formula_sum "Si O2"
_cell_formula_units_Z 14
_cell_length_a 16.578740
_cell_length_b 12.291176
_cell_length_c 21.127453
_cell_angle_alpha 141.805862
_cell_angle_beta 20.698774
_cell_angle_gamma 152.032907
_cell_volume 692.220211
_symmetry_space_group_name_H-M "P -1"
_symmetry_group_IT_number 2
_symmetry_cell_setting 'triclinic'
loop_
_space_group_symop_operation_xyz
x,y,z
-x,-y,-z
loop_
_atom_site_type_symbol
_atom_site_label
_atom_site_fract_x
_atom_site_fract_y
_atom_site_fract_z
Si Si1 0.763740 0.490765 0.301309
Si Si2 0.256347 0.701040 0.455649
Si Si3 0.279880 0.548363 0.175452
Si Si4 0.605902 0.183536 0.062936
Si Si5 0.721060 0.634068 0.650153
Si Si6 0.117514 0.722578 0.279027
Si Si7 0.380482 0.955792 0.365606
O O1 0.500000 0.500000 0.500000
O O2 0.608331 0.219464 0.292321
O O3 0.942329 0.608535 0.290154
O O4 0.024016 0.641868 0.124829
O O5 0.415465 0.609427 0.325465
O O6 0.000000 0.500000 0.500000
O O7 0.052696 0.669448 0.648332
O O8 0.439231 0.936955 0.387397
O O9 0.247764 0.604264 0.153842
O O10 0.398420 0.783146 0.234114
O O11 0.500000 0.500000 0.000000
O O12 0.507667 0.326781 0.178199
O O13 0.395610 0.007809 0.195277
O O14 0.500000 0.000000 0.000000
O O15 0.879110 0.660470 0.479755
O O16 0.026868 0.842884 0.563067
#
# Coordination Sequence:
#
# PCOD9093586 Si02
#       7
#     2   2   2   2   2   2   2
#     4  11  23  37  52  80 114 144 181 228 272 317
#     4   7  15  30  53  75  99 136 173 211 263 319
#     4   9  18  34  57  83 106 138 182 221 264 326
#     4  10  20  33  54  77 103 146 186 217 268 329
#     4   9  17  36  57  77 102 140 187 225 264 325
#     4   9  20  37  56  78 107 145 182 224 269 322
#     4   9  18  35  56  78 107 143 179 224 269 314
#
# _framework density 20.224778000000001
#
# number of rings (size 3 to 8) (size 9 to 14) (size 15 to 20)
#    0.000    3.429    0.000    2.143    0.000    9.143 
#    0.000   13.571    0.000    0.000    0.000    0.000 
#    0.000    0.000    0.000    0.000    0.000    0.000 
#
# Total GULP energy -77977.225713 kJ/mol
# GULP energy per Si atom -5569.801837 kJ/mol
# Density = 2.017875 g / cm^3
# Si number density = 20.224778 Si / 1000 Ang^3
#
#
#
# Elastic Constant Matrix: (Units=GPa)
#
#
# Indices 1 2 3 4 5 6 
#
# 1 75.2058 8.9317 18.5776 3.4802 -7.3102 -22.2497
# 2 8.9317 57.6546 28.5062 0.6132 -6.6911 -4.5341
# 3 18.5776 28.5062 81.3168 21.4008 -26.1834 -7.9639
# 4 3.4802 0.6132 21.4008 32.0591 -10.7176 -8.3613
# 5 -7.3102 -6.6911 -26.1834 -10.7176 24.4326 6.9909
# 6 -22.2497 -4.5341 -7.9639 -8.3613 6.9909 13.1551
#
#
#
# Elastic Compliance Matrix: (Units=1/GPa)
#
#
# Indices 1 2 3 4 5 6 
#
# 1 0.034744 0.004166 -0.011400 0.018043 -0.013324 0.071847
# 2 0.004166 0.023046 -0.011677 0.009421 -0.005664 0.016918
# 3 -0.011400 -0.011677 0.028675 -0.017126 0.025267 -0.030259
# 4 0.018043 0.009421 -0.017126 0.055032 -0.003463 0.060214
# 5 -0.013324 -0.005664 0.025267 -0.003463 0.075723 -0.051634
# 6 0.071847 0.016918 -0.030259 0.060214 -0.051634 0.250757
#
#
# Mechanical properties :
#
#
# Convention : Reuss Voigt Hill
#
# Bulk Modulus (GPa) = 20.55814 36.24537 28.40175
# Shear Modulus (GPa) = 9.57832 24.47346 17.02589
#
# Velocity S-wave (km/s) = 2.17858 3.48238 2.90458
# Velocity P-wave (km/s) = 4.06389 5.84205 5.03213
#
# Compressibility (1/GPa) = 0.04864254
#
# Stress axis : x y z
#
# Youngs Moduli (GPa) = 28.78198 43.39229 34.87393
#
# Poissons Ratio (x) = -0.18078 0.39757
# Poissons Ratio (y) = -0.11991 0.40722
# Poissons Ratio (z) = 0.32812 0.50668
#
# Static dielectric constant tensor:
#      x y z
#    x 1.777650 -0.020340 0.022350 
#    y -0.020340 1.767180 -0.037640 
#    z 0.022350 -0.037640 1.745000 
# 
# From -- ./inp_files/514673.got.cif
#   From: 2010.05.17/outbox.cif.g08.bks.cpg/sg2_258_cif.got.tgz:514673.got - 2010.06.03 11:33:40.
