data_PCOD9093517
_publ_section_title
;
Structure prediction by ZEFSAII (Michael W. Deem and Ramdas Pophale) SiO2 
 PCOD9093517
Probable space group: P -1
;
_chemical_formula_sum "Si O2"
_cell_formula_units_Z 14
_cell_length_a 15.171813
_cell_length_b 12.780824
_cell_length_c 15.260613
_cell_angle_alpha 52.546813
_cell_angle_beta 19.040502
_cell_angle_gamma 57.169323
_cell_volume 760.244408
_symmetry_space_group_name_H-M "P -1"
_symmetry_group_IT_number 2
_symmetry_cell_setting 'triclinic'
loop_
_space_group_symop_operation_xyz
x,y,z
-x,-y,-z
loop_
_atom_site_type_symbol
_atom_site_label
_atom_site_fract_x
_atom_site_fract_y
_atom_site_fract_z
Si Si1 0.785285 0.369167 0.275238
Si Si2 0.793553 0.166749 0.084874
Si Si3 0.791455 0.958116 0.347683
Si Si4 0.309275 0.572220 0.857463
Si Si5 0.988224 0.906374 0.753982
Si Si6 0.408749 0.904691 0.214372
Si Si7 0.729048 0.397232 0.503490
O O1 0.616796 0.388903 0.512080
O O2 0.931774 0.239057 0.222202
O O3 0.648758 0.358727 0.313589
O O4 0.000000 0.500000 0.000000
O O5 0.529247 0.089882 0.324729
O O6 0.833954 0.085176 0.177836
O O7 0.733926 0.312528 0.092931
O O8 0.054872 0.153799 0.786489
O O9 0.919146 0.999283 0.299903
O O10 0.038534 0.465269 0.169927
O O11 0.562091 0.489954 0.670745
O O12 0.167031 0.948545 0.478317
O O13 0.672503 0.900569 0.030524
O O14 0.307978 0.754523 0.353855
O O15 0.500000 0.000000 0.000000
#
# Coordination Sequence:
#
# PCOD9093517 Si02
#       7
#     2   2   2   2   2   2   2
#     4   9  18  31  47  76 110 143 170 204 250 328
#     4  10  20  33  52  76 114 146 182 215 249 306
#     4  10  20  35  50  79 108 148 184 215 252 313
#     4  11  19  33  51  79 110 149 171 210 264 312
#     4  11  21  36  57  79 109 145 177 220 272 320
#     4  11  23  39  57  81 106 137 182 234 273 318
#     4  10  21  33  51  77 107 140 183 212 264 331
#
# _framework density 18.415130999999999
#
# number of rings (size 3 to 8) (size 9 to 14) (size 15 to 20)
#    0.000    1.714    1.429    5.143    0.000    3.429 
#    0.000    0.000    0.000    0.000    0.000   20.000 
#    0.000    0.000    0.000    0.000    0.000    0.000 
#
# Total GULP energy -78152.223172 kJ/mol
# GULP energy per Si atom -5582.301655 kJ/mol
# Density = 1.837322 g / cm^3
# Si number density = 18.415131 Si / 1000 Ang^3
#
#
#
# Elastic Constant Matrix: (Units=GPa)
#
#
# Indices 1 2 3 4 5 6 
#
# 1 32.1514 14.0739 -5.1806 -10.9199 1.1698 6.3846
# 2 14.0739 71.7966 4.0938 -3.4054 19.7613 11.1507
# 3 -5.1806 4.0938 62.5745 1.0717 5.6034 -5.0587
# 4 -10.9199 -3.4054 1.0717 34.3864 -4.9607 6.8734
# 5 1.1698 19.7613 5.6034 -4.9607 19.4956 1.8496
# 6 6.3846 11.1507 -5.0587 6.8734 1.8496 19.5429
#
#
#
# Elastic Compliance Matrix: (Units=1/GPa)
#
#
# Indices 1 2 3 4 5 6 
#
# 1 0.044118 -0.008522 0.001500 0.018145 0.011757 -0.016657
# 2 -0.008522 0.022845 -0.000788 -0.002105 -0.022232 -0.007610
# 3 0.001500 -0.000788 0.017114 -0.002011 -0.005252 0.005594
# 4 0.018145 -0.002105 -0.002011 0.040911 0.014022 -0.020963
# 5 0.011757 -0.022232 -0.005252 0.014022 0.078665 -0.004892
# 6 -0.016657 -0.007610 0.005594 -0.020963 -0.004892 0.070237
#
#
# Mechanical properties :
#
#
# Convention : Reuss Voigt Hill
#
# Bulk Modulus (GPa) = 14.60813 21.38852 17.99832
# Shear Modulus (GPa) = 16.00871 24.92065 20.46468
#
# Velocity S-wave (km/s) = 2.95163 3.68267 3.33723
# Velocity P-wave (km/s) = 4.42335 5.45185 4.96431
#
# Compressibility (1/GPa) = 0.06845505
#
# Stress axis : x y z
#
# Youngs Moduli (GPa) = 22.66655 43.77322 58.43267
#
# Poissons Ratio (x) = 0.37304 -0.08765
# Poissons Ratio (y) = 0.19317 0.04607
# Poissons Ratio (z) = -0.03400 0.03452
#
# Static dielectric constant tensor:
#      x y z
#    x 1.641710 0.002450 0.001500 
#    y 0.002450 1.645260 0.013030 
#    z 0.001500 0.013030 1.631010 
# 
# From -- ./inp_files/64559.got.cif
#   From: 2010.05.17/outbox.cif.g08.bks.cpg/sg2_33_cif.got.tgz:64559.got - 2010.06.03 11:33:40.
