data_PCOD9093080
_publ_section_title
;
Structure prediction by ZEFSAII (Michael W. Deem and Ramdas Pophale) SiO2 
 PCOD9093080
Probable space group: P -1
;
_chemical_formula_sum "Si O2"
_cell_formula_units_Z 12
_cell_length_a 14.008716
_cell_length_b 12.057579
_cell_length_c 6.298498
_cell_angle_alpha 113.955431
_cell_angle_beta 86.241141
_cell_angle_gamma 136.121536
_cell_volume 629.088131
_symmetry_space_group_name_H-M "P -1"
_symmetry_group_IT_number 2
_symmetry_cell_setting 'triclinic'
loop_
_space_group_symop_operation_xyz
x,y,z
-x,-y,-z
loop_
_atom_site_type_symbol
_atom_site_label
_atom_site_fract_x
_atom_site_fract_y
_atom_site_fract_z
Si Si1 0.989889 0.847408 0.855850
Si Si2 0.964190 0.660161 0.327045
Si Si3 0.793473 0.112967 0.902223
Si Si4 0.816749 0.275532 0.416962
Si Si5 0.437167 0.077132 0.556331
Si Si6 0.753153 0.459183 0.832328
O O1 0.969515 0.786485 0.566546
O O2 0.850476 0.657998 0.861078
O O3 0.138329 0.927229 0.991010
O O4 0.000000 0.000000 0.000000
O O5 0.084606 0.763885 0.204309
O O6 0.022779 0.618307 0.454031
O O7 0.814599 0.501770 0.094896
O O8 0.638560 0.959049 0.683490
O O9 0.792905 0.232759 0.138654
O O10 0.785583 0.371576 0.613984
O O11 0.696013 0.062093 0.364701
O O12 0.500000 0.000000 0.500000
O O13 0.423186 0.701587 0.254940
#
# Coordination Sequence:
#
# PCOD9093080 Si02
#       6
#     2   2   2   2   2   2
#     4  10  22  38  55  74  99 138 183 220 253 295
#     4   9  19  34  54  77 103 133 173 219 262 305
#     4   9  19  35  55  77 108 141 169 207 257 310
#     4   9  18  33  53  79 109 137 166 206 261 315
#     4   9  19  33  51  79 111 138 165 205 259 315
#     4  10  20  31  52  81 107 135 170 211 257 307
#
# _framework density 19.075229
#
# number of rings (size 3 to 8) (size 9 to 14) (size 15 to 20)
#    0.000    2.667    0.000    0.500    0.000   18.000 
#    0.000    0.833    0.000   10.000    0.000    0.000 
#    0.000    0.000    0.000    0.000    0.000    0.000 
#
# Total GULP energy -66810.452165 kJ/mol
# GULP energy per Si atom -5567.537680 kJ/mol
# Density = 1.903181 g / cm^3
# Si number density = 19.075229 Si / 1000 Ang^3
#
#
#
# Elastic Constant Matrix: (Units=GPa)
#
#
# Indices 1 2 3 4 5 6 
#
# 1 64.3790 30.3541 63.6976 17.1241 19.4656 -2.2422
# 2 30.3541 80.3615 59.9105 20.4186 -0.4188 -3.6854
# 3 63.6976 59.9105 160.7729 0.8996 20.3031 0.1474
# 4 17.1241 20.4186 0.8996 32.8897 8.3979 2.6209
# 5 19.4656 -0.4188 20.3031 8.3979 44.5773 12.4306
# 6 -2.2422 -3.6854 0.1474 2.6209 12.4306 23.8264
#
#
#
# Elastic Compliance Matrix: (Units=1/GPa)
#
#
# Indices 1 2 3 4 5 6 
#
# 1 0.036255 0.001489 -0.013675 -0.017929 -0.009129 0.010461
# 2 0.001489 0.024217 -0.010401 -0.017487 0.006987 0.002228
# 3 -0.013675 -0.010401 0.015843 0.014193 -0.003213 -0.002879
# 4 -0.017929 -0.017487 0.014193 0.052482 -0.006820 -0.006695
# 5 -0.009129 0.006987 -0.003213 -0.006820 0.033886 -0.016687
# 6 0.010461 0.002228 -0.002879 -0.006695 -0.016687 0.052759
#
#
# Mechanical properties :
#
#
# Convention : Reuss Voigt Hill
#
# Bulk Modulus (GPa) = 32.11286 68.15976 50.13631
# Shear Modulus (GPa) = 18.45034 30.36210 24.40622
#
# Velocity S-wave (km/s) = 3.11342 3.99394 3.58085
# Velocity P-wave (km/s) = 5.45857 7.55503 6.59069
#
# Compressibility (1/GPa) = 0.03114017
#
# Stress axis : x y z
#
# Youngs Moduli (GPa) = 27.58225 41.29324 63.12047
#
# Poissons Ratio (x) = -0.06147 0.86319
# Poissons Ratio (y) = -0.04106 0.65649
# Poissons Ratio (z) = 0.37720 0.42948
#
# Static dielectric constant tensor:
#      x y z
#    x 1.672260 0.012620 0.023440 
#    y 0.012620 1.783330 -0.017120 
#    z 0.023440 -0.017120 1.691120 
# 
# From -- ./inp_files/83623.got.cif
#   From: 2010.05.17/outbox.cif.g08.bks.cpg/sg2_42_cif.got.tgz:83623.got - 2010.06.03 11:33:40.
