data_PCOD9093574
_publ_section_title
;
Structure prediction by ZEFSAII (Michael W. Deem and Ramdas Pophale) SiO2 
 PCOD9093574
Probable space group: P -1
;
_chemical_formula_sum "Si O2"
_cell_formula_units_Z 15
_cell_length_a 4.950408
_cell_length_b 28.354935
_cell_length_c 15.191322
_cell_angle_alpha 17.629138
_cell_angle_beta 95.804415
_cell_angle_gamma 100.305677
_cell_volume 617.927165
_symmetry_space_group_name_H-M "P -1"
_symmetry_group_IT_number 2
_symmetry_cell_setting 'triclinic'
loop_
_space_group_symop_operation_xyz
x,y,z
-x,-y,-z
loop_
_atom_site_type_symbol
_atom_site_label
_atom_site_fract_x
_atom_site_fract_y
_atom_site_fract_z
Si Si1 0.098516 0.299542 0.020589
Si Si2 0.527533 0.179033 0.142550
Si Si3 0.564546 0.917801 0.350350
Si Si4 0.238277 0.368540 0.183892
Si Si5 0.843928 0.757461 0.408571
Si Si6 0.782863 0.421551 0.337527
Si Si7 0.888447 0.005816 0.676935
Si Si8 0.500000 0.000000 0.000000
O O1 0.858504 0.265546 0.997866
O O2 0.995571 0.149442 0.353113
O O3 0.613515 0.720488 0.974468
O O4 0.129516 0.469733 0.767316
O O5 0.500000 0.000000 0.500000
O O6 0.336308 0.141583 0.116045
O O7 0.633117 0.746094 0.668373
O O8 0.287755 0.930781 0.367608
O O9 0.841689 0.034606 0.198556
O O10 0.546711 0.933418 0.218254
O O11 0.083307 0.277697 0.425891
O O12 0.500000 0.500000 0.000000
O O13 0.084030 0.462510 0.946771
O O14 0.109739 0.738321 0.393884
O O15 0.555815 0.627676 0.596426
O O16 0.739441 0.916261 0.116237
#
# Coordination Sequence:
#
# PCOD9093574 Si02
#       8
#     2   2   2   2   2   2   2   1
#     4  11  20  33  56  87 127 151 181 234 287 363
#     4  10  20  33  53  84 125 159 180 226 287 360
#     4  11  23  37  59  84 113 161 192 248 277 340
#     4   9  20  33  53  79 116 143 187 227 288 346
#     4  10  23  38  56  80 111 156 193 244 278 343
#     4  11  21  34  58  86 115 149 190 224 303 350
#     4  11  21  35  57  86 118 156 196 223 296 349
#     4  10  26  46  60  82 118 152 214 248 286 310
#
# _framework density 24.274704
#
# number of rings (size 3 to 8) (size 9 to 14) (size 15 to 20)
#    0.000    1.600    1.333    5.200    3.733    8.533 
#    0.000    0.000    0.000    0.000    0.000   18.667 
#    0.000    0.000    0.000    0.000    0.000    0.000 
#
# Total GULP energy -83661.761002 kJ/mol
# GULP energy per Si atom -5577.450733 kJ/mol
# Density = 2.421945 g / cm^3
# Si number density = 24.274704 Si / 1000 Ang^3
#
#
#
# Elastic Constant Matrix: (Units=GPa)
#
#
# Indices 1 2 3 4 5 6 
#
# 1 115.2355 6.6402 5.2072 -1.3212 8.5334 -0.0101
# 2 6.6402 68.3758 -3.5534 -9.1514 2.5875 8.2031
# 3 5.2072 -3.5534 39.4631 -2.9551 17.9003 -11.4604
# 4 -1.3212 -9.1514 -2.9551 23.9628 -4.8053 11.4417
# 5 8.5334 2.5875 17.9003 -4.8053 30.2487 -18.5123
# 6 -0.0101 8.2031 -11.4604 11.4417 -18.5123 47.3437
#
#
#
# Elastic Compliance Matrix: (Units=1/GPa)
#
#
# Indices 1 2 3 4 5 6 
#
# 1 0.008949 -0.000594 -0.000173 0.000195 -0.003064 -0.001182
# 2 -0.000594 0.017021 0.002920 0.008841 -0.005642 -0.006585
# 3 -0.000173 0.002920 0.035148 0.001500 -0.021147 -0.000629
# 4 0.000195 0.008841 0.001500 0.051806 -0.002427 -0.014638
# 5 -0.003064 -0.005642 -0.021147 -0.002427 0.058313 0.019246
# 6 -0.001182 -0.006585 -0.000629 -0.014638 0.019246 0.033174
#
#
# Mechanical properties :
#
#
# Convention : Reuss Voigt Hill
#
# Bulk Modulus (GPa) = 15.28519 26.62913 20.95716
# Shear Modulus (GPa) = 22.53126 34.62975 28.58050
#
# Velocity S-wave (km/s) = 3.04991 3.78110 3.43502
# Velocity P-wave (km/s) = 4.32585 5.48234 4.93807
#
# Compressibility (1/GPa) = 0.06542280
#
# Stress axis : x y z
#
# Youngs Moduli (GPa) = 111.74485 58.74999 28.45125
#
# Poissons Ratio (x) = 0.03491 0.00493
# Poissons Ratio (y) = 0.06639 -0.08307
# Poissons Ratio (z) = 0.01937 -0.17154
#
# Static dielectric constant tensor:
#      x y z
#    x 1.775680 -0.082590 0.048380 
#    y -0.082590 1.827730 0.079710 
#    z 0.048380 0.079710 1.797540 
# 
# From -- ./inp_files/486092.got.cif
#   From: 2010.05.17/outbox.cif.g08.bks.cpg/sg2_244_cif.got.tgz:486092.got - 2010.06.03 11:33:40.
