data_PCOD9093295
_publ_section_title
;
Structure prediction by ZEFSAII (Michael W. Deem and Ramdas Pophale) SiO2 
 PCOD9093295
Probable space group: P -1
;
_chemical_formula_sum "Si O2"
_cell_formula_units_Z 15
_cell_length_a 8.678913
_cell_length_b 11.162199
_cell_length_c 13.729370
_cell_angle_alpha 145.894959
_cell_angle_beta 111.245710
_cell_angle_gamma 55.907598
_cell_volume 602.587177
_symmetry_space_group_name_H-M "P -1"
_symmetry_group_IT_number 2
_symmetry_cell_setting 'triclinic'
loop_
_space_group_symop_operation_xyz
x,y,z
-x,-y,-z
loop_
_atom_site_type_symbol
_atom_site_label
_atom_site_fract_x
_atom_site_fract_y
_atom_site_fract_z
Si Si1 0.000000 0.000000 0.000000
Si Si2 0.270962 0.745941 0.091915
Si Si3 0.424371 0.386282 0.056766
Si Si4 0.851326 0.197095 0.296137
Si Si5 0.948294 0.276900 0.696687
Si Si6 0.309131 0.011961 0.731188
Si Si7 0.592909 0.890032 0.550009
Si Si8 0.015447 0.489622 0.340106
O O1 0.830414 0.171514 0.160098
O O2 0.075642 0.204148 0.162607
O O3 0.326930 0.517495 0.019308
O O4 0.049891 0.932271 0.168521
O O5 0.356455 0.910226 0.261639
O O6 0.363147 0.664002 0.951102
O O7 0.272730 0.578594 0.225598
O O8 0.407601 0.144575 0.899262
O O9 0.885488 0.412859 0.493136
O O10 0.716166 0.165482 0.320150
O O11 0.105351 0.222810 0.780930
O O12 0.967691 0.414765 0.699476
O O13 0.000000 0.000000 0.500000
O O14 0.446212 0.874454 0.579154
O O15 0.791950 0.647687 0.418951
O O16 0.500000 0.000000 0.500000
#
# Coordination Sequence:
#
# PCOD9093295 Si02
#       8
#     1   2   2   2   2   2   2   2
#     4  12  28  44  68  90 118 188 234 256 310 368
#     4   9  20  34  55  85 131 171 198 259 319 377
#     4  10  20  32  54  92 131 162 198 249 325 404
#     4  11  23  45  63  90 126 168 224 273 308 373
#     4  12  20  35  62  99 131 161 197 263 341 384
#     4  11  21  35  63  96 129 160 206 263 331 385
#     4  10  20  36  61  98 134 165 200 257 337 394
#     4  11  24  43  67  94 135 169 214 264 316 393
#
# _framework density 24.892662000000001
#
# number of rings (size 3 to 8) (size 9 to 14) (size 15 to 20)
#    0.000    1.333    4.000    2.400    1.867    1.067 
#    0.000    0.667    0.000   15.200    0.000    0.000 
#    0.000    0.000    0.000    0.000    0.000    0.000 
#
# Total GULP energy -83596.362891 kJ/mol
# GULP energy per Si atom -5573.090859 kJ/mol
# Density = 2.483601 g / cm^3
# Si number density = 24.892662 Si / 1000 Ang^3
#
#
#
# Elastic Constant Matrix: (Units=GPa)
#
#
# Indices 1 2 3 4 5 6 
#
# 1 93.0434 38.0605 66.1069 -21.3441 0.4095 80.5683
# 2 38.0605 93.4679 27.4049 1.2708 -10.4404 8.4947
# 3 66.1069 27.4049 141.0640 20.9751 -16.5017 5.6341
# 4 -21.3441 1.2708 20.9751 23.9087 29.2170 30.0097
# 5 0.4095 -10.4404 -16.5017 29.2170 25.8162 -42.4507
# 6 80.5683 8.4947 5.6341 30.0097 -42.4507 -8.4363
#
#
#
# Elastic Compliance Matrix: (Units=1/GPa)
#
#
# Indices 1 2 3 4 5 6 
#
# 1 0.008676 -0.002079 -0.001522 -0.006943 0.010397 0.002731
# 2 -0.002079 0.012091 -0.001568 0.001427 -0.000399 -0.001644
# 3 -0.001522 -0.001568 0.008188 -0.000755 -0.001774 -0.004411
# 4 -0.006943 0.001427 -0.000755 0.020648 -0.001066 0.013439
# 5 0.010397 -0.000399 -0.001774 -0.001066 0.020802 -0.010752
# 6 0.002731 -0.001644 -0.004411 0.013439 -0.010752 0.004856
#
#
# Mechanical properties :
#
#
# Convention : Reuss Voigt Hill
#
# Bulk Modulus (GPa) = 53.71667 65.63555 59.67611
# Shear Modulus (GPa) = 54.46344 21.32460 37.89402
#
# Velocity S-wave (km/s) = 4.68261 2.93005 3.90589
# Velocity P-wave (km/s) = 7.13175 6.15399 6.66084
#
# Compressibility (1/GPa) = 0.01861620
#
# Stress axis : x y z
#
# Youngs Moduli (GPa) = 115.25943 82.70880 122.13041
#
# Poissons Ratio (x) = 0.17195 0.18593
# Poissons Ratio (y) = 0.23962 0.19148
# Poissons Ratio (z) = 0.17547 0.12967
#
# Static dielectric constant tensor:
#      x y z
#    x 1.975350 0.076530 -0.003480 
#    y 0.076530 1.730890 -0.115840 
#    z -0.003480 -0.115840 1.986560 
# 
# From -- ./inp_files/250694.got.cif
#   From: 2010.05.17/outbox.cif.g08.bks.cpg/sg2_126_cif.got.tgz:250694.got - 2010.06.03 11:33:40.
