data_PCOD9093897
_publ_section_title
;
Structure prediction by ZEFSAII (Michael W. Deem and Ramdas Pophale) SiO2 
 PCOD9093897
Probable space group: P -1
;
_chemical_formula_sum "Si O2"
_cell_formula_units_Z 16
_cell_length_a 14.218266
_cell_length_b 12.562304
_cell_length_c 7.629632
_cell_angle_alpha 87.292380
_cell_angle_beta 44.702269
_cell_angle_gamma 67.335801
_cell_volume 828.900363
_symmetry_space_group_name_H-M "P -1"
_symmetry_group_IT_number 2
_symmetry_cell_setting 'triclinic'
loop_
_space_group_symop_operation_xyz
x,y,z
-x,-y,-z
loop_
_atom_site_type_symbol
_atom_site_label
_atom_site_fract_x
_atom_site_fract_y
_atom_site_fract_z
Si Si1 0.540329 0.675192 0.664059
Si Si2 0.742047 0.584590 0.753775
Si Si3 0.498482 0.540084 0.203818
Si Si4 0.147049 0.472227 0.927084
Si Si5 0.004535 0.852640 0.674743
Si Si6 0.201962 0.854545 0.091740
Si Si7 0.943429 0.653350 0.644821
Si Si8 0.823077 0.289324 0.197941
O O1 0.628552 0.640587 0.735050
O O2 0.473961 0.582193 0.724342
O O3 0.685803 0.634675 0.350293
O O4 0.385347 0.805472 0.858509
O O5 0.841795 0.654301 0.616281
O O6 0.872937 0.439987 0.582600
O O7 0.624256 0.582196 0.052713
O O8 0.337656 0.644979 0.485687
O O9 0.500000 0.500000 0.000000
O O10 0.149620 0.599780 0.910504
O O11 0.116727 0.416867 0.144531
O O12 0.000000 0.500000 0.000000
O O13 0.142605 0.823579 0.354517
O O14 0.059523 0.796720 0.799797
O O15 0.916388 0.784432 0.721469
O O16 0.897389 0.998936 0.810232
O O17 0.172028 0.789832 0.969717
#
# Coordination Sequence:
#
# PCOD9093897 Si02
#       8
#     2   2   2   2   2   2   2   2
#     4  10  20  37  54  89 124 149 202 248 300 363
#     4  10  20  33  60  88 120 155 192 251 318 363
#     4   9  18  34  59  90 121 154 185 257 311 348
#     4  11  21  37  60  93 124 156 188 255 315 370
#     4  11  23  46  61  87 125 159 215 258 293 357
#     4  11  26  40  67  87 116 173 211 252 298 355
#     4  11  22  36  61  90 122 160 198 244 316 370
#     4  11  23  40  67  91 123 158 207 252 311 364
#
# _framework density 19.302682000000001
#
# number of rings (size 3 to 8) (size 9 to 14) (size 15 to 20)
#    0.000    1.500    2.500    4.125    7.000    1.000 
#    0.000    1.250    0.000    0.000    0.000    0.000 
#    0.000    0.000    0.000    0.000    0.000    0.000 
#
# Total GULP energy -89133.127131 kJ/mol
# GULP energy per Si atom -5570.820446 kJ/mol
# Density = 1.925875 g / cm^3
# Si number density = 19.302682 Si / 1000 Ang^3
#
#
#
# Elastic Constant Matrix: (Units=GPa)
#
#
# Indices 1 2 3 4 5 6 
#
# 1 87.3758 34.5142 31.3512 11.9339 -7.8763 16.0913
# 2 34.5142 92.9532 44.8662 7.1346 -5.0854 12.4564
# 3 31.3512 44.8662 110.6149 7.1689 -8.7694 6.0969
# 4 11.9339 7.1346 7.1689 28.7174 2.0348 3.7295
# 5 -7.8763 -5.0854 -8.7694 2.0348 25.2639 -2.8470
# 6 16.0913 12.4564 6.0969 3.7295 -2.8470 29.3158
#
#
#
# Elastic Compliance Matrix: (Units=1/GPa)
#
#
# Indices 1 2 3 4 5 6 
#
# 1 0.015533 -0.003443 -0.002148 -0.004540 0.003123 -0.005736
# 2 -0.003443 0.014861 -0.004835 -0.000613 -0.000088 -0.003350
# 3 -0.002148 -0.004835 0.011837 -0.001206 0.002697 0.001187
# 4 -0.004540 -0.000613 -0.001206 0.037837 -0.005267 -0.002322
# 5 0.003123 -0.000088 0.002697 -0.005267 0.042183 0.002529
# 6 -0.005736 -0.003350 0.001187 -0.002322 0.002529 0.038977
#
#
# Mechanical properties :
#
#
# Convention : Reuss Voigt Hill
#
# Bulk Modulus (GPa) = 46.77245 56.93411 51.85328
# Shear Modulus (GPa) = 26.42613 28.67357 27.54985
#
# Velocity S-wave (km/s) = 3.70407 3.85836 3.78200
# Velocity P-wave (km/s) = 6.52512 7.02914 6.78181
#
# Compressibility (1/GPa) = 0.02138011
#
# Stress axis : x y z
#
# Youngs Moduli (GPa) = 64.37705 67.28946 84.48290
#
# Poissons Ratio (x) = 0.23167 0.18148
# Poissons Ratio (y) = 0.22164 0.40844
# Poissons Ratio (z) = 0.13829 0.32532
#
# Static dielectric constant tensor:
#      x y z
#    x 2.505940 0.037620 0.345720 
#    y 0.037620 1.655500 0.002890 
#    z 0.345720 0.002890 2.031850 
# 
# From -- ./inp_files/307474.got.cif
#   From: 2010.05.17/outbox.cif.g08.bks.cpg/sg2_154_cif.got.tgz:307474.got - 2010.06.03 11:33:40.
