data_PCOD9093848
_publ_section_title
;
Structure prediction by ZEFSAII (Michael W. Deem and Ramdas Pophale) SiO2 
 PCOD9093848
Probable space group: P -1
;
_chemical_formula_sum "Si O2"
_cell_formula_units_Z 16
_cell_length_a 13.608030
_cell_length_b 6.769012
_cell_length_c 15.888551
_cell_angle_alpha 69.369851
_cell_angle_beta 146.383467
_cell_angle_gamma 123.120944
_cell_volume 661.757762
_symmetry_space_group_name_H-M "P -1"
_symmetry_group_IT_number 2
_symmetry_cell_setting 'triclinic'
loop_
_space_group_symop_operation_xyz
x,y,z
-x,-y,-z
loop_
_atom_site_type_symbol
_atom_site_label
_atom_site_fract_x
_atom_site_fract_y
_atom_site_fract_z
Si Si1 0.061557 0.828154 0.161554
Si Si2 0.131826 0.360112 0.105911
Si Si3 0.592915 0.537332 0.201946
Si Si4 0.029745 0.786282 0.511765
Si Si5 0.466185 0.078426 0.805851
Si Si6 0.575608 0.193712 0.674699
Si Si7 0.287875 0.118801 0.928188
Si Si8 0.882342 0.069853 0.640164
O O1 0.266957 0.859062 0.257931
O O2 0.049816 0.744082 0.261516
O O3 0.063125 0.084678 0.122045
O O4 0.871809 0.653394 0.995583
O O5 0.323115 0.523158 0.275102
O O6 0.000000 0.500000 0.000000
O O7 0.656911 0.713222 0.139452
O O8 0.804218 0.552928 0.384848
O O9 0.547718 0.682557 0.219836
O O10 0.407545 0.292745 0.067923
O O11 0.243415 0.843133 0.697605
O O12 0.086112 0.836849 0.446042
O O13 0.000000 0.000000 0.500000
O O14 0.537560 0.086964 0.758957
O O15 0.623914 0.062320 0.982828
O O16 0.356495 0.097187 0.491995
O O17 0.044392 0.974785 0.778291
#
# Coordination Sequence:
#
# PCOD9093848 Si02
#       8
#     2   2   2   2   2   2   2   2
#     4  10  21  38  62  83 119 155 194 243 287 341
#     4   9  21  38  60  85 114 153 196 240 291 344
#     4   9  19  37  55  79 113 149 187 242 289 335
#     4   8  17  37  58  83 116 152 189 241 290 342
#     4  10  20  33  59  81 111 152 193 229 289 349
#     4  10  22  39  57  86 117 158 192 237 293 346
#     4  10  21  34  56  84 113 146 194 239 288 340
#     4  10  21  36  58  87 120 152 194 244 288 342
#
# _framework density 24.178032000000002
#
# number of rings (size 3 to 8) (size 9 to 14) (size 15 to 20)
#    0.000    2.500    0.000    0.750    7.000    1.000 
#    0.000    1.250    0.000   10.500    0.000    0.000 
#    0.000    0.000    0.000    0.000    0.000    0.000 
#
# Total GULP energy -89104.873752 kJ/mol
# GULP energy per Si atom -5569.054609 kJ/mol
# Density = 2.412300 g / cm^3
# Si number density = 24.178032 Si / 1000 Ang^3
#
#
#
# Elastic Constant Matrix: (Units=GPa)
#
#
# Indices 1 2 3 4 5 6 
#
# 1 101.2501 17.4123 26.9700 -11.5451 -8.6219 -22.0519
# 2 17.4123 74.7486 15.4343 8.8304 5.7835 -16.8093
# 3 26.9700 15.4343 121.5480 -6.1524 20.0236 0.7963
# 4 -11.5451 8.8304 -6.1524 22.8077 -9.9717 -2.8217
# 5 -8.6219 5.7835 20.0236 -9.9717 50.0306 6.0379
# 6 -22.0519 -16.8093 0.7963 -2.8217 6.0379 14.8558
#
#
#
# Elastic Compliance Matrix: (Units=1/GPa)
#
#
# Indices 1 2 3 4 5 6 
#
# 1 0.019946 0.001811 -0.004819 0.013900 0.003951 0.032950
# 2 0.001811 0.020988 -0.002651 -0.007041 -0.005787 0.027593
# 3 -0.004819 -0.002651 0.010243 -0.001470 -0.003776 -0.009446
# 4 0.013900 -0.007041 -0.001470 0.061572 0.013797 0.018832
# 5 0.003951 -0.005787 -0.003776 0.013797 0.026648 -0.008691
# 6 0.032950 0.027593 -0.009446 0.018832 -0.008691 0.155062
#
#
# Mechanical properties :
#
#
# Convention : Reuss Voigt Hill
#
# Bulk Modulus (GPa) = 25.08827 46.35335 35.72081
# Shear Modulus (GPa) = 15.67088 33.38748 24.52918
#
# Velocity S-wave (km/s) = 2.54863 3.72008 3.18861
# Velocity P-wave (km/s) = 4.36574 6.13721 5.32565
#
# Compressibility (1/GPa) = 0.03985926
#
# Stress axis : x y z
#
# Youngs Moduli (GPa) = 50.13416 47.64591 97.63082
#
# Poissons Ratio (x) = -0.08627 0.47048
# Poissons Ratio (y) = -0.09078 0.25880
# Poissons Ratio (z) = 0.24159 0.12630
#
# Static dielectric constant tensor:
#      x y z
#    x 2.011390 0.010820 0.046110 
#    y 0.010820 1.949860 0.024030 
#    z 0.046110 0.024030 2.003520 
# 
# From -- ./inp_files/338135.got.cif
#   From: 2010.05.17/outbox.cif.g08.bks.cpg/sg2_170_cif.got.tgz:338135.got - 2010.06.03 11:33:40.
