data_PCOD9093675
_publ_section_title
;
Structure prediction by ZEFSAII (Michael W. Deem and Ramdas Pophale) SiO2 
 PCOD9093675
Probable space group: P -1
;
_chemical_formula_sum "Si O2"
_cell_formula_units_Z 16
_cell_length_a 26.364435
_cell_length_b 17.966211
_cell_length_c 6.533777
_cell_angle_alpha 113.664650
_cell_angle_beta 78.632181
_cell_angle_gamma 160.312561
_cell_volume 773.810600
_symmetry_space_group_name_H-M "P -1"
_symmetry_group_IT_number 2
_symmetry_cell_setting 'triclinic'
loop_
_space_group_symop_operation_xyz
x,y,z
-x,-y,-z
loop_
_atom_site_type_symbol
_atom_site_label
_atom_site_fract_x
_atom_site_fract_y
_atom_site_fract_z
Si Si1 0.251434 0.180986 0.225748
Si Si2 0.387302 0.065543 0.967630
Si Si3 0.040834 0.264032 0.698546
Si Si4 0.235239 0.256249 0.947633
Si Si5 0.914659 0.485484 0.138373
Si Si6 0.863451 0.304817 0.586028
Si Si7 0.447048 0.325434 0.122689
Si Si8 0.197006 0.336773 0.785228
O O1 0.321784 0.214446 0.063167
O O2 0.405544 0.430983 0.549476
O O3 0.078311 0.893646 0.180332
O O4 0.214195 0.202854 0.141141
O O5 0.262637 0.823248 0.947610
O O6 0.329148 0.961003 0.662410
O O7 0.335111 0.081872 0.039321
O O8 0.609301 0.396120 0.183623
O O9 0.099832 0.439452 0.754407
O O10 0.182630 0.410754 0.835907
O O11 0.913974 0.022780 0.370182
O O12 0.435186 0.527332 0.002391
O O13 0.216683 0.322710 0.975212
O O14 0.100774 0.726834 0.359344
O O15 0.911799 0.446510 0.867858
O O16 0.000000 0.500000 0.500000
O O17 0.000000 0.000000 0.500000
#
# Coordination Sequence:
#
# PCOD9093675 Si02
#       8
#     2   2   2   2   2   2   2   2
#     4  10  20  33  55  85 118 148 194 245 302 352
#     4  10  21  38  63  85 119 160 197 242 293 359
#     4  10  22  36  57  85 120 156 199 244 287 351
#     4   9  19  37  58  80 112 161 193 241 302 348
#     4  10  22  38  59  90 119 159 194 244 304 345
#     4   9  21  38  58  86 120 154 198 240 293 358
#     4   9  20  34  52  88 118 143 191 253 297 356
#     4   9  20  42  61  85 120 156 204 248 289 347
#
# _framework density 20.676894000000001
#
# number of rings (size 3 to 8) (size 9 to 14) (size 15 to 20)
#    0.000    2.500    0.000    1.125    7.000    4.000 
#    2.250    3.125    0.000    0.000    0.000    0.000 
#    0.000    0.000    0.000    0.000    0.000    0.000 
#
# Total GULP energy -89084.812234 kJ/mol
# GULP energy per Si atom -5567.800765 kJ/mol
# Density = 2.062983 g / cm^3
# Si number density = 20.676894 Si / 1000 Ang^3
#
#
#
# Elastic Constant Matrix: (Units=GPa)
#
#
# Indices 1 2 3 4 5 6 
#
# 1 117.5050 24.1653 10.9440 7.1604 -2.6014 -19.2341
# 2 24.1653 78.5521 27.5478 15.4259 6.5980 -21.5094
# 3 10.9440 27.5478 34.3822 -6.7299 6.8917 12.1048
# 4 7.1604 15.4259 -6.7299 17.5000 -5.2006 7.2656
# 5 -2.6014 6.5980 6.8917 -5.2006 24.4391 4.4323
# 6 -19.2341 -21.5094 12.1048 7.2656 4.4323 27.6754
#
#
#
# Elastic Compliance Matrix: (Units=1/GPa)
#
#
# Indices 1 2 3 4 5 6 
#
# 1 0.008602 -0.006679 0.004381 0.006495 0.003481 -0.003391
# 2 -0.006679 -0.005807 0.020534 0.028560 0.005966 -0.026590
# 3 0.004381 0.020534 -0.005937 -0.042706 -0.018993 0.035854
# 4 0.006495 0.028560 -0.042706 -0.009024 -0.005724 0.048676
# 5 0.003481 0.005966 -0.018993 -0.005724 0.041976 0.010143
# 6 -0.003391 -0.026590 0.035854 0.048676 0.010143 -0.016975
#
#
# Mechanical properties :
#
#
# Convention : Reuss Voigt Hill
#
# Bulk Modulus (GPa) = 30.00290 39.52817 34.76554
# Shear Modulus (GPa) = -399.16522 25.10838 -187.02842
#
# Velocity S-wave (km/s) = -13.90928 3.48849 -9.52099
# Velocity P-wave (km/s) = 15.60178 5.94850 10.19880
#
# Compressibility (1/GPa) = 0.03333011
#
# Stress axis : x y z
#
# Youngs Moduli (GPa) = 116.25191 -172.21396 -168.42698
#
# Poissons Ratio (x) = -1.15021 0.73785
# Poissons Ratio (y) = 0.77644 3.45851
# Poissons Ratio (z) = -0.50928 3.53627
#
# Static dielectric constant tensor:
#      x y z
#    x 1.777150 0.015050 0.009910 
#    y 0.015050 1.780920 0.039890 
#    z 0.009910 0.039890 1.801060 
# 
# From -- ./inp_files/69960.got.cif
#   From: 2010.05.17/outbox.cif.g08.bks.cpg/sg2_35_cif.got.tgz:69960.got - 2010.06.03 11:33:40.
