data_PCOD9093263
_publ_section_title
;
Structure prediction by ZEFSAII (Michael W. Deem and Ramdas Pophale) SiO2 
 PCOD9093263
Probable space group: P -1
;
_chemical_formula_sum "Si O2"
_cell_formula_units_Z 14
_cell_length_a 5.322202
_cell_length_b 24.534176
_cell_length_c 8.592145
_cell_angle_alpha 32.033379
_cell_angle_beta 69.004294
_cell_angle_gamma 68.242006
_cell_volume 550.475347
_symmetry_space_group_name_H-M "P -1"
_symmetry_group_IT_number 2
_symmetry_cell_setting 'triclinic'
loop_
_space_group_symop_operation_xyz
x,y,z
-x,-y,-z
loop_
_atom_site_type_symbol
_atom_site_label
_atom_site_fract_x
_atom_site_fract_y
_atom_site_fract_z
Si Si1 0.025546 0.709315 0.756921
Si Si2 0.714696 0.518111 0.197968
Si Si3 0.092519 0.175572 0.776460
Si Si4 0.491194 0.755153 0.111267
Si Si5 0.731885 0.943035 0.701598
Si Si6 0.249293 0.645522 0.172344
Si Si7 0.607573 0.632769 0.661195
O O1 0.325497 0.680329 0.689020
O O2 0.910452 0.814034 0.435438
O O3 0.056009 0.706630 0.941298
O O4 0.867943 0.613759 0.982697
O O5 0.418982 0.555365 0.248458
O O6 0.847623 0.417530 0.506148
O O7 0.703329 0.527296 0.990234
O O8 0.196616 0.282971 0.541809
O O9 0.787024 0.185570 0.891615
O O10 0.281387 0.082384 0.047432
O O11 0.425195 0.725708 0.022155
O O12 0.559967 0.647465 0.452526
O O13 0.721146 0.827043 0.920105
O O14 0.500000 0.000000 0.500000
O O15 0.000000 0.000000 0.500000
#
# Coordination Sequence:
#
# PCOD9093263 Si02
#       7
#     2   2   2   2   2   2   2
#     4   9  17  33  53  76 111 156 198 226 283 341
#     4   9  18  34  51  76 113 163 199 234 276 333
#     4   9  18  35  57  83 109 149 191 233 289 348
#     4  10  20  34  55  88 115 147 191 242 295 335
#     4  11  21  38  63  90 115 146 187 239 299 359
#     4  10  20  32  53  82 115 153 198 240 280 335
#     4   8  17  32  51  75 110 152 197 233 283 336
#
# _framework density 25.432566000000001
#
# number of rings (size 3 to 8) (size 9 to 14) (size 15 to 20)
#    0.000    2.571    1.429    0.429    0.000    2.857 
#    0.000    6.429    0.000    1.714    0.000    0.000 
#    0.000    0.000    0.000    0.000    0.000    0.000 
#
# Total GULP energy -78074.295698 kJ/mol
# GULP energy per Si atom -5576.735407 kJ/mol
# Density = 2.537468 g / cm^3
# Si number density = 25.432566 Si / 1000 Ang^3
#
#
#
# Elastic Constant Matrix: (Units=GPa)
#
#
# Indices 1 2 3 4 5 6 
#
# 1 114.9867 23.3956 67.8008 19.0580 20.3954 25.0634
# 2 23.3956 58.4298 45.2448 23.7444 15.7085 27.0152
# 3 67.8008 45.2448 215.7879 37.7335 41.1129 34.1281
# 4 19.0580 23.7444 37.7335 22.2061 30.1550 17.0180
# 5 20.3954 15.7085 41.1129 30.1550 60.0367 11.3575
# 6 25.0634 27.0152 34.1281 17.0180 11.3575 50.5811
#
#
#
# Elastic Compliance Matrix: (Units=1/GPa)
#
#
# Indices 1 2 3 4 5 6 
#
# 1 0.011357 0.000329 -0.002534 -0.004419 0.000526 -0.002725
# 2 0.000329 0.053920 0.001373 -0.128658 0.049009 0.002395
# 3 -0.002534 0.001373 0.007441 -0.019376 0.004967 0.000906
# 4 -0.004419 -0.128658 -0.019376 0.576387 -0.230044 -0.058292
# 5 0.000526 0.049009 0.004967 -0.230044 0.111530 0.022568
# 6 -0.002725 0.002395 0.000906 -0.058292 0.022568 0.033775
#
#
# Mechanical properties :
#
#
# Convention : Reuss Voigt Hill
#
# Bulk Modulus (GPa) = 14.07389 73.56519 43.81954
# Shear Modulus (GPa) = 6.09935 43.41564 24.75750
#
# Velocity S-wave (km/s) = 1.55031 4.13618 3.12341
# Velocity P-wave (km/s) = 2.95811 7.19715 5.50224
#
# Compressibility (1/GPa) = 0.07105358
#
# Stress axis : x y z
#
# Youngs Moduli (GPa) = 88.05284 18.54586 134.38665
#
# Poissons Ratio (x) = -0.00610 0.34051
# Poissons Ratio (y) = -0.02896 -0.18445
# Poissons Ratio (z) = 0.22311 -0.02545
#
# Static dielectric constant tensor:
#      x y z
#    x 2.165080 -0.019300 0.068080 
#    y -0.019300 1.960220 0.055860 
#    z 0.068080 0.055860 2.128670 
# 
# From -- ./inp_files/32930.got.cif
#   From: 2010.05.17/outbox.cif.g08.bks.cpg/sg2_17_cif.got.tgz:32930.got - 2010.06.03 11:33:40.
