data_PCOD9093911
_publ_section_title
;
Structure prediction by ZEFSAII (Michael W. Deem and Ramdas Pophale) SiO2 
 PCOD9093911
Probable space group: P -1
;
_chemical_formula_sum "Si O2"
_cell_formula_units_Z 14
_cell_length_a 4.935466
_cell_length_b 7.348538
_cell_length_c 16.580856
_cell_angle_alpha 103.651485
_cell_angle_beta 100.584116
_cell_angle_gamma 74.207421
_cell_volume 557.708346
_symmetry_space_group_name_H-M "P -1"
_symmetry_group_IT_number 2
_symmetry_cell_setting 'triclinic'
loop_
_space_group_symop_operation_xyz
x,y,z
-x,-y,-z
loop_
_atom_site_type_symbol
_atom_site_label
_atom_site_fract_x
_atom_site_fract_y
_atom_site_fract_z
Si Si1 0.306887 0.357485 0.002952
Si Si2 0.845877 0.810563 0.176615
Si Si3 0.304292 0.402277 0.185908
Si Si4 0.695588 0.157261 0.410516
Si Si5 0.337404 0.932198 0.287746
Si Si6 0.134395 0.743211 0.403391
Si Si7 0.901569 0.380813 0.298204
O O1 0.072354 0.604233 0.178032
O O2 0.362942 0.294606 0.091920
O O3 0.500000 0.500000 0.000000
O O4 0.294489 0.195815 0.918990
O O5 0.045473 0.952924 0.224184
O O6 0.000000 0.500000 0.000000
O O7 0.595439 0.854987 0.232706
O O8 0.606919 0.424944 0.236066
O O9 0.146831 0.308838 0.236019
O O10 0.692254 0.269329 0.505615
O O11 0.820380 0.263504 0.357483
O O12 0.405176 0.111090 0.359546
O O13 0.891766 0.942367 0.413127
O O14 0.319887 0.779733 0.341574
O O15 0.999748 0.564402 0.360124
#
# Coordination Sequence:
#
# PCOD9093911 Si02
#       7
#     2   2   2   2   2   2   2
#     4  10  20  33  61 100 137 170 222 279 327 395
#     4  11  21  38  68  99 132 179 223 272 339 398
#     4  11  22  40  63 101 140 172 223 280 331 403
#     4  11  26  47  68 101 135 180 227 284 340 397
#     4  12  22  41  68  96 133 175 225 279 334 400
#     4  11  25  46  71  99 134 177 233 284 332 402
#     4  12  26  43  71  99 139 179 223 279 342 403
#
# _framework density 25.102723000000001
#
# number of rings (size 3 to 8) (size 9 to 14) (size 15 to 20)
#    0.000    0.857    2.857    6.000    2.000    0.000 
#    0.000    1.429    0.000    5.143    0.000    0.000 
#    0.000    0.000    0.000    0.000    0.000    0.000 
#
# Total GULP energy -78360.238113 kJ/mol
# GULP energy per Si atom -5597.159865 kJ/mol
# Density = 2.504559 g / cm^3
# Si number density = 25.102723 Si / 1000 Ang^3
#
#
#
# Elastic Constant Matrix: (Units=GPa)
#
#
# Indices 1 2 3 4 5 6 
#
# 1 179.8567 25.9408 75.1022 18.3462 17.9884 44.6267
# 2 25.9408 100.2692 55.5206 5.3370 19.4598 44.6816
# 3 75.1022 55.5206 275.3089 22.7920 32.0673 37.2002
# 4 18.3462 5.3370 22.7920 16.8350 2.6277 7.1482
# 5 17.9884 19.4598 32.0673 2.6277 30.4874 10.6703
# 6 44.6267 44.6816 37.2002 7.1482 10.6703 50.8918
#
#
#
# Elastic Compliance Matrix: (Units=1/GPa)
#
#
# Indices 1 2 3 4 5 6 
#
# 1 0.008214 0.002489 -0.001075 -0.004763 -0.002285 -0.007454
# 2 0.002489 0.018560 -0.001650 0.001463 -0.006032 -0.016213
# 3 -0.001075 -0.001650 0.005005 -0.004604 -0.003198 0.000050
# 4 -0.004763 0.001463 -0.004604 0.071853 0.002016 -0.004257
# 5 -0.002285 -0.006032 -0.003198 0.002016 0.040917 0.000775
# 6 -0.007454 -0.016213 0.000050 -0.004257 0.000775 0.040819
#
#
# Mechanical properties :
#
#
# Convention : Reuss Voigt Hill
#
# Bulk Modulus (GPa) = 31.94163 96.50689 64.22426
# Shear Modulus (GPa) = 25.47437 46.23424 35.85430
#
# Velocity S-wave (km/s) = 3.18906 4.29628 3.78339
# Velocity P-wave (km/s) = 5.12953 7.94600 6.68771
#
# Compressibility (1/GPa) = 0.03130711
#
# Stress axis : x y z
#
# Youngs Moduli (GPa) = 121.74737 53.87903 199.79597
#
# Poissons Ratio (x) = -0.13409 0.21476
# Poissons Ratio (y) = -0.30299 0.32961
# Poissons Ratio (z) = 0.13086 0.08889
#
# Static dielectric constant tensor:
#      x y z
#    x 1.976940 -0.111600 0.019460 
#    y -0.111600 2.142570 0.013170 
#    z 0.019460 0.013170 2.018620 
# 
# From -- ./inp_files/480771.got.cif
#   From: 2010.05.17/outbox.cif.g08.bks.cpg/sg2_241_cif.got.tgz:480771.got - 2010.06.03 11:33:40.
