data_PCOD9093129
_publ_section_title
;
Structure prediction by ZEFSAII (Michael W. Deem and Ramdas Pophale) SiO2 
 PCOD9093129
Probable space group: P -1
;
_chemical_formula_sum "Si O2"
_cell_formula_units_Z 14
_cell_length_a 21.772530
_cell_length_b 13.030583
_cell_length_c 11.512762
_cell_angle_alpha 46.182485
_cell_angle_beta 146.019311
_cell_angle_gamma 157.416820
_cell_volume 658.936167
_symmetry_space_group_name_H-M "P -1"
_symmetry_group_IT_number 2
_symmetry_cell_setting 'triclinic'
loop_
_space_group_symop_operation_xyz
x,y,z
-x,-y,-z
loop_
_atom_site_type_symbol
_atom_site_label
_atom_site_fract_x
_atom_site_fract_y
_atom_site_fract_z
Si Si1 0.427930 0.585373 0.951739
Si Si2 0.811647 0.824711 0.673671
Si Si3 0.237828 0.699147 0.855904
Si Si4 0.385888 0.304853 0.294754
Si Si5 0.984686 0.226083 0.992677
Si Si6 0.846996 0.932593 0.238402
Si Si7 0.920005 0.606526 0.391540
O O1 0.305848 0.349053 0.851833
O O2 0.320235 0.621738 0.753618
O O3 0.382319 0.451779 0.106229
O O4 0.685594 0.854286 0.119751
O O5 0.641705 0.569323 0.515340
O O6 0.705384 0.780644 0.651898
O O7 0.958438 0.108353 0.624560
O O8 0.949526 0.845577 0.914405
O O9 0.132050 0.491129 0.746848
O O10 0.162529 0.537488 0.983356
O O11 0.096424 0.686650 0.645529
O O12 0.500000 0.000000 0.000000
O O13 0.264424 0.043709 0.237665
O O14 0.965325 0.163573 0.146013
O O15 0.000000 0.000000 0.500000
#
# Coordination Sequence:
#
# PCOD9093129 Si02
#       7
#     2   2   2   2   2   2   2
#     4  10  21  37  60  91 122 158 195 260 308 360
#     4  11  20  32  63  93 116 157 200 248 313 370
#     4  11  27  40  59  88 131 168 203 242 307 370
#     4  10  20  31  60  92 120 150 197 250 314 361
#     4  11  21  40  58  88 126 158 201 259 297 363
#     4  10  21  38  62  95 119 153 206 262 309 352
#     4  11  23  41  58  92 126 164 202 247 301 375
#
# _framework density 21.246366999999999
#
# number of rings (size 3 to 8) (size 9 to 14) (size 15 to 20)
#    0.000    1.429    4.286    2.143    6.000    0.000 
#    0.000    0.714    0.000    1.714    0.000    0.000 
#    0.000    0.000    0.000    0.000    0.000    0.000 
#
# Total GULP energy -77961.829920 kJ/mol
# GULP energy per Si atom -5568.702137 kJ/mol
# Density = 2.119801 g / cm^3
# Si number density = 21.246367 Si / 1000 Ang^3
#
#
#
# Elastic Constant Matrix: (Units=GPa)
#
#
# Indices 1 2 3 4 5 6 
#
# 1 56.0922 23.7469 40.3559 2.8555 22.7271 20.4905
# 2 23.7469 108.6983 58.9368 3.1314 1.4202 28.8068
# 3 40.3559 58.9368 118.7896 5.8652 15.1968 24.8717
# 4 2.8555 3.1314 5.8652 22.3087 0.8384 1.1331
# 5 22.7271 1.4202 15.1968 0.8384 43.6136 3.9052
# 6 20.4905 28.8068 24.8717 1.1331 3.9052 28.2728
#
#
#
# Elastic Compliance Matrix: (Units=1/GPa)
#
#
# Indices 1 2 3 4 5 6 
#
# 1 0.034602 0.001114 -0.006578 -0.001390 -0.014099 -0.018422
# 2 0.001114 0.015042 -0.005694 -0.000252 0.001938 -0.011382
# 3 -0.006578 -0.005694 0.014039 -0.001930 -0.001102 -0.001552
# 4 -0.001390 -0.000252 -0.001930 0.045475 0.000434 0.001079
# 5 -0.014099 0.001938 -0.001102 0.000434 0.030138 0.005034
# 6 -0.018422 -0.011382 -0.001552 0.001079 0.005034 0.060945
#
#
# Mechanical properties :
#
#
# Convention : Reuss Voigt Hill
#
# Bulk Modulus (GPa) = 24.17389 58.85104 41.51247
# Shear Modulus (GPa) = 21.15542 29.54172 25.34857
#
# Velocity S-wave (km/s) = 3.15893 3.73290 3.45784
# Velocity P-wave (km/s) = 4.97068 6.80727 5.96014
#
# Compressibility (1/GPa) = 0.04136694
#
# Stress axis : x y z
#
# Youngs Moduli (GPa) = 28.90007 66.48058 71.22899
#
# Poissons Ratio (x) = -0.07406 0.46857
# Poissons Ratio (y) = -0.03219 0.40556
# Poissons Ratio (z) = 0.19011 0.37852
#
# Static dielectric constant tensor:
#      x y z
#    x 1.795230 0.048550 0.005870 
#    y 0.048550 1.822610 0.067930 
#    z 0.005870 0.067930 1.858920 
# 
# From -- ./inp_files/475151.got.cif
#   From: 2010.05.17/outbox.cif.g08.bks.cpg/sg2_238_cif.got.tgz:475151.got - 2010.06.03 11:33:40.
