data_PCOD9093857
_publ_section_title
;
Structure prediction by ZEFSAII (Michael W. Deem and Ramdas Pophale) SiO2 
 PCOD9093857
Probable space group: P -1
;
_chemical_formula_sum "Si O2"
_cell_formula_units_Z 14
_cell_length_a 12.162662
_cell_length_b 9.432010
_cell_length_c 9.802179
_cell_angle_alpha 87.846561
_cell_angle_beta 125.286618
_cell_angle_gamma 131.110107
_cell_volume 574.608813
_symmetry_space_group_name_H-M "P -1"
_symmetry_group_IT_number 2
_symmetry_cell_setting 'triclinic'
loop_
_space_group_symop_operation_xyz
x,y,z
-x,-y,-z
loop_
_atom_site_type_symbol
_atom_site_label
_atom_site_fract_x
_atom_site_fract_y
_atom_site_fract_z
Si Si1 0.787887 0.793249 0.947802
Si Si2 0.947578 0.411952 0.619960
Si Si3 0.620437 0.152604 0.941565
Si Si4 0.483849 0.164708 0.338164
Si Si5 0.636629 0.475498 0.644824
Si Si6 0.779333 0.995217 0.417465
Si Si7 0.958401 0.866546 0.657825
O O1 0.604249 0.761131 0.791717
O O2 0.713659 0.579833 0.847565
O O3 0.000000 0.000000 0.000000
O O4 0.868482 0.889626 0.153107
O O5 0.726032 0.311016 0.489825
O O6 0.000000 0.500000 0.500000
O O7 0.894705 0.201456 0.592471
O O8 0.143613 0.608037 0.851909
O O9 0.454972 0.137488 0.776736
O O10 0.638142 0.054922 0.831433
O O11 0.500000 0.000000 0.000000
O O12 0.498817 0.225438 0.507332
O O13 0.500000 0.500000 0.500000
O O14 0.847417 0.669440 0.692066
O O15 0.788593 0.840559 0.478082
O O16 0.921723 0.114900 0.377232
#
# Coordination Sequence:
#
# PCOD9093857 Si02
#       7
#     2   2   2   2   2   2   2
#     4   9  19  34  60  86 109 152 198 243 284 335
#     4  11  21  35  57  83 118 155 198 239 278 356
#     4  11  21  35  57  83 117 157 195 238 284 352
#     4  10  20  33  59  86 110 142 197 250 286 327
#     4   9  19  36  58  88 109 150 202 243 281 335
#     4  10  22  38  56  91 123 154 184 235 310 359
#     4  10  20  37  59  85 127 151 185 244 298 359
#
# _framework density 24.364401000000001
#
# number of rings (size 3 to 8) (size 9 to 14) (size 15 to 20)
#    0.000    2.000    2.857    1.714    4.000    0.000 
#    5.143    1.429    0.000   34.286    0.000    0.000 
#    0.000    0.000    0.000    0.000    0.000    0.000 
#
# Total GULP energy -78109.608390 kJ/mol
# GULP energy per Si atom -5579.257742 kJ/mol
# Density = 2.430895 g / cm^3
# Si number density = 24.364401 Si / 1000 Ang^3
#
#
#
# Elastic Constant Matrix: (Units=GPa)
#
#
# Indices 1 2 3 4 5 6 
#
# 1 116.6618 48.0777 56.7079 20.5381 -2.6602 -37.2723
# 2 48.0777 91.4864 46.0887 23.8484 -9.2480 -8.3528
# 3 56.7079 46.0887 184.9732 41.2097 -6.3768 -26.4234
# 4 20.5381 23.8484 41.2097 45.9916 -16.9941 -1.9384
# 5 -2.6602 -9.2480 -6.3768 -16.9941 45.0888 4.2938
# 6 -37.2723 -8.3528 -26.4234 -1.9384 4.2938 29.8078
#
#
#
# Elastic Compliance Matrix: (Units=1/GPa)
#
#
# Indices 1 2 3 4 5 6 
#
# 1 0.019902 -0.007354 0.000261 -0.006106 -0.004822 0.023354
# 2 -0.007354 0.016132 -0.002097 -0.002670 0.002241 -0.007030
# 3 0.000261 -0.002097 0.008372 -0.007200 -0.002618 0.007069
# 4 -0.006106 -0.002670 -0.007200 0.036591 0.013226 -0.014291
# 5 -0.004822 0.002241 -0.002618 0.013226 0.028006 -0.010897
# 6 0.023354 -0.007030 0.007069 -0.014291 -0.010897 0.067687
#
#
# Mechanical properties :
#
#
# Convention : Reuss Voigt Hill
#
# Bulk Modulus (GPa) = 38.42229 77.20779 57.81504
# Shear Modulus (GPa) = 24.54032 40.32745 32.43389
#
# Velocity S-wave (km/s) = 3.17712 4.07280 3.65252
# Velocity P-wave (km/s) = 5.40951 7.33993 6.44738
#
# Compressibility (1/GPa) = 0.02602656
#
# Stress axis : x y z
#
# Youngs Moduli (GPa) = 50.24691 61.98668 119.43876
#
# Poissons Ratio (x) = 0.45584 -0.03118
# Poissons Ratio (y) = 0.36951 0.25049
# Poissons Ratio (z) = -0.01312 0.13000
#
# Static dielectric constant tensor:
#      x y z
#    x 1.875500 -0.045660 -0.011250 
#    y -0.045660 2.019110 0.035960 
#    z -0.011250 0.035960 1.958240 
# 
# From -- ./inp_files/413020.got.cif
#   From: 2010.05.17/outbox.cif.g08.bks.cpg/sg2_207_cif.got.tgz:413020.got - 2010.06.03 11:33:40.
