data_PCOD9093524
_publ_section_title
;
Structure prediction by ZEFSAII (Michael W. Deem and Ramdas Pophale) SiO2 
 PCOD9093524
Probable space group: P -1
;
_chemical_formula_sum "Si O2"
_cell_formula_units_Z 16
_cell_length_a 13.810258
_cell_length_b 11.470205
_cell_length_c 13.253796
_cell_angle_alpha 63.370362
_cell_angle_beta 32.250470
_cell_angle_gamma 88.770288
_cell_volume 662.783684
_symmetry_space_group_name_H-M "P -1"
_symmetry_group_IT_number 2
_symmetry_cell_setting 'triclinic'
loop_
_space_group_symop_operation_xyz
x,y,z
-x,-y,-z
loop_
_atom_site_type_symbol
_atom_site_label
_atom_site_fract_x
_atom_site_fract_y
_atom_site_fract_z
Si Si1 0.355160 0.993671 0.222095
Si Si2 0.175192 0.107502 0.188435
Si Si3 0.137225 0.926828 0.783986
Si Si4 0.073664 0.890682 0.082669
Si Si5 0.699206 0.500487 0.269158
Si Si6 0.415964 0.794684 0.368515
Si Si7 0.565560 0.798284 0.753206
Si Si8 0.547007 0.471596 0.190450
O O1 0.535649 0.180267 0.067447
O O2 0.240475 0.813123 0.462067
O O3 0.175023 0.001434 0.318323
O O4 0.500000 0.000000 0.000000
O O5 0.428692 0.204959 0.853816
O O6 0.271758 0.302838 0.058411
O O7 0.886771 0.947584 0.444592
O O8 0.968837 0.973889 0.923585
O O9 0.983026 0.730300 0.936646
O O10 0.402390 0.102203 0.416824
O O11 0.156413 0.898080 0.893911
O O12 0.779994 0.675028 0.455888
O O13 0.326833 0.994451 0.888953
O O14 0.500000 0.500000 0.500000
O O15 0.705447 0.371488 0.378860
O O16 0.607203 0.432988 0.260518
O O17 0.420424 0.592591 0.916845
#
# Coordination Sequence:
#
# PCOD9093524 Si02
#       8
#     2   2   2   2   2   2   2   2
#     4  10  26  43  62  82 121 169 201 245 316 358
#     4  11  20  40  66  90 114 159 209 253 291 350
#     4  10  17  28  56  92 123 146 198 244 292 347
#     4  10  16  29  53  94 125 156 185 239 299 359
#     4  12  16  30  58  96 125 153 195 242 296 358
#     4  11  19  36  60  89 129 165 191 242 302 362
#     4  11  21  40  65  91 117 156 205 258 297 347
#     4  11  20  32  66 100 119 145 209 254 292 345
#
# _framework density 24.140605999999998
#
# number of rings (size 3 to 8) (size 9 to 14) (size 15 to 20)
#    0.000    1.250    7.500    1.875    0.000    0.500 
#    0.000    3.750   11.000    0.000    0.000    0.000 
#    0.000    0.000    0.000    0.000    0.000    0.000 
#
# Total GULP energy -89347.053155 kJ/mol
# GULP energy per Si atom -5584.190822 kJ/mol
# Density = 2.408566 g / cm^3
# Si number density = 24.140606 Si / 1000 Ang^3
#
#
#
# Elastic Constant Matrix: (Units=GPa)
#
#
# Indices 1 2 3 4 5 6 
#
# 1 101.3739 65.1060 49.2877 -14.6665 17.6178 -14.7716
# 2 65.1060 182.8714 30.6002 0.1097 2.0175 29.2270
# 3 49.2877 30.6002 68.7255 -12.8902 19.4863 0.8547
# 4 -14.6665 0.1097 -12.8902 39.0289 7.0926 6.0201
# 5 17.6178 2.0175 19.4863 7.0926 24.3703 0.1578
# 6 -14.7716 29.2270 0.8547 6.0201 0.1578 46.0250
#
#
#
# Elastic Compliance Matrix: (Units=1/GPa)
#
#
# Indices 1 2 3 4 5 6 
#
# 1 0.025886 -0.009659 -0.009760 0.006606 -0.012122 0.013800
# 2 -0.009659 0.010373 -0.000453 -0.003777 0.007645 -0.009211
# 3 -0.009760 -0.000453 0.029137 0.010150 -0.019129 -0.004648
# 4 0.006606 -0.003777 0.010150 0.035680 -0.022961 -0.000258
# 5 -0.012122 0.007645 -0.019129 -0.022961 0.071178 -0.005631
# 6 0.013800 -0.009211 -0.004648 -0.000258 -0.005631 0.032145
#
#
# Mechanical properties :
#
#
# Convention : Reuss Voigt Hill
#
# Bulk Modulus (GPa) = 38.98201 71.43983 55.21092
# Shear Modulus (GPa) = 19.78689 35.74997 27.76843
#
# Velocity S-wave (km/s) = 2.86606 3.85243 3.39526
# Velocity P-wave (km/s) = 5.20916 7.03177 6.18794
#
# Compressibility (1/GPa) = 0.02565286
#
# Stress axis : x y z
#
# Youngs Moduli (GPa) = 38.63081 96.40548 34.32060
#
# Poissons Ratio (x) = 0.93115 0.33496
# Poissons Ratio (y) = 0.37312 0.01555
# Poissons Ratio (z) = 0.37703 0.04368
#
# Static dielectric constant tensor:
#      x y z
#    x 1.960990 -0.026310 0.008340 
#    y -0.026310 2.047710 0.100580 
#    z 0.008340 0.100580 1.965880 
# 
# From -- ./inp_files/449970.got.cif
#   From: 2010.05.17/outbox.cif.g08.bks.cpg/sg2_225_cif.got.tgz:449970.got - 2010.06.03 11:33:40.
