data_PCOD9093042
_publ_section_title
;
Structure prediction by ZEFSAII (Michael W. Deem and Ramdas Pophale) SiO2 
 PCOD9093042
Probable space group: P -1
;
_chemical_formula_sum "Si O2"
_cell_formula_units_Z 16
_cell_length_a 6.772693
_cell_length_b 19.023019
_cell_length_c 8.381750
_cell_angle_alpha 135.079571
_cell_angle_beta 108.432609
_cell_angle_gamma 57.810845
_cell_volume 641.950857
_symmetry_space_group_name_H-M "P -1"
_symmetry_group_IT_number 2
_symmetry_cell_setting 'triclinic'
loop_
_space_group_symop_operation_xyz
x,y,z
-x,-y,-z
loop_
_atom_site_type_symbol
_atom_site_label
_atom_site_fract_x
_atom_site_fract_y
_atom_site_fract_z
Si Si1 0.998870 0.600508 0.999052
Si Si2 0.719721 0.302959 0.396825
Si Si3 0.397565 0.769133 0.274416
Si Si4 0.127859 0.917632 0.696547
Si Si5 0.814540 0.755847 0.505178
Si Si6 0.388683 0.473280 0.101430
Si Si7 0.385897 0.232139 0.004778
Si Si8 0.648634 0.013290 0.877834
O O1 0.950783 0.688199 0.273301
O O2 0.883051 0.676149 0.937754
O O3 0.268411 0.514544 0.961765
O O4 0.825607 0.544297 0.896677
O O5 0.807523 0.195362 0.365505
O O6 0.596917 0.426930 0.639848
O O7 0.979822 0.283394 0.374639
O O8 0.539497 0.285604 0.210183
O O9 0.176090 0.873523 0.458294
O O10 0.591748 0.732410 0.409454
O O11 0.504563 0.799854 0.197050
O O12 0.398769 0.652382 0.046009
O O13 0.865106 0.007744 0.816089
O O14 0.289093 0.967867 0.895808
O O15 0.687290 0.889016 0.666494
O O16 0.425055 0.121685 0.932763
#
# Coordination Sequence:
#
# PCOD9093042 Si02
#       8
#     2   2   2   2   2   2   2   2
#     4   8  15  27  45  73  95 118 155 192 229 276
#     4   9  16  31  52  69  92 130 161 181 225 291
#     4  10  20  31  47  75  98 117 157 203 233 266
#     4   9  19  32  48  70  96 126 157 188 235 288
#     4   8  16  30  50  69  91 126 161 185 226 286
#     4   8  15  29  47  66  97 128 151 187 232 277
#     4   9  18  29  49  75  95 118 160 199 227 269
#     4   9  17  33  50  65  94 130 156 188 233 284
#
# _framework density 24.924026000000001
#
# number of rings (size 3 to 8) (size 9 to 14) (size 15 to 20)
#    0.000    3.500    0.000    1.500    0.000    5.500 
#    0.000    0.000    0.000   18.000    0.000    0.000 
#    0.000    4.000    0.000    0.000    0.000    0.000 
#
# Total GULP energy -89175.204828 kJ/mol
# GULP energy per Si atom -5573.450302 kJ/mol
# Density = 2.486730 g / cm^3
# Si number density = 24.924026 Si / 1000 Ang^3
#
#
#
# Elastic Constant Matrix: (Units=GPa)
#
#
# Indices 1 2 3 4 5 6 
#
# 1 42.0354 11.6636 22.8262 -10.1670 -2.5164 -18.5649
# 2 11.6636 95.7009 35.5063 18.8209 1.3435 -20.7885
# 3 22.8262 35.5063 150.1945 34.4569 11.0286 -4.6104
# 4 -10.1670 18.8209 34.4569 32.2901 5.2365 6.9342
# 5 -2.5164 1.3435 11.0286 5.2365 29.0297 -0.5563
# 6 -18.5649 -20.7885 -4.6104 6.9342 -0.5563 34.1728
#
#
#
# Elastic Compliance Matrix: (Units=1/GPa)
#
#
# Indices 1 2 3 4 5 6 
#
# 1 0.043213 -0.002125 -0.011030 0.022437 0.004298 0.016212
# 2 -0.002125 0.015461 -0.000424 -0.011763 0.001586 0.010606
# 3 -0.011030 -0.000424 0.012120 -0.015374 -0.002797 -0.001541
# 4 0.022437 -0.011763 -0.015374 0.064015 -0.003410 -0.010086
# 5 0.004298 0.001586 -0.002797 -0.003410 0.036505 0.004209
# 6 0.016212 0.010606 -0.001541 -0.010086 0.004209 0.046430
#
#
# Mechanical properties :
#
#
# Convention : Reuss Voigt Hill
#
# Bulk Modulus (GPa) = 22.91810 47.54700 35.23255
# Shear Modulus (GPa) = 19.27165 33.62751 26.44958
#
# Velocity S-wave (km/s) = 2.78369 3.67713 3.26115
# Velocity P-wave (km/s) = 4.42121 6.09480 5.32417
#
# Compressibility (1/GPa) = 0.04363363
#
# Stress axis : x y z
#
# Youngs Moduli (GPa) = 23.14103 64.68053 82.50899
#
# Poissons Ratio (x) = 0.13748 0.91010
# Poissons Ratio (y) = 0.04919 0.03500
# Poissons Ratio (z) = 0.25525 0.02744
#
# Static dielectric constant tensor:
#      x y z
#    x 2.193440 0.024550 0.022090 
#    y 0.024550 2.010730 -0.036630 
#    z 0.022090 -0.036630 1.940650 
# 
# From -- ./inp_files/221365.got.cif
#   From: 2010.05.17/outbox.cif.g08.bks.cpg/sg2_111_cif.got.tgz:221365.got - 2010.06.03 11:33:40.
