data_PCOD9093703
_publ_section_title
;
Structure prediction by ZEFSAII (Michael W. Deem and Ramdas Pophale) SiO2 
 PCOD9093703
Probable space group: P -1
;
_chemical_formula_sum "Si O2"
_cell_formula_units_Z 16
_cell_length_a 13.413344
_cell_length_b 11.236887
_cell_length_c 9.387169
_cell_angle_alpha 108.708449
_cell_angle_beta 50.696724
_cell_angle_gamma 130.708689
_cell_volume 819.567537
_symmetry_space_group_name_H-M "P -1"
_symmetry_group_IT_number 2
_symmetry_cell_setting 'triclinic'
loop_
_space_group_symop_operation_xyz
x,y,z
-x,-y,-z
loop_
_atom_site_type_symbol
_atom_site_label
_atom_site_fract_x
_atom_site_fract_y
_atom_site_fract_z
Si Si1 0.918095 0.641743 0.052449
Si Si2 0.520325 0.956599 0.731500
Si Si3 0.229791 0.656194 0.727171
Si Si4 0.203848 0.700393 0.455558
Si Si5 0.332806 0.052216 0.115314
Si Si6 0.796940 0.771207 0.718330
Si Si7 0.972841 0.877611 0.311484
Si Si8 0.832653 0.550777 0.774659
O O1 0.825888 0.496635 0.191105
O O2 0.929111 0.784558 0.168729
O O3 0.834441 0.584356 0.952216
O O4 0.097482 0.687457 0.889196
O O5 0.405338 0.806318 0.677908
O O6 0.590384 0.923617 0.790755
O O7 0.670634 0.111192 0.576101
O O8 0.414543 0.006843 0.913767
O O9 0.218842 0.628064 0.557911
O O10 0.241388 0.630348 0.262869
O O11 0.021461 0.644715 0.591380
O O12 0.137477 0.909229 0.236248
O O13 0.338981 0.202753 0.126829
O O14 0.764170 0.623412 0.771235
O O15 0.835304 0.782693 0.519757
O O16 0.962644 0.940569 0.691148
#
# Coordination Sequence:
#
# PCOD9093703 Si02
#       8
#     2   2   2   2   2   2   2   2
#     4  10  20  33  56  83 112 140 184 229 274 320
#     4  11  20  34  59  82 114 143 185 226 271 335
#     4  10  20  35  54  82 114 143 179 230 276 325
#     4  10  22  35  57  86 111 143 183 229 278 321
#     4   9  20  32  56  85 106 147 180 223 270 331
#     4   9  18  35  58  81 110 146 183 224 276 320
#     4   9  17  34  56  81 107 145 182 225 271 316
#     4  10  21  36  57  86 110 143 186 230 270 325
#
# _framework density 19.522490999999999
#
# number of rings (size 3 to 8) (size 9 to 14) (size 15 to 20)
#    0.750    1.500    1.250    1.875    3.500    2.500 
#    0.000    0.625    2.750    1.500    0.000    0.000 
#    0.000    0.000    0.000    0.000    0.000    0.000 
#
# Total GULP energy -89209.281979 kJ/mol
# GULP energy per Si atom -5575.580124 kJ/mol
# Density = 1.947806 g / cm^3
# Si number density = 19.522491 Si / 1000 Ang^3
#
#
#
# Elastic Constant Matrix: (Units=GPa)
#
#
# Indices 1 2 3 4 5 6 
#
# 1 53.3235 2.2735 1.4500 5.7001 -4.0861 -6.3490
# 2 2.2735 48.4213 3.2802 9.7660 4.2856 9.1345
# 3 1.4500 3.2802 32.8274 22.1562 8.8864 2.3381
# 4 5.7001 9.7660 22.1562 31.9812 8.2680 2.2217
# 5 -4.0861 4.2856 8.8864 8.2680 16.6577 1.8984
# 6 -6.3490 9.1345 2.3381 2.2217 1.8984 29.7168
#
#
#
# Elastic Compliance Matrix: (Units=1/GPa)
#
#
# Indices 1 2 3 4 5 6 
#
# 1 0.020575 -0.001316 0.001134 -0.006281 0.007362 0.004711
# 2 -0.001316 0.023934 0.005630 -0.009451 -0.003982 -0.007120
# 3 0.001134 0.005630 0.061014 -0.040585 -0.013301 -0.002405
# 4 -0.006281 -0.009451 -0.040585 0.066015 -0.010279 0.000477
# 5 0.007362 -0.003982 -0.013301 -0.010279 0.075081 -0.000185
# 6 0.004711 -0.007120 -0.002405 0.000477 -0.000185 0.037011
#
#
# Mechanical properties :
#
#
# Convention : Reuss Voigt Hill
#
# Bulk Modulus (GPa) = 8.58970 16.50884 12.54927
# Shear Modulus (GPa) = 16.04920 24.17572 20.11246
#
# Velocity S-wave (km/s) = 2.87032 3.52284 3.21319
# Velocity P-wave (km/s) = 3.92357 5.00219 4.49535
#
# Compressibility (1/GPa) = 0.11641848
#
# Stress axis : x y z
#
# Youngs Moduli (GPa) = 48.60226 41.78131 16.38969
#
# Poissons Ratio (x) = 0.05499 -0.01858
# Poissons Ratio (y) = 0.06397 -0.09228
# Poissons Ratio (z) = -0.05510 -0.23523
#
# Static dielectric constant tensor:
#      x y z
#    x 1.667700 0.010540 -0.011280 
#    y 0.010540 1.698050 -0.001660 
#    z -0.011280 -0.001660 1.686450 
# 
# From -- ./inp_files/303610.got.cif
#   From: 2010.05.17/outbox.cif.g08.bks.cpg/sg2_152_cif.got.tgz:303610.got - 2010.06.03 11:33:40.
