data_PCOD9093666
_publ_section_title
;
Structure prediction by ZEFSAII (Michael W. Deem and Ramdas Pophale) SiO2 
 PCOD9093666
Probable space group: P -1
;
_chemical_formula_sum "Si O2"
_cell_formula_units_Z 16
_cell_length_a 9.535416
_cell_length_b 14.143550
_cell_length_c 24.105897
_cell_angle_alpha 165.596748
_cell_angle_beta 127.278262
_cell_angle_gamma 52.370326
_cell_volume 638.756733
_symmetry_space_group_name_H-M "P -1"
_symmetry_group_IT_number 2
_symmetry_cell_setting 'triclinic'
loop_
_space_group_symop_operation_xyz
x,y,z
-x,-y,-z
loop_
_atom_site_type_symbol
_atom_site_label
_atom_site_fract_x
_atom_site_fract_y
_atom_site_fract_z
Si Si1 0.873119 0.132077 0.415512
Si Si2 0.263346 0.163349 0.545796
Si Si3 0.705636 0.986670 0.934167
Si Si4 0.957337 0.173860 0.005832
Si Si5 0.261726 0.988677 0.566942
Si Si6 0.025722 0.798006 0.099032
Si Si7 0.340337 0.963093 0.790430
Si Si8 0.366230 0.818672 0.258234
O O1 0.795506 0.200179 0.497384
O O2 0.732960 0.257981 0.404840
O O3 0.061656 0.287806 0.548489
O O4 0.931596 0.668489 0.156932
O O5 0.335353 0.556592 0.803660
O O6 0.254133 0.892976 0.444525
O O7 0.358449 0.967526 0.403986
O O8 0.829261 0.967701 0.898244
O O9 0.518656 0.823810 0.787946
O O10 0.841084 0.847902 0.936949
O O11 0.869503 0.614125 0.237975
O O12 0.955584 0.052375 0.873147
O O13 0.466877 0.048733 0.657504
O O14 0.830531 0.922883 0.146907
O O15 0.176799 0.946315 0.257408
O O16 0.389140 0.360055 0.001621
#
# Coordination Sequence:
#
# PCOD9093666 Si02
#       8
#     2   2   2   2   2   2   2   2
#     4  10  20  33  55  84 113 136 177 225 281 319
#     4  11  19  36  52  84 118 140 167 225 283 326
#     4  10  22  36  60  77 107 151 184 218 263 317
#     4   9  20  39  53  81 104 149 190 220 250 324
#     4  10  21  32  59  83 108 144 179 224 269 321
#     4  10  20  33  57  82 112 140 179 230 267 316
#     4  11  19  35  55  85 107 145 178 223 270 319
#     4  11  19  33  54  90 110 137 173 225 286 321
#
# _framework density 25.048660000000002
#
# number of rings (size 3 to 8) (size 9 to 14) (size 15 to 20)
#    0.000    1.750    5.000    1.500    1.750    2.000 
#    0.000    0.625    0.000    6.750    0.000    0.000 
#    0.000    0.000    0.000    0.000    0.000    0.000 
#
# Total GULP energy -89529.083803 kJ/mol
# GULP energy per Si atom -5595.567738 kJ/mol
# Density = 2.499165 g / cm^3
# Si number density = 25.048660 Si / 1000 Ang^3
#
#
#
# Elastic Constant Matrix: (Units=GPa)
#
#
# Indices 1 2 3 4 5 6 
#
# 1 107.7286 67.9106 25.1807 -11.5746 -9.3341 -16.8458
# 2 67.9106 145.2694 44.8112 -32.2425 2.4949 -29.5206
# 3 25.1807 44.8112 72.9140 -24.6966 -6.9392 -3.8138
# 4 -11.5746 -32.2425 -24.6966 47.0289 -0.6523 1.4602
# 5 -9.3341 2.4949 -6.9392 -0.6523 30.0660 -10.0611
# 6 -16.8458 -29.5206 -3.8138 1.4602 -10.0611 58.5297
#
#
#
# Elastic Compliance Matrix: (Units=1/GPa)
#
#
# Indices 1 2 3 4 5 6 
#
# 1 0.014061 -0.006354 -0.000799 -0.001296 0.005258 0.001726
# 2 -0.006354 0.013118 -0.004192 0.005070 -0.002600 0.003941
# 3 -0.000799 -0.004192 0.019419 0.007205 0.004580 -0.000471
# 4 -0.001296 0.005070 0.007205 0.028163 0.002232 0.002335
# 5 0.005258 -0.002600 0.004580 0.002232 0.038582 0.007077
# 6 0.001726 0.003941 -0.000471 0.002335 0.007077 0.020697
#
#
# Mechanical properties :
#
#
# Convention : Reuss Voigt Hill
#
# Bulk Modulus (GPa) = 41.82712 66.85745 54.34229
# Shear Modulus (GPa) = 30.35856 39.65889 35.00873
#
# Velocity S-wave (km/s) = 3.48513 3.98335 3.74254
# Velocity P-wave (km/s) = 5.73842 6.92135 6.35746
#
# Compressibility (1/GPa) = 0.02390794
#
# Stress axis : x y z
#
# Youngs Moduli (GPa) = 71.11858 76.23210 51.49709
#
# Poissons Ratio (x) = 0.48436 0.04116
# Poissons Ratio (y) = 0.45187 0.21586
# Poissons Ratio (z) = 0.05685 0.31954
#
# Static dielectric constant tensor:
#      x y z
#    x 1.916150 0.003550 0.025000 
#    y 0.003550 2.053700 0.059080 
#    z 0.025000 0.059080 2.060300 
# 
# From -- ./inp_files/257531.got.cif
#   From: 2010.05.17/outbox.cif.g08.bks.cpg/sg2_129_cif.got.tgz:257531.got - 2010.06.03 11:33:40.
