data_PCOD9093761
_publ_section_title
;
Structure prediction by ZEFSAII (Michael W. Deem and Ramdas Pophale) SiO2 
 PCOD9093761
Probable space group: P -1
;
_chemical_formula_sum "Si O2"
_cell_formula_units_Z 16
_cell_length_a 8.665538
_cell_length_b 16.593735
_cell_length_c 7.835915
_cell_angle_alpha 124.392973
_cell_angle_beta 128.092407
_cell_angle_gamma 89.390202
_cell_volume 624.944185
_symmetry_space_group_name_H-M "P -1"
_symmetry_group_IT_number 2
_symmetry_cell_setting 'triclinic'
loop_
_space_group_symop_operation_xyz
x,y,z
-x,-y,-z
loop_
_atom_site_type_symbol
_atom_site_label
_atom_site_fract_x
_atom_site_fract_y
_atom_site_fract_z
Si Si1 0.826382 0.364027 0.698273
Si Si2 0.107164 0.246724 0.162948
Si Si3 0.720435 0.867737 0.625830
Si Si4 0.999905 0.912282 0.530590
Si Si5 0.632130 0.376965 0.067796
Si Si6 0.683438 0.138611 0.522900
Si Si7 0.938411 0.609115 0.422426
Si Si8 0.611448 0.665788 0.835733
O O1 0.747362 0.267224 0.669292
O O2 0.601280 0.346425 0.430273
O O3 0.969636 0.335342 0.629278
O O4 0.000000 0.500000 0.000000
O O5 0.212015 0.171441 0.201631
O O6 0.132785 0.316919 0.431832
O O7 0.232565 0.341424 0.211968
O O8 0.851958 0.160524 0.821704
O O9 0.924917 0.922582 0.687149
O O10 0.576675 0.925203 0.660783
O O11 0.530856 0.749236 0.262976
O O12 0.230217 0.909485 0.630988
O O13 0.786180 0.792210 0.174606
O O14 0.000000 0.000000 0.500000
O O15 0.740486 0.476725 0.122388
O O16 0.496981 0.405530 0.152512
O O17 0.847645 0.383108 0.319083
#
# Coordination Sequence:
#
# PCOD9093761 Si02
#       8
#     2   2   2   2   2   2   2   2
#     4  11  22  39  64  93 134 180 217 259 322 392
#     4  11  22  37  62  94 126 172 222 267 325 394
#     4  11  21  42  67  91 129 169 212 273 337 393
#     4  10  24  47  71  98 128 168 225 279 336 400
#     4   9  19  36  55  85 123 172 213 263 315 382
#     4  11  23  43  67  95 139 172 212 282 329 380
#     4  10  20  33  57  86 123 171 222 255 312 379
#     4   9  21  39  60  90 129 162 216 271 320 387
#
# _framework density 25.602287
#
# number of rings (size 3 to 8) (size 9 to 14) (size 15 to 20)
#    0.000    1.750    2.500    1.500    3.500    1.500 
#    4.500    3.125    0.000    0.000    0.000    0.000 
#    0.000    0.000    0.000    0.000    0.000    0.000 
#
# Total GULP energy -89354.576940 kJ/mol
# GULP energy per Si atom -5584.661059 kJ/mol
# Density = 2.554401 g / cm^3
# Si number density = 25.602287 Si / 1000 Ang^3
#
#
#
# Elastic Constant Matrix: (Units=GPa)
#
#
# Indices 1 2 3 4 5 6 
#
# 1 191.4815 27.5316 15.8822 1.4410 8.7680 19.9815
# 2 27.5316 65.1128 7.2805 -0.3336 8.7797 13.7255
# 3 15.8822 7.2805 56.9789 3.9461 28.3385 -2.0150
# 4 1.4410 -0.3336 3.9461 31.2131 -4.0852 4.8725
# 5 8.7680 8.7797 28.3385 -4.0852 35.7275 -8.6310
# 6 19.9815 13.7255 -2.0150 4.8725 -8.6310 39.2750
#
#
#
# Elastic Compliance Matrix: (Units=1/GPa)
#
#
# Indices 1 2 3 4 5 6 
#
# 1 0.005870 -0.001700 -0.001172 0.000177 -0.000708 -0.002630
# 2 -0.001700 0.018318 0.001178 0.000343 -0.006667 -0.006984
# 3 -0.001172 0.001178 0.031136 -0.006813 -0.026236 -0.003138
# 4 0.000177 0.000343 -0.006813 0.034471 0.008501 -0.002968
# 5 -0.000708 -0.006667 -0.026236 0.008501 0.054549 0.012277
# 6 -0.002630 -0.006984 -0.003138 -0.002968 0.012277 0.032145
#
#
# Mechanical properties :
#
#
# Convention : Reuss Voigt Hill
#
# Bulk Modulus (GPa) = 19.25447 46.10687 32.68067
# Shear Modulus (GPa) = 25.35657 38.76837 32.06247
#
# Velocity S-wave (km/s) = 3.15048 3.89556 3.54266
# Velocity P-wave (km/s) = 4.55752 6.18723 5.43382
#
# Compressibility (1/GPa) = 0.05193600
#
# Stress axis : x y z
#
# Youngs Moduli (GPa) = 170.36940 54.59136 32.11759
#
# Poissons Ratio (x) = 0.09281 0.03764
# Poissons Ratio (y) = 0.28964 -0.03784
# Poissons Ratio (z) = 0.19964 -0.06433
#
# Static dielectric constant tensor:
#      x y z
#    x 2.162990 -0.048030 -0.001180 
#    y -0.048030 1.972060 -0.006130 
#    z -0.001180 -0.006130 2.003220 
# 
# From -- ./inp_files/206556.got.cif
#   From: 2010.05.17/outbox.cif.g08.bks.cpg/sg2_104_cif.got.tgz:206556.got - 2010.06.03 11:33:40.
