data_PCOD9093811
_publ_section_title
;
Structure prediction by ZEFSAII (Michael W. Deem and Ramdas Pophale) SiO2 
 PCOD9093811
Probable space group: P -1
;
_chemical_formula_sum "Si O2"
_cell_formula_units_Z 16
_cell_length_a 8.770044
_cell_length_b 18.132965
_cell_length_c 15.100749
_cell_angle_alpha 156.350307
_cell_angle_beta 128.182692
_cell_angle_gamma 40.718111
_cell_volume 601.246374
_symmetry_space_group_name_H-M "P -1"
_symmetry_group_IT_number 2
_symmetry_cell_setting 'triclinic'
loop_
_space_group_symop_operation_xyz
x,y,z
-x,-y,-z
loop_
_atom_site_type_symbol
_atom_site_label
_atom_site_fract_x
_atom_site_fract_y
_atom_site_fract_z
Si Si1 0.733730 0.020800 0.786219
Si Si2 0.308496 0.320636 0.832770
Si Si3 0.821775 0.013585 0.624021
Si Si4 0.797274 0.767582 0.939450
Si Si5 0.791183 0.261811 0.664094
Si Si6 0.726319 0.607089 0.367422
Si Si7 0.400917 0.295313 0.374724
Si Si8 0.454364 0.410298 0.237791
O O1 0.892967 0.003153 0.741436
O O2 0.794693 0.779185 0.565407
O O3 0.459277 0.172661 0.812189
O O4 0.696638 0.172250 0.022984
O O5 0.193405 0.201656 0.624452
O O6 0.541821 0.240695 0.769159
O O7 0.151783 0.589677 0.093721
O O8 0.980334 0.981078 0.561229
O O9 0.734517 0.747896 0.794098
O O10 0.700398 0.656397 0.842588
O O11 0.089590 0.612122 0.870158
O O12 0.639148 0.037295 0.202842
O O13 0.553326 0.286158 0.634084
O O14 0.689776 0.416182 0.705636
O O15 0.743788 0.575639 0.445434
O O16 0.471846 0.450188 0.529210
#
# Coordination Sequence:
#
# PCOD9093811 Si02
#       8
#     2   2   2   2   2   2   2   2
#     4   9  18  37  58  83 118 153 192 239 292 349
#     4   8  18  34  58  81 113 148 203 233 288 345
#     4   9  17  35  60  78 114 154 193 241 286 341
#     4  11  22  41  63  83 121 155 187 251 297 340
#     4  10  20  33  58  86 113 153 201 234 285 348
#     4  11  22  38  56  88 121 148 194 244 291 350
#     4  10  23  41  61  87 116 151 201 240 297 351
#     4  10  20  39  60  87 116 154 199 239 287 354
#
# _framework density 26.61139
#
# number of rings (size 3 to 8) (size 9 to 14) (size 15 to 20)
#    0.750    1.500    1.250    1.875    0.000    2.000 
#    4.500    1.875    0.000    0.000    0.000    0.000 
#    0.000    0.000    0.000    0.000    0.000    0.000 
#
# Total GULP energy -89439.857313 kJ/mol
# GULP energy per Si atom -5589.991082 kJ/mol
# Density = 2.655082 g / cm^3
# Si number density = 26.611390 Si / 1000 Ang^3
#
#
#
# Elastic Constant Matrix: (Units=GPa)
#
#
# Indices 1 2 3 4 5 6 
#
# 1 152.6630 7.6751 53.7689 9.1887 -16.8163 0.2985
# 2 7.6751 29.9584 -1.7859 -1.7812 -6.9933 -5.5656
# 3 53.7689 -1.7859 126.0506 18.9141 1.9493 -10.2454
# 4 9.1887 -1.7812 18.9141 28.7345 -0.8016 -5.0580
# 5 -16.8163 -6.9933 1.9493 -0.8016 52.6914 9.4732
# 6 0.2985 -5.5656 -10.2454 -5.0580 9.4732 37.2878
#
#
#
# Elastic Compliance Matrix: (Units=1/GPa)
#
#
# Indices 1 2 3 4 5 6 
#
# 1 0.008328 -0.002131 -0.003709 -0.000666 0.002903 -0.002232
# 2 -0.002131 0.035913 0.001348 0.003052 0.003117 0.005370
# 3 -0.003709 0.001348 0.010591 -0.005240 -0.002005 0.002939
# 4 -0.000666 0.003052 -0.005240 0.039418 0.000210 0.004315
# 5 0.002903 0.003117 -0.002005 0.000210 0.021387 -0.005514
# 6 -0.002232 0.005370 0.002939 0.004315 -0.005514 0.030432
#
#
# Mechanical properties :
#
#
# Convention : Reuss Voigt Hill
#
# Bulk Modulus (GPa) = 21.81149 47.55424 34.68286
# Shear Modulus (GPa) = 29.35384 40.34366 34.84875
#
# Velocity S-wave (km/s) = 3.32483 3.89785 3.62269
# Velocity P-wave (km/s) = 4.79097 6.17789 5.52810
#
# Compressibility (1/GPa) = 0.04584740
#
# Stress axis : x y z
#
# Youngs Moduli (GPa) = 120.07477 27.84528 94.42141
#
# Poissons Ratio (x) = 0.05934 0.35022
# Poissons Ratio (y) = 0.25590 -0.12729
# Poissons Ratio (z) = 0.44537 -0.03754
#
# Static dielectric constant tensor:
#      x y z
#    x 2.103310 -0.007470 -0.062780 
#    y -0.007470 2.217390 0.015080 
#    z -0.062780 0.015080 2.106600 
# 
# From -- ./inp_files/591901.got.cif
#   From: 2010.05.17/outbox.cif.g08.bks.cpg/sg2_296_cif.got.tgz:591901.got - 2010.06.03 11:33:40.
