data_PCOD9093320
_publ_section_title
;
Structure prediction by ZEFSAII (Michael W. Deem and Ramdas Pophale) SiO2 
 PCOD9093320
Probable space group: P -1
;
_chemical_formula_sum "Si O2"
_cell_formula_units_Z 10
_cell_length_a 6.947542
_cell_length_b 4.867213
_cell_length_c 10.642393
_cell_angle_alpha 104.055989
_cell_angle_beta 92.894591
_cell_angle_gamma 88.064567
_cell_volume 348.567909
_symmetry_space_group_name_H-M "P -1"
_symmetry_group_IT_number 2
_symmetry_cell_setting 'triclinic'
loop_
_space_group_symop_operation_xyz
x,y,z
-x,-y,-z
loop_
_atom_site_type_symbol
_atom_site_label
_atom_site_fract_x
_atom_site_fract_y
_atom_site_fract_z
Si Si1 0.799330 0.639268 0.063132
Si Si2 0.000000 0.500000 0.500000
Si Si3 0.000000 0.000000 0.500000
Si Si4 0.375326 0.062392 0.380636
Si Si5 0.673431 0.557714 0.789272
Si Si6 0.106736 0.748957 0.768109
O O1 0.649610 0.621457 0.942639
O O2 0.767890 0.478440 0.175251
O O3 0.000000 0.500000 0.000000
O O4 0.833962 0.955960 0.140071
O O5 0.047222 0.700720 0.399340
O O6 0.875215 0.243362 0.384160
O O7 0.182080 0.196088 0.459541
O O8 0.348736 0.776955 0.269057
O O9 0.500000 0.000000 0.500000
O O10 0.446941 0.292758 0.310593
O O11 0.879651 0.716103 0.790355
#
# Coordination Sequence:
#
# PCOD9093320 Si02
#       6
#     2   1   1   2   2   2
#     4  10  20  32  55  86 128 163 204 268 304 374
#     4  12  22  34  62  88 134 162 200 274 312 380
#     4  12  22  42  58  90 134 162 208 266 316 386
#     4  12  24  39  63  94 128 168 211 266 323 369
#     4  11  20  38  57  89 131 156 214 262 307 381
#     4  11  19  34  54  92 127 157 212 256 319 369
#
# _framework density 28.688811000000001
#
# number of rings (size 3 to 8) (size 9 to 14) (size 15 to 20)
#    0.000    0.800    4.000    7.800    0.000    0.000 
#    0.000    0.000    0.000    0.000    0.000   28.000 
#    0.000    0.000    0.000    0.000    0.000    0.000 
#
# Total GULP energy -55731.117002 kJ/mol
# GULP energy per Si atom -5573.111700 kJ/mol
# Density = 2.862351 g / cm^3
# Si number density = 28.688811 Si / 1000 Ang^3
#
#
#
# Elastic Constant Matrix: (Units=GPa)
#
#
# Indices 1 2 3 4 5 6 
#
# 1 86.7578 14.8149 37.8116 -18.6933 0.8125 6.2467
# 2 14.8149 206.2278 28.3921 28.4433 -11.8629 -5.5316
# 3 37.8116 28.3921 248.0408 -8.9772 -1.6877 -10.2299
# 4 -18.6933 28.4433 -8.9772 78.4950 -7.4408 -5.0696
# 5 0.8125 -11.8629 -1.6877 -7.4408 36.3955 -24.4706
# 6 6.2467 -5.5316 -10.2299 -5.0696 -24.4706 31.4505
#
#
#
# Elastic Compliance Matrix: (Units=1/GPa)
#
#
# Indices 1 2 3 4 5 6 
#
# 1 0.013921 -0.001581 -0.002199 0.002620 -0.005527 -0.007636
# 2 -0.001581 0.005611 -0.000251 -0.001730 0.004470 0.004418
# 3 -0.002199 -0.000251 0.004644 0.000745 0.003555 0.004789
# 4 0.002620 -0.001730 0.000745 0.015362 0.008024 0.008137
# 5 -0.005527 0.004470 0.003555 0.008024 0.070827 0.059442
# 6 -0.007636 0.004418 0.004789 0.008137 0.059442 0.083209
#
#
# Mechanical properties :
#
#
# Convention : Reuss Voigt Hill
#
# Bulk Modulus (GPa) = 62.05985 78.11818 70.08902
# Shear Modulus (GPa) = 24.15374 59.93541 42.04457
#
# Velocity S-wave (km/s) = 2.90474 4.57569 3.83239
# Velocity P-wave (km/s) = 5.73838 7.42997 6.63828
#
# Compressibility (1/GPa) = 0.01611348
#
# Stress axis : x y z
#
# Youngs Moduli (GPa) = 71.83538 178.21011 215.32248
#
# Poissons Ratio (x) = 0.28182 0.47345
# Poissons Ratio (y) = 0.11360 0.05409
# Poissons Ratio (z) = 0.15795 0.04477
#
# Static dielectric constant tensor:
#      x y z
#    x 2.625750 0.024490 0.092870 
#    y 0.024490 2.229790 0.375900 
#    z 0.092870 0.375900 2.228970 
# 
# From -- ./inp_files/372252.got.cif
#   From: 2010.05.17/outbox.cif.g08.bks.cpg/sg2_187_cif.got.tgz:372252.got - 2010.06.03 11:33:40.
