data_PCOD9093429
_publ_section_title
;
Structure prediction by ZEFSAII (Michael W. Deem and Ramdas Pophale) SiO2 
 PCOD9093429
Probable space group: P -1
;
_chemical_formula_sum "Si O2"
_cell_formula_units_Z 15
_cell_length_a 10.495116
_cell_length_b 7.048965
_cell_length_c 11.709420
_cell_angle_alpha 126.835010
_cell_angle_beta 54.228358
_cell_angle_gamma 111.050991
_cell_volume 562.479531
_symmetry_space_group_name_H-M "P -1"
_symmetry_group_IT_number 2
_symmetry_cell_setting 'triclinic'
loop_
_space_group_symop_operation_xyz
x,y,z
-x,-y,-z
loop_
_atom_site_type_symbol
_atom_site_label
_atom_site_fract_x
_atom_site_fract_y
_atom_site_fract_z
Si Si1 0.176902 0.122405 0.340065
Si Si2 0.467881 0.861932 0.349469
Si Si3 0.713503 0.149110 0.013775
Si Si4 0.949019 0.393219 0.211887
Si Si5 0.862441 0.287927 0.601153
Si Si6 0.553175 0.683537 0.633317
Si Si7 0.000000 0.500000 0.000000
Si Si8 0.789976 0.907967 0.119941
O O1 0.266288 0.341905 0.433863
O O2 0.008276 0.208519 0.416920
O O3 0.151120 0.920070 0.373360
O O4 0.300121 0.019150 0.148847
O O5 0.309671 0.704562 0.363396
O O6 0.640114 0.769206 0.195765
O O7 0.500000 0.000000 0.500000
O O8 0.452549 0.064514 0.335230
O O9 0.568951 0.296872 0.191965
O O10 0.859564 0.316617 0.967726
O O11 0.761474 0.969829 0.025520
O O12 0.066328 0.498432 0.282172
O O13 0.886839 0.570483 0.212400
O O14 0.062410 0.264205 0.005600
O O15 0.839729 0.173346 0.232141
O O16 0.500000 0.500000 0.500000
#
# Coordination Sequence:
#
# PCOD9093429 Si02
#       8
#     2   2   2   2   2   2   1   2
#     4  10  21  39  62  94 126 163 206 263 315 366
#     4  10  23  44  60  88 125 167 208 256 314 378
#     4  10  20  38  60  92 125 164 205 257 310 375
#     4  10  20  40  61  94 123 166 205 261 309 374
#     4  10  22  38  65  89 129 161 213 262 306 366
#     4  10  23  39  65  92 126 162 208 267 311 365
#     4  10  20  32  68  88 120 162 214 246 308 384
#     4   9  22  39  62  87 132 160 204 259 313 369
#
# _framework density 26.667636999999999
#
# number of rings (size 3 to 8) (size 9 to 14) (size 15 to 20)
#    0.000    2.133    1.333    0.400    5.600    5.867 
#    2.400    1.333    0.000    0.000    0.000    0.000 
#    0.000    0.000    0.000    0.000    0.000    0.000 
#
# Total GULP energy -83593.877975 kJ/mol
# GULP energy per Si atom -5572.925198 kJ/mol
# Density = 2.660694 g / cm^3
# Si number density = 26.667637 Si / 1000 Ang^3
#
#
#
# Elastic Constant Matrix: (Units=GPa)
#
#
# Indices 1 2 3 4 5 6 
#
# 1 112.4354 59.5030 29.3378 -12.1211 -5.3220 44.3083
# 2 59.5030 133.2702 30.0311 -6.2768 17.2835 17.4743
# 3 29.3378 30.0311 98.5610 -9.0713 5.6155 26.1667
# 4 -12.1211 -6.2768 -9.0713 35.5759 4.1370 9.5799
# 5 -5.3220 17.2835 5.6155 4.1370 44.5151 0.5024
# 6 44.3083 17.4743 26.1667 9.5799 0.5024 62.6281
#
#
#
# Elastic Compliance Matrix: (Units=1/GPa)
#
#
# Indices 1 2 3 4 5 6 
#
# 1 0.018428 -0.006841 0.000446 0.008087 0.004194 -0.012586
# 2 -0.006841 0.011220 -0.001914 -0.001000 -0.004870 0.002701
# 3 0.000446 -0.001914 0.012630 0.004725 -0.001171 -0.005772
# 4 0.008087 -0.001000 0.004725 0.035632 -0.002407 -0.012848
# 5 0.004194 -0.004870 -0.001171 -0.002407 0.025239 -0.000953
# 6 -0.012586 0.002701 -0.005772 -0.012848 -0.000953 0.028502
#
#
# Mechanical properties :
#
#
# Convention : Reuss Voigt Hill
#
# Bulk Modulus (GPa) = 38.97167 64.66782 51.81974
# Shear Modulus (GPa) = 31.88311 43.57011 37.72661
#
# Velocity S-wave (km/s) = 3.46146 4.04644 3.76533
# Velocity P-wave (km/s) = 5.53364 6.79218 6.19495
#
# Compressibility (1/GPa) = 0.02565966
#
# Stress axis : x y z
#
# Youngs Moduli (GPa) = 54.26486 89.13007 79.17366
#
# Poissons Ratio (x) = 0.60974 -0.03530
# Poissons Ratio (y) = 0.37123 0.15154
# Poissons Ratio (z) = -0.02419 0.17059
#
# Static dielectric constant tensor:
#      x y z
#    x 5.103730 -2.561450 0.269260 
#    y -2.561450 4.481680 -0.373580 
#    z 0.269260 -0.373580 2.447810 
# 
# From -- ./inp_files/418353.got.cif
#   From: 2010.05.17/outbox.cif.g08.bks.cpg/sg2_210_cif.got.tgz:418353.got - 2010.06.03 11:33:40.
