data_PCOD9093564
_publ_section_title
;
Structure prediction by ZEFSAII (Michael W. Deem and Ramdas Pophale) SiO2 
 PCOD9093564
Probable space group: P -1
;
_chemical_formula_sum "Si O2"
_cell_formula_units_Z 16
_cell_length_a 14.442512
_cell_length_b 7.798278
_cell_length_c 17.062219
_cell_angle_alpha 94.313650
_cell_angle_beta 159.618687
_cell_angle_gamma 88.366272
_cell_volume 662.456418
_symmetry_space_group_name_H-M "P -1"
_symmetry_group_IT_number 2
_symmetry_cell_setting 'triclinic'
loop_
_space_group_symop_operation_xyz
x,y,z
-x,-y,-z
loop_
_atom_site_type_symbol
_atom_site_label
_atom_site_fract_x
_atom_site_fract_y
_atom_site_fract_z
Si Si1 0.785410 0.448654 0.048248
Si Si2 0.018381 0.719407 0.656457
Si Si3 0.278968 0.054077 0.949337
Si Si4 0.203976 0.771168 0.162231
Si Si5 0.383399 0.416718 0.322825
Si Si6 0.526622 0.111241 0.760975
Si Si7 0.588907 0.394557 0.141547
Si Si8 0.149352 0.773373 0.299901
O O1 0.960921 0.424871 0.264898
O O2 0.926069 0.604053 0.113646
O O3 0.753642 0.264471 0.975644
O O4 0.495196 0.495834 0.847371
O O5 0.118479 0.652407 0.650666
O O6 0.747619 0.805694 0.448211
O O7 0.244076 0.877011 0.867239
O O8 0.992001 0.089917 0.757982
O O9 0.398901 0.214921 0.998178
O O10 0.462712 0.036696 0.171187
O O11 0.340323 0.593802 0.250894
O O12 0.366152 0.915896 0.241846
O O13 0.217926 0.824327 0.266562
O O14 0.894734 0.707053 0.895274
O O15 0.500000 0.500000 0.500000
O O16 0.603357 0.300050 0.464499
O O17 0.500000 0.500000 0.000000
#
# Coordination Sequence:
#
# PCOD9093564 Si02
#       8
#     2   2   2   2   2   2   2   2
#     4   9  19  36  58  86 112 139 189 240 270 320
#     4  10  21  38  60  81 112 152 180 221 288 339
#     4  10  23  39  56  84 116 143 183 231 273 332
#     4  10  20  33  53  81 114 150 188 230 272 319
#     4   9  17  31  54  80 106 144 192 234 272 312
#     4  11  22  36  54  83 119 150 183 224 276 333
#     4   9  19  40  65  84 107 141 182 233 283 329
#     4  10  20  36  57  81 112 151 192 232 271 317
#
# _framework density 24.152533999999999
#
# number of rings (size 3 to 8) (size 9 to 14) (size 15 to 20)
#    0.000    2.250    0.000    3.375    0.000    5.500 
#    0.000    7.500    0.000    0.000    0.000    0.000 
#    0.000    0.000    0.000    0.000    0.000    0.000 
#
# Total GULP energy -89386.801478 kJ/mol
# GULP energy per Si atom -5586.675092 kJ/mol
# Density = 2.409756 g / cm^3
# Si number density = 24.152534 Si / 1000 Ang^3
#
#
#
# Elastic Constant Matrix: (Units=GPa)
#
#
# Indices 1 2 3 4 5 6 
#
# 1 121.8374 45.7363 26.3193 -10.8636 18.4734 11.7372
# 2 45.7363 86.5377 10.0634 -3.4486 0.0174 6.2880
# 3 26.3193 10.0634 85.3479 -27.6352 19.7155 2.3457
# 4 -10.8636 -3.4486 -27.6352 33.9533 -9.9971 5.1918
# 5 18.4734 0.0174 19.7155 -9.9971 25.4904 -2.5440
# 6 11.7372 6.2880 2.3457 5.1918 -2.5440 39.1366
#
#
#
# Elastic Compliance Matrix: (Units=1/GPa)
#
#
# Indices 1 2 3 4 5 6 
#
# 1 0.012346 -0.006159 -0.000838 0.000687 -0.008355 -0.003297
# 2 -0.006159 0.014952 -0.000974 0.000353 0.005326 -0.000197
# 3 -0.000838 -0.000974 0.018207 0.012257 -0.008956 -0.002892
# 4 0.000687 0.000353 0.012257 0.042414 0.006034 -0.006232
# 5 -0.008355 0.005326 -0.008956 0.006034 0.055071 0.004966
# 6 -0.003297 -0.000197 -0.002892 -0.006232 0.004966 0.027895
#
#
# Mechanical properties :
#
#
# Convention : Reuss Voigt Hill
#
# Bulk Modulus (GPa) = 33.82654 50.88458 42.35556
# Shear Modulus (GPa) = 25.42185 33.82300 29.62243
#
# Velocity S-wave (km/s) = 3.24783 3.74624 3.50590
# Velocity P-wave (km/s) = 5.30097 6.31080 5.82780
#
# Compressibility (1/GPa) = 0.02956258
#
# Stress axis : x y z
#
# Youngs Moduli (GPa) = 80.99473 66.88292 54.92346
#
# Poissons Ratio (x) = 0.41195 0.04603
# Poissons Ratio (y) = 0.49886 0.05349
# Poissons Ratio (z) = 0.06788 0.06514
#
# Static dielectric constant tensor:
#      x y z
#    x 1.957090 -0.014190 -0.026650 
#    y -0.014190 1.907060 -0.006910 
#    z -0.026650 -0.006910 1.963850 
# 
# From -- ./inp_files/54935.got.cif
#   From: 2010.05.17/outbox.cif.g08.bks.cpg/sg2_28_cif.got.tgz:54935.got - 2010.06.03 11:33:40.
