data_PCOD9093746
_publ_section_title
;
Structure prediction by ZEFSAII (Michael W. Deem and Ramdas Pophale) SiO2 
 PCOD9093746
Probable space group: P -1
;
_chemical_formula_sum "Si O2"
_cell_formula_units_Z 16
_cell_length_a 15.807474
_cell_length_b 8.259208
_cell_length_c 6.735298
_cell_angle_alpha 102.694142
_cell_angle_beta 116.798986
_cell_angle_gamma 115.220598
_cell_volume 610.770577
_symmetry_space_group_name_H-M "P -1"
_symmetry_group_IT_number 2
_symmetry_cell_setting 'triclinic'
loop_
_space_group_symop_operation_xyz
x,y,z
-x,-y,-z
loop_
_atom_site_type_symbol
_atom_site_label
_atom_site_fract_x
_atom_site_fract_y
_atom_site_fract_z
Si Si1 0.962145 0.559737 0.171571
Si Si2 0.695958 0.301907 0.905246
Si Si3 0.775673 0.792121 0.434050
Si Si4 0.300133 0.325602 0.106185
Si Si5 0.667620 0.369070 0.358093
Si Si6 0.033678 0.052983 0.821788
Si Si7 0.783741 0.159994 0.427351
Si Si8 0.592252 0.884123 0.807375
O O1 0.831957 0.382504 0.062389
O O2 0.951439 0.739593 0.152112
O O3 0.081060 0.674698 0.460163
O O4 0.000000 0.500000 0.000000
O O5 0.680204 0.453955 0.798638
O O6 0.671100 0.333423 0.114800
O O7 0.614976 0.054418 0.719668
O O8 0.690049 0.685818 0.126128
O O9 0.729376 0.615980 0.503443
O O10 0.784635 0.999960 0.531816
O O11 0.909255 0.868467 0.537030
O O12 0.164169 0.119804 0.944117
O O13 0.385351 0.280188 0.283793
O O14 0.740579 0.290445 0.503716
O O15 0.533557 0.229623 0.250890
O O16 0.000000 0.000000 0.000000
O O17 0.692723 0.021238 0.118923
#
# Coordination Sequence:
#
# PCOD9093746 Si02
#       8
#     2   2   2   2   2   2   2   2
#     4  10  22  36  53  82 109 146 180 218 275 336
#     4   9  19  34  52  81 113 136 177 225 272 320
#     4   9  19  34  54  82 111 141 177 224 279 327
#     4   9  19  34  54  82 111 141 177 224 279 327
#     4  10  20  33  57  84 107 142 182 222 271 320
#     4  10  21  35  55  83 110 144 177 226 276 333
#     4   9  19  34  52  81 113 136 177 225 272 320
#     4  10  20  33  57  84 107 142 182 222 271 320
#
# _framework density 26.196415999999999
#
# number of rings (size 3 to 8) (size 9 to 14) (size 15 to 20)
#    0.000    2.500    0.000    1.875    3.500   10.500 
#    0.000    0.000    0.000    3.750    0.000    0.000 
#    0.000    0.000    0.000    0.000    0.000    0.000 
#
# Total GULP energy -89430.654152 kJ/mol
# GULP energy per Si atom -5589.415885 kJ/mol
# Density = 2.613679 g / cm^3
# Si number density = 26.196416 Si / 1000 Ang^3
#
#
#
# Elastic Constant Matrix: (Units=GPa)
#
#
# Indices 1 2 3 4 5 6 
#
# 1 162.9541 88.1421 29.3394 18.6481 42.4688 -14.0111
# 2 88.1421 215.2256 35.3326 23.1913 37.1691 -18.0005
# 3 29.3394 35.3326 92.1841 7.5094 19.5130 1.8500
# 4 18.6481 23.1913 7.5094 37.5857 7.0657 5.4674
# 5 42.4688 37.1691 19.5130 7.0657 49.3785 6.7087
# 6 -14.0111 -18.0005 1.8500 5.4674 6.7087 52.4789
#
#
#
# Elastic Compliance Matrix: (Units=1/GPa)
#
#
# Indices 1 2 3 4 5 6 
#
# 1 0.009677 -0.002223 -0.000727 -0.002506 -0.006400 0.002926
# 2 -0.002223 0.006673 -0.001131 -0.002639 -0.002604 0.002343
# 3 -0.000727 -0.001131 0.012257 -0.000713 -0.003193 -0.000532
# 4 -0.002506 -0.002639 -0.000713 0.030175 0.000757 -0.004790
# 5 -0.006400 -0.002604 -0.003193 0.000757 0.029736 -0.006370
# 6 0.002926 0.002343 -0.000532 -0.004790 -0.006370 0.021972
#
#
# Mechanical properties :
#
#
# Convention : Reuss Voigt Hill
#
# Bulk Modulus (GPa) = 48.91451 86.22132 67.56792
# Shear Modulus (GPa) = 39.85126 49.05860 44.45493
#
# Velocity S-wave (km/s) = 3.90455 4.33219 4.12392
# Velocity P-wave (km/s) = 6.24821 7.61634 6.96595
#
# Compressibility (1/GPa) = 0.02044383
#
# Stress axis : x y z
#
# Youngs Moduli (GPa) = 103.34020 149.86751 81.58414
#
# Poissons Ratio (x) = 0.33322 0.05934
# Poissons Ratio (y) = 0.22977 0.09224
# Poissons Ratio (z) = 0.07517 0.16944
#
# Static dielectric constant tensor:
#      x y z
#    x 2.067160 -0.050090 -0.037500 
#    y -0.050090 2.106240 0.002380 
#    z -0.037500 0.002380 2.086680 
# 
# From -- ./inp_files/184404.got.cif
#   From: 2010.05.17/outbox.cif.g08.bks.cpg/sg2_93_cif.got.tgz:184404.got - 2010.06.03 11:33:40.
