data_PCOD9093552
_publ_section_title
;
Structure prediction by ZEFSAII (Michael W. Deem and Ramdas Pophale) SiO2 
 PCOD9093552
Probable space group: P -1
;
_chemical_formula_sum "Si O2"
_cell_formula_units_Z 12
_cell_length_a 21.299216
_cell_length_b 11.339379
_cell_length_c 5.547388
_cell_angle_alpha 60.634146
_cell_angle_beta 121.302533
_cell_angle_gamma 149.547393
_cell_volume 577.401089
_symmetry_space_group_name_H-M "P -1"
_symmetry_group_IT_number 2
_symmetry_cell_setting 'triclinic'
loop_
_space_group_symop_operation_xyz
x,y,z
-x,-y,-z
loop_
_atom_site_type_symbol
_atom_site_label
_atom_site_fract_x
_atom_site_fract_y
_atom_site_fract_z
Si Si1 0.689889 0.184708 0.698663
Si Si2 0.060225 0.427644 0.940343
Si Si3 0.061019 0.754015 0.614739
Si Si4 0.310512 0.114878 0.002713
Si Si5 0.563789 0.497269 0.822214
Si Si6 0.436427 0.805957 0.875223
O O1 0.680620 0.289841 0.381133
O O2 0.549275 0.960612 0.749805
O O3 0.789497 0.366731 0.926010
O O4 0.725380 0.088547 0.763882
O O5 0.040525 0.560705 0.762967
O O6 0.999438 0.282886 0.716522
O O7 0.999518 0.286970 0.212655
O O8 0.211383 0.998933 0.709482
O O9 0.451273 0.313237 0.978408
O O10 0.319328 0.246999 0.081956
O O11 0.500000 0.500000 0.500000
O O12 0.593843 0.391022 0.899279
O O13 0.500000 0.000000 0.000000
#
# Coordination Sequence:
#
# PCOD9093552 Si02
#       6
#     2   2   2   2   2   2
#     4   9  19  34  53  78 107 138 178 225 273 323
#     4   9  18  31  52  81 109 139 179 227 275 322
#     4   9  18  31  52  81 109 139 179 227 275 322
#     4   9  19  34  53  78 107 138 178 225 273 323
#     4  10  20  33  53  79 107 140 178 221 274 325
#     4  10  20  33  53  79 107 140 178 221 274 325
#
# _framework density 20.782779999999999
#
# number of rings (size 3 to 8) (size 9 to 14) (size 15 to 20)
#    0.000    2.667    0.000    1.000    4.667    1.333 
#    0.000    0.000    0.000    2.000    0.000    0.000 
#    0.000    0.000    0.000    0.000    0.000    0.000 
#
# Total GULP energy -66822.396709 kJ/mol
# GULP energy per Si atom -5568.533059 kJ/mol
# Density = 2.073548 g / cm^3
# Si number density = 20.782780 Si / 1000 Ang^3
#
#
#
# Elastic Constant Matrix: (Units=GPa)
#
#
# Indices 1 2 3 4 5 6 
#
# 1 37.3449 37.6777 46.0579 -0.0033 3.0392 -24.7696
# 2 37.6777 72.7968 54.1740 24.2023 8.1709 -28.2228
# 3 46.0579 54.1740 157.9667 24.8357 8.7966 -33.1119
# 4 -0.0033 24.2023 24.8357 33.1927 -5.7248 3.5053
# 5 3.0392 8.1709 8.7966 -5.7248 27.6089 -1.4870
# 6 -24.7696 -28.2228 -33.1119 3.5053 -1.4870 41.6642
#
#
#
# Elastic Compliance Matrix: (Units=1/GPa)
#
#
# Indices 1 2 3 4 5 6 
#
# 1 0.169352 -0.108204 -0.034438 0.113703 0.047507 -0.007855
# 2 -0.108204 0.106285 0.020550 -0.104105 -0.046002 0.031118
# 3 -0.034438 0.020550 0.016791 -0.030829 -0.013554 0.008902
# 4 0.113703 -0.104105 -0.030829 0.142671 0.055683 -0.037439
# 5 0.047507 -0.046002 -0.013554 0.055683 0.059594 -0.016248
# 6 -0.007855 0.031118 0.008902 -0.037439 -0.016248 0.050055
#
#
# Mechanical properties :
#
#
# Convention : Reuss Voigt Hill
#
# Bulk Modulus (GPa) = 20.72700 60.43640 40.58170
# Shear Modulus (GPa) = 6.21107 29.17306 17.69207
#
# Velocity S-wave (km/s) = 1.73062 3.75068 2.92084
# Velocity P-wave (km/s) = 3.74008 6.92098 5.56274
#
# Compressibility (1/GPa) = 0.04824624
#
# Stress axis : x y z
#
# Youngs Moduli (GPa) = 5.90486 9.40862 59.55398
#
# Poissons Ratio (x) = 1.01805 2.05092
# Poissons Ratio (y) = 0.63893 -1.22385
# Poissons Ratio (z) = 0.20335 -0.19335
#
# Static dielectric constant tensor:
#      x y z
#    x 1.818290 0.008200 -0.013170 
#    y 0.008200 1.793330 -0.023110 
#    z -0.013170 -0.023110 1.786710 
# 
# From -- ./inp_files/19124.got.cif
#   From: 2010.05.17/outbox.cif.g08.bks.cpg/sg2_10_cif.got.tgz:19124.got - 2010.06.03 11:33:40.
