data_PCOD9093044
_publ_section_title
;
Structure prediction by ZEFSAII (Michael W. Deem and Ramdas Pophale) SiO2 
 PCOD9093044
Probable space group: P -1
;
_chemical_formula_sum "Si O2"
_cell_formula_units_Z 12
_cell_length_a 15.792574
_cell_length_b 27.447304
_cell_length_c 5.624973
_cell_angle_alpha 68.287389
_cell_angle_beta 51.374935
_cell_angle_gamma 22.596336
_cell_volume 531.561192
_symmetry_space_group_name_H-M "P -1"
_symmetry_group_IT_number 2
_symmetry_cell_setting 'triclinic'
loop_
_space_group_symop_operation_xyz
x,y,z
-x,-y,-z
loop_
_atom_site_type_symbol
_atom_site_label
_atom_site_fract_x
_atom_site_fract_y
_atom_site_fract_z
Si Si1 0.951978 0.379648 0.572130
Si Si2 0.313971 0.849840 0.529563
Si Si3 0.949859 0.108594 0.467625
Si Si4 0.755011 0.313508 0.467284
Si Si5 0.027602 0.672314 0.872038
Si Si6 0.229415 0.419059 0.455128
O O1 0.097807 0.285401 0.247414
O O2 0.937666 0.448021 0.432336
O O3 0.530197 0.558069 0.043786
O O4 0.128033 0.284065 0.695019
O O5 0.207115 0.848483 0.564385
O O6 0.678205 0.666909 0.355171
O O7 0.278574 0.919719 0.314365
O O8 0.000000 0.000000 0.000000
O O9 0.982944 0.155736 0.309448
O O10 0.622893 0.252505 0.965554
O O11 0.455426 0.459095 0.521136
O O12 0.986030 0.259220 0.186455
O O13 0.000000 0.500000 0.500000
#
# Coordination Sequence:
#
# PCOD9093044 Si02
#       6
#     2   2   2   2   2   2
#     4   9  17  29  42  66 100 127 156 202 245 291
#     4   9  18  32  49  66 101 129 164 205 250 292
#     4   9  17  33  48  73  99 129 161 206 249 297
#     4   8  16  24  46  68  94 124 158 199 251 294
#     4   9  16  27  43  67  99 125 157 200 252 294
#     4  10  20  31  48  73  99 135 167 200 245 297
#
# _framework density 22.575011
#
# number of rings (size 3 to 8) (size 9 to 14) (size 15 to 20)
#    1.000    2.000    0.000    1.500    0.000    0.667 
#    0.000    0.000    0.000    0.000    0.000    2.333 
#    0.000    0.000    0.000    0.000    0.000    0.000 
#
# Total GULP energy -66850.526629 kJ/mol
# GULP energy per Si atom -5570.877219 kJ/mol
# Density = 2.252363 g / cm^3
# Si number density = 22.575011 Si / 1000 Ang^3
#
#
#
# Elastic Constant Matrix: (Units=GPa)
#
#
# Indices 1 2 3 4 5 6 
#
# 1 91.0430 76.8970 15.8814 -25.8419 8.9595 23.4887
# 2 76.8970 150.0169 26.3493 -14.3485 -2.7887 15.5779
# 3 15.8814 26.3493 58.2912 -13.1223 9.9141 10.9396
# 4 -25.8419 -14.3485 -13.1223 38.8602 -0.4590 -3.8054
# 5 8.9595 -2.7887 9.9141 -0.4590 26.7727 -8.7472
# 6 23.4887 15.5779 10.9396 -3.8054 -8.7472 36.9097
#
#
#
# Elastic Compliance Matrix: (Units=1/GPa)
#
#
# Indices 1 2 3 4 5 6 
#
# 1 0.039049 -0.017969 0.011328 0.020402 -0.026920 -0.024900
# 2 -0.017969 0.015820 -0.008130 -0.007751 0.013679 0.009611
# 3 0.011328 -0.008130 0.026446 0.011774 -0.019107 -0.014930
# 4 0.020402 -0.007751 0.011774 0.038971 -0.015529 -0.012864
# 5 -0.026920 0.013679 -0.019107 -0.015529 0.064638 0.030739
# 6 -0.024900 0.009611 -0.014930 -0.012864 0.030739 0.049266
#
#
# Mechanical properties :
#
#
# Convention : Reuss Voigt Hill
#
# Bulk Modulus (GPa) = 19.31546 59.73405 39.52475
# Shear Modulus (GPa) = 17.79414 32.52341 25.15877
#
# Velocity S-wave (km/s) = 2.81058 3.79975 3.34196
# Velocity P-wave (km/s) = 4.37117 6.76524 5.69542
#
# Compressibility (1/GPa) = 0.05177199
#
# Stress axis : x y z
#
# Youngs Moduli (GPa) = 25.60860 63.21197 37.81243
#
# Poissons Ratio (x) = 1.13588 -0.42834
# Poissons Ratio (y) = 0.46017 0.30743
# Poissons Ratio (z) = -0.29010 0.51394
#
# Static dielectric constant tensor:
#      x y z
#    x 1.772650 -0.005060 -0.035000 
#    y -0.005060 1.895410 -0.023000 
#    z -0.035000 -0.023000 1.805290 
# 
# From -- ./inp_files/34257.got.cif
#   From: 2010.05.17/outbox.cif.g08.bks.cpg/sg2_18_cif.got.tgz:34257.got - 2010.06.03 11:33:40.
