data_PCOD9093444
_publ_section_title
;
Structure prediction by ZEFSAII (Michael W. Deem and Ramdas Pophale) SiO2 
 PCOD9093444
Probable space group: P -1
;
_chemical_formula_sum "Si O2"
_cell_formula_units_Z 12
_cell_length_a 13.598621
_cell_length_b 9.473416
_cell_length_c 5.573392
_cell_angle_alpha 114.179464
_cell_angle_beta 82.015668
_cell_angle_gamma 57.472561
_cell_volume 488.356652
_symmetry_space_group_name_H-M "P -1"
_symmetry_group_IT_number 2
_symmetry_cell_setting 'triclinic'
loop_
_space_group_symop_operation_xyz
x,y,z
-x,-y,-z
loop_
_atom_site_type_symbol
_atom_site_label
_atom_site_fract_x
_atom_site_fract_y
_atom_site_fract_z
Si Si1 0.365419 0.235717 0.181222
Si Si2 0.948193 0.396185 0.189377
Si Si3 0.656605 0.856368 0.373236
Si Si4 0.023854 0.683802 0.372756
Si Si5 0.574331 0.469948 0.703249
Si Si6 0.803075 0.011775 0.401172
O O1 0.300061 0.278501 0.494683
O O2 0.406037 0.367495 0.203614
O O3 0.293253 0.241218 0.976466
O O4 0.500000 0.000000 0.000000
O O5 0.904790 0.372416 0.440455
O O6 0.964589 0.567048 0.307752
O O7 0.893743 0.391163 0.951394
O O8 0.098344 0.169540 0.950861
O O9 0.696654 0.991324 0.492726
O O10 0.500000 0.000000 0.500000
O O11 0.902261 0.925356 0.533777
O O12 0.500000 0.500000 0.500000
O O13 0.718095 0.241894 0.505138
O O14 0.500000 0.500000 0.000000
#
# Coordination Sequence:
#
# PCOD9093444 Si02
#       6
#     2   2   2   2   2   2
#     4  10  20  36  47  65 100 139 171 210 253 289
#     4   8  16  30  50  79 103 122 162 223 270 302
#     4  10  20  33  49  68 102 140 170 206 246 302
#     4   8  16  30  50  79 103 122 162 223 270 302
#     4  12  24  35  52  76 104 141 184 219 249 296
#     4  10  21  32  58  77 104 136 182 211 260 301
#
# _framework density 24.572208
#
# number of rings (size 3 to 8) (size 9 to 14) (size 15 to 20)
#    1.000    1.333    0.000    5.000    4.667    0.000 
#    0.000    0.000    0.000    0.000    0.000    9.333 
#    0.000    0.000    0.000    0.000    0.000    0.000 
#
# Total GULP energy -66963.195489 kJ/mol
# GULP energy per Si atom -5580.266291 kJ/mol
# Density = 2.451628 g / cm^3
# Si number density = 24.572208 Si / 1000 Ang^3
#
#
#
# Elastic Constant Matrix: (Units=GPa)
#
#
# Indices 1 2 3 4 5 6 
#
# 1 36.5591 26.7960 8.7027 -3.9714 3.4678 5.7046
# 2 26.7960 209.6996 74.4287 -10.8021 19.4619 -21.0244
# 3 8.7027 74.4287 80.8433 -24.1367 -10.4323 -2.1621
# 4 -3.9714 -10.8021 -24.1367 80.6558 -6.1965 3.3253
# 5 3.4678 19.4619 -10.4323 -6.1965 34.8104 -0.6293
# 6 5.7046 -21.0244 -2.1621 3.3253 -0.6293 55.9367
#
#
#
# Elastic Compliance Matrix: (Units=1/GPa)
#
#
# Indices 1 2 3 4 5 6 
#
# 1 0.031649 -0.005129 0.001719 0.001632 0.000427 -0.005181
# 2 -0.005129 0.010433 -0.011018 -0.003019 -0.009087 0.004096
# 3 0.001719 -0.011018 0.026557 0.007879 0.015285 -0.003586
# 4 0.001632 -0.003019 0.007879 0.015008 0.006525 -0.001816
# 5 0.000427 -0.009087 0.015285 0.006525 0.039457 -0.002812
# 6 -0.005181 0.004096 -0.003586 -0.001816 -0.002812 0.019883
#
#
# Mechanical properties :
#
#
# Convention : Reuss Voigt Hill
#
# Bulk Modulus (GPa) = 25.13639 60.77296 42.95467
# Shear Modulus (GPa) = 27.01198 48.75890 37.88544
#
# Velocity S-wave (km/s) = 3.31915 4.45939 3.93084
# Velocity P-wave (km/s) = 4.99408 7.16247 6.17421
#
# Compressibility (1/GPa) = 0.03978297
#
# Stress axis : x y z
#
# Youngs Moduli (GPa) = 31.59703 95.84733 37.65501
#
# Poissons Ratio (x) = 0.49165 -0.06475
# Poissons Ratio (y) = 0.16208 0.41488
# Poissons Ratio (z) = -0.05433 1.05603
#
# Static dielectric constant tensor:
#      x y z
#    x 5.016650 -2.140180 -3.930180 
#    y -2.140180 3.382530 2.574070 
#    z -3.930180 2.574070 6.847860 
# 
# From -- ./inp_files/29837.got.cif
#   From: 2010.05.17/outbox.cif.g08.bks.cpg/sg2_15_cif.got.tgz:29837.got - 2010.06.03 11:33:40.
