data_PCOD9093779
_publ_section_title
;
Structure prediction by ZEFSAII (Michael W. Deem and Ramdas Pophale) SiO2 
 PCOD9093779
Probable space group: P -1
;
_chemical_formula_sum "Si O2"
_cell_formula_units_Z 15
_cell_length_a 12.195356
_cell_length_b 9.196447
_cell_length_c 12.850827
_cell_angle_alpha 48.807107
_cell_angle_beta 45.453871
_cell_angle_gamma 69.244791
_cell_volume 757.222013
_symmetry_space_group_name_H-M "P -1"
_symmetry_group_IT_number 2
_symmetry_cell_setting 'triclinic'
loop_
_space_group_symop_operation_xyz
x,y,z
-x,-y,-z
loop_
_atom_site_type_symbol
_atom_site_label
_atom_site_fract_x
_atom_site_fract_y
_atom_site_fract_z
Si Si1 0.735111 0.993929 0.351659
Si Si2 0.931734 0.789051 0.692313
Si Si3 0.159087 0.852598 0.020952
Si Si4 0.450409 0.664814 0.676364
Si Si5 0.341038 0.520729 0.042601
Si Si6 0.500000 0.500000 0.500000
Si Si7 0.076800 0.147031 0.102272
Si Si8 0.122460 0.444595 0.754226
O O1 0.640089 0.158787 0.374916
O O2 0.897897 0.029205 0.286249
O O3 0.624733 0.781700 0.534754
O O4 0.777261 0.040993 0.179680
O O5 0.793969 0.671646 0.767402
O O6 0.862268 0.816647 0.839778
O O7 0.057645 0.646049 0.689572
O O8 0.000000 0.000000 0.500000
O O9 0.272886 0.705338 0.042699
O O10 0.987564 0.717325 0.172227
O O11 0.157608 0.013072 0.035049
O O12 0.451746 0.531590 0.638140
O O13 0.370709 0.561535 0.880776
O O14 0.500000 0.500000 0.000000
O O15 0.308965 0.471395 0.605683
O O16 0.078617 0.347842 0.942811
#
# Coordination Sequence:
#
# PCOD9093779 Si02
#       8
#     2   2   2   2   2   1   2   2
#     4   9  18  33  58  90 117 147 193 249 307 361
#     4  11  25  43  60  89 125 170 209 248 307 373
#     4   9  19  38  63  92 120 156 204 255 307 366
#     4  10  20  33  57  90 119 152 194 252 305 355
#     4  10  23  44  61  82 126 173 206 241 306 378
#     4  12  20  34  58  96 118 146 200 262 304 348
#     4  11  19  37  66  90 118 157 205 260 311 360
#     4  10  21  39  61  91 127 159 200 256 316 366
#
# _framework density 19.809249000000001
#
# number of rings (size 3 to 8) (size 9 to 14) (size 15 to 20)
#    0.000    1.867    0.000    6.000    1.867    0.000 
#    7.200    2.000    0.000    0.000    0.000    0.000 
#    0.000    0.000    0.000    0.000    0.000    0.000 
#
# Total GULP energy -83505.615179 kJ/mol
# GULP energy per Si atom -5567.041012 kJ/mol
# Density = 1.976416 g / cm^3
# Si number density = 19.809249 Si / 1000 Ang^3
#
#
#
# Elastic Constant Matrix: (Units=GPa)
#
#
# Indices 1 2 3 4 5 6 
#
# 1 74.9520 31.0435 13.3241 -4.4802 -13.8028 -18.0787
# 2 31.0435 95.4147 35.4930 -0.4475 6.4390 -6.6500
# 3 13.3241 35.4930 65.3434 -19.5858 -12.0643 -8.2824
# 4 -4.4802 -0.4475 -19.5858 34.2797 -1.4728 2.0986
# 5 -13.8028 6.4390 -12.0643 -1.4728 34.2996 9.2922
# 6 -18.0787 -6.6500 -8.2824 2.0986 9.2922 19.2118
#
#
#
# Elastic Compliance Matrix: (Units=1/GPa)
#
#
# Indices 1 2 3 4 5 6 
#
# 1 0.021231 -0.008257 0.005013 0.004968 0.008048 0.014846
# 2 -0.008257 0.018971 -0.013595 -0.009097 -0.011982 -0.000276
# 3 0.005013 -0.013595 0.030396 0.018252 0.014996 0.003869
# 4 0.004968 -0.009097 0.018252 0.040707 0.012123 -0.000915
# 5 0.008048 -0.011982 0.014996 0.012123 0.043865 -0.012649
# 6 0.014846 -0.000276 0.003869 -0.000915 -0.012649 0.073812
#
#
# Mechanical properties :
#
#
# Convention : Reuss Voigt Hill
#
# Bulk Modulus (GPa) = 27.08613 43.93679 35.51146
# Shear Modulus (GPa) = 18.18405 27.94819 23.06612
#
# Velocity S-wave (km/s) = 3.03307 3.76022 3.41605
# Velocity P-wave (km/s) = 5.09600 6.40941 5.79006
#
# Compressibility (1/GPa) = 0.03691926
#
# Stress axis : x y z
#
# Youngs Moduli (GPa) = 47.10138 52.71253 32.89946
#
# Poissons Ratio (x) = 0.43527 -0.16492
# Poissons Ratio (y) = 0.38893 0.44725
# Poissons Ratio (z) = -0.23611 0.71660
#
# Static dielectric constant tensor:
#      x y z
#    x 1.710360 0.012160 -0.037400 
#    y 0.012160 1.715400 -0.007410 
#    z -0.037400 -0.007410 1.697500 
# 
# From -- ./inp_files/176783.got.cif
#   From: 2010.05.17/outbox.cif.g08.bks.cpg/sg2_89_cif.got.tgz:176783.got - 2010.06.03 11:33:40.
