data_PCOD9093679
_publ_section_title
;
Structure prediction by ZEFSAII (Michael W. Deem and Ramdas Pophale) SiO2 
 PCOD9093679
Probable space group: P -1
;
_chemical_formula_sum "Si O2"
_cell_formula_units_Z 16
_cell_length_a 5.187550
_cell_length_b 9.796827
_cell_length_c 15.793404
_cell_angle_alpha 93.891119
_cell_angle_beta 101.977013
_cell_angle_gamma 94.911046
_cell_volume 779.264766
_symmetry_space_group_name_H-M "P -1"
_symmetry_group_IT_number 2
_symmetry_cell_setting 'triclinic'
loop_
_space_group_symop_operation_xyz
x,y,z
-x,-y,-z
loop_
_atom_site_type_symbol
_atom_site_label
_atom_site_fract_x
_atom_site_fract_y
_atom_site_fract_z
Si Si1 0.663345 0.635480 0.979483
Si Si2 0.498174 0.909620 0.911648
Si Si3 0.125518 0.307761 0.827665
Si Si4 0.763730 0.977164 0.608901
Si Si5 0.733674 0.858127 0.430584
Si Si6 0.565731 0.312097 0.731520
Si Si7 0.935745 0.888715 0.799963
Si Si8 0.892894 0.572137 0.816202
O O1 0.839375 0.707466 0.070699
O O2 0.500000 0.500000 0.000000
O O3 0.488235 0.750367 0.935338
O O4 0.836895 0.587887 0.912515
O O5 0.750054 0.928738 0.866765
O O6 0.238097 0.937749 0.843798
O O7 0.500000 0.000000 0.000000
O O8 0.367622 0.260890 0.790815
O O9 0.124933 0.472945 0.818891
O O10 0.843374 0.250155 0.767121
O O11 0.763748 0.855858 0.533728
O O12 0.845342 0.938415 0.705872
O O13 0.471525 0.027239 0.593753
O O14 0.983640 0.093454 0.590427
O O15 0.583348 0.728635 0.366861
O O16 0.650982 0.474319 0.754303
O O17 0.922879 0.722972 0.788253
#
# Coordination Sequence:
#
# PCOD9093679 Si02
#       8
#     2   2   2   2   2   2   2   2
#     4  11  19  38  58  84 115 163 205 242 289 347
#     4  11  26  41  59  86 128 158 204 251 290 348
#     4  10  20  33  55  86 114 152 196 239 292 339
#     4  10  22  40  66  85 115 157 197 235 303 365
#     4  10  21  41  62  92 116 144 196 257 292 353
#     4  10  21  34  57  86 119 142 186 256 296 331
#     4  11  23  42  62  83 120 164 196 231 304 366
#     4   9  22  35  57  84 118 154 193 244 286 353
#
# _framework density 20.532174999999999
#
# number of rings (size 3 to 8) (size 9 to 14) (size 15 to 20)
#    0.750    1.000    1.250    3.000    1.750    6.000 
#    0.000    0.625    0.000    0.750    0.000    0.000 
#    0.000    0.000    0.000    0.000    0.000    0.000 
#
# Total GULP energy -89313.771006 kJ/mol
# GULP energy per Si atom -5582.110688 kJ/mol
# Density = 2.048544 g / cm^3
# Si number density = 20.532175 Si / 1000 Ang^3
#
#
#
# Elastic Constant Matrix: (Units=GPa)
#
#
# Indices 1 2 3 4 5 6 
#
# 1 83.6181 4.2320 5.8716 0.0727 5.4297 -4.8584
# 2 4.2320 45.8742 22.1196 0.6436 -7.2386 -0.8922
# 3 5.8716 22.1196 99.1406 14.7565 5.7425 -12.3156
# 4 0.0727 0.6436 14.7565 35.2728 3.0078 6.9554
# 5 5.4297 -7.2386 5.7425 3.0078 30.9524 4.2056
# 6 -4.8584 -0.8922 -12.3156 6.9554 4.2056 12.8532
#
#
#
# Elastic Compliance Matrix: (Units=1/GPa)
#
#
# Indices 1 2 3 4 5 6 
#
# 1 0.012706 -0.002195 0.001222 -0.001752 -0.003891 0.008043
# 2 -0.002195 0.027582 -0.009044 0.005122 0.009861 -0.013579
# 3 0.001222 -0.009044 0.017299 -0.011360 -0.007849 0.025125
# 4 -0.001752 0.005122 -0.011360 0.039325 0.004399 -0.033911
# 5 -0.003891 0.009861 -0.007849 0.004399 0.039535 -0.023623
# 6 0.008043 -0.013579 0.025125 -0.033911 -0.023623 0.130053
#
#
# Mechanical properties :
#
#
# Convention : Reuss Voigt Hill
#
# Bulk Modulus (GPa) = 26.62852 32.56438 29.59645
# Shear Modulus (GPa) = 16.71960 28.90966 22.81463
#
# Velocity S-wave (km/s) = 2.85671 3.75643 3.33703
# Velocity P-wave (km/s) = 4.88655 5.89143 5.41236
#
# Compressibility (1/GPa) = 0.03755372
#
# Stress axis : x y z
#
# Youngs Moduli (GPa) = 78.70365 36.25526 57.80769
#
# Poissons Ratio (x) = 0.07957 -0.07066
# Poissons Ratio (y) = 0.17272 0.52283
# Poissons Ratio (z) = -0.09621 0.32790
#
# Static dielectric constant tensor:
#      x y z
#    x 1.741690 -0.008450 0.010430 
#    y -0.008450 1.769200 0.051540 
#    z 0.010430 0.051540 1.746930 
# 
# From -- ./inp_files/481661.got.cif
#   From: 2010.05.17/outbox.cif.g08.bks.cpg/sg2_241_cif.got.tgz:481661.got - 2010.06.03 11:33:40.
