data_PCOD9093165
_publ_section_title
;
Structure prediction by ZEFSAII (Michael W. Deem and Ramdas Pophale) SiO2 
 PCOD9093165
Probable space group: P -1
;
_chemical_formula_sum "Si O2"
_cell_formula_units_Z 14
_cell_length_a 8.693734
_cell_length_b 8.379686
_cell_length_c 17.614685
_cell_angle_alpha 41.716952
_cell_angle_beta 84.367489
_cell_angle_gamma 114.055552
_cell_volume 584.278223
_symmetry_space_group_name_H-M "P -1"
_symmetry_group_IT_number 2
_symmetry_cell_setting 'triclinic'
loop_
_space_group_symop_operation_xyz
x,y,z
-x,-y,-z
loop_
_atom_site_type_symbol
_atom_site_label
_atom_site_fract_x
_atom_site_fract_y
_atom_site_fract_z
Si Si1 0.713344 0.507638 0.308604
Si Si2 0.967559 0.806148 0.725472
Si Si3 0.061836 0.290782 0.071865
Si Si4 0.166161 0.709406 0.201457
Si Si5 0.559257 0.831859 0.410601
Si Si6 0.745611 0.713036 0.078644
Si Si7 0.816212 0.435709 0.579762
O O1 0.527480 0.234805 0.476075
O O2 0.615796 0.464465 0.245773
O O3 0.912618 0.535642 0.283509
O O4 0.841002 0.884688 0.204637
O O5 0.860476 0.709197 0.848483
O O6 0.828781 0.520752 0.768523
O O7 0.174408 0.855724 0.714583
O O8 0.079366 0.177695 0.559201
O O9 0.235431 0.418309 0.952008
O O10 0.000000 0.500000 0.000000
O O11 0.231689 0.721820 0.279256
O O12 0.301665 0.071333 0.023143
O O13 0.500000 0.500000 0.500000
O O14 0.409453 0.821520 0.366846
O O15 0.000000 0.000000 0.000000
O O16 0.000000 0.500000 0.500000
#
# Coordination Sequence:
#
# PCOD9093165 Si02
#       7
#     2   2   2   2   2   2   2
#     4  10  17  34  51  79 110 139 181 222 269 314
#     4  11  21  33  54  86 111 136 185 223 270 319
#     4  10  16  29  51  79 104 135 180 227 258 309
#     4  10  19  33  54  84 105 139 182 227 264 312
#     4  10  20  35  54  79 112 145 175 218 277 323
#     4   8  17  30  51  80 104 137 179 232 257 307
#     4  11  19  36  54  76 112 149 179 217 271 323
#
# _framework density 23.961186000000001
#
# number of rings (size 3 to 8) (size 9 to 14) (size 15 to 20)
#    0.000    2.286    4.286    3.857    0.000    0.571 
#    0.000    0.000    0.000    3.429    3.714   22.000 
#    0.000    0.000    0.000    0.000    0.000    0.000 
#
# Total GULP energy -78283.368069 kJ/mol
# GULP energy per Si atom -5591.669148 kJ/mol
# Density = 2.390665 g / cm^3
# Si number density = 23.961186 Si / 1000 Ang^3
#
#
#
# Elastic Constant Matrix: (Units=GPa)
#
#
# Indices 1 2 3 4 5 6 
#
# 1 55.1625 24.7971 24.3777 8.3958 7.2043 3.6492
# 2 24.7971 132.5251 63.8774 40.4223 5.2527 -12.6676
# 3 24.3777 63.8774 143.3675 43.4680 23.5952 4.0814
# 4 8.3958 40.4223 43.4680 64.7978 0.4829 12.5175
# 5 7.2043 5.2527 23.5952 0.4829 30.4756 5.7334
# 6 3.6492 -12.6676 4.0814 12.5175 5.7334 27.1123
#
#
#
# Elastic Compliance Matrix: (Units=1/GPa)
#
#
# Indices 1 2 3 4 5 6 
#
# 1 0.021067 -0.004032 -0.001971 0.002087 -0.001852 -0.004994
# 2 -0.004032 0.013216 -0.002982 -0.007837 -0.000959 0.010988
# 3 -0.001971 -0.002982 0.011810 -0.006067 -0.008381 0.001668
# 4 0.002087 -0.007837 -0.006067 0.027434 0.008407 -0.017473
# 5 -0.001852 -0.000959 -0.008381 0.008407 0.041972 -0.011695
# 6 -0.004994 0.010988 0.001668 -0.017473 -0.011695 0.052979
#
#
# Mechanical properties :
#
#
# Convention : Reuss Voigt Hill
#
# Bulk Modulus (GPa) = 35.55789 61.90662 48.73225
# Shear Modulus (GPa) = 25.53331 39.01066 32.27199
#
# Velocity S-wave (km/s) = 3.26791 4.03932 3.67392
# Velocity P-wave (km/s) = 5.39546 6.90269 6.19508
#
# Compressibility (1/GPa) = 0.02812315
#
# Stress axis : x y z
#
# Youngs Moduli (GPa) = 47.46826 75.66479 84.67386
#
# Poissons Ratio (x) = 0.30509 0.16691
# Poissons Ratio (y) = 0.19140 0.25246
# Poissons Ratio (z) = 0.09357 0.22560
#
# Static dielectric constant tensor:
#      x y z
#    x 1.913120 -0.016850 0.015950 
#    y -0.016850 1.938370 -0.022240 
#    z 0.015950 -0.022240 1.992130 
# 
# From -- ./inp_files/554904.got.cif
#   From: 2010.05.17/outbox.cif.g08.bks.cpg/sg2_278_cif.got.tgz:554904.got - 2010.06.03 11:33:40.
