data_PCOD9093935
_publ_section_title
;
Structure prediction by ZEFSAII (Michael W. Deem and Ramdas Pophale) SiO2 
 PCOD9093935
Probable space group: P -1
;
_chemical_formula_sum "Si O2"
_cell_formula_units_Z 16
_cell_length_a 10.344989
_cell_length_b 22.485330
_cell_length_c 13.901493
_cell_angle_alpha 142.679254
_cell_angle_beta 150.160868
_cell_angle_gamma 57.725436
_cell_volume 835.205762
_symmetry_space_group_name_H-M "P -1"
_symmetry_group_IT_number 2
_symmetry_cell_setting 'triclinic'
loop_
_space_group_symop_operation_xyz
x,y,z
-x,-y,-z
loop_
_atom_site_type_symbol
_atom_site_label
_atom_site_fract_x
_atom_site_fract_y
_atom_site_fract_z
Si Si1 0.370192 0.913160 0.893323
Si Si2 0.769522 0.667191 0.667952
Si Si3 0.060567 0.194373 0.220151
Si Si4 0.307855 0.488219 0.267147
Si Si5 0.575129 0.180292 0.638708
Si Si6 0.444305 0.040085 0.728233
Si Si7 0.761500 0.314074 0.582107
Si Si8 0.136072 0.031410 0.324999
O O1 0.248665 0.786936 0.612918
O O2 0.106482 0.929723 0.788202
O O3 0.600540 0.940081 0.164803
O O4 0.500000 0.000000 0.000000
O O5 0.862051 0.696933 0.655512
O O6 0.541222 0.538744 0.392186
O O7 0.568047 0.725240 0.636496
O O8 0.076447 0.723383 0.999686
O O9 0.354908 0.217814 0.499317
O O10 0.767695 0.146072 0.036876
O O11 0.973843 0.087332 0.954260
O O12 0.500000 0.500000 0.500000
O O13 0.184820 0.576769 0.306310
O O14 0.021841 0.365707 0.897903
O O15 0.436975 0.123177 0.579886
O O16 0.547815 0.076413 0.424532
O O17 0.207150 0.025698 0.474922
#
# Coordination Sequence:
#
# PCOD9093935 Si02
#       8
#     2   2   2   2   2   2   2   2
#     4  12  25  38  55  85 128 164 186 218 290 371
#     4  10  20  33  62  89 104 139 204 252 279 328
#     4  11  18  34  56  86 118 151 197 243 281 333
#     4   9  21  41  64  84 108 150 198 247 294 322
#     4  11  19  32  61  84 114 153 201 242 279 333
#     4  11  21  34  53  81 124 162 188 234 285 338
#     4   9  23  41  57  87 119 148 191 240 287 347
#     4  11  20  37  52  84 122 160 189 233 288 340
#
# _framework density 19.156956000000001
#
# number of rings (size 3 to 8) (size 9 to 14) (size 15 to 20)
#    0.750    0.750    5.000    2.250    1.750    1.500 
#    0.000    0.000    0.000    1.500    0.000    0.000 
#    0.000    0.000    0.000    0.000    0.000    0.000 
#
# Total GULP energy -89195.081971 kJ/mol
# GULP energy per Si atom -5574.692623 kJ/mol
# Density = 1.911335 g / cm^3
# Si number density = 19.156956 Si / 1000 Ang^3
#
#
#
# Elastic Constant Matrix: (Units=GPa)
#
#
# Indices 1 2 3 4 5 6 
#
# 1 47.8189 7.0468 26.2495 -0.3252 -7.6804 13.4383
# 2 7.0468 51.3758 27.0665 -19.8605 -16.9248 17.3393
# 3 26.2495 27.0665 87.7518 -27.1381 -2.8749 7.9680
# 4 -0.3252 -19.8605 -27.1381 35.3089 1.1965 -6.4280
# 5 -7.6804 -16.9248 -2.8749 1.1965 35.8083 -7.0325
# 6 13.4383 17.3393 7.9680 -6.4280 -7.0325 26.5638
#
#
#
# Elastic Compliance Matrix: (Units=1/GPa)
#
#
# Indices 1 2 3 4 5 6 
#
# 1 0.032987 0.006711 -0.013022 -0.009382 0.006011 -0.017841
# 2 0.006711 0.038810 -0.008135 0.011576 0.014905 -0.019540
# 3 -0.013022 -0.008135 0.020983 0.012968 -0.003871 0.007717
# 4 -0.009382 0.011576 0.012968 0.045558 0.004037 0.005393
# 5 0.006011 0.014905 -0.003871 0.004037 0.035577 -0.001214
# 6 -0.017841 -0.019540 0.007717 0.005393 -0.001214 0.058095
#
#
# Mechanical properties :
#
#
# Convention : Reuss Voigt Hill
#
# Bulk Modulus (GPa) = 15.65259 34.18578 24.91919
# Shear Modulus (GPa) = 17.71800 27.97511 22.84655
#
# Velocity S-wave (km/s) = 3.04449 3.82555 3.45715
# Velocity P-wave (km/s) = 4.53288 6.11530 5.38256
#
# Compressibility (1/GPa) = 0.06388718
#
# Stress axis : x y z
#
# Youngs Moduli (GPa) = 30.31513 25.76635 47.65723
#
# Poissons Ratio (x) = -0.17291 0.62058
# Poissons Ratio (y) = -0.20343 0.38771
# Poissons Ratio (z) = 0.39476 0.20962
#
# Static dielectric constant tensor:
#      x y z
#    x 1.687960 0.029000 0.031070 
#    y 0.029000 1.700960 -0.029750 
#    z 0.031070 -0.029750 1.680020 
# 
# From -- ./inp_files/406905.got.cif
#   From: 2010.05.17/outbox.cif.g08.bks.cpg/sg2_204_cif.got.tgz:406905.got - 2010.06.03 11:33:40.
