data_PCOD9093149
_publ_section_title
;
Structure prediction by ZEFSAII (Michael W. Deem and Ramdas Pophale) SiO2 
 PCOD9093149
Probable space group: P -1
;
_chemical_formula_sum "Si O2"
_cell_formula_units_Z 16
_cell_length_a 7.474012
_cell_length_b 9.211330
_cell_length_c 13.677231
_cell_angle_alpha 45.918873
_cell_angle_beta 74.144831
_cell_angle_gamma 90.000666
_cell_volume 625.582712
_symmetry_space_group_name_H-M "P -1"
_symmetry_group_IT_number 2
_symmetry_cell_setting 'triclinic'
loop_
_space_group_symop_operation_xyz
x,y,z
-x,-y,-z
loop_
_atom_site_type_symbol
_atom_site_label
_atom_site_fract_x
_atom_site_fract_y
_atom_site_fract_z
Si Si1 0.474629 0.305189 0.456780
Si Si2 0.605463 0.332249 0.227770
Si Si3 0.680075 0.207069 0.069606
Si Si4 0.068590 0.305191 0.456778
Si Si5 0.934831 0.248298 0.710816
Si Si6 0.166770 0.332253 0.227766
Si Si7 0.749686 0.792928 0.930397
Si Si8 0.354356 0.248300 0.710816
O O1 0.595832 0.244656 0.379566
O O2 0.250234 0.225879 0.499531
O O3 0.487783 0.250210 0.593781
O O4 0.536533 0.560826 0.327139
O O5 0.682838 0.216529 0.183145
O O6 0.383731 0.328573 0.232540
O O7 0.730481 0.575436 0.090521
O O8 0.466830 0.213161 0.066334
O O9 0.704837 0.988219 0.131384
O O10 0.820996 0.424559 0.909484
O O11 0.918438 0.250206 0.593781
O O12 0.024605 0.244661 0.379560
O O13 0.136324 0.560827 0.327141
O O14 0.159952 0.301130 0.680098
O O15 0.836229 0.011780 0.868617
O O16 0.134016 0.216535 0.183140
#
# Coordination Sequence:
#
# PCOD9093149 Si02
#       8
#     2   2   2   2   2   2   2   2
#     4   9  18  34  52  68  92 127 163 195 228 274
#     4   8  16  32  53  73  91 120 163 199 227 272
#     4   9  17  32  53  73  94 121 156 197 236 277
#     4   9  18  34  52  68  92 127 163 195 228 274
#     4  10  20  32  47  71 100 126 155 193 236 280
#     4   8  16  32  53  73  91 120 163 199 227 272
#     4   9  17  32  53  73  94 121 156 197 236 277
#     4  10  20  32  47  71 100 126 155 193 236 280
#
# _framework density 25.576155
#
# number of rings (size 3 to 8) (size 9 to 14) (size 15 to 20)
#    0.000    3.000    0.000    2.250    0.000    3.000 
#    0.000   10.000    0.000    0.000    0.000    0.000 
#    0.000    0.000    0.000    0.000    0.000    0.000 
#
# Total GULP energy -89413.837178 kJ/mol
# GULP energy per Si atom -5588.364824 kJ/mol
# Density = 2.551794 g / cm^3
# Si number density = 25.576155 Si / 1000 Ang^3
#
#
#
# Elastic Constant Matrix: (Units=GPa)
#
#
# Indices 1 2 3 4 5 6 
#
# 1 92.1402 -9.6076 3.5756 4.6353 -2.5680 -0.3820
# 2 -9.6076 60.2629 77.7442 -0.3396 2.5995 0.0056
# 3 3.5756 77.7442 36.4574 -3.9187 0.9037 0.3961
# 4 4.6353 -0.3396 -3.9187 72.5471 0.0130 1.9465
# 5 -2.5680 2.5995 0.9037 0.0130 1.2965 -8.2707
# 6 -0.3820 0.0056 0.3961 1.9465 -8.2707 7.0780
#
#
#
# Elastic Compliance Matrix: (Units=1/GPa)
#
#
# Indices 1 2 3 4 5 6 
#
# 1 0.010458 -0.001732 0.002766 -0.000416 -0.003969 -0.004112
# 2 -0.001732 -0.009100 0.019663 0.001129 0.001310 0.000033
# 3 0.002766 0.019663 -0.014985 -0.001003 0.002406 0.004060
# 4 -0.000416 0.001129 -0.001003 0.013733 0.004092 0.001037
# 5 -0.003969 0.001310 0.002406 0.004092 -0.116156 -0.137204
# 6 -0.004112 0.000033 0.004060 0.001037 -0.137204 -0.019775
#
#
# Mechanical properties :
#
#
# Convention : Reuss Voigt Hill
#
# Bulk Modulus (GPa) = 36.01208 36.92054 36.46631
# Shear Modulus (GPa) = -29.76839 23.99420 -2.88709
#
# Velocity S-wave (km/s) = -3.41532 3.06624 -1.06361
# Velocity P-wave (km/s) = 1.20067 5.19641 3.57499
#
# Compressibility (1/GPa) = 0.02776846
#
# Stress axis : x y z
#
# Youngs Moduli (GPa) = 95.61748 -109.89257 -66.73234
#
# Poissons Ratio (x) = -0.19034 0.18460
# Poissons Ratio (y) = 0.16562 1.31219
# Poissons Ratio (z) = -0.26450 2.16086
#
# Static dielectric constant tensor:
#      x y z
#    x 1.985700 0.000510 0.000980 
#    y 0.000510 1.988570 0.016970 
#    z 0.000980 0.016970 2.018450 
# 
# From -- ./inp_files/200823.got.cif
#   From: 2010.05.17/outbox.cif.g08.bks.cpg/sg2_101_cif.got.tgz:200823.got - 2010.06.03 11:33:40.
