data_PCOD9093503
_publ_section_title
;
Structure prediction by ZEFSAII (Michael W. Deem and Ramdas Pophale) SiO2 
 PCOD9093503
Probable space group: P -1
;
_chemical_formula_sum "Si O2"
_cell_formula_units_Z 16
_cell_length_a 9.001503
_cell_length_b 12.323874
_cell_length_c 15.822335
_cell_angle_alpha 140.091949
_cell_angle_beta 59.453562
_cell_angle_gamma 130.098226
_cell_volume 861.024635
_symmetry_space_group_name_H-M "P -1"
_symmetry_group_IT_number 2
_symmetry_cell_setting 'triclinic'
loop_
_space_group_symop_operation_xyz
x,y,z
-x,-y,-z
loop_
_atom_site_type_symbol
_atom_site_label
_atom_site_fract_x
_atom_site_fract_y
_atom_site_fract_z
Si Si1 0.702183 0.552243 0.522187
Si Si2 0.216044 0.794370 0.700234
Si Si3 0.556684 0.298236 0.134235
Si Si4 0.588901 0.184220 0.523970
Si Si5 0.776611 0.741752 0.357539
Si Si6 0.545627 0.976955 0.837250
Si Si7 0.235907 0.400315 0.272575
Si Si8 0.120106 0.070106 0.379581
O O1 0.500000 0.500000 0.500000
O O2 0.771502 0.396637 0.388806
O O3 0.678968 0.542595 0.623019
O O4 0.867426 0.766410 0.588607
O O5 0.302174 0.836794 0.604602
O O6 0.358943 0.944064 0.815879
O O7 0.991298 0.742797 0.741913
O O8 0.709489 0.518388 0.235434
O O9 0.501744 0.181813 0.169711
O O10 0.371485 0.307374 0.148354
O O11 0.625559 0.177163 0.981979
O O12 0.399777 0.207400 0.568403
O O13 0.725328 0.392887 0.651491
O O14 0.500000 0.000000 0.500000
O O15 0.860605 0.822688 0.473406
O O16 0.933891 0.868509 0.318468
O O17 0.696071 0.959918 0.718453
#
# Coordination Sequence:
#
# PCOD9093503 Si02
#       8
#     2   2   2   2   2   2   2   2
#     4  11  17  32  59  83 113 140 188 239 283 330
#     4  11  21  34  55  85 113 150 185 235 285 335
#     4  10  22  40  58  85 113 150 191 238 283 338
#     4  10  20  33  51  81 114 146 180 227 280 340
#     4  10  22  35  54  85 118 141 184 239 287 332
#     4  11  21  38  63  82 111 152 195 232 284 339
#     4  10  21  35  54  81 115 147 184 234 285 330
#     4  11  20  34  59  86 110 146 185 237 289 335
#
# _framework density 18.582512999999999
#
# number of rings (size 3 to 8) (size 9 to 14) (size 15 to 20)
#    0.000    1.500    3.750    3.750    3.500    1.000 
#    0.000    0.000    0.000    3.000    0.000    0.000 
#    0.000    0.000    0.000    0.000    0.000    0.000 
#
# Total GULP energy -89086.192025 kJ/mol
# GULP energy per Si atom -5567.887002 kJ/mol
# Density = 1.854022 g / cm^3
# Si number density = 18.582513 Si / 1000 Ang^3
#
#
#
# Elastic Constant Matrix: (Units=GPa)
#
#
# Indices 1 2 3 4 5 6 
#
# 1 44.9747 24.3525 2.7392 3.9838 0.5661 6.8048
# 2 24.3525 140.3135 35.0315 25.1516 -3.3370 5.3066
# 3 2.7392 35.0315 84.6235 18.7293 -1.1623 -0.5294
# 4 3.9838 25.1516 18.7293 22.2838 -1.3942 -3.9659
# 5 0.5661 -3.3370 -1.1623 -1.3942 12.3257 5.1324
# 6 6.8048 5.3066 -0.5294 -3.9659 5.1324 24.3848
#
#
#
# Elastic Compliance Matrix: (Units=1/GPa)
#
#
# Indices 1 2 3 4 5 6 
#
# 1 0.025579 -0.004116 0.001327 -0.002203 0.000354 -0.006646
# 2 -0.004116 0.010249 -0.001968 -0.009578 0.003082 -0.003331
# 3 0.001327 -0.001968 0.014984 -0.010851 0.000183 -0.001420
# 4 -0.002203 -0.009578 -0.010851 0.067553 -0.001616 0.013790
# 5 0.000354 0.003082 0.000183 -0.001616 0.090109 -0.019994
# 6 -0.006646 -0.003331 -0.001420 0.013790 -0.019994 0.050009
#
#
# Mechanical properties :
#
#
# Convention : Reuss Voigt Hill
#
# Bulk Modulus (GPa) = 24.21481 43.79535 34.00508
# Shear Modulus (GPa) = 17.74540 25.65143 21.69841
#
# Velocity S-wave (km/s) = 3.09358 3.71941 3.42084
# Velocity P-wave (km/s) = 5.08130 6.48572 5.82598
#
# Compressibility (1/GPa) = 0.04129705
#
# Stress axis : x y z
#
# Youngs Moduli (GPa) = 39.09472 97.57337 66.73742
#
# Poissons Ratio (x) = 0.40161 -0.08855
# Poissons Ratio (y) = 0.16091 0.13135
# Poissons Ratio (z) = -0.05187 0.19204
#
# Static dielectric constant tensor:
#      x y z
#    x 1.700240 -0.035970 -0.002630 
#    y -0.035970 1.808820 0.002730 
#    z -0.002630 0.002730 1.692250 
# 
# From -- ./inp_files/558675.got.cif
#   From: 2010.05.17/outbox.cif.g08.bks.cpg/sg2_280_cif.got.tgz:558675.got - 2010.06.03 11:33:40.
