data_PCOD9093559
_publ_section_title
;
Structure prediction by ZEFSAII (Michael W. Deem and Ramdas Pophale) SiO2 
 PCOD9093559
Probable space group: P -1
;
_chemical_formula_sum "Si O2"
_cell_formula_units_Z 14
_cell_length_a 8.870550
_cell_length_b 7.195360
_cell_length_c 17.446738
_cell_angle_alpha 64.198787
_cell_angle_beta 118.156339
_cell_angle_gamma 65.058258
_cell_volume 541.930762
_symmetry_space_group_name_H-M "P -1"
_symmetry_group_IT_number 2
_symmetry_cell_setting 'triclinic'
loop_
_space_group_symop_operation_xyz
x,y,z
-x,-y,-z
loop_
_atom_site_type_symbol
_atom_site_label
_atom_site_fract_x
_atom_site_fract_y
_atom_site_fract_z
Si Si1 0.166777 0.147084 0.637715
Si Si2 0.342418 0.636629 0.279115
Si Si3 0.675178 0.772676 0.749670
Si Si4 0.344105 0.560874 0.742377
Si Si5 0.078578 0.439647 0.791556
Si Si6 0.706484 0.217515 0.035849
Si Si7 0.304787 0.411415 0.441523
O O1 0.000000 0.500000 0.500000
O O2 0.992468 0.247666 0.652306
O O3 0.493583 0.904749 0.759159
O O4 0.161555 0.942937 0.623012
O O5 0.332828 0.444104 0.255493
O O6 0.526996 0.614646 0.277827
O O7 0.449249 0.454119 0.419311
O O8 0.022781 0.000442 0.152428
O O9 0.985093 0.549580 0.838674
O O10 0.493026 0.121154 0.600683
O O11 0.191737 0.525166 0.757443
O O12 0.589336 0.374712 0.895366
O O13 0.803175 0.647073 0.637919
O O14 0.270545 0.053679 0.902883
O O15 0.500000 0.500000 0.000000
#
# Coordination Sequence:
#
# PCOD9093559 Si02
#       7
#     2   2   2   2   2   2   2
#     4   9  18  34  55  75 101 140 177 207 250 312
#     4   9  18  31  52  76  99 138 174 201 253 318
#     4   8  16  33  54  73 102 142 176 204 250 315
#     4  11  20  34  53  80 108 131 171 221 257 298
#     4  10  20  33  53  81 105 133 171 220 262 293
#     4  10  20  37  57  73  98 141 177 209 257 316
#     4   9  16  34  54  74 103 141 178 206 246 314
#
# _framework density 25.833558
#
# number of rings (size 3 to 8) (size 9 to 14) (size 15 to 20)
#    0.000    2.857    0.000    4.286    0.000    0.000 
#    0.000   17.857    0.000    0.000    0.000    0.000 
#    0.000    0.000    0.000    0.000    0.000    0.000 
#
# Total GULP energy -78069.099633 kJ/mol
# GULP energy per Si atom -5576.364259 kJ/mol
# Density = 2.577476 g / cm^3
# Si number density = 25.833558 Si / 1000 Ang^3
#
#
#
# Elastic Constant Matrix: (Units=GPa)
#
#
# Indices 1 2 3 4 5 6 
#
# 1 169.5408 61.0975 29.1337 -31.1731 -23.8597 -46.3408
# 2 61.0975 94.2641 25.9721 -30.4949 1.3434 -27.9708
# 3 29.1337 25.9721 90.3181 -22.8560 -16.0036 2.0286
# 4 -31.1731 -30.4949 -22.8560 42.9801 -5.8320 4.1356
# 5 -23.8597 1.3434 -16.0036 -5.8320 29.6715 -12.5510
# 6 -46.3408 -27.9708 2.0286 4.1356 -12.5510 61.7096
#
#
#
# Elastic Compliance Matrix: (Units=1/GPa)
#
#
# Indices 1 2 3 4 5 6 
#
# 1 0.016070 -0.003128 0.002670 0.012601 0.023077 0.014412
# 2 -0.003128 0.017390 -0.002109 0.008379 -0.000723 0.004894
# 3 0.002670 -0.002109 0.015912 0.010548 0.014028 0.002672
# 4 0.012601 0.008379 0.010548 0.046672 0.031463 0.016185
# 5 0.023077 -0.000723 0.014028 0.031463 0.078939 0.030488
# 6 0.014412 0.004894 0.002672 0.016185 0.030488 0.034274
#
#
# Mechanical properties :
#
#
# Convention : Reuss Voigt Hill
#
# Bulk Modulus (GPa) = 22.60475 65.16995 43.88735
# Shear Modulus (GPa) = 21.82078 42.73356 32.27717
#
# Velocity S-wave (km/s) = 2.90947 4.07158 3.53856
# Velocity P-wave (km/s) = 4.47837 6.88370 5.80694
#
# Compressibility (1/GPa) = 0.04423848
#
# Stress axis : x y z
#
# Youngs Moduli (GPa) = 62.22593 57.50335 62.84416
#
# Poissons Ratio (x) = 0.17985 -0.16778
# Poissons Ratio (y) = 0.19463 0.13257
# Poissons Ratio (z) = -0.16613 0.12130
#
# Static dielectric constant tensor:
#      x y z
#    x 2.206650 -0.004950 0.078380 
#    y -0.004950 2.125910 0.013720 
#    z 0.078380 0.013720 2.069260 
# 
# From -- ./inp_files/233571.got.cif
#   From: 2010.05.17/outbox.cif.g08.bks.cpg/sg2_117_cif.got.tgz:233571.got - 2010.06.03 11:33:40.
