data_PCOD9093037
_publ_section_title
;
Structure prediction by ZEFSAII (Michael W. Deem and Ramdas Pophale) SiO2 
 PCOD9093037
Probable space group: P -1
;
_chemical_formula_sum "Si O2"
_cell_formula_units_Z 16
_cell_length_a 14.020500
_cell_length_b 8.482296
_cell_length_c 5.610685
_cell_angle_alpha 90.816434
_cell_angle_beta 73.978094
_cell_angle_gamma 90.547475
_cell_volume 641.261665
_symmetry_space_group_name_H-M "P -1"
_symmetry_group_IT_number 2
_symmetry_cell_setting 'triclinic'
loop_
_space_group_symop_operation_xyz
x,y,z
-x,-y,-z
loop_
_atom_site_type_symbol
_atom_site_label
_atom_site_fract_x
_atom_site_fract_y
_atom_site_fract_z
Si Si1 0.552493 0.113581 0.279876
Si Si2 0.934798 0.670923 0.775818
Si Si3 0.199002 0.095412 0.586217
Si Si4 0.815029 0.001445 0.903099
Si Si5 0.739595 0.596256 0.713701
Si Si6 0.578517 0.801006 0.011751
Si Si7 0.579513 0.381976 0.562852
Si Si8 0.009215 0.763458 0.226858
O O1 0.459738 0.204436 0.230612
O O2 0.618345 0.253881 0.341998
O O3 0.500000 0.000000 0.500000
O O4 0.592393 0.985282 0.064377
O O5 0.842091 0.555070 0.775162
O O6 0.000531 0.679567 0.489747
O O7 0.881055 0.842227 0.828258
O O8 0.984308 0.664300 0.002163
O O9 0.231892 0.275389 0.509418
O O10 0.079227 0.105134 0.694186
O O11 0.230902 0.995947 0.331447
O O12 0.236892 0.026456 0.806212
O O13 0.886955 0.150406 0.876182
O O14 0.674615 0.693834 0.952840
O O15 0.668627 0.465916 0.644031
O O16 0.489431 0.721528 0.216364
O O17 0.500000 0.500000 0.500000
#
# Coordination Sequence:
#
# PCOD9093037 Si02
#       8
#     2   2   2   2   2   2   2   2
#     4   9  20  38  54  72  93 124 182 214 260 309
#     4   9  17  25  37  65  95 129 162 203 252 301
#     4   9  17  25  37  65  95 129 162 203 252 301
#     4   9  14  25  40  57  89 136 171 192 233 307
#     4  10  20  31  45  74 102 130 162 213 264 306
#     4  10  20  37  53  72  98 132 173 218 258 310
#     4  11  21  33  54  79  96 133 173 216 259 314
#     4   9  14  25  40  57  89 136 171 192 233 307
#
# _framework density 24.950810000000001
#
# number of rings (size 3 to 8) (size 9 to 14) (size 15 to 20)
#    0.000    2.750    1.250    4.125    0.000    4.000 
#    0.000    0.000    0.000    0.000    0.000    0.000 
#    0.000    0.000    0.000  148.500    0.000    0.000 
#
# Total GULP energy -89277.693942 kJ/mol
# GULP energy per Si atom -5579.855871 kJ/mol
# Density = 2.489402 g / cm^3
# Si number density = 24.950810 Si / 1000 Ang^3
#
#
#
# Elastic Constant Matrix: (Units=GPa)
#
#
# Indices 1 2 3 4 5 6 
#
# 1 13.4111 27.3649 44.9110 44.0187 -20.6525 25.1613
# 2 27.3649 119.0743 42.9812 44.1714 -3.7979 33.9070
# 3 44.9110 42.9812 168.6660 9.0201 31.2999 22.8121
# 4 44.0187 44.1714 9.0201 23.2245 29.4026 2.1890
# 5 -20.6525 -3.7979 31.2999 29.4026 5.8459 7.4491
# 6 25.1613 33.9070 22.8121 2.1890 7.4491 32.1216
#
#
#
# Elastic Compliance Matrix: (Units=1/GPa)
#
#
# Indices 1 2 3 4 5 6 
#
# 1 0.016237 -0.009699 0.001150 0.012822 -0.020257 0.000526
# 2 -0.009699 0.013457 0.000662 -0.003697 -0.002514 -0.006243
# 3 0.001150 0.000662 0.006620 -0.004533 -0.000734 -0.005822
# 4 0.012822 -0.003697 -0.004533 0.012586 0.012313 -0.006635
# 5 -0.020257 -0.002514 -0.000734 0.012313 0.023656 0.012718
# 6 0.000526 -0.006243 -0.005822 -0.006635 0.012718 0.038947
#
#
# Mechanical properties :
#
#
# Convention : Reuss Voigt Hill
#
# Bulk Modulus (GPa) = 48.68345 59.07394 53.87870
# Shear Modulus (GPa) = 37.27908 24.63135 30.95521
#
# Velocity S-wave (km/s) = 3.86956 3.14538 3.52611
# Velocity P-wave (km/s) = 6.28639 6.07608 6.18213
#
# Compressibility (1/GPa) = 0.02054086
#
# Stress axis : x y z
#
# Youngs Moduli (GPa) = 61.58841 74.30933 151.05939
#
# Poissons Ratio (x) = 0.72072 -0.17379
# Poissons Ratio (y) = 0.59734 -0.09999
# Poissons Ratio (z) = -0.07085 -0.04919
#
# Static dielectric constant tensor:
#      x y z
#    x 2.038490 0.056680 -0.029810 
#    y 0.056680 2.008040 -0.021770 
#    z -0.029810 -0.021770 2.130650 
# 
# From -- ./inp_files/56500.got.cif
#   From: 2010.05.17/outbox.cif.g08.bks.cpg/sg2_29_cif.got.tgz:56500.got - 2010.06.03 11:33:40.
