data_PCOD9093742
_publ_section_title
;
Structure prediction by ZEFSAII (Michael W. Deem and Ramdas Pophale) SiO2 
 PCOD9093742
Probable space group: P -1
;
_chemical_formula_sum "Si O2"
_cell_formula_units_Z 16
_cell_length_a 9.012801
_cell_length_b 14.032236
_cell_length_c 11.380565
_cell_angle_alpha 30.169483
_cell_angle_beta 94.360474
_cell_angle_gamma 100.918857
_cell_volume 698.923302
_symmetry_space_group_name_H-M "P -1"
_symmetry_group_IT_number 2
_symmetry_cell_setting 'triclinic'
loop_
_space_group_symop_operation_xyz
x,y,z
-x,-y,-z
loop_
_atom_site_type_symbol
_atom_site_label
_atom_site_fract_x
_atom_site_fract_y
_atom_site_fract_z
Si Si1 0.103149 0.458232 0.215753
Si Si2 0.768908 0.662944 0.178591
Si Si3 0.821099 0.998056 0.973509
Si Si4 0.358936 0.246592 0.165929
Si Si5 0.138837 0.054883 0.542582
Si Si6 0.234336 0.712902 0.533996
Si Si7 0.869707 0.244158 0.928975
Si Si8 0.320151 0.660020 0.829676
O O1 0.137997 0.254418 0.399473
O O2 0.178318 0.566968 0.223480
O O3 0.922625 0.412465 0.280610
O O4 0.165330 0.604719 0.955636
O O5 0.700159 0.435591 0.385492
O O6 0.952380 0.683803 0.177613
O O7 0.727536 0.772436 0.943032
O O8 0.731332 0.778024 0.167310
O O9 0.808070 0.128861 0.720448
O O10 0.777028 0.110398 0.963502
O O11 0.000000 0.000000 0.000000
O O12 0.284841 0.092627 0.425760
O O13 0.539315 0.266403 0.151924
O O14 0.337510 0.453397 0.996365
O O15 0.000000 0.000000 0.500000
O O16 0.128489 0.893808 0.812342
O O17 0.331046 0.789577 0.574565
#
# Coordination Sequence:
#
# PCOD9093742 Si02
#       8
#     2   2   2   2   2   2   2   2
#     4  10  21  34  56  81 114 142 177 231 279 322
#     4   9  18  34  55  79 110 143 179 229 277 320
#     4  10  21  35  53  81 113 143 189 234 268 324
#     4   9  18  35  56  84 114 145 182 224 280 338
#     4  11  21  33  58  82 113 144 175 226 283 331
#     4  10  20  33  57  82 110 149 182 226 282 324
#     4  10  21  34  52  84 108 142 188 226 272 325
#     4   9  19  34  56  85 113 144 185 225 278 340
#
# _framework density 22.892354000000001
#
# number of rings (size 3 to 8) (size 9 to 14) (size 15 to 20)
#    0.000    2.250    1.250    1.875    3.500    5.500 
#    0.000    2.500    0.000    3.000    0.000   15.750 
#    0.000    0.000    0.000    0.000    0.000    0.000 
#
# Total GULP energy -89252.094558 kJ/mol
# GULP energy per Si atom -5578.255910 kJ/mol
# Density = 2.284025 g / cm^3
# Si number density = 22.892354 Si / 1000 Ang^3
#
#
#
# Elastic Constant Matrix: (Units=GPa)
#
#
# Indices 1 2 3 4 5 6 
#
# 1 27.8755 20.6067 8.9149 0.0315 2.4957 0.8829
# 2 20.6067 181.0514 12.3372 -25.8610 17.7031 -29.7166
# 3 8.9149 12.3372 56.6666 3.2311 13.8016 -6.3006
# 4 0.0315 -25.8610 3.2311 29.4021 -1.4427 8.8593
# 5 2.4957 17.7031 13.8016 -1.4427 17.0652 -3.7081
# 6 0.8829 -29.7166 -6.3006 8.8593 -3.7081 16.3305
#
#
#
# Elastic Compliance Matrix: (Units=1/GPa)
#
#
# Indices 1 2 3 4 5 6 
#
# 1 0.044881 -0.008208 -0.008551 -0.000229 0.004613 -0.019491
# 2 -0.008208 0.010208 0.002555 0.003378 -0.007597 0.016449
# 3 -0.008551 0.002555 0.024874 -0.005427 -0.019082 0.013320
# 4 -0.000229 0.003378 -0.005427 0.043449 0.000371 -0.019421
# 5 0.004613 -0.007597 -0.019082 0.000371 0.080541 -0.003348
# 6 -0.019491 0.016449 0.013320 -0.019421 -0.003348 0.107136
#
#
# Mechanical properties :
#
#
# Convention : Reuss Voigt Hill
#
# Bulk Modulus (GPa) = 19.39681 38.81234 29.10458
# Shear Modulus (GPa) = 14.01804 27.47520 20.74662
#
# Velocity S-wave (km/s) = 2.47725 3.46814 3.01370
# Velocity P-wave (km/s) = 4.08335 5.74703 4.98509
#
# Compressibility (1/GPa) = 0.05155486
#
# Stress axis : x y z
#
# Youngs Moduli (GPa) = 22.28102 97.95781 40.20262
#
# Poissons Ratio (x) = 0.80408 0.34379
# Poissons Ratio (y) = 0.18289 -0.10273
# Poissons Ratio (z) = 0.19053 -0.25031
#
# Static dielectric constant tensor:
#      x y z
#    x 1.872820 -0.007590 0.024630 
#    y -0.007590 1.946700 -0.067180 
#    z 0.024630 -0.067180 1.892370 
# 
# From -- ./inp_files/398281.got.cif
#   From: 2010.05.17/outbox.cif.g08.bks.cpg/sg2_200_cif.got.tgz:398281.got - 2010.06.03 11:33:40.
