data_PCOD9093594
_publ_section_title
;
Structure prediction by ZEFSAII (Michael W. Deem and Ramdas Pophale) SiO2 
 PCOD9093594
Probable space group: P -1
;
_chemical_formula_sum "Si O2"
_cell_formula_units_Z 16
_cell_length_a 17.805071
_cell_length_b 14.589987
_cell_length_c 11.289964
_cell_angle_alpha 27.203124
_cell_angle_beta 33.316058
_cell_angle_gamma 33.981187
_cell_volume 691.874801
_symmetry_space_group_name_H-M "P -1"
_symmetry_group_IT_number 2
_symmetry_cell_setting 'triclinic'
loop_
_space_group_symop_operation_xyz
x,y,z
-x,-y,-z
loop_
_atom_site_type_symbol
_atom_site_label
_atom_site_fract_x
_atom_site_fract_y
_atom_site_fract_z
Si Si1 0.280436 0.933288 0.143588
Si Si2 0.386475 0.268763 0.678158
Si Si3 0.912732 0.499936 0.328611
Si Si4 0.046050 0.700612 0.249591
Si Si5 0.663958 0.493160 0.308526
Si Si6 0.298508 0.725447 0.723334
Si Si7 0.118943 0.134121 0.351263
Si Si8 0.890489 0.936573 0.980975
O O1 0.159413 0.096969 0.202597
O O2 0.275231 0.711872 0.451656
O O3 0.410799 0.022007 0.899107
O O4 0.264702 0.943351 0.011280
O O5 0.248763 0.417311 0.611752
O O6 0.341874 0.308864 0.829918
O O7 0.533789 0.322481 0.407700
O O8 0.931447 0.329137 0.606253
O O9 0.928904 0.703834 0.138036
O O10 0.046007 0.380376 0.203153
O O11 0.000000 0.500000 0.500000
O O12 0.921399 0.898300 0.122995
O O13 0.192874 0.708279 0.986286
O O14 0.500000 0.500000 0.500000
O O15 0.722935 0.434769 0.166231
O O16 0.245320 0.961276 0.461182
O O17 0.989116 0.046145 0.656499
#
# Coordination Sequence:
#
# PCOD9093594 Si02
#       8
#     2   2   2   2   2   2   2   2
#     4  10  20  33  54  82 112 142 173 222 274 316
#     4  10  21  36  55  82 112 140 179 221 269 326
#     4  10  21  35  56  81 105 144 185 224 267 311
#     4   9  19  36  55  77 107 142 183 224 265 315
#     4   9  19  35  54  78 110 144 174 210 265 327
#     4   9  20  36  54  79 109 143 177 221 273 318
#     4  10  20  33  54  80 109 140 179 222 266 319
#     4   9  19  34  51  76 108 138 176 221 264 312
#
# _framework density 23.125571999999998
#
# number of rings (size 3 to 8) (size 9 to 14) (size 15 to 20)
#    0.000    2.500    0.000    1.125    0.000   15.000 
#    0.000    3.750    0.000    0.000    0.000   22.750 
#    0.000    0.000    0.000    0.000    0.000    0.000 
#
# Total GULP energy -89145.448134 kJ/mol
# GULP energy per Si atom -5571.590508 kJ/mol
# Density = 2.307294 g / cm^3
# Si number density = 23.125572 Si / 1000 Ang^3
#
#
#
# Elastic Constant Matrix: (Units=GPa)
#
#
# Indices 1 2 3 4 5 6 
#
# 1 120.0929 16.3434 19.7872 21.0407 9.5630 -6.2700
# 2 16.3434 52.8938 -1.7117 10.7408 -0.2237 -2.0235
# 3 19.7872 -1.7117 69.6978 8.3091 7.8203 7.6331
# 4 21.0407 10.7408 8.3091 34.6050 4.5238 -3.9780
# 5 9.5630 -0.2237 7.8203 4.5238 39.1162 2.8465
# 6 -6.2700 -2.0235 7.6331 -3.9780 2.8465 22.3911
#
#
#
# Elastic Compliance Matrix: (Units=1/GPa)
#
#
# Indices 1 2 3 4 5 6 
#
# 1 0.010085 -0.002226 -0.002542 -0.004271 -0.001691 0.002945
# 2 -0.002226 0.020796 0.001764 -0.005713 0.001007 -0.000488
# 3 -0.002542 0.001764 0.016443 -0.003471 -0.001778 -0.006548
# 4 -0.004271 -0.005713 -0.003471 0.035166 -0.002804 0.006075
# 5 -0.001691 0.001007 -0.001778 -0.002804 0.026933 -0.003698
# 6 0.002945 -0.000488 -0.006548 0.006075 -0.003698 0.049223
#
#
# Mechanical properties :
#
#
# Convention : Reuss Voigt Hill
#
# Bulk Modulus (GPa) = 24.20218 34.61361 29.40790
# Shear Modulus (GPa) = 28.02301 33.10685 30.56493
#
# Velocity S-wave (km/s) = 3.48483 3.78777 3.63945
# Velocity P-wave (km/s) = 5.16530 5.84207 5.51408
#
# Compressibility (1/GPa) = 0.04131859
#
# Stress axis : x y z
#
# Youngs Moduli (GPa) = 99.15422 48.08570 60.81640
#
# Poissons Ratio (x) = 0.10702 0.15457
# Poissons Ratio (y) = 0.22067 -0.10729
# Poissons Ratio (z) = 0.25200 -0.08483
#
# Static dielectric constant tensor:
#      x y z
#    x 1.960500 -0.006480 -0.075250 
#    y -0.006480 1.868490 -0.001600 
#    z -0.075250 -0.001600 1.781430 
# 
# From -- ./inp_files/465448.got.cif
#   From: 2010.05.17/outbox.cif.g08.bks.cpg/sg2_233_cif.got.tgz:465448.got - 2010.06.03 11:33:40.
