data_PCOD9093892
_publ_section_title
;
Structure prediction by ZEFSAII (Michael W. Deem and Ramdas Pophale) SiO2 
 PCOD9093892
Probable space group: P -1
;
_chemical_formula_sum "Si O2"
_cell_formula_units_Z 14
_cell_length_a 7.728656
_cell_length_b 10.564083
_cell_length_c 9.533426
_cell_angle_alpha 87.457726
_cell_angle_beta 85.033080
_cell_angle_gamma 134.698480
_cell_volume 545.077606
_symmetry_space_group_name_H-M "P -1"
_symmetry_group_IT_number 2
_symmetry_cell_setting 'triclinic'
loop_
_space_group_symop_operation_xyz
x,y,z
-x,-y,-z
loop_
_atom_site_type_symbol
_atom_site_label
_atom_site_fract_x
_atom_site_fract_y
_atom_site_fract_z
Si Si1 0.730541 0.540113 0.330537
Si Si2 0.548156 0.422977 0.849888
Si Si3 0.745203 0.887092 0.612506
Si Si4 0.791130 0.345153 0.669654
Si Si5 0.579765 0.914125 0.075323
Si Si6 0.099237 0.792017 0.527136
Si Si7 0.068784 0.178628 0.170943
O O1 0.662447 0.612015 0.218706
O O2 0.487964 0.327180 0.383648
O O3 0.963608 0.573085 0.269057
O O4 0.850204 0.669081 0.452715
O O5 0.496746 0.269980 0.951633
O O6 0.713338 0.445838 0.709454
O O7 0.716749 0.615575 0.900489
O O8 0.828565 0.896895 0.764087
O O9 0.704879 0.011792 0.570808
O O10 0.000000 0.000000 0.500000
O O11 0.559882 0.151968 0.762209
O O12 0.823094 0.311850 0.510730
O O13 0.868910 0.059326 0.072891
O O14 0.500000 0.000000 0.000000
O O15 0.057535 0.816643 0.685679
#
# Coordination Sequence:
#
# PCOD9093892 Si02
#       7
#     2   2   2   2   2   2   2
#     4   9  18  37  57  81 125 149 184 229 283 343
#     4   9  20  38  59  84 116 153 186 233 287 340
#     4   9  18  31  57  89 117 156 185 225 278 351
#     4   8  21  38  55  88 114 155 184 231 290 331
#     4  10  22  41  58  79 114 150 196 248 281 327
#     4   9  19  34  55  90 119 148 184 226 280 349
#     4  10  20  33  60  87 109 155 192 223 290 342
#
# _framework density 25.684415999999999
#
# number of rings (size 3 to 8) (size 9 to 14) (size 15 to 20)
#    1.714    1.143    0.000    0.857    0.000   10.286 
#    0.000    0.714    0.000    4.286    0.000    0.000 
#    0.000    0.000    0.000    0.000    0.000    0.000 
#
# Total GULP energy -78055.716281 kJ/mol
# GULP energy per Si atom -5575.408306 kJ/mol
# Density = 2.562596 g / cm^3
# Si number density = 25.684416 Si / 1000 Ang^3
#
#
#
# Elastic Constant Matrix: (Units=GPa)
#
#
# Indices 1 2 3 4 5 6 
#
# 1 94.4383 28.0803 43.3700 -4.5119 24.8379 3.7941
# 2 28.0803 165.7392 28.2451 -22.0594 29.4705 3.0399
# 3 43.3700 28.2451 66.2350 -19.9306 14.2186 -4.0844
# 4 -4.5119 -22.0594 -19.9306 36.7040 -4.0555 12.5617
# 5 24.8379 29.4705 14.2186 -4.0555 54.4467 -2.2771
# 6 3.7941 3.0399 -4.0844 12.5617 -2.2771 48.9675
#
#
#
# Elastic Compliance Matrix: (Units=1/GPa)
#
#
# Indices 1 2 3 4 5 6 
#
# 1 0.017101 -0.000686 -0.011307 -0.004549 -0.004869 -0.001285
# 2 -0.000686 0.007463 -0.000894 0.004136 -0.003256 -0.001697
# 3 -0.011307 -0.000894 0.026752 0.012583 -0.000410 -0.000084
# 4 -0.004549 0.004136 0.012583 0.038945 -0.000921 -0.008888
# 5 -0.004869 -0.003256 -0.000410 -0.000921 0.022465 0.001826
# 6 -0.001285 -0.001697 -0.000084 -0.008888 0.001826 0.022985
#
#
# Mechanical properties :
#
#
# Convention : Reuss Voigt Hill
#
# Bulk Modulus (GPa) = 39.15402 58.42258 48.78830
# Shear Modulus (GPa) = 29.41193 43.13813 36.27503
#
# Velocity S-wave (km/s) = 3.38764 4.10267 3.76218
# Velocity P-wave (km/s) = 5.52982 6.72594 6.15699
#
# Compressibility (1/GPa) = 0.02554016
#
# Stress axis : x y z
#
# Youngs Moduli (GPa) = 58.47678 133.99766 37.38014
#
# Poissons Ratio (x) = 0.09196 0.42267
# Poissons Ratio (y) = 0.04013 0.03342
# Poissons Ratio (z) = 0.66122 0.11981
#
# Static dielectric constant tensor:
#      x y z
#    x 2.163800 -0.034200 -0.042550 
#    y -0.034200 2.127870 -0.109570 
#    z -0.042550 -0.109570 2.067510 
# 
# From -- ./inp_files/496528.got.cif
#   From: 2010.05.17/outbox.cif.g08.bks.cpg/sg2_249_cif.got.tgz:496528.got - 2010.06.03 11:33:40.
