data_PCOD9093686
_publ_section_title
;
Structure prediction by ZEFSAII (Michael W. Deem and Ramdas Pophale) SiO2 
 PCOD9093686
Probable space group: P -1
;
_chemical_formula_sum "Si O2"
_cell_formula_units_Z 16
_cell_length_a 13.988286
_cell_length_b 14.593391
_cell_length_c 5.485861
_cell_angle_alpha 112.131490
_cell_angle_beta 94.245486
_cell_angle_gamma 44.733395
_cell_volume 697.167036
_symmetry_space_group_name_H-M "P -1"
_symmetry_group_IT_number 2
_symmetry_cell_setting 'triclinic'
loop_
_space_group_symop_operation_xyz
x,y,z
-x,-y,-z
loop_
_atom_site_type_symbol
_atom_site_label
_atom_site_fract_x
_atom_site_fract_y
_atom_site_fract_z
Si Si1 0.213787 0.782489 0.411898
Si Si2 0.411566 0.779012 0.204751
Si Si3 0.878105 0.888017 0.621185
Si Si4 0.604000 0.510144 0.601876
Si Si5 0.377803 0.307002 0.465887
Si Si6 0.008992 0.104994 0.858678
Si Si7 0.263711 0.202408 0.564886
Si Si8 0.538560 0.894775 0.112586
O O1 0.344990 0.755865 0.370751
O O2 0.261026 0.646663 0.411989
O O3 0.149938 0.805978 0.156085
O O4 0.099749 0.933853 0.693233
O O5 0.514646 0.773935 0.367596
O O6 0.273848 0.937676 0.223092
O O7 0.509265 0.637836 0.912755
O O8 0.942005 0.873722 0.357649
O O9 0.858409 0.783781 0.497807
O O10 0.959190 0.859853 0.854158
O O11 0.500000 0.500000 0.500000
O O12 0.656840 0.552333 0.458514
O O13 0.269058 0.300392 0.507543
O O14 0.456651 0.210178 0.139796
O O15 0.304644 0.206842 0.848750
O O16 0.402436 0.026251 0.379094
O O17 0.500000 0.000000 0.000000
#
# Coordination Sequence:
#
# PCOD9093686 Si02
#       8
#     2   2   2   2   2   2   2   2
#     4  10  23  43  65  88 130 163 214 263 311 378
#     4  11  23  38  60  95 126 164 202 262 323 391
#     4  11  23  39  68  92 132 161 219 262 314 373
#     4  12  23  38  62  91 126 167 205 258 324 387
#     4  11  22  35  55  91 128 163 201 245 330 392
#     4  10  25  44  64  98 119 175 216 266 313 362
#     4  10  20  33  55  87 125 163 199 263 306 386
#     4   9  18  32  53  84 123 161 199 242 327 372
#
# _framework density 22.950023000000002
#
# number of rings (size 3 to 8) (size 9 to 14) (size 15 to 20)
#    0.000    1.500    1.250    4.875    8.750    5.500 
#    0.000    0.000    0.000    1.500    0.000    0.000 
#    0.000    0.000    0.000    0.000    0.000    0.000 
#
# Total GULP energy -89187.372158 kJ/mol
# GULP energy per Si atom -5574.210760 kJ/mol
# Density = 2.289779 g / cm^3
# Si number density = 22.950023 Si / 1000 Ang^3
#
#
#
# Elastic Constant Matrix: (Units=GPa)
#
#
# Indices 1 2 3 4 5 6 
#
# 1 113.6779 31.2439 23.8000 2.0803 23.9060 29.9969
# 2 31.2439 90.5463 4.9923 -3.0067 7.4004 32.2422
# 3 23.8000 4.9923 103.0189 -19.7033 28.1360 -5.3409
# 4 2.0803 -3.0067 -19.7033 23.7240 -2.7070 7.5792
# 5 23.9060 7.4004 28.1360 -2.7070 33.8715 0.3557
# 6 29.9969 32.2422 -5.3409 7.5792 0.3557 39.8260
#
#
#
# Elastic Compliance Matrix: (Units=1/GPa)
#
#
# Indices 1 2 3 4 5 6 
#
# 1 0.013569 -0.000375 -0.001420 -0.000159 -0.008223 -0.010003
# 2 -0.000375 0.016818 0.000785 0.007082 -0.003343 -0.014546
# 3 -0.001420 0.000785 0.015177 0.011467 -0.010864 0.000384
# 4 -0.000159 0.007082 0.011467 0.056594 -0.006282 -0.014790
# 5 -0.008223 -0.003343 -0.010864 -0.006282 0.044494 0.008241
# 6 -0.010003 -0.014546 0.000384 -0.014790 0.008241 0.047212
#
#
# Mechanical properties :
#
#
# Convention : Reuss Voigt Hill
#
# Bulk Modulus (GPa) = 22.96485 47.47949 35.22217
# Shear Modulus (GPa) = 23.76445 35.96477 29.86461
#
# Velocity S-wave (km/s) = 3.22139 3.96294 3.61125
# Velocity P-wave (km/s) = 4.88515 6.45546 5.72441
#
# Compressibility (1/GPa) = 0.04354480
#
# Stress axis : x y z
#
# Youngs Moduli (GPa) = 73.69795 59.45974 65.88869
#
# Poissons Ratio (x) = 0.02230 0.09354
# Poissons Ratio (y) = 0.02764 -0.05173
# Poissons Ratio (z) = 0.10463 -0.04668
#
# Static dielectric constant tensor:
#      x y z
#    x 1.977610 0.069920 -0.035130 
#    y 0.069920 1.879300 0.008490 
#    z -0.035130 0.008490 1.842110 
# 
# From -- ./inp_files/98614.got.cif
#   From: 2010.05.17/outbox.cif.g08.bks.cpg/sg2_50_cif.got.tgz:98614.got - 2010.06.03 11:33:40.
