data_PCOD9093955
_publ_section_title
;
Structure prediction by ZEFSAII (Michael W. Deem and Ramdas Pophale) SiO2 
 PCOD9093955
Probable space group: P -1
;
_chemical_formula_sum "Si O2"
_cell_formula_units_Z 16
_cell_length_a 8.688656
_cell_length_b 10.477780
_cell_length_c 8.682730
_cell_angle_alpha 123.074848
_cell_angle_beta 83.014342
_cell_angle_gamma 108.008566
_cell_volume 628.819553
_symmetry_space_group_name_H-M "P -1"
_symmetry_group_IT_number 2
_symmetry_cell_setting 'triclinic'
loop_
_space_group_symop_operation_xyz
x,y,z
-x,-y,-z
loop_
_atom_site_type_symbol
_atom_site_label
_atom_site_fract_x
_atom_site_fract_y
_atom_site_fract_z
Si Si1 0.332442 0.888591 0.881185
Si Si2 0.981843 0.791756 0.803167
Si Si3 0.497422 0.938958 0.290115
Si Si4 0.734455 0.535562 0.857994
Si Si5 0.150676 0.582190 0.770313
Si Si6 0.852157 0.262693 0.805324
Si Si7 0.607837 0.675370 0.240938
Si Si8 0.889724 0.785659 0.473432
O O1 0.324344 0.710891 0.814895
O O2 0.149342 0.910082 0.936500
O O3 0.371645 0.922722 0.721090
O O4 0.500000 0.000000 0.000000
O O5 0.826975 0.698693 0.864475
O O6 0.942846 0.848813 0.678861
O O7 0.056453 0.642194 0.685355
O O8 0.311061 0.873098 0.217605
O O9 0.554835 0.781276 0.188253
O O10 0.500000 0.000000 0.500000
O O11 0.814240 0.388940 0.770965
O O12 0.555052 0.448208 0.756966
O O13 0.708113 0.581025 0.068184
O O14 0.149841 0.405835 0.634374
O O15 0.090659 0.637556 0.978187
O O16 0.971736 0.178269 0.651394
O O17 0.721305 0.793533 0.427182
#
# Coordination Sequence:
#
# PCOD9093955 Si02
#       8
#     2   2   2   2   2   2   2   2
#     4  10  21  39  60  91 118 163 218 244 291 369
#     4  10  22  35  61  91 131 160 196 262 309 368
#     4  11  23  42  62  87 122 170 210 253 303 365
#     4  10  20  40  60  95 123 161 205 253 325 362
#     4  10  20  33  63  91 120 160 198 258 293 377
#     4  11  19  36  67  90 122 162 207 249 307 384
#     4  10  24  37  64  88 129 160 206 262 302 380
#     4  12  21  37  62 104 123 155 204 261 330 353
#
# _framework density 25.444500000000001
#
# number of rings (size 3 to 8) (size 9 to 14) (size 15 to 20)
#    0.750    0.750    3.750    2.250    0.000    1.500 
#    0.000    4.375    0.000    0.000    0.000    0.000 
#    0.000    0.000    0.000    0.000    0.000    0.000 
#
# Total GULP energy -89158.605436 kJ/mol
# GULP energy per Si atom -5572.412840 kJ/mol
# Density = 2.538659 g / cm^3
# Si number density = 25.444500 Si / 1000 Ang^3
#
#
#
# Elastic Constant Matrix: (Units=GPa)
#
#
# Indices 1 2 3 4 5 6 
#
# 1 121.9465 21.4840 38.9664 -10.7826 20.7656 33.4589
# 2 21.4840 76.5199 13.8536 -19.6682 -14.1007 38.6120
# 3 38.9664 13.8536 77.8131 1.0156 12.0683 4.9036
# 4 -10.7826 -19.6682 1.0156 36.5073 0.7692 -2.2836
# 5 20.7656 -14.1007 12.0683 0.7692 34.5809 -1.8283
# 6 33.4589 38.6120 4.9036 -2.2836 -1.8283 44.0314
#
#
#
# Elastic Compliance Matrix: (Units=1/GPa)
#
#
# Indices 1 2 3 4 5 6 
#
# 1 0.015213 0.005579 -0.006877 0.006831 -0.005435 -0.015558
# 2 0.005579 0.039209 -0.009912 0.020513 0.013744 -0.035884
# 3 -0.006877 -0.009912 0.018301 -0.007058 -0.005545 0.011284
# 4 0.006831 0.020513 -0.007058 0.039295 0.004786 -0.020157
# 5 -0.005435 0.013744 -0.005545 0.004786 0.039328 -0.005423
# 6 -0.015558 -0.035884 0.011284 -0.020157 -0.005423 0.063474
#
#
# Mechanical properties :
#
#
# Convention : Reuss Voigt Hill
#
# Bulk Modulus (GPa) = 19.88008 47.20971 33.54490
# Shear Modulus (GPa) = 19.68431 36.48895 28.08663
#
# Velocity S-wave (km/s) = 2.78442 3.79101 3.32601
# Velocity P-wave (km/s) = 4.26232 6.14464 5.28791
#
# Compressibility (1/GPa) = 0.05030160
#
# Stress axis : x y z
#
# Youngs Moduli (GPa) = 65.73182 25.50431 54.64146
#
# Poissons Ratio (x) = -0.14228 0.37579
# Poissons Ratio (y) = -0.36670 0.54162
# Poissons Ratio (z) = 0.45206 0.25281
#
# Static dielectric constant tensor:
#      x y z
#    x 2.159650 -0.010670 0.045140 
#    y -0.010670 2.909660 0.116260 
#    z 0.045140 0.116260 2.080740 
# 
# From -- ./inp_files/189261.got.cif
#   From: 2010.05.17/outbox.cif.g08.bks.cpg/sg2_95_cif.got.tgz:189261.got - 2010.06.03 11:33:40.
