data_PCOD9093719
_publ_section_title
;
Structure prediction by ZEFSAII (Michael W. Deem and Ramdas Pophale) SiO2 
 PCOD9093719
Probable space group: P -1
;
_chemical_formula_sum "Si O2"
_cell_formula_units_Z 16
_cell_length_a 8.523632
_cell_length_b 17.971758
_cell_length_c 9.420072
_cell_angle_alpha 118.161866
_cell_angle_beta 131.328225
_cell_angle_gamma 43.642621
_cell_volume 747.815238
_symmetry_space_group_name_H-M "P -1"
_symmetry_group_IT_number 2
_symmetry_cell_setting 'triclinic'
loop_
_space_group_symop_operation_xyz
x,y,z
-x,-y,-z
loop_
_atom_site_type_symbol
_atom_site_label
_atom_site_fract_x
_atom_site_fract_y
_atom_site_fract_z
Si Si1 0.598805 0.302651 0.968561
Si Si2 0.407733 0.052220 0.800420
Si Si3 0.291701 0.942930 0.439381
Si Si4 0.079314 0.808728 0.207940
Si Si5 0.740388 0.774400 0.370778
Si Si6 0.289451 0.470129 0.170615
Si Si7 0.070483 0.076862 0.153050
Si Si8 0.710627 0.342555 0.536538
O O1 0.768856 0.279046 0.906514
O O2 0.370550 0.291720 0.780427
O O3 0.461900 0.408112 0.076489
O O4 0.811990 0.199049 0.099627
O O5 0.365933 0.139293 0.742192
O O6 0.239475 0.123534 0.899574
O O7 0.269580 0.999758 0.621284
O O8 0.714614 0.954135 0.866524
O O9 0.144798 0.890829 0.295051
O O10 0.597008 0.844293 0.489326
O O11 0.187729 0.035530 0.342828
O O12 0.208983 0.748088 0.381899
O O13 0.055095 0.702845 0.480460
O O14 0.442937 0.394064 0.332944
O O15 0.286330 0.570233 0.295469
O O16 0.000000 0.500000 0.000000
O O17 0.000000 0.000000 0.000000
#
# Coordination Sequence:
#
# PCOD9093719 Si02
#       8
#     2   2   2   2   2   2   2   2
#     4  11  22  38  63  90 129 164 215 258 312 371
#     4  10  20  33  56  86 130 169 207 244 302 369
#     4  10  20  35  58  89 129 170 209 246 302 375
#     4  10  22  40  59  93 131 167 198 266 320 368
#     4   9  17  35  60  87 120 165 209 252 297 374
#     4  11  24  44  72  94 113 163 219 267 319 386
#     4  11  19  35  57  90 123 174 209 245 292 368
#     4  10  23  43  69  92 123 156 214 270 323 375
#
# _framework density 21.395658999999998
#
# number of rings (size 3 to 8) (size 9 to 14) (size 15 to 20)
#    0.000    1.750    5.000    1.875    5.250    1.000 
#    0.000    1.875    0.000    0.000    0.000    0.000 
#    0.000    0.000    0.000    0.000    0.000    0.000 
#
# Total GULP energy -89223.682516 kJ/mol
# GULP energy per Si atom -5576.480157 kJ/mol
# Density = 2.134696 g / cm^3
# Si number density = 21.395659 Si / 1000 Ang^3
#
#
#
# Elastic Constant Matrix: (Units=GPa)
#
#
# Indices 1 2 3 4 5 6 
#
# 1 92.9465 32.0593 30.1046 5.4456 -9.3211 -27.0058
# 2 32.0593 66.8587 30.0469 0.9187 -0.8690 -27.3943
# 3 30.1046 30.0469 87.4090 3.3567 3.0266 -15.2889
# 4 5.4456 0.9187 3.3567 33.8145 -7.8028 -6.5199
# 5 -9.3211 -0.8690 3.0266 -7.8028 28.9732 0.4206
# 6 -27.0058 -27.3943 -15.2889 -6.5199 0.4206 39.8900
#
#
#
# Elastic Compliance Matrix: (Units=1/GPa)
#
#
# Indices 1 2 3 4 5 6 
#
# 1 0.015406 -0.002911 -0.003245 0.000522 0.005244 0.007217
# 2 -0.002911 0.023946 -0.005104 0.003051 0.000948 0.013007
# 3 -0.003245 -0.005104 0.014410 -0.001566 -0.003118 -0.000402
# 4 0.000522 0.003051 -0.001566 0.033070 0.009225 0.007156
# 5 0.005244 0.000948 -0.003118 0.009225 0.038981 0.004103
# 6 0.007217 0.013007 -0.000402 0.007156 0.004103 0.039860
#
#
# Mechanical properties :
#
#
# Convention : Reuss Voigt Hill
#
# Bulk Modulus (GPa) = 32.00659 47.95954 39.98307
# Shear Modulus (GPa) = 25.17531 30.86909 28.02220
#
# Velocity S-wave (km/s) = 3.43396 3.80251 3.62292
# Velocity P-wave (km/s) = 5.54208 6.46088 6.01904
#
# Compressibility (1/GPa) = 0.03124357
#
# Stress axis : x y z
#
# Youngs Moduli (GPa) = 64.90905 41.76020 69.39498
#
# Poissons Ratio (x) = 0.12157 0.22516
# Poissons Ratio (y) = 0.18896 0.35419
# Poissons Ratio (z) = 0.21060 0.21314
#
# Static dielectric constant tensor:
#      x y z
#    x 1.792340 -0.037280 -0.006180 
#    y -0.037280 1.794930 -0.035520 
#    z -0.006180 -0.035520 1.863810 
# 
# From -- ./inp_files/223897.got.cif
#   From: 2010.05.17/outbox.cif.g08.bks.cpg/sg2_112_cif.got.tgz:223897.got - 2010.06.03 11:33:40.
