data_PCOD9093645
_publ_section_title
;
Structure prediction by ZEFSAII (Michael W. Deem and Ramdas Pophale) SiO2 
 PCOD9093645
Probable space group: P -1
;
_chemical_formula_sum "Si O2"
_cell_formula_units_Z 14
_cell_length_a 7.345270
_cell_length_b 13.920402
_cell_length_c 9.059092
_cell_angle_alpha 95.117441
_cell_angle_beta 57.807006
_cell_angle_gamma 131.651318
_cell_volume 531.847864
_symmetry_space_group_name_H-M "P -1"
_symmetry_group_IT_number 2
_symmetry_cell_setting 'triclinic'
loop_
_space_group_symop_operation_xyz
x,y,z
-x,-y,-z
loop_
_atom_site_type_symbol
_atom_site_label
_atom_site_fract_x
_atom_site_fract_y
_atom_site_fract_z
Si Si1 0.744009 0.533983 0.052536
Si Si2 0.883569 0.786956 0.115593
Si Si3 0.149432 0.019305 0.232460
Si Si4 0.458284 0.711581 0.732025
Si Si5 0.012995 0.528260 0.670248
Si Si6 0.374932 0.767782 0.185290
Si Si7 0.363249 0.008958 0.697272
O O1 0.727113 0.631513 0.151173
O O2 0.505602 0.377235 0.206177
O O3 0.115473 0.630805 0.928696
O O4 0.773164 0.525016 0.857827
O O5 0.629378 0.776454 0.149070
O O6 0.013202 0.868958 0.228519
O O7 0.179503 0.888043 0.885462
O O8 0.279101 0.121022 0.332628
O O9 0.894777 0.004132 0.261223
O O10 0.458221 0.129475 0.010774
O O11 0.362059 0.667546 0.596288
O O12 0.000000 0.500000 0.500000
O O13 0.920119 0.392468 0.752114
O O14 0.348703 0.839827 0.330238
O O15 0.500000 0.000000 0.500000
#
# Coordination Sequence:
#
# PCOD9093645 Si02
#       7
#     2   2   2   2   2   2   2
#     4   9  18  33  54  85 106 146 190 220 265 332
#     4   9  19  31  55  87 103 141 197 223 261 328
#     4   9  16  36  56  79 113 146 181 230 266 327
#     4   9  18  35  54  80 110 150 179 223 283 315
#     4  10  20  33  55  79 112 146 179 230 276 322
#     4   9  17  34  53  79 114 144 179 230 269 318
#     4   9  19  31  54  83 114 146 181 226 282 323
#
# _framework density 26.323318
#
# number of rings (size 3 to 8) (size 9 to 14) (size 15 to 20)
#    0.857    2.000    1.429    1.714    2.000    1.143 
#    0.000    0.000    0.000   14.571    0.000    0.000 
#    0.000    0.000    0.000    0.000    0.000    0.000 
#
# Total GULP energy -78037.261252 kJ/mol
# GULP energy per Si atom -5574.090089 kJ/mol
# Density = 2.626340 g / cm^3
# Si number density = 26.323318 Si / 1000 Ang^3
#
#
#
# Elastic Constant Matrix: (Units=GPa)
#
#
# Indices 1 2 3 4 5 6 
#
# 1 45.3669 31.2164 7.9921 14.6310 11.9677 1.1787
# 2 31.2164 233.9706 65.5881 40.6282 5.5718 15.1362
# 3 7.9921 65.5881 87.1869 12.3807 2.1820 -2.0160
# 4 14.6310 40.6282 12.3807 50.1412 7.3253 1.1249
# 5 11.9677 5.5718 2.1820 7.3253 22.5087 12.3221
# 6 1.1787 15.1362 -2.0160 1.1249 12.3221 31.6597
#
#
#
# Elastic Compliance Matrix: (Units=1/GPa)
#
#
# Indices 1 2 3 4 5 6 
#
# 1 0.030314 -0.003891 0.001297 -0.003475 -0.018633 0.008190
# 2 -0.003891 0.006999 -0.004586 -0.004013 0.004983 -0.005290
# 3 0.001297 -0.004586 0.014983 0.000042 -0.003451 0.004440
# 4 -0.003475 -0.004013 0.000042 0.025221 -0.007628 0.004123
# 5 -0.018633 0.004983 -0.003451 -0.007628 0.072197 -0.029737
# 6 0.008190 -0.005290 0.004440 0.004123 -0.029737 0.045520
#
#
# Mechanical properties :
#
#
# Convention : Reuss Voigt Hill
#
# Bulk Modulus (GPa) = 26.35855 64.01307 45.18581
# Shear Modulus (GPa) = 22.49824 38.31044 30.40434
#
# Velocity S-wave (km/s) = 2.92668 3.81908 3.40227
# Velocity P-wave (km/s) = 4.63203 6.61952 5.71287
#
# Compressibility (1/GPa) = 0.03793836
#
# Stress axis : x y z
#
# Youngs Moduli (GPa) = 32.98755 142.87711 66.74039
#
# Poissons Ratio (x) = 0.55592 -0.08658
# Poissons Ratio (y) = 0.12835 0.30605
# Poissons Ratio (z) = -0.04280 0.65519
#
# Static dielectric constant tensor:
#      x y z
#    x 2.202630 -0.000410 0.035350 
#    y -0.000410 2.128940 0.086140 
#    z 0.035350 0.086140 2.138490 
# 
# From -- ./inp_files/217830.got.cif
#   From: 2010.05.17/outbox.cif.g08.bks.cpg/sg2_109_cif.got.tgz:217830.got - 2010.06.03 11:33:40.
