data_PCOD9093631
_publ_section_title
;
Structure prediction by ZEFSAII (Michael W. Deem and Ramdas Pophale) SiO2 
 PCOD9093631
Probable space group: P -1
;
_chemical_formula_sum "Si O2"
_cell_formula_units_Z 14
_cell_length_a 6.757728
_cell_length_b 14.823013
_cell_length_c 20.171676
_cell_angle_alpha 20.106024
_cell_angle_beta 100.924842
_cell_angle_gamma 112.006380
_cell_volume 554.171359
_symmetry_space_group_name_H-M "P -1"
_symmetry_group_IT_number 2
_symmetry_cell_setting 'triclinic'
loop_
_space_group_symop_operation_xyz
x,y,z
-x,-y,-z
loop_
_atom_site_type_symbol
_atom_site_label
_atom_site_fract_x
_atom_site_fract_y
_atom_site_fract_z
Si Si1 0.689273 0.853528 0.142119
Si Si2 0.014526 0.716913 0.928244
Si Si3 0.524687 0.869798 0.662163
Si Si4 0.701145 0.564203 0.799459
Si Si5 0.317948 0.948157 0.128476
Si Si6 0.654256 0.826538 0.481507
Si Si7 0.202608 0.326484 0.605069
O O1 0.567714 0.996800 0.078211
O O2 0.473380 0.495555 0.348257
O O3 0.862114 0.820270 0.224618
O O4 0.808744 0.057741 0.943047
O O5 0.148591 0.865218 0.763572
O O6 0.068331 0.032395 0.749849
O O7 0.144817 0.575292 0.073945
O O8 0.725587 0.444637 0.107249
O O9 0.690201 0.750181 0.733417
O O10 0.500000 0.000000 0.500000
O O11 0.561145 0.135552 0.532937
O O12 0.768488 0.779060 0.588265
O O13 0.428745 0.247272 0.979171
O O14 0.182528 0.610640 0.388810
O O15 0.500000 0.500000 0.500000
#
# Coordination Sequence:
#
# PCOD9093631 Si02
#       7
#     2   2   2   2   2   2   2
#     4   9  15  27  54  88 110 147 190 233 290 346
#     4  12  21  38  67  88 114 164 200 239 300 351
#     4  10  25  43  58  88 124 155 202 251 290 348
#     4  10  21  39  63  88 120 158 194 244 302 348
#     4   9  15  28  54  85 114 148 185 233 293 346
#     4  10  20  37  61  90 118 155 203 243 289 355
#     4  10  16  29  54  90 113 141 194 237 285 351
#
# _framework density 25.262944000000001
#
# number of rings (size 3 to 8) (size 9 to 14) (size 15 to 20)
#    0.000    2.000    5.714    0.429    0.000    2.857 
#    0.000    3.571    0.000    7.714    0.000    0.000 
#    0.000    0.000    0.000    0.000    0.000    0.000 
#
# Total GULP energy -78237.544486 kJ/mol
# GULP energy per Si atom -5588.396035 kJ/mol
# Density = 2.520544 g / cm^3
# Si number density = 25.262944 Si / 1000 Ang^3
#
#
#
# Elastic Constant Matrix: (Units=GPa)
#
#
# Indices 1 2 3 4 5 6 
#
# 1 63.9674 30.7733 30.6234 6.1643 9.3439 -15.6108
# 2 30.7733 98.9741 41.1706 25.0528 -6.2337 -20.1268
# 3 30.6234 41.1706 149.5396 27.3379 9.0250 -13.8217
# 4 6.1643 25.0528 27.3379 57.8567 6.6943 1.3623
# 5 9.3439 -6.2337 9.0250 6.6943 31.5830 13.1490
# 6 -15.6108 -20.1268 -13.8217 1.3623 13.1490 34.5612
#
#
#
# Elastic Compliance Matrix: (Units=1/GPa)
#
#
# Indices 1 2 3 4 5 6 
#
# 1 0.023673 -0.005556 -0.001842 0.001962 -0.012780 0.011505
# 2 -0.005556 0.015186 -0.001914 -0.005721 0.004739 0.003991
# 3 -0.001842 -0.001914 0.008500 -0.002732 -0.002771 0.002614
# 4 0.001962 -0.005721 -0.002732 0.021409 -0.004328 -0.002736
# 5 -0.012780 0.004739 -0.002771 -0.004328 0.047211 -0.021912
# 6 0.011505 0.003991 0.002614 -0.002736 -0.021912 0.045945
#
#
# Mechanical properties :
#
#
# Convention : Reuss Voigt Hill
#
# Bulk Modulus (GPa) = 34.80229 57.51286 46.15758
# Shear Modulus (GPa) = 26.29834 38.79444 32.54639
#
# Velocity S-wave (km/s) = 3.22993 3.92296 3.59319
# Velocity P-wave (km/s) = 5.26459 6.58290 5.96030
#
# Compressibility (1/GPa) = 0.02873374
#
# Stress axis : x y z
#
# Youngs Moduli (GPa) = 42.24156 65.85129 117.64988
#
# Poissons Ratio (x) = 0.36588 0.21673
# Poissons Ratio (y) = 0.23470 0.22522
# Poissons Ratio (z) = 0.07782 0.12606
#
# Static dielectric constant tensor:
#      x y z
#    x 2.531650 0.014130 0.125220 
#    y 0.014130 1.986680 0.045860 
#    z 0.125220 0.045860 1.995790 
# 
# From -- ./inp_files/590010.got.cif
#   From: 2010.05.17/outbox.cif.g08.bks.cpg/sg2_296_cif.got.tgz:590010.got - 2010.06.03 11:33:40.
