data_PCOD9093374
_publ_section_title
;
Structure prediction by ZEFSAII (Michael W. Deem and Ramdas Pophale) SiO2 
 PCOD9093374
Probable space group: P -1
;
_chemical_formula_sum "Si O2"
_cell_formula_units_Z 16
_cell_length_a 14.782702
_cell_length_b 9.715900
_cell_length_c 8.524900
_cell_angle_alpha 69.052812
_cell_angle_beta 135.552249
_cell_angle_gamma 127.567427
_cell_volume 672.908072
_symmetry_space_group_name_H-M "P -1"
_symmetry_group_IT_number 2
_symmetry_cell_setting 'triclinic'
loop_
_space_group_symop_operation_xyz
x,y,z
-x,-y,-z
loop_
_atom_site_type_symbol
_atom_site_label
_atom_site_fract_x
_atom_site_fract_y
_atom_site_fract_z
Si Si1 0.233604 0.602737 0.175829
Si Si2 0.130752 0.648838 0.707020
Si Si3 0.392808 0.715424 0.831235
Si Si4 0.040773 0.997171 0.229862
Si Si5 0.960918 0.256672 0.146971
Si Si6 0.327149 0.233696 0.680552
Si Si7 0.224564 0.299686 0.851467
Si Si8 0.490979 0.649298 0.656719
O O1 0.409680 0.670967 0.396830
O O2 0.118203 0.425657 0.203590
O O3 0.191350 0.575543 0.951082
O O4 0.178601 0.733536 0.103317
O O5 0.275941 0.766373 0.726387
O O6 0.060707 0.729481 0.701024
O O7 0.000000 0.500000 0.500000
O O8 0.302756 0.504966 0.833813
O O9 0.438984 0.726252 0.702765
O O10 0.545100 0.802021 0.089144
O O11 0.964131 0.089731 0.182563
O O12 0.215422 0.109173 0.457131
O O13 0.944985 0.798581 0.249358
O O14 0.000000 0.000000 0.000000
O O15 0.234944 0.221981 0.729352
O O16 0.411467 0.438747 0.656000
O O17 0.332161 0.278551 0.119270
#
# Coordination Sequence:
#
# PCOD9093374 Si02
#       8
#     2   2   2   2   2   2   2   2
#     4   9  18  33  58  78 115 147 183 234 287 314
#     4  10  20  32  58  89 111 139 192 242 276 330
#     4   9  19  34  61  91 107 141 198 236 282 329
#     4  12  24  37  56  82 120 153 190 228 282 345
#     4   9  21  36  52  82 113 148 186 233 285 322
#     4   9  19  38  58  81 117 149 187 240 275 333
#     4   9  21  34  59  88 113 152 185 231 292 334
#     4   9  16  36  61  85 114 145 188 239 283 330
#
# _framework density 23.777394999999999
#
# number of rings (size 3 to 8) (size 9 to 14) (size 15 to 20)
#    0.750    1.750    1.250    2.625    3.500    1.000 
#    0.000    3.125    0.000    1.500    0.000    0.000 
#    0.000    0.000    0.000    0.000    0.000    0.000 
#
# Total GULP energy -89321.765185 kJ/mol
# GULP energy per Si atom -5582.610324 kJ/mol
# Density = 2.372328 g / cm^3
# Si number density = 23.777395 Si / 1000 Ang^3
#
#
#
# Elastic Constant Matrix: (Units=GPa)
#
#
# Indices 1 2 3 4 5 6 
#
# 1 67.7269 1.5845 17.9197 15.1517 -14.2667 -8.2964
# 2 1.5845 36.5970 15.4585 3.0911 -2.7816 -4.3345
# 3 17.9197 15.4585 180.6737 10.7703 -14.3787 0.9294
# 4 15.1517 3.0911 10.7703 28.5738 -1.3400 2.9423
# 5 -14.2667 -2.7816 -14.3787 -1.3400 24.9256 2.9220
# 6 -8.2964 -4.3345 0.9294 2.9423 2.9220 24.7379
#
#
#
# Elastic Compliance Matrix: (Units=1/GPa)
#
#
# Indices 1 2 3 4 5 6 
#
# 1 0.020398 0.002008 -0.000780 -0.011028 0.009994 0.007353
# 2 0.002008 0.029448 -0.002347 -0.003896 0.002154 0.006130
# 3 -0.000780 -0.002347 0.006131 -0.001398 0.002880 -0.001077
# 4 -0.011028 -0.003896 -0.001398 0.042510 -0.004226 -0.008886
# 5 0.009994 0.002154 0.002880 -0.004226 0.047691 -0.001509
# 6 0.007353 0.006130 -0.001077 -0.008886 -0.001509 0.045240
#
#
# Mechanical properties :
#
#
# Convention : Reuss Voigt Hill
#
# Bulk Modulus (GPa) = 18.60806 39.43588 29.02197
# Shear Modulus (GPa) = 23.63315 32.31647 27.97481
#
# Velocity S-wave (km/s) = 3.15609 3.69063 3.43378
# Velocity P-wave (km/s) = 4.59610 5.89767 5.28709
#
# Compressibility (1/GPa) = 0.05374015
#
# Stress axis : x y z
#
# Youngs Moduli (GPa) = 49.02479 33.95838 163.10576
#
# Poissons Ratio (x) = -0.06820 0.12722
# Poissons Ratio (y) = -0.09846 0.38274
# Poissons Ratio (z) = 0.03824 0.07969
#
# Static dielectric constant tensor:
#      x y z
#    x 1.941910 0.018650 0.030190 
#    y 0.018650 1.986030 -0.053330 
#    z 0.030190 -0.053330 1.959670 
# 
# From -- ./inp_files/305292.got.cif
#   From: 2010.05.17/outbox.cif.g08.bks.cpg/sg2_153_cif.got.tgz:305292.got - 2010.06.03 11:33:40.
