data_PCOD9093357
_publ_section_title
;
Structure prediction by ZEFSAII (Michael W. Deem and Ramdas Pophale) SiO2 
 PCOD9093357
Probable space group: P -1
;
_chemical_formula_sum "Si O2"
_cell_formula_units_Z 14
_cell_length_a 9.446495
_cell_length_b 14.284329
_cell_length_c 11.591735
_cell_angle_alpha 105.006699
_cell_angle_beta 131.308876
_cell_angle_gamma 117.293542
_cell_volume 564.342811
_symmetry_space_group_name_H-M "P -1"
_symmetry_group_IT_number 2
_symmetry_cell_setting 'triclinic'
loop_
_space_group_symop_operation_xyz
x,y,z
-x,-y,-z
loop_
_atom_site_type_symbol
_atom_site_label
_atom_site_fract_x
_atom_site_fract_y
_atom_site_fract_z
Si Si1 0.492596 0.831734 0.191005
Si Si2 0.532032 0.733406 0.757949
Si Si3 0.383843 0.059188 0.968720
Si Si4 0.791641 0.210600 0.770088
Si Si5 0.294010 0.272293 0.758062
Si Si6 0.603457 0.496894 0.224759
Si Si7 0.322528 0.161494 0.383249
O O1 0.206058 0.772563 0.085313
O O2 0.479459 0.712850 0.175308
O O3 0.506589 0.845971 0.065165
O O4 0.906101 0.052742 0.526618
O O5 0.428356 0.790647 0.780308
O O6 0.343753 0.559082 0.665461
O O7 0.489919 0.714347 0.592601
O O8 0.988509 0.936404 0.092075
O O9 0.500000 0.000000 0.000000
O O10 0.937626 0.877041 0.700946
O O11 0.627776 0.238096 0.642091
O O12 0.500000 0.000000 0.500000
O O13 0.199523 0.365976 0.993612
O O14 0.160676 0.302579 0.617542
O O15 0.545602 0.417213 0.046978
#
# Coordination Sequence:
#
# PCOD9093357 Si02
#       7
#     2   2   2   2   2   2   2
#     4  11  21  37  61  85 119 149 202 244 285 351
#     4   9  18  35  55  85 117 155 192 239 277 357
#     4  10  20  32  57  88 111 155 197 242 280 343
#     4  12  21  34  61  92 113 155 197 240 290 351
#     4  10  21  38  60  85 119 152 189 254 291 338
#     4  11  21  37  61  89 120 152 194 241 300 342
#     4   9  19  34  54  85 119 151 194 238 279 352
#
# _framework density 24.807617
#
# number of rings (size 3 to 8) (size 9 to 14) (size 15 to 20)
#    0.857    0.857    4.286    1.714    4.000    0.571 
#    0.000    0.000    3.143    4.286    0.000    0.000 
#    0.000    0.000    0.000    0.000    0.000    0.286 
#
# Total GULP energy -78244.259492 kJ/mol
# GULP energy per Si atom -5588.875678 kJ/mol
# Density = 2.475115 g / cm^3
# Si number density = 24.807617 Si / 1000 Ang^3
#
#
#
# Elastic Constant Matrix: (Units=GPa)
#
#
# Indices 1 2 3 4 5 6 
#
# 1 187.9356 75.5714 20.6397 -8.5997 -11.2737 -7.0296
# 2 75.5714 158.8356 9.2949 -2.8817 -9.3359 -11.7613
# 3 20.6397 9.2949 38.3377 0.8047 2.8907 1.1921
# 4 -8.5997 -2.8817 0.8047 25.5574 2.6112 -5.0570
# 5 -11.2737 -9.3359 2.8907 2.6112 32.2439 -8.3143
# 6 -7.0296 -11.7613 1.1921 -5.0570 -8.3143 45.1849
#
#
#
# Elastic Compliance Matrix: (Units=1/GPa)
#
#
# Indices 1 2 3 4 5 6 
#
# 1 0.007143 -0.002966 -0.003358 0.002174 0.002033 0.001045
# 2 -0.002966 0.007995 -0.000544 0.000127 0.001828 0.001985
# 3 -0.003358 -0.000544 0.028472 -0.002129 -0.004344 -0.002453
# 4 0.002174 0.000127 -0.002129 0.041005 -0.001091 0.004816
# 5 0.002033 0.001828 -0.004344 -0.001091 0.034575 0.007147
# 6 0.001045 0.001985 -0.002453 0.004816 0.007147 0.024729
#
#
# Mechanical properties :
#
#
# Convention : Reuss Voigt Hill
#
# Bulk Modulus (GPa) = 33.47258 66.23565 49.85411
# Shear Modulus (GPa) = 29.83072 39.23746 34.53409
#
# Velocity S-wave (km/s) = 3.47144 3.98134 3.73510
# Velocity P-wave (km/s) = 5.43967 6.92043 6.22425
#
# Compressibility (1/GPa) = 0.02987520
#
# Stress axis : x y z
#
# Youngs Moduli (GPa) = 140.00141 125.07255 35.12195
#
# Poissons Ratio (x) = 0.37091 0.11794
# Poissons Ratio (y) = 0.41518 0.01911
# Poissons Ratio (z) = 0.47011 0.06806
#
# Static dielectric constant tensor:
#      x y z
#    x 1.956790 -0.019450 0.012220 
#    y -0.019450 1.999530 -0.005140 
#    z 0.012220 -0.005140 2.024200 
# 
# From -- ./inp_files/183222.got.cif
#   From: 2010.05.17/outbox.cif.g08.bks.cpg/sg2_92_cif.got.tgz:183222.got - 2010.06.03 11:33:40.
