data_PCOD9093364
_publ_section_title
;
Structure prediction by ZEFSAII (Michael W. Deem and Ramdas Pophale) SiO2 
 PCOD9093364
Probable space group: P -1
;
_chemical_formula_sum "Si O2"
_cell_formula_units_Z 14
_cell_length_a 8.585260
_cell_length_b 7.443012
_cell_length_c 19.623495
_cell_angle_alpha 47.512722
_cell_angle_beta 51.518747
_cell_angle_gamma 34.718216
_cell_volume 519.889465
_symmetry_space_group_name_H-M "P -1"
_symmetry_group_IT_number 2
_symmetry_cell_setting 'triclinic'
loop_
_space_group_symop_operation_xyz
x,y,z
-x,-y,-z
loop_
_atom_site_type_symbol
_atom_site_label
_atom_site_fract_x
_atom_site_fract_y
_atom_site_fract_z
Si Si1 0.429372 0.186819 0.238124
Si Si2 0.097075 0.398930 0.646973
Si Si3 0.501207 0.731828 0.532289
Si Si4 0.381324 0.804285 0.107798
Si Si5 0.890098 0.445985 0.152783
Si Si6 0.961076 0.100050 0.646431
Si Si7 0.367028 0.350345 0.064424
O O1 0.358875 0.532793 0.175765
O O2 0.446784 0.133145 0.166416
O O3 0.180688 0.268974 0.326189
O O4 0.717488 0.886700 0.272641
O O5 0.311347 0.398614 0.551874
O O6 0.011747 0.273465 0.644166
O O7 0.656956 0.407416 0.621857
O O8 0.500000 0.000000 0.500000
O O9 0.178915 0.945283 0.565009
O O10 0.583659 0.670638 0.151256
O O11 0.081484 0.166563 0.112439
O O12 0.514542 0.798762 0.004707
O O13 0.035183 0.585748 0.089348
O O14 0.960968 0.214675 0.256673
O O15 0.500000 0.500000 0.000000
#
# Coordination Sequence:
#
# PCOD9093364 Si02
#       7
#     2   2   2   2   2   2   2
#     4  11  21  38  60  91 127 164 202 253 301 376
#     4  11  19  35  60  89 127 161 205 244 312 359
#     4  10  20  32  57  93 128 156 197 260 303 358
#     4  11  22  42  64  92 122 162 212 259 305 361
#     4  12  23  41  67  91 126 163 207 262 306 362
#     4  11  19  34  58  92 126 155 206 253 308 352
#     4  10  26  44  65  92 126 166 209 254 314 372
#
# _framework density 26.928799999999999
#
# number of rings (size 3 to 8) (size 9 to 14) (size 15 to 20)
#    0.000    1.143    2.857    6.000    0.000    2.286 
#    0.000    6.429    0.000    5.143    0.000    0.000 
#    0.000    0.000    0.000    0.000    0.000    0.000 
#
# Total GULP energy -78431.926858 kJ/mol
# GULP energy per Si atom -5602.280490 kJ/mol
# Density = 2.686751 g / cm^3
# Si number density = 26.928800 Si / 1000 Ang^3
#
#
#
# Elastic Constant Matrix: (Units=GPa)
#
#
# Indices 1 2 3 4 5 6 
#
# 1 98.3532 29.3368 17.5571 11.8709 12.6269 12.6676
# 2 29.3368 110.5528 22.0271 9.1366 12.5592 -15.0352
# 3 17.5571 22.0271 132.7896 18.9511 7.6296 4.9192
# 4 11.8709 9.1366 18.9511 53.2772 -3.7878 5.8359
# 5 12.6269 12.5592 7.6296 -3.7878 41.6440 -3.5293
# 6 12.6676 -15.0352 4.9192 5.8359 -3.5293 33.0413
#
#
#
# Elastic Compliance Matrix: (Units=1/GPa)
#
#
# Indices 1 2 3 4 5 6 
#
# 1 0.012829 -0.003705 -0.000413 -0.001592 -0.003403 -0.006625
# 2 -0.003705 0.011569 -0.001371 -0.001555 -0.001664 0.006986
# 3 -0.000413 -0.001371 0.008308 -0.002571 -0.001335 -0.001391
# 4 -0.001592 -0.001555 -0.002571 0.020859 0.003060 -0.003072
# 5 -0.003403 -0.001664 -0.001335 0.003060 0.026325 0.003018
# 6 -0.006625 0.006986 -0.001391 -0.003072 0.003018 0.037056
#
#
# Mechanical properties :
#
#
# Convention : Reuss Voigt Hill
#
# Bulk Modulus (GPa) = 46.02316 53.28196 49.65256
# Shear Modulus (GPa) = 36.99145 43.77747 40.38446
#
# Velocity S-wave (km/s) = 3.71033 4.03634 3.87677
# Velocity P-wave (km/s) = 5.95678 6.44608 6.20625
#
# Compressibility (1/GPa) = 0.02172819
#
# Stress axis : x y z
#
# Youngs Moduli (GPa) = 77.95083 86.43635 120.36875
#
# Poissons Ratio (x) = 0.32022 0.04977
# Poissons Ratio (y) = 0.28878 0.16498
# Poissons Ratio (z) = 0.03223 0.11847
#
# Static dielectric constant tensor:
#      x y z
#    x 2.172310 0.109810 -0.056290 
#    y 0.109810 2.090090 -0.019790 
#    z -0.056290 -0.019790 2.117570 
# 
# From -- ./inp_files/126289.got.cif
#   From: 2010.05.17/outbox.cif.g08.bks.cpg/sg2_64_cif.got.tgz:126289.got - 2010.06.03 11:33:40.
