data_PCOD9093330
_publ_section_title
;
Structure prediction by ZEFSAII (Michael W. Deem and Ramdas Pophale) SiO2 
 PCOD9093330
Probable space group: P -1
;
_chemical_formula_sum "Si O2"
_cell_formula_units_Z 14
_cell_length_a 7.018004
_cell_length_b 18.513314
_cell_length_c 7.058655
_cell_angle_alpha 47.206967
_cell_angle_beta 65.805309
_cell_angle_gamma 65.336052
_cell_volume 600.511004
_symmetry_space_group_name_H-M "P -1"
_symmetry_group_IT_number 2
_symmetry_cell_setting 'triclinic'
loop_
_space_group_symop_operation_xyz
x,y,z
-x,-y,-z
loop_
_atom_site_type_symbol
_atom_site_label
_atom_site_fract_x
_atom_site_fract_y
_atom_site_fract_z
Si Si1 0.779496 0.032384 0.426276
Si Si2 0.654418 0.865532 0.497298
Si Si3 0.063520 0.881478 0.138206
Si Si4 0.691802 0.558133 0.559996
Si Si5 0.232731 0.683806 0.558127
Si Si6 0.919344 0.353633 0.719513
Si Si7 0.156122 0.323081 0.026477
O O1 0.582502 0.080124 0.555040
O O2 0.724073 0.938623 0.499291
O O3 0.000000 0.000000 0.500000
O O4 0.805751 0.115938 0.111049
O O5 0.830384 0.852579 0.283116
O O6 0.678777 0.759198 0.780265
O O7 0.192846 0.805678 0.378059
O O8 0.000000 0.000000 0.000000
O O9 0.465815 0.618175 0.617204
O O10 0.890620 0.590904 0.525067
O O11 0.741749 0.438374 0.744686
O O12 0.729811 0.595259 0.262616
O O13 0.184834 0.681174 0.358589
O O14 0.047281 0.643795 0.814108
O O15 0.954742 0.718165 0.040543
#
# Coordination Sequence:
#
# PCOD9093330 Si02
#       7
#     2   2   2   2   2   2   2
#     4  10  20  32  56  77  99 145 179 218 280 323
#     4   9  19  37  50  74 112 135 175 233 266 313
#     4   9  20  37  53  81 113 138 186 228 268 332
#     4   9  20  40  54  85 121 139 188 245 265 333
#     4  11  20  37  63  79 112 160 180 227 295 324
#     4   9  21  39  54  88 115 142 195 230 275 343
#     4   9  20  38  55  82 115 144 187 234 270 339
#
# _framework density 23.313475
#
# number of rings (size 3 to 8) (size 9 to 14) (size 15 to 20)
#    0.857    1.714    0.000    1.286    2.000    1.714 
#    2.571    7.143    0.000    0.000    0.000    0.000 
#    0.000    0.000    0.000    0.000    0.000    0.000 
#
# Total GULP energy -77986.823096 kJ/mol
# GULP energy per Si atom -5570.487364 kJ/mol
# Density = 2.326041 g / cm^3
# Si number density = 23.313475 Si / 1000 Ang^3
#
#
#
# Elastic Constant Matrix: (Units=GPa)
#
#
# Indices 1 2 3 4 5 6 
#
# 1 63.6493 26.6383 -30.0452 -4.6133 1.7399 -20.5643
# 2 26.6383 83.9973 -0.3141 1.8016 -9.1484 -41.7931
# 3 -30.0452 -0.3141 41.2869 1.2942 -2.0080 -2.9316
# 4 -4.6133 1.8016 1.2942 24.7595 -7.6950 -5.0561
# 5 1.7399 -9.1484 -2.0080 -7.6950 12.2214 7.6940
# 6 -20.5643 -41.7931 -2.9316 -5.0561 7.6940 48.1630
#
#
#
# Elastic Compliance Matrix: (Units=1/GPa)
#
#
# Indices 1 2 3 4 5 6 
#
# 1 0.035672 -0.005248 0.026273 0.005373 -0.010441 0.014508
# 2 -0.005248 0.022480 -0.002167 0.003715 0.009479 0.016010
# 3 0.026273 -0.002167 0.043938 0.004283 -0.003660 0.013046
# 4 0.005373 0.003715 0.004283 0.051962 0.031536 0.006195
# 5 -0.010441 0.009479 -0.003660 0.031536 0.117124 -0.011855
# 6 0.014508 0.016010 0.013046 0.006195 -0.011855 0.044188
#
#
# Mechanical properties :
#
#
# Convention : Reuss Voigt Hill
#
# Bulk Modulus (GPa) = 7.15287 20.16572 13.65930
# Shear Modulus (GPa) = 15.42024 29.87241 22.64633
#
# Velocity S-wave (km/s) = 2.57462 3.58346 3.12008
# Velocity P-wave (km/s) = 3.45152 5.07840 4.34184
#
# Compressibility (1/GPa) = 0.13980394
#
# Stress axis : x y z
#
# Youngs Moduli (GPa) = 28.03343 44.48438 22.75955
#
# Poissons Ratio (x) = 0.23347 -0.59796
# Poissons Ratio (y) = 0.14713 0.04932
# Poissons Ratio (z) = -0.73652 0.09640
#
# Static dielectric constant tensor:
#      x y z
#    x 1.878890 0.038820 -0.026930 
#    y 0.038820 2.012180 -0.037500 
#    z -0.026930 -0.037500 1.909370 
# 
# From -- ./inp_files/142131.got.cif
#   From: 2010.05.17/outbox.cif.g08.bks.cpg/sg2_72_cif.got.tgz:142131.got - 2010.06.03 11:33:40.
