data_PCOD9093188
_publ_section_title
;
Structure prediction by ZEFSAII (Michael W. Deem and Ramdas Pophale) SiO2 
 PCOD9093188
Probable space group: P -1
;
_chemical_formula_sum "Si O2"
_cell_formula_units_Z 16
_cell_length_a 8.510064
_cell_length_b 16.729446
_cell_length_c 23.822356
_cell_angle_alpha 25.376164
_cell_angle_beta 32.746087
_cell_angle_gamma 31.005235
_cell_volume 713.767778
_symmetry_space_group_name_H-M "P -1"
_symmetry_group_IT_number 2
_symmetry_cell_setting 'triclinic'
loop_
_space_group_symop_operation_xyz
x,y,z
-x,-y,-z
loop_
_atom_site_type_symbol
_atom_site_label
_atom_site_fract_x
_atom_site_fract_y
_atom_site_fract_z
Si Si1 0.529731 0.282737 0.963121
Si Si2 0.023910 0.777450 0.620778
Si Si3 0.281685 0.509630 0.612427
Si Si4 0.651069 0.012316 0.363532
Si Si5 0.564774 0.692153 0.661682
Si Si6 0.223298 0.121983 0.919336
Si Si7 0.105844 0.816966 0.906129
Si Si8 0.788806 0.615335 0.892930
O O1 0.476444 0.498535 0.813685
O O2 0.875667 0.201134 0.942499
O O3 0.271424 0.314064 0.069560
O O4 0.564189 0.105221 0.022169
O O5 0.026509 0.665648 0.749358
O O6 0.278831 0.650735 0.577157
O O7 0.681807 0.823716 0.666045
O O8 0.000000 0.000000 0.500000
O O9 0.500000 0.500000 0.500000
O O10 0.354824 0.286054 0.756755
O O11 0.921706 0.602926 0.637018
O O12 0.606536 0.806082 0.520984
O O13 0.675922 0.120448 0.345753
O O14 0.906265 0.004604 0.245348
O O15 0.155792 0.128149 0.001728
O O16 0.439589 0.732768 0.894191
O O17 0.125647 0.624734 0.985298
#
# Coordination Sequence:
#
# PCOD9093188 Si02
#       8
#     2   2   2   2   2   2   2   2
#     4   9  16  27  47  73  95 120 159 206 242 276
#     4  10  20  32  50  76 100 127 164 202 241 288
#     4  10  20  33  50  72 102 134 159 195 246 295
#     4   9  17  31  54  75  98 128 160 204 246 284
#     4   9  17  32  52  76  99 126 164 200 242 293
#     4   9  17  28  45  70  98 124 158 201 242 282
#     4   9  14  27  47  70  92 121 161 203 242 273
#     4   9  15  26  47  70  93 119 162 208 235 271
#
# _framework density 22.416255
#
# number of rings (size 3 to 8) (size 9 to 14) (size 15 to 20)
#    0.000    2.750    2.500    0.000    1.750    0.000 
#    2.250    0.625    0.000    3.000    0.000    0.000 
#    0.000    0.000    0.000    0.000    0.000    0.000 
#
# Total GULP energy -89313.275119 kJ/mol
# GULP energy per Si atom -5582.079695 kJ/mol
# Density = 2.236523 g / cm^3
# Si number density = 22.416255 Si / 1000 Ang^3
#
#
#
# Elastic Constant Matrix: (Units=GPa)
#
#
# Indices 1 2 3 4 5 6 
#
# 1 42.2277 32.7419 18.3419 4.7974 16.1489 -9.9059
# 2 32.7419 156.4698 92.3457 17.9857 9.2402 45.0885
# 3 18.3419 92.3457 181.4115 22.8134 29.9976 37.3055
# 4 4.7974 17.9857 22.8134 34.5778 8.2087 6.0837
# 5 16.1489 9.2402 29.9976 8.2087 29.6049 0.6451
# 6 -9.9059 45.0885 37.3055 6.0837 0.6451 38.9281
#
#
#
# Elastic Compliance Matrix: (Units=1/GPa)
#
#
# Indices 1 2 3 4 5 6 
#
# 1 0.066053 -0.026916 0.002598 0.002696 -0.032004 0.045603
# 2 -0.026916 0.022515 -0.004935 -0.003162 0.014141 -0.027938
# 3 0.002598 -0.004935 0.010179 -0.001698 -0.009656 -0.002952
# 4 0.002696 -0.003162 -0.001698 0.033030 -0.007943 0.000945
# 5 -0.032004 0.014141 -0.009656 -0.007943 0.059135 -0.015008
# 6 0.045603 -0.027938 -0.002952 0.000945 -0.015008 0.072582
#
#
# Mechanical properties :
#
#
# Convention : Reuss Voigt Hill
#
# Bulk Modulus (GPa) = 24.85047 74.10753 49.47900
# Shear Modulus (GPa) = 14.90690 36.40078 25.65384
#
# Velocity S-wave (km/s) = 2.58156 4.03408 3.38661
# Velocity P-wave (km/s) = 4.47168 7.40472 6.11661
#
# Compressibility (1/GPa) = 0.04024069
#
# Stress axis : x y z
#
# Youngs Moduli (GPa) = 15.13934 44.41483 98.24097
#
# Poissons Ratio (x) = 1.19548 -0.25524
# Poissons Ratio (y) = 0.40749 0.48483
# Poissons Ratio (z) = -0.03933 0.21919
#
# Static dielectric constant tensor:
#      x y z
#    x 1.944450 -0.028750 -0.022510 
#    y -0.028750 1.824480 0.024450 
#    z -0.022510 0.024450 1.820980 
# 
# From -- ./inp_files/249494.got.cif
#   From: 2010.05.17/outbox.cif.g08.bks.cpg/sg2_125_cif.got.tgz:249494.got - 2010.06.03 11:33:40.
