data_PCOD9093202
_publ_section_title
;
Structure prediction by ZEFSAII (Michael W. Deem and Ramdas Pophale) SiO2 
 PCOD9093202
Probable space group: P -1
;
_chemical_formula_sum "Si O2"
_cell_formula_units_Z 16
_cell_length_a 17.194885
_cell_length_b 13.141599
_cell_length_c 12.627629
_cell_angle_alpha 115.648352
_cell_angle_beta 141.078446
_cell_angle_gamma 31.473133
_cell_volume 665.331756
_symmetry_space_group_name_H-M "P -1"
_symmetry_group_IT_number 2
_symmetry_cell_setting 'triclinic'
loop_
_space_group_symop_operation_xyz
x,y,z
-x,-y,-z
loop_
_atom_site_type_symbol
_atom_site_label
_atom_site_fract_x
_atom_site_fract_y
_atom_site_fract_z
Si Si1 0.565979 0.809641 0.606346
Si Si2 0.169203 0.712269 0.088642
Si Si3 0.031765 0.345561 0.126969
Si Si4 0.748550 0.676516 0.176912
Si Si5 0.178420 0.174694 0.549387
Si Si6 0.555144 0.293296 0.127818
Si Si7 0.866180 0.238011 0.365024
Si Si8 0.501132 0.637411 0.357486
O O1 0.810168 0.704581 0.810089
O O2 0.656003 0.613667 0.567572
O O3 0.300495 0.070869 0.361902
O O4 0.437598 0.907366 0.631890
O O5 0.141168 0.620501 0.082269
O O6 0.265925 0.585767 0.015477
O O7 0.423070 0.593743 0.327487
O O8 0.838309 0.042444 0.890530
O O9 0.828969 0.586821 0.100326
O O10 0.724668 0.826739 0.250541
O O11 0.028391 0.390182 0.408755
O O12 0.496342 0.794422 0.996467
O O13 0.948984 0.266956 0.382701
O O14 0.677825 0.279072 0.163853
O O15 0.812665 0.071604 0.390487
O O16 0.688643 0.443183 0.366923
#
# Coordination Sequence:
#
# PCOD9093202 Si02
#       8
#     2   2   2   2   2   2   2   2
#     4   9  16  27  45  70 100 128 163 206 255 300
#     4   8  15  28  50  74  95 123 175 219 243 289
#     4   8  14  27  47  68  93 131 167 203 247 304
#     4   9  18  33  52  75 105 137 177 218 260 308
#     4  10  20  32  50  81 111 136 171 224 267 303
#     4   9  19  36  55  77 105 142 178 212 259 323
#     4  10  20  34  56  80 106 137 176 218 264 313
#     4   9  16  29  51  76  97 130 175 212 249 310
#
# _framework density 24.048154
#
# number of rings (size 3 to 8) (size 9 to 14) (size 15 to 20)
#    0.000    3.000    0.000    1.500    0.000    4.000 
#    0.000    1.250    0.000   15.000    0.000    0.000 
#    0.000    0.000    0.000    0.000    0.000    0.000 
#
# Total GULP energy -89274.131777 kJ/mol
# GULP energy per Si atom -5579.633236 kJ/mol
# Density = 2.399342 g / cm^3
# Si number density = 24.048154 Si / 1000 Ang^3
#
#
#
# Elastic Constant Matrix: (Units=GPa)
#
#
# Indices 1 2 3 4 5 6 
#
# 1 85.0537 39.6500 40.9893 -4.4982 37.1738 -3.2942
# 2 39.6500 100.6546 28.3702 -5.8456 24.7069 3.8590
# 3 40.9893 28.3702 40.9401 11.1313 32.3804 6.2539
# 4 -4.4982 -5.8456 11.1313 36.6559 18.6992 6.2055
# 5 37.1738 24.7069 32.3804 18.6992 65.1839 -1.8218
# 6 -3.2942 3.8590 6.2539 6.2055 -1.8218 27.4270
#
#
#
# Elastic Compliance Matrix: (Units=1/GPa)
#
#
# Indices 1 2 3 4 5 6 
#
# 1 0.030366 -0.001618 -0.029540 0.014282 -0.005932 0.006985
# 2 -0.001618 0.013572 -0.007196 0.005657 -0.002323 -0.001897
# 3 -0.029540 -0.007196 0.077950 -0.018189 -0.014410 -0.017151
# 4 0.014282 0.005657 -0.018189 0.043513 -0.013895 -0.005701
# 5 -0.005932 -0.002323 -0.014410 -0.013895 0.030975 0.008101
# 6 0.006985 -0.001897 -0.017151 -0.005701 0.008101 0.043305
#
#
# Mechanical properties :
#
#
# Convention : Reuss Voigt Hill
#
# Bulk Modulus (GPa) = 22.13342 49.40748 35.77045
# Shear Modulus (GPa) = 15.08524 33.69594 24.39059
#
# Velocity S-wave (km/s) = 2.50730 3.74730 3.18817
# Velocity P-wave (km/s) = 4.19593 6.27000 5.33473
#
# Compressibility (1/GPa) = 0.04518055
#
# Stress axis : x y z
#
# Youngs Moduli (GPa) = 32.93161 73.68058 12.82867
#
# Poissons Ratio (x) = 0.11922 0.37895
# Poissons Ratio (y) = 0.05329 0.09232
# Poissons Ratio (z) = 0.97278 0.53023
#
# Static dielectric constant tensor:
#      x y z
#    x 1.943670 0.063380 -0.020330 
#    y 0.063380 1.900430 -0.000270 
#    z -0.020330 -0.000270 2.019480 
# 
# From -- ./inp_files/498184.got.cif
#   From: 2010.05.17/outbox.cif.g08.bks.cpg/sg2_250_cif.got.tgz:498184.got - 2010.06.03 11:33:40.
