data_PCOD9093695
_publ_section_title
;
Structure prediction by ZEFSAII (Michael W. Deem and Ramdas Pophale) SiO2 
 PCOD9093695
Probable space group: P -1
;
_chemical_formula_sum "Si O2"
_cell_formula_units_Z 16
_cell_length_a 14.028482
_cell_length_b 11.629139
_cell_length_c 15.927732
_cell_angle_alpha 138.377641
_cell_angle_beta 136.808870
_cell_angle_gamma 31.683552
_cell_volume 873.739233
_symmetry_space_group_name_H-M "P -1"
_symmetry_group_IT_number 2
_symmetry_cell_setting 'triclinic'
loop_
_space_group_symop_operation_xyz
x,y,z
-x,-y,-z
loop_
_atom_site_type_symbol
_atom_site_label
_atom_site_fract_x
_atom_site_fract_y
_atom_site_fract_z
Si Si1 0.111139 0.370077 0.715114
Si Si2 0.350456 0.960422 0.980110
Si Si3 0.723219 0.853098 0.138537
Si Si4 0.388554 0.192234 0.644493
Si Si5 0.029386 0.044519 0.137887
Si Si6 0.221304 0.254813 0.396621
Si Si7 0.949575 0.339454 0.014167
Si Si8 0.595507 0.436560 0.117312
O O1 0.167627 0.193564 0.730696
O O2 0.281660 0.257676 0.699280
O O3 0.924791 0.499203 0.611091
O O4 0.072876 0.574891 0.857734
O O5 0.441255 0.705520 0.931017
O O6 0.284281 0.008025 0.866732
O O7 0.513246 0.968692 0.091690
O O8 0.167579 0.158106 0.026538
O O9 0.827657 0.590286 0.027410
O O10 0.247943 0.273520 0.521751
O O11 0.458490 0.331387 0.755925
O O12 0.570227 0.918712 0.603574
O O13 0.820755 0.252980 0.152300
O O14 0.142038 0.126549 0.265368
O O15 0.113501 0.806758 0.110605
O O16 0.000000 0.000000 0.000000
O O17 0.500000 0.500000 0.000000
#
# Coordination Sequence:
#
# PCOD9093695 Si02
#       8
#     2   2   2   2   2   2   2   2
#     4  10  20  33  56  75 105 145 179 216 264 322
#     4  10  20  34  49  82 114 136 178 218 270 320
#     4   9  20  33  53  78 106 147 173 221 268 309
#     4  11  23  37  51  82 111 144 178 222 278 315
#     4  11  18  32  50  82 108 139 176 214 268 323
#     4  11  23  35  54  78 112 145 179 223 270 328
#     4   9  20  31  52  78 106 140 172 221 263 311
#     4  11  22  31  56  80 113 138 172 224 269 322
#
# _framework density 18.312100000000001
#
# number of rings (size 3 to 8) (size 9 to 14) (size 15 to 20)
#    0.750    1.000    2.500    2.250    7.000    0.000 
#    0.000    0.000    0.000    0.750    0.000    1.750 
#    0.000    0.000    0.000    0.000    0.000    0.000 
#
# Total GULP energy -89128.447557 kJ/mol
# GULP energy per Si atom -5570.527972 kJ/mol
# Density = 1.827042 g / cm^3
# Si number density = 18.312100 Si / 1000 Ang^3
#
#
#
# Elastic Constant Matrix: (Units=GPa)
#
#
# Indices 1 2 3 4 5 6 
#
# 1 74.1960 36.9975 15.5811 -2.9035 -20.0058 8.1426
# 2 36.9975 78.6933 4.0316 -14.3275 -7.4641 13.5114
# 3 15.5811 4.0316 63.4824 -13.6860 -7.8361 11.5927
# 4 -2.9035 -14.3275 -13.6860 25.3679 0.8680 -4.8097
# 5 -20.0058 -7.4641 -7.8361 0.8680 16.1779 -0.3897
# 6 8.1426 13.5114 11.5927 -4.8097 -0.3897 41.1109
#
#
#
# Elastic Compliance Matrix: (Units=1/GPa)
#
#
# Indices 1 2 3 4 5 6 
#
# 1 0.026644 -0.010740 -0.003695 -0.006139 0.026505 -0.001173
# 2 -0.010740 0.020187 0.004378 0.011791 -0.002585 -0.004387
# 3 -0.003695 0.004378 0.020736 0.012043 0.006726 -0.005081
# 4 -0.006139 0.011791 0.012043 0.051847 0.000901 0.000019
# 5 0.026505 -0.002585 0.006726 0.000901 0.096478 -0.005277
# 6 -0.001173 -0.004387 -0.005081 0.000019 -0.005277 0.027384
#
#
# Mechanical properties :
#
#
# Convention : Reuss Voigt Hill
#
# Bulk Modulus (GPa) = 21.07325 36.62134 28.84729
# Shear Modulus (GPa) = 17.90783 27.18210 22.54497
#
# Velocity S-wave (km/s) = 3.13057 3.85694 3.51258
# Velocity P-wave (km/s) = 4.95985 6.31479 5.67788
#
# Compressibility (1/GPa) = 0.04745353
#
# Stress axis : x y z
#
# Youngs Moduli (GPa) = 37.53176 49.53594 48.22583
#
# Poissons Ratio (x) = 0.53200 0.17820
# Poissons Ratio (y) = 0.40308 -0.21113
# Poissons Ratio (z) = 0.13868 -0.21687
#
# Static dielectric constant tensor:
#      x y z
#    x 1.669740 0.008520 -0.008430 
#    y 0.008520 1.702210 -0.001020 
#    z -0.008430 -0.001020 1.617830 
# 
# From -- ./inp_files/573479.got.cif
#   From: 2010.05.17/outbox.cif.g08.bks.cpg/sg2_287_cif.got.tgz:573479.got - 2010.06.03 11:33:40.
