data_PCOD9093421
_publ_section_title
;
Structure prediction by ZEFSAII (Michael W. Deem and Ramdas Pophale) SiO2 
 PCOD9093421
Probable space group: P -1
;
_chemical_formula_sum "Si O2"
_cell_formula_units_Z 13
_cell_length_a 11.943052
_cell_length_b 16.947752
_cell_length_c 12.629429
_cell_angle_alpha 158.160915
_cell_angle_beta 130.192916
_cell_angle_gamma 37.921702
_cell_volume 540.599056
_symmetry_space_group_name_H-M "P -1"
_symmetry_group_IT_number 2
_symmetry_cell_setting 'triclinic'
loop_
_space_group_symop_operation_xyz
x,y,z
-x,-y,-z
loop_
_atom_site_type_symbol
_atom_site_label
_atom_site_fract_x
_atom_site_fract_y
_atom_site_fract_z
Si Si1 0.274347 0.655610 0.537739
Si Si2 0.686359 0.859919 0.011883
Si Si3 0.813910 0.397135 0.803409
Si Si4 0.735224 0.961716 0.383599
Si Si5 0.586785 0.713364 0.259165
Si Si6 0.056997 0.440578 0.584683
Si Si7 0.000000 0.000000 0.000000
O O1 0.500000 0.500000 0.500000
O O2 0.259468 0.419843 0.255359
O O3 0.240397 0.705047 0.453112
O O4 0.129616 0.895464 0.835284
O O5 0.877808 0.727498 0.894915
O O6 0.631918 0.052402 0.319391
O O7 0.500000 0.000000 0.000000
O O8 0.048304 0.162967 0.662247
O O9 0.764920 0.689896 0.105530
O O10 0.699889 0.473277 0.938595
O O11 0.602757 0.197967 0.686301
O O12 0.742516 0.644419 0.357255
O O13 0.500000 0.000000 0.500000
O O14 0.000000 0.500000 0.500000
O O15 0.059621 0.188358 0.300887
#
# Coordination Sequence:
#
# PCOD9093421 Si02
#       7
#     2   2   2   2   2   2   1
#     4  10  23  37  60  88 126 165 203 263 320 376
#     4  10  20  36  58  89 122 157 209 259 312 379
#     4   9  18  33  52  86 116 154 212 252 302 381
#     4   9  17  30  53  82 117 148 204 258 298 365
#     4  10  20  32  62  92 120 165 216 257 318 383
#     4  11  23  41  66  96 131 169 215 268 320 381
#     4  10  26  40  60  98 128 164 216 260 322 384
#
# _framework density 24.047395999999999
#
# number of rings (size 3 to 8) (size 9 to 14) (size 15 to 20)
#    0.000    2.154    1.538    0.923   15.077    0.000 
#    0.000    0.000    0.000    4.615    0.000    0.000 
#    0.000    0.000    0.000    0.000    0.000    0.000 
#
# Total GULP energy -72368.867879 kJ/mol
# GULP energy per Si atom -5566.835991 kJ/mol
# Density = 2.399266 g / cm^3
# Si number density = 24.047396 Si / 1000 Ang^3
#
#
#
# Elastic Constant Matrix: (Units=GPa)
#
#
# Indices 1 2 3 4 5 6 
#
# 1 104.1246 16.6587 60.9016 -5.8124 -48.7502 5.4385
# 2 16.6587 122.4848 40.9183 -22.3969 -40.3707 -0.8939
# 3 60.9016 40.9183 183.5176 -16.7601 -52.6978 0.8267
# 4 -5.8124 -22.3969 -16.7601 33.3039 9.4447 -2.1899
# 5 -48.7502 -40.3707 -52.6978 9.4447 70.7691 5.0235
# 6 5.4385 -0.8939 0.8267 -2.1899 5.0235 27.4446
#
#
#
# Elastic Compliance Matrix: (Units=1/GPa)
#
#
# Indices 1 2 3 4 5 6 
#
# 1 0.016123 0.002123 -0.002784 -0.000517 0.010671 -0.005036
# 2 0.002123 0.011367 -0.000810 0.005671 0.006643 -0.000789
# 3 -0.002784 -0.000810 0.007600 0.001928 0.003029 -0.000104
# 4 -0.000517 0.005671 0.001928 0.035095 -0.000591 0.003138
# 5 0.010671 0.006643 0.003029 -0.000591 0.028115 -0.007183
# 6 -0.005036 -0.000789 -0.000104 0.003138 -0.007183 0.038978
#
#
# Mechanical properties :
#
#
# Convention : Reuss Voigt Hill
#
# Bulk Modulus (GPa) = 31.10648 71.89825 51.50236
# Shear Modulus (GPa) = 33.12675 45.74674 39.43674
#
# Velocity S-wave (km/s) = 3.71558 4.36633 4.05403
# Velocity P-wave (km/s) = 5.60097 7.44200 6.58613
#
# Compressibility (1/GPa) = 0.03214764
#
# Stress axis : x y z
#
# Youngs Moduli (GPa) = 62.02379 87.97518 131.57713
#
# Poissons Ratio (x) = -0.18678 0.36634
# Poissons Ratio (y) = -0.13168 0.10658
# Poissons Ratio (z) = 0.17269 0.07126
#
# Static dielectric constant tensor:
#      x y z
#    x 1.973910 0.052120 0.017830 
#    y 0.052120 1.719300 0.095190 
#    z 0.017830 0.095190 1.867760 
# 
# From -- ./inp_files/197236.got.cif
#   From: 2010.05.17/outbox.cif.g08.bks.cpg/sg2_99_cif.got.tgz:197236.got - 2010.06.03 11:33:40.
