data_PCOD9093431
_publ_section_title
;
Structure prediction by ZEFSAII (Michael W. Deem and Ramdas Pophale) SiO2 
 PCOD9093431
Probable space group: P -1
;
_chemical_formula_sum "Si O2"
_cell_formula_units_Z 14
_cell_length_a 11.373837
_cell_length_b 11.448259
_cell_length_c 9.261294
_cell_angle_alpha 113.793613
_cell_angle_beta 64.576645
_cell_angle_gamma 150.039305
_cell_volume 542.593129
_symmetry_space_group_name_H-M "P -1"
_symmetry_group_IT_number 2
_symmetry_cell_setting 'triclinic'
loop_
_space_group_symop_operation_xyz
x,y,z
-x,-y,-z
loop_
_atom_site_type_symbol
_atom_site_label
_atom_site_fract_x
_atom_site_fract_y
_atom_site_fract_z
Si Si1 0.387197 0.005658 0.793725
Si Si2 0.878283 0.497182 0.915882
Si Si3 0.290100 0.413285 0.140422
Si Si4 0.785169 0.914072 0.884796
Si Si5 0.637378 0.376121 0.263699
Si Si6 0.826856 0.795322 0.374475
Si Si7 0.482739 0.222730 0.572701
O O1 0.662156 0.224624 0.827742
O O2 0.396742 0.038850 0.632851
O O3 0.300114 0.074235 0.930435
O O4 0.159644 0.733677 0.834132
O O5 0.799807 0.568121 0.925201
O O6 0.829180 0.466905 0.099922
O O7 0.150848 0.178894 0.160132
O O8 0.323038 0.540992 0.316967
O O9 0.500000 0.500000 0.000000
O O10 0.580985 0.769865 0.800889
O O11 0.021162 0.151900 0.800113
O O12 0.694466 0.563615 0.392400
O O13 0.557663 0.236126 0.381001
O O14 0.692681 0.803430 0.379322
O O15 0.000000 0.000000 0.500000
#
# Coordination Sequence:
#
# PCOD9093431 Si02
#       7
#     2   2   2   2   2   2   2
#     4  10  21  32  43  48  58  68  77  81  93 104
#     4  10  20  33  42  49  57  69  75  83  92 105
#     4  11  17  28  37  44  55  66  72  81  91 102
#     4  11  19  29  37  44  54  69  72  82  91 105
#     4  11  20  30  35  48  58  61  76  86  94  98
#     4  12  20  25  37  44  54  62  74  84  94  97
#     4  11  20  29  37  48  55  64  75  87  92 100
#
# _framework density 25.802022999999998
#
# number of rings (size 3 to 8) (size 9 to 14) (size 15 to 20)
#    0.000    1.143    8.571    2.143    0.000    2.286 
#    0.000    0.000    0.000    0.000    0.000    0.000 
#    0.000    0.000    0.000    0.000    0.000    0.000 
#
# Total GULP energy -77973.400266 kJ/mol
# GULP energy per Si atom -5569.528590 kJ/mol
# Density = 2.574330 g / cm^3
# Si number density = 25.802023 Si / 1000 Ang^3
#
#
#
# Elastic Constant Matrix: (Units=GPa)
#
#
# Indices 1 2 3 4 5 6 
#
# 1 57.9544 48.4175 50.7964 -6.7717 -2.8952 -32.5952
# 2 48.4175 136.5687 52.8761 -22.1772 16.9367 14.1492
# 3 50.7964 52.8761 164.8573 -23.0572 35.5187 9.4057
# 4 -6.7717 -22.1772 -23.0572 42.8137 3.1849 17.7815
# 5 -2.8952 16.9367 35.5187 3.1849 40.7833 -27.6189
# 6 -32.5952 14.1492 9.4057 17.7815 -27.6189 -6.8460
#
#
#
# Elastic Compliance Matrix: (Units=1/GPa)
#
#
# Indices 1 2 3 4 5 6 
#
# 1 0.011898 -0.000909 -0.000184 0.006806 -0.007230 -0.011933
# 2 -0.000909 0.008000 -0.003185 -0.000026 0.002815 0.005060
# 3 -0.000184 -0.003185 0.006919 -0.000332 -0.000723 0.005858
# 4 0.006806 -0.000026 -0.000332 0.021129 0.003753 0.006823
# 5 -0.007230 0.002815 -0.000723 0.003753 0.015101 -0.011922
# 6 -0.011933 0.005060 0.005858 0.006823 -0.011922 -0.004930
#
#
# Mechanical properties :
#
#
# Convention : Reuss Voigt Hill
#
# Bulk Modulus (GPa) = 54.75804 73.72893 64.24348
# Shear Modulus (GPa) = 68.72018 29.16956 48.94487
#
# Velocity S-wave (km/s) = 5.16638 3.36596 4.36011
# Velocity P-wave (km/s) = 7.54036 6.61386 7.09226
#
# Compressibility (1/GPa) = 0.01826216
#
# Stress axis : x y z
#
# Youngs Moduli (GPa) = 84.04749 125.00012 144.52267
#
# Poissons Ratio (x) = 0.11359 0.02661
# Poissons Ratio (y) = 0.07637 0.46028
# Poissons Ratio (z) = 0.01547 0.39810
#
# Static dielectric constant tensor:
#      x y z
#    x 2.019440 0.035680 0.111070 
#    y 0.035680 2.176990 -0.096810 
#    z 0.111070 -0.096810 2.208780 
# 
# From -- ./inp_files/99621.got.cif
#   From: 2010.05.17/outbox.cif.g08.bks.cpg/sg2_50_cif.got.tgz:99621.got - 2010.06.03 11:33:40.
