data_PCOD9093049
_publ_section_title
;
Structure prediction by ZEFSAII (Michael W. Deem and Ramdas Pophale) SiO2 
 PCOD9093049
Probable space group: P -1
;
_chemical_formula_sum "Si O2"
_cell_formula_units_Z 16
_cell_length_a 10.267979
_cell_length_b 10.988986
_cell_length_c 17.370458
_cell_angle_alpha 127.677402
_cell_angle_beta 31.522987
_cell_angle_gamma 106.440162
_cell_volume 663.486316
_symmetry_space_group_name_H-M "P -1"
_symmetry_group_IT_number 2
_symmetry_cell_setting 'triclinic'
loop_
_space_group_symop_operation_xyz
x,y,z
-x,-y,-z
loop_
_atom_site_type_symbol
_atom_site_label
_atom_site_fract_x
_atom_site_fract_y
_atom_site_fract_z
Si Si1 0.270400 0.500633 0.017842
Si Si2 0.234148 0.438365 0.459999
Si Si3 0.790227 0.217601 0.214014
Si Si4 0.657325 0.787165 0.253592
Si Si5 0.684542 0.334407 0.078843
Si Si6 0.759828 0.710456 0.924484
Si Si7 0.489128 0.082704 0.119582
Si Si8 0.449114 0.198672 0.512748
O O1 0.354777 0.626125 0.977093
O O2 0.378967 0.386316 0.998902
O O3 0.904624 0.644912 0.265893
O O4 0.369441 0.338260 0.842054
O O5 0.501018 0.327535 0.346521
O O6 0.939292 0.597975 0.713811
O O7 0.389736 0.488098 0.335661
O O8 0.206291 0.283657 0.371188
O O9 0.992763 0.298451 0.145827
O O10 0.659781 0.236132 0.372202
O O11 0.000000 0.000000 0.000000
O O12 0.506257 0.809030 0.421044
O O13 0.014994 0.685254 0.052554
O O14 0.527950 0.995701 0.370420
O O15 0.723086 0.142997 0.011755
O O16 0.554720 0.927577 0.088135
O O17 0.500000 0.000000 0.000000
#
# Coordination Sequence:
#
# PCOD9093049 Si02
#       8
#     2   2   2   2   2   2   2   2
#     4  11  22  35  56  90 127 153 195 239 301 363
#     4  10  22  37  61  88 119 155 203 241 297 366
#     4  12  20  34  56  92 132 159 194 240 304 365
#     4  10  20  32  53  83 128 166 192 224 299 368
#     4   9  20  40  56  82 121 155 197 248 284 355
#     4  12  23  35  65  91 121 158 197 248 308 355
#     4  10  24  45  65  83 114 160 210 258 298 347
#     4  10  20  31  48  80 126 168 189 232 278 363
#
# _framework density 24.115041999999999
#
# number of rings (size 3 to 8) (size 9 to 14) (size 15 to 20)
#    0.750    0.750    2.500    4.875    3.500    0.500 
#    0.000    0.625    0.000    0.750    0.000    0.000 
#    0.000    0.000    0.000    0.000    0.000    0.000 
#
# Total GULP energy -89407.689726 kJ/mol
# GULP energy per Si atom -5587.980608 kJ/mol
# Density = 2.406015 g / cm^3
# Si number density = 24.115042 Si / 1000 Ang^3
#
#
#
# Elastic Constant Matrix: (Units=GPa)
#
#
# Indices 1 2 3 4 5 6 
#
# 1 41.9505 8.1168 2.9460 -3.0530 5.1533 -3.7053
# 2 8.1168 149.3453 22.9540 -8.8894 -3.3724 -25.2262
# 3 2.9460 22.9540 102.6475 3.8150 17.3132 3.7420
# 4 -3.0530 -8.8894 3.8150 44.5233 -7.1858 12.4309
# 5 5.1533 -3.3724 17.3132 -7.1858 25.7334 2.4974
# 6 -3.7053 -25.2262 3.7420 12.4309 2.4974 33.2481
#
#
#
# Elastic Compliance Matrix: (Units=1/GPa)
#
#
# Indices 1 2 3 4 5 6 
#
# 1 0.024928 -0.001164 0.000425 -0.000126 -0.005691 0.002322
# 2 -0.001164 0.008245 -0.002477 0.000506 0.002536 0.006025
# 3 0.000425 -0.002477 0.011951 -0.002505 -0.008998 -0.001564
# 4 -0.000126 0.000506 -0.002505 0.027338 0.010415 -0.010352
# 5 -0.005691 0.002536 -0.008998 0.010415 0.049812 -0.005333
# 6 0.002322 0.006025 -0.001564 -0.010352 -0.005333 0.039354
#
#
# Mechanical properties :
#
#
# Convention : Reuss Voigt Hill
#
# Bulk Modulus (GPa) = 25.84453 40.21964 33.03209
# Shear Modulus (GPa) = 27.63075 38.02940 32.83008
#
# Velocity S-wave (km/s) = 3.38862 3.97545 3.69371
# Velocity P-wave (km/s) = 5.10400 6.14709 5.64967
#
# Compressibility (1/GPa) = 0.03869290
#
# Stress axis : x y z
#
# Youngs Moduli (GPa) = 40.11558 121.28785 83.67153
#
# Poissons Ratio (x) = 0.14117 -0.03554
# Poissons Ratio (y) = 0.04669 0.20721
# Poissons Ratio (z) = -0.01704 0.30037
#
# Static dielectric constant tensor:
#      x y z
#    x 1.991770 0.004130 0.019190 
#    y 0.004130 1.987080 0.024160 
#    z 0.019190 0.024160 1.917690 
# 
# From -- ./inp_files/568809.got.cif
#   From: 2010.05.17/outbox.cif.g08.bks.cpg/sg2_285_cif.got.tgz:568809.got - 2010.06.03 11:33:40.
