data_PCOD9093098
_publ_section_title
;
Structure prediction by ZEFSAII (Michael W. Deem and Ramdas Pophale) SiO2 
 PCOD9093098
Probable space group: P -1
;
_chemical_formula_sum "Si O2"
_cell_formula_units_Z 16
_cell_length_a 8.622306
_cell_length_b 12.344240
_cell_length_c 9.604425
_cell_angle_alpha 145.741910
_cell_angle_beta 89.084817
_cell_angle_gamma 91.621287
_cell_volume 575.169066
_symmetry_space_group_name_H-M "P -1"
_symmetry_group_IT_number 2
_symmetry_cell_setting 'triclinic'
loop_
_space_group_symop_operation_xyz
x,y,z
-x,-y,-z
loop_
_atom_site_type_symbol
_atom_site_label
_atom_site_fract_x
_atom_site_fract_y
_atom_site_fract_z
Si Si1 0.758562 0.348963 0.593121
Si Si2 0.095342 0.136880 0.746358
Si Si3 0.892347 0.717348 0.566293
Si Si4 0.446998 0.723080 0.714167
Si Si5 0.317097 0.280699 0.675784
Si Si6 0.618041 0.288090 0.822492
Si Si7 0.750688 0.787757 0.930455
Si Si8 0.193450 0.735661 0.947331
O O1 0.604436 0.260600 0.426391
O O2 0.733831 0.321919 0.728194
O O3 0.754706 0.571359 0.770003
O O4 0.927869 0.272716 0.468490
O O5 0.175943 0.284125 0.793060
O O6 0.226747 0.077793 0.791773
O O7 0.000000 0.000000 0.500000
O O8 0.972171 0.199319 0.929854
O O9 0.768162 0.801728 0.548109
O O10 0.868019 0.790081 0.800034
O O11 0.840358 0.493120 0.317152
O O12 0.500000 0.500000 0.500000
O O13 0.590007 0.828541 0.898415
O O14 0.290217 0.779754 0.855546
O O15 0.459380 0.196470 0.670047
O O16 0.393592 0.495329 0.881849
O O17 0.698495 0.192156 0.849317
#
# Coordination Sequence:
#
# PCOD9093098 Si02
#       8
#     2   2   2   2   2   2   2   2
#     4  11  18  30  52  89 120 145 177 229 308 358
#     4  12  25  41  58  80 119 167 202 228 267 346
#     4  11  19  32  60  89 121 142 181 254 311 342
#     4  10  20  31  54  85 122 142 182 233 303 357
#     4  10  21  36  55  86 117 151 193 237 299 343
#     4  10  20  32  59  86 121 149 178 249 306 345
#     4  11  20  35  54  86 119 150 190 238 291 344
#     4  11  20  35  56  88 116 151 191 237 298 345
#
# _framework density 27.817909
#
# number of rings (size 3 to 8) (size 9 to 14) (size 15 to 20)
#    0.000    1.250    5.000    3.375    7.000    2.000 
#    0.000    3.125    0.000    0.000    0.000    5.250 
#    0.000    0.000    0.000    0.000    0.000    0.000 
#
# Total GULP energy -89449.216666 kJ/mol
# GULP energy per Si atom -5590.576042 kJ/mol
# Density = 2.775459 g / cm^3
# Si number density = 27.817909 Si / 1000 Ang^3
#
#
#
# Elastic Constant Matrix: (Units=GPa)
#
#
# Indices 1 2 3 4 5 6 
#
# 1 105.8214 18.6972 40.9154 -7.2401 10.8678 6.3735
# 2 18.6972 65.5487 56.4136 -10.6254 -7.3374 -8.0114
# 3 40.9154 56.4136 157.5513 -36.1722 31.4858 -7.7036
# 4 -7.2401 -10.6254 -36.1722 62.3660 -3.7421 -0.5931
# 5 10.8678 -7.3374 31.4858 -3.7421 59.2621 -20.8542
# 6 6.3735 -8.0114 -7.7036 -0.5931 -20.8542 43.9634
#
#
#
# Elastic Compliance Matrix: (Units=1/GPa)
#
#
# Indices 1 2 3 4 5 6 
#
# 1 0.011019 -0.002525 -0.001656 -0.000312 -0.002762 -0.003662
# 2 -0.002525 0.029435 -0.012622 -0.001641 0.014332 0.010295
# 3 -0.001656 -0.012622 0.014312 0.005317 -0.010016 -0.004232
# 4 -0.000312 -0.001641 0.005317 0.018698 -0.001756 0.000097
# 5 -0.002762 0.014332 -0.010016 -0.001756 0.029769 0.015354
# 6 -0.003662 0.010295 -0.004232 0.000097 0.015354 0.031696
#
#
# Mechanical properties :
#
#
# Convention : Reuss Voigt Hill
#
# Bulk Modulus (GPa) = 47.25701 62.33044 54.79373
# Shear Modulus (GPa) = 28.47543 47.31133 37.89338
#
# Velocity S-wave (km/s) = 3.20290 4.12849 3.69479
# Velocity P-wave (km/s) = 5.54103 6.72169 6.15971
#
# Compressibility (1/GPa) = 0.02116088
#
# Stress axis : x y z
#
# Youngs Moduli (GPa) = 90.75001 33.97281 69.87035
#
# Poissons Ratio (x) = 0.08578 0.11573
# Poissons Ratio (y) = 0.22914 0.88188
# Poissons Ratio (z) = 0.15032 0.42879
#
# Static dielectric constant tensor:
#      x y z
#    x 2.320700 -0.080180 0.006000 
#    y -0.080180 2.290580 0.154600 
#    z 0.006000 0.154600 2.201930 
# 
# From -- ./inp_files/209388.got.cif
#   From: 2010.05.17/outbox.cif.g08.bks.cpg/sg2_105_cif.got.tgz:209388.got - 2010.06.03 11:33:40.
