data_PCOD9093287
_publ_section_title
;
Structure prediction by ZEFSAII (Michael W. Deem and Ramdas Pophale) SiO2 
 PCOD9093287
Probable space group: P -1
;
_chemical_formula_sum "Si O2"
_cell_formula_units_Z 14
_cell_length_a 13.986016
_cell_length_b 13.323337
_cell_length_c 11.502921
_cell_angle_alpha 59.710461
_cell_angle_beta 118.736577
_cell_angle_gamma 157.309997
_cell_volume 713.188050
_symmetry_space_group_name_H-M "P -1"
_symmetry_group_IT_number 2
_symmetry_cell_setting 'triclinic'
loop_
_space_group_symop_operation_xyz
x,y,z
-x,-y,-z
loop_
_atom_site_type_symbol
_atom_site_label
_atom_site_fract_x
_atom_site_fract_y
_atom_site_fract_z
Si Si1 0.361128 0.040005 0.127867
Si Si2 0.521585 0.516053 0.861310
Si Si3 0.523018 0.259822 0.338423
Si Si4 0.962445 0.056746 0.049610
Si Si5 0.672603 0.274866 0.971038
Si Si6 0.961661 0.340831 0.504149
Si Si7 0.917301 0.456336 0.788800
O O1 0.274008 0.823116 0.209561
O O2 0.534882 0.235904 0.223301
O O3 0.130942 0.909138 0.073215
O O4 0.501689 0.191171 0.999724
O O5 0.539013 0.663403 0.740036
O O6 0.774205 0.689615 0.881873
O O7 0.265187 0.211494 0.852186
O O8 0.500000 0.500000 0.000000
O O9 0.787757 0.489573 0.417313
O O10 0.292032 0.964582 0.426262
O O11 0.000000 0.000000 0.000000
O O12 0.790313 0.419575 0.831094
O O13 0.889080 0.434933 0.087690
O O14 0.500000 0.000000 0.000000
O O15 0.958306 0.361556 0.352636
O O16 0.000000 0.500000 0.500000
#
# Coordination Sequence:
#
# PCOD9093287 Si02
#       7
#     2   2   2   2   2   2   2
#     4  11  21  33  60  85 122 147 196 235 298 339
#     4  10  20  35  53  78 120 148 193 232 288 336
#     4  12  24  36  56  87 123 159 187 228 291 357
#     4  10  20  32  54  84 115 149 181 246 287 340
#     4   9  21  38  59  81 112 153 197 251 279 331
#     4  12  25  36  56  85 122 162 189 226 288 357
#     4  10  22  39  57  82 122 151 201 234 285 345
#
# _framework density 19.630165999999999
#
# number of rings (size 3 to 8) (size 9 to 14) (size 15 to 20)
#    0.000    1.429    4.286    2.143    8.000    0.000 
#    0.000    0.000    0.000    0.000    0.000    6.000 
#    0.000    0.000    0.000    0.000    0.000    0.000 
#
# Total GULP energy -78125.755531 kJ/mol
# GULP energy per Si atom -5580.411109 kJ/mol
# Density = 1.958549 g / cm^3
# Si number density = 19.630166 Si / 1000 Ang^3
#
#
#
# Elastic Constant Matrix: (Units=GPa)
#
#
# Indices 1 2 3 4 5 6 
#
# 1 65.5025 12.6462 35.6507 -8.4678 -10.1453 18.9104
# 2 12.6462 94.0803 2.7286 -9.7439 -0.8863 10.1673
# 3 35.6507 2.7286 65.4662 -13.0553 -9.1758 4.8919
# 4 -8.4678 -9.7439 -13.0553 33.9960 2.6144 2.7334
# 5 -10.1453 -0.8863 -9.1758 2.6144 29.0165 -0.6801
# 6 18.9104 10.1673 4.8919 2.7334 -0.6801 29.4588
#
#
#
# Elastic Compliance Matrix: (Units=1/GPa)
#
#
# Indices 1 2 3 4 5 6 
#
# 1 0.028178 -0.001422 -0.012901 0.002514 0.005138 -0.015570
# 2 -0.001422 0.011565 0.001293 0.003762 -0.000160 -0.003646
# 3 -0.012901 0.001293 0.023478 0.005701 0.002521 0.003466
# 4 0.002514 0.003762 0.005701 0.033905 -0.000423 -0.007015
# 5 0.005138 -0.000160 0.002521 -0.000423 0.037025 -0.002768
# 6 -0.015570 -0.003646 0.003466 -0.007015 -0.002768 0.045210
#
#
# Mechanical properties :
#
#
# Convention : Reuss Voigt Hill
#
# Bulk Modulus (GPa) = 26.91006 36.34445 31.62725
# Shear Modulus (GPa) = 22.95585 30.09583 26.52584
#
# Velocity S-wave (km/s) = 3.42338 3.91978 3.67996
# Velocity P-wave (km/s) = 5.41889 6.24828 5.84831
#
# Compressibility (1/GPa) = 0.03716082
#
# Stress axis : x y z
#
# Youngs Moduli (GPa) = 35.48817 86.46702 42.59360
#
# Poissons Ratio (x) = 0.12297 0.54949
# Poissons Ratio (y) = 0.05047 -0.05507
# Poissons Ratio (z) = 0.45783 -0.11179
#
# Static dielectric constant tensor:
#      x y z
#    x 1.718280 0.035810 0.006410 
#    y 0.035810 1.765750 -0.031140 
#    z 0.006410 -0.031140 1.675050 
# 
# From -- ./inp_files/65517.got.cif
#   From: 2010.05.17/outbox.cif.g08.bks.cpg/sg2_33_cif.got.tgz:65517.got - 2010.06.03 11:33:40.
