data_PCOD9093257
_publ_section_title
;
Structure prediction by ZEFSAII (Michael W. Deem and Ramdas Pophale) SiO2 
 PCOD9093257
Probable space group: P -1
;
_chemical_formula_sum "Si O2"
_cell_formula_units_Z 12
_cell_length_a 11.561192
_cell_length_b 9.093672
_cell_length_c 9.698117
_cell_angle_alpha 55.601803
_cell_angle_beta 50.054402
_cell_angle_gamma 96.362867
_cell_volume 427.648909
_symmetry_space_group_name_H-M "P -1"
_symmetry_group_IT_number 2
_symmetry_cell_setting 'triclinic'
loop_
_space_group_symop_operation_xyz
x,y,z
-x,-y,-z
loop_
_atom_site_type_symbol
_atom_site_label
_atom_site_fract_x
_atom_site_fract_y
_atom_site_fract_z
Si Si1 0.342039 0.990619 0.218220
Si Si2 0.173690 0.737478 0.016418
Si Si3 0.691391 0.298238 0.364404
Si Si4 0.824539 0.721442 0.354536
Si Si5 0.726406 0.535720 0.806021
Si Si6 0.309124 0.321855 0.942518
O O1 0.222904 0.041761 0.189085
O O2 0.500473 0.253989 0.056715
O O3 0.500000 0.000000 0.000000
O O4 0.231269 0.759864 0.537688
O O5 0.140079 0.526872 0.237574
O O6 0.952802 0.651453 0.271864
O O7 0.229788 0.735594 0.816173
O O8 0.412454 0.046084 0.714383
O O9 0.767727 0.574711 0.146963
O O10 0.812533 0.747960 0.512843
O O11 0.571564 0.514997 0.601065
O O12 0.000000 0.000000 0.000000
O O13 0.696724 0.592070 0.947936
#
# Coordination Sequence:
#
# PCOD9093257 Si02
#       6
#     2   2   2   2   2   2
#     4  10  20  32  53  76 103 137 172 210 252 302
#     4   9  17  30  50  77 105 131 165 214 260 295
#     4   9  18  33  50  75 105 134 169 210 254 305
#     4  11  18  25  50  84 105 127 164 213 264 300
#     4   9  20  35  52  75 107 132 172 212 251 306
#     4  10  20  36  54  79 103 134 172 214 252 303
#
# _framework density 28.060400000000001
#
# number of rings (size 3 to 8) (size 9 to 14) (size 15 to 20)
#    0.000    2.333    1.667    3.500    2.333    0.667 
#    0.000    0.000    0.000    4.000    0.000   38.500 
#    0.000    0.000    0.000    0.000    0.000    0.000 
#
# Total GULP energy -67110.314606 kJ/mol
# GULP energy per Si atom -5592.526217 kJ/mol
# Density = 2.799653 g / cm^3
# Si number density = 28.060400 Si / 1000 Ang^3
#
#
#
# Elastic Constant Matrix: (Units=GPa)
#
#
# Indices 1 2 3 4 5 6 
#
# 1 125.1297 36.6168 37.8662 -14.4853 24.6147 -44.4816
# 2 36.6168 113.2912 35.5818 -11.5617 15.7794 -34.4654
# 3 37.8662 35.5818 135.7681 -14.0885 31.0445 -2.4945
# 4 -14.4853 -11.5617 -14.0885 62.2142 -13.5276 6.7171
# 5 24.6147 15.7794 31.0445 -13.5276 63.1037 2.7212
# 6 -44.4816 -34.4654 -2.4945 6.7171 2.7212 65.0618
#
#
#
# Elastic Compliance Matrix: (Units=1/GPa)
#
#
# Indices 1 2 3 4 5 6 
#
# 1 0.012654 -0.000112 -0.002369 0.000593 -0.003987 0.008606
# 2 -0.000112 0.011809 -0.002474 0.000550 -0.001837 0.006105
# 3 -0.002369 -0.002474 0.009344 0.000774 -0.002779 -0.002536
# 4 0.000593 0.000550 0.000774 0.017270 0.003004 -0.001182
# 5 -0.003987 -0.001837 -0.002779 0.003004 0.020086 -0.004956
# 6 0.008606 0.006105 -0.002536 -0.001182 -0.004956 0.024720
#
#
# Mechanical properties :
#
#
# Convention : Reuss Voigt Hill
#
# Bulk Modulus (GPa) = 41.84651 66.03540 53.94096
# Shear Modulus (GPa) = 43.95314 55.68421 49.81867
#
# Velocity S-wave (km/s) = 3.96204 4.45954 4.21813
# Velocity P-wave (km/s) = 5.98964 7.07821 6.55655
#
# Compressibility (1/GPa) = 0.02389685
#
# Stress axis : x y z
#
# Youngs Moduli (GPa) = 79.02949 84.67943 107.02348
#
# Poissons Ratio (x) = 0.00947 0.25350
# Poissons Ratio (y) = 0.00884 0.26482
# Poissons Ratio (z) = 0.18719 0.20953
#
# Static dielectric constant tensor:
#      x y z
#    x 3.289540 -0.662360 0.042630 
#    y -0.662360 2.690340 -0.165370 
#    z 0.042630 -0.165370 2.219840 
# 
# From -- ./inp_files/448594.got.cif
#   From: 2010.05.17/outbox.cif.g08.bks.cpg/sg2_225_cif.got.tgz:448594.got - 2010.06.03 11:33:40.
