data_PCOD9093567
_publ_section_title
;
Structure prediction by ZEFSAII (Michael W. Deem and Ramdas Pophale) SiO2 
 PCOD9093567
Probable space group: P -1
;
_chemical_formula_sum "Si O2"
_cell_formula_units_Z 14
_cell_length_a 8.435446
_cell_length_b 14.418726
_cell_length_c 12.420740
_cell_angle_alpha 29.573782
_cell_angle_beta 113.632730
_cell_angle_gamma 120.972447
_cell_volume 635.385778
_symmetry_space_group_name_H-M "P -1"
_symmetry_group_IT_number 2
_symmetry_cell_setting 'triclinic'
loop_
_space_group_symop_operation_xyz
x,y,z
-x,-y,-z
loop_
_atom_site_type_symbol
_atom_site_label
_atom_site_fract_x
_atom_site_fract_y
_atom_site_fract_z
Si Si1 0.942676 0.373173 0.272486
Si Si2 0.339018 0.967109 0.581901
Si Si3 0.580647 0.223233 0.747345
Si Si4 0.334275 0.795291 0.443292
Si Si5 0.215696 0.307800 0.134449
Si Si6 0.539461 0.577522 0.096778
Si Si7 0.339263 0.474888 0.349842
O O1 0.824026 0.243368 0.272745
O O2 0.836967 0.251018 0.474201
O O3 0.149805 0.380184 0.328173
O O4 0.938330 0.598732 0.031938
O O5 0.500000 0.000000 0.500000
O O6 0.476334 0.012155 0.675636
O O7 0.226579 0.119719 0.393765
O O8 0.700730 0.220203 0.677402
O O9 0.419188 0.306873 0.581427
O O10 0.687859 0.390655 0.696045
O O11 0.500000 0.000000 0.000000
O O12 0.398157 0.611856 0.679016
O O13 0.368967 0.496196 0.048879
O O14 0.294879 0.265741 0.083221
O O15 0.485913 0.618417 0.159464
#
# Coordination Sequence:
#
# PCOD9093567 Si02
#       7
#     2   2   2   2   2   2   2
#     4  10  20  33  53  82 111 132 166 218 263 307
#     4   9  17  31  54  80 107 138 171 205 250 313
#     4  10  22  40  57  71  98 143 183 215 260 309
#     4   8  17  35  55  75 104 141 174 210 254 305
#     4   9  17  31  52  78 105 140 170 198 256 318
#     4   8  15  32  53  73 106 140 170 205 249 311
#     4  10  22  37  53  79 106 133 175 223 260 299
#
# _framework density 22.033857999999999
#
# number of rings (size 3 to 8) (size 9 to 14) (size 15 to 20)
#    0.000    2.857    0.000    2.571    0.000    5.714 
#    0.000    7.143    0.000    0.000    0.000    0.000 
#    0.000    0.000    0.000    0.000    0.000    0.000 
#
# Total GULP energy -77934.257576 kJ/mol
# GULP energy per Si atom -5566.732684 kJ/mol
# Density = 2.198371 g / cm^3
# Si number density = 22.033858 Si / 1000 Ang^3
#
#
#
# Elastic Constant Matrix: (Units=GPa)
#
#
# Indices 1 2 3 4 5 6 
#
# 1 49.6421 22.6782 20.5434 5.0861 -8.1321 -5.7526
# 2 22.6782 56.4672 1.2464 -0.7252 -4.2245 -16.7803
# 3 20.5434 1.2464 106.1637 -11.2370 14.9068 -6.5776
# 4 5.0861 -0.7252 -11.2370 25.3505 -14.5639 -6.1456
# 5 -8.1321 -4.2245 14.9068 -14.5639 29.9410 14.9571
# 6 -5.7526 -16.7803 -6.5776 -6.1456 14.9571 28.2428
#
#
#
# Elastic Compliance Matrix: (Units=1/GPa)
#
#
# Indices 1 2 3 4 5 6 
#
# 1 0.033585 -0.016744 -0.010265 -0.005896 0.016847 -0.015703
# 2 -0.016744 0.030690 0.006857 0.005680 -0.013174 0.024634
# 3 -0.010265 0.006857 0.014546 0.004011 -0.013911 0.013611
# 4 -0.005896 0.005680 0.004011 0.056655 0.023183 0.003158
# 5 0.016847 -0.013174 -0.013911 0.023183 0.075618 -0.042638
# 6 -0.015703 0.024634 0.013611 0.003158 -0.042638 0.073283
#
#
# Mechanical properties :
#
#
# Convention : Reuss Voigt Hill
#
# Bulk Modulus (GPa) = 25.96100 33.46765 29.71433
# Shear Modulus (GPa) = 14.81392 27.89386 21.35389
#
# Velocity S-wave (km/s) = 2.59574 3.56189 3.11648
# Velocity P-wave (km/s) = 4.55979 5.66906 5.14441
#
# Compressibility (1/GPa) = 0.03851931
#
# Stress axis : x y z
#
# Youngs Moduli (GPa) = 29.77499 32.58358 68.74557
#
# Poissons Ratio (x) = 0.54556 0.70566
# Poissons Ratio (y) = 0.49854 -0.47139
# Poissons Ratio (z) = 0.30563 -0.22343
#
# Static dielectric constant tensor:
#      x y z
#    x 1.875490 -0.054920 -0.050040 
#    y -0.054920 1.841370 -0.027320 
#    z -0.050040 -0.027320 1.839150 
# 
# From -- ./inp_files/180815.got.cif
#   From: 2010.05.17/outbox.cif.g08.bks.cpg/sg2_91_cif.got.tgz:180815.got - 2010.06.03 11:33:40.
