data_PCOD9093285
_publ_section_title
;
Structure prediction by ZEFSAII (Michael W. Deem and Ramdas Pophale) SiO2 
 PCOD9093285
Probable space group: P -1
;
_chemical_formula_sum "Si O2"
_cell_formula_units_Z 16
_cell_length_a 16.086353
_cell_length_b 11.105199
_cell_length_c 5.238155
_cell_angle_alpha 87.783785
_cell_angle_beta 115.118997
_cell_angle_gamma 104.391522
_cell_volume 818.285406
_symmetry_space_group_name_H-M "P -1"
_symmetry_group_IT_number 2
_symmetry_cell_setting 'triclinic'
loop_
_space_group_symop_operation_xyz
x,y,z
-x,-y,-z
loop_
_atom_site_type_symbol
_atom_site_label
_atom_site_fract_x
_atom_site_fract_y
_atom_site_fract_z
Si Si1 0.103842 0.982370 0.066189
Si Si2 0.297781 0.476763 0.409983
Si Si3 0.484523 0.636846 0.515045
Si Si4 0.800476 0.876562 0.328175
Si Si5 0.976333 0.295892 0.949861
Si Si6 0.599967 0.707245 0.173349
Si Si7 0.155441 0.338497 0.861942
Si Si8 0.109052 0.510577 0.423624
O O1 0.087601 0.834122 0.025763
O O2 0.164271 0.041607 0.385740
O O3 0.155568 0.049811 0.875515
O O4 0.000000 0.000000 0.000000
O O5 0.370599 0.600608 0.387736
O O6 0.352762 0.408196 0.687294
O O7 0.205663 0.509296 0.402792
O O8 0.254023 0.374816 0.141920
O O9 0.500000 0.500000 0.500000
O O10 0.538274 0.718146 0.343820
O O11 0.531927 0.680614 0.843459
O O12 0.687569 0.823488 0.211126
O O13 0.837869 0.750476 0.358970
O O14 0.919436 0.362755 0.675468
O O15 0.067749 0.270960 0.927437
O O16 0.022819 0.398927 0.213344
O O17 0.131070 0.466298 0.734920
#
# Coordination Sequence:
#
# PCOD9093285 Si02
#       8
#     2   2   2   2   2   2   2   2
#     4  12  24  38  58  84 113 152 198 238 275 329
#     4  10  20  32  54  88 114 152 185 231 289 351
#     4  10  20  32  54  83 120 147 181 229 290 352
#     4  12  23  37  58  83 115 154 189 232 285 334
#     4  10  23  38  53  84 112 158 196 236 278 336
#     4  11  21  35  54  83 118 152 182 232 289 348
#     4  11  20  34  57  81 119 151 191 228 288 346
#     4  10  21  37  58  78 119 153 193 229 290 340
#
# _framework density 19.553079
#
# number of rings (size 3 to 8) (size 9 to 14) (size 15 to 20)
#    0.000    1.250    2.500    6.000    3.500    0.000 
#    0.000    0.000    0.000    0.000    0.000    5.250 
#    0.000    0.000    0.000    0.000    0.000    0.000 
#
# Total GULP energy -89304.474855 kJ/mol
# GULP energy per Si atom -5581.529678 kJ/mol
# Density = 1.950858 g / cm^3
# Si number density = 19.553079 Si / 1000 Ang^3
#
#
#
# Elastic Constant Matrix: (Units=GPa)
#
#
# Indices 1 2 3 4 5 6 
#
# 1 89.6004 49.6838 40.6714 0.0212 -5.8052 37.7290
# 2 49.6838 109.9449 38.5129 -4.7516 5.6588 34.5106
# 3 40.6714 38.5129 93.0365 3.9479 -12.6784 21.1847
# 4 0.0212 -4.7516 3.9479 26.8100 8.7500 -1.4313
# 5 -5.8052 5.6588 -12.6784 8.7500 22.6123 -5.3929
# 6 37.7290 34.5106 21.1847 -1.4313 -5.3929 38.1363
#
#
#
# Elastic Compliance Matrix: (Units=1/GPa)
#
#
# Indices 1 2 3 4 5 6 
#
# 1 0.021805 -0.003348 -0.004370 -0.001001 0.000539 -0.016077
# 2 -0.003348 0.016781 -0.005225 0.007568 -0.013442 -0.010588
# 3 -0.004370 -0.005225 0.016550 -0.007419 0.012663 0.001370
# 4 -0.001001 0.007568 -0.007419 0.047935 -0.025712 -0.003574
# 5 0.000539 -0.013442 0.012663 -0.025712 0.067933 0.013238
# 6 -0.016077 -0.010588 0.001370 -0.003574 0.013238 0.052685
#
#
# Mechanical properties :
#
#
# Convention : Reuss Voigt Hill
#
# Bulk Modulus (GPa) = 34.18655 61.14645 47.66650
# Shear Modulus (GPa) = 19.28079 28.42596 23.85337
#
# Velocity S-wave (km/s) = 3.14359 3.81699 3.49654
# Velocity P-wave (km/s) = 5.54059 7.12501 6.38216
#
# Compressibility (1/GPa) = 0.02925127
#
# Stress axis : x y z
#
# Youngs Moduli (GPa) = 45.86013 59.59110 60.42212
#
# Poissons Ratio (x) = 0.19949 0.26404
# Poissons Ratio (y) = 0.15352 0.31572
# Poissons Ratio (z) = 0.20040 0.31138
#
# Static dielectric constant tensor:
#      x y z
#    x 1.889350 0.117910 0.009790 
#    y 0.117910 1.747980 0.005350 
#    z 0.009790 0.005350 1.741480 
# 
# From -- ./inp_files/109004.got.cif
#   From: 2010.05.17/outbox.cif.g08.bks.cpg/sg2_55_cif.got.tgz:109004.got - 2010.06.03 11:33:40.
