data_PCOD9093077
_publ_section_title
;
Structure prediction by ZEFSAII (Michael W. Deem and Ramdas Pophale) SiO2 
 PCOD9093077
Probable space group: P -1
;
_chemical_formula_sum "Si O2"
_cell_formula_units_Z 16
_cell_length_a 7.081185
_cell_length_b 9.755480
_cell_length_c 25.344443
_cell_angle_alpha 137.897945
_cell_angle_beta 140.335904
_cell_angle_gamma 47.857197
_cell_volume 728.569452
_symmetry_space_group_name_H-M "P -1"
_symmetry_group_IT_number 2
_symmetry_cell_setting 'triclinic'
loop_
_space_group_symop_operation_xyz
x,y,z
-x,-y,-z
loop_
_atom_site_type_symbol
_atom_site_label
_atom_site_fract_x
_atom_site_fract_y
_atom_site_fract_z
Si Si1 0.104721 0.176172 0.864305
Si Si2 0.211612 0.191464 0.336642
Si Si3 0.826293 0.185077 0.907874
Si Si4 0.408617 0.551344 0.704376
Si Si5 0.675079 0.054316 0.603799
Si Si6 0.778792 0.137900 0.036448
Si Si7 0.992397 0.558341 0.884151
Si Si8 0.607403 0.113123 0.295772
O O1 0.868634 0.286685 0.890138
O O2 0.068820 0.316213 0.844894
O O3 0.439773 0.150527 0.950715
O O4 0.004213 0.964982 0.770144
O O5 0.445058 0.186664 0.337771
O O6 0.952208 0.405107 0.349009
O O7 0.365416 0.087735 0.394247
O O8 0.558252 0.063441 0.813266
O O9 0.117412 0.988276 0.924327
O O10 0.855281 0.344742 0.006174
O O11 0.550504 0.303537 0.657723
O O12 0.628953 0.624815 0.816458
O O13 0.435052 0.691943 0.698465
O O14 0.500000 0.000000 0.500000
O O15 0.036023 0.987950 0.650910
O O16 0.856599 0.364365 0.112730
O O17 0.000000 0.000000 0.000000
#
# Coordination Sequence:
#
# PCOD9093077 Si02
#       8
#     2   2   2   2   2   2   2   2
#     4  11  21  36  54  87 126 174 216 265 308 374
#     4  10  23  43  69  96 137 170 216 272 326 390
#     4  10  21  37  55  86 128 171 217 259 308 374
#     4  11  23  44  68  96 134 175 218 265 331 388
#     4  11  26  47  73  99 128 166 215 277 340 398
#     4  10  20  31  52  78 118 165 211 251 302 362
#     4  11  21  35  58  88 127 174 217 260 311 374
#     4  10  24  44  67 101 135 172 218 268 321 395
#
# _framework density 21.960842
#
# number of rings (size 3 to 8) (size 9 to 14) (size 15 to 20)
#    0.000    1.500    2.500    2.625    5.250    5.500 
#    0.000    1.250    0.000    0.000    0.000    0.000 
#    0.000    0.000    0.000    0.000    0.000    0.000 
#
# Total GULP energy -89340.818130 kJ/mol
# GULP energy per Si atom -5583.801133 kJ/mol
# Density = 2.191086 g / cm^3
# Si number density = 21.960842 Si / 1000 Ang^3
#
#
#
# Elastic Constant Matrix: (Units=GPa)
#
#
# Indices 1 2 3 4 5 6 
#
# 1 107.1431 51.7024 11.8477 -14.8823 -11.8512 -7.2503
# 2 51.7024 97.4927 32.5433 -27.3540 4.6047 -10.7100
# 3 11.8477 32.5433 95.0370 -24.9411 -15.4612 -11.2807
# 4 -14.8823 -27.3540 -24.9411 28.1696 2.0441 1.7588
# 5 -11.8512 4.6047 -15.4612 2.0441 19.0176 -1.3747
# 6 -7.2503 -10.7100 -11.2807 1.7588 -1.3747 21.0876
#
#
#
# Elastic Compliance Matrix: (Units=1/GPa)
#
#
# Indices 1 2 3 4 5 6 
#
# 1 0.015951 -0.010000 0.005077 0.001755 0.016594 0.004057
# 2 -0.010000 0.021926 -0.005553 0.012177 -0.017176 0.002592
# 3 0.005077 -0.005553 0.019374 0.012426 0.019613 0.009532
# 4 0.001755 0.012177 0.012426 0.058520 0.002588 0.008723
# 5 0.016594 -0.017176 0.019613 0.002588 0.083668 0.012712
# 6 0.004057 0.002592 0.009532 0.008723 0.012712 0.055333
#
#
# Mechanical properties :
#
#
# Convention : Reuss Voigt Hill
#
# Bulk Modulus (GPa) = 27.54731 54.65105 41.09918
# Shear Modulus (GPa) = 17.37187 27.22690 22.29938
#
# Velocity S-wave (km/s) = 2.81559 3.52489 3.19002
# Velocity P-wave (km/s) = 4.81052 6.44253 5.68539
#
# Compressibility (1/GPa) = 0.03630118
#
# Stress axis : x y z
#
# Youngs Moduli (GPa) = 62.69185 45.60765 51.61671
#
# Poissons Ratio (x) = 0.45606 -0.26208
# Poissons Ratio (y) = 0.62690 0.28660
# Poissons Ratio (z) = -0.31831 0.25324
#
# Static dielectric constant tensor:
#      x y z
#    x 1.853270 0.001650 -0.018880 
#    y 0.001650 1.880800 0.039350 
#    z -0.018880 0.039350 1.807230 
# 
# From -- ./inp_files/622475.got.cif
#   From: 2010.05.17/outbox.cif.g08.bks.cpg/sg2_312_cif.got.tgz:622475.got - 2010.06.03 11:33:40.
