data_PCOD9093225
_publ_section_title
;
Structure prediction by ZEFSAII (Michael W. Deem and Ramdas Pophale) SiO2 
 PCOD9093225
Probable space group: P -1
;
_chemical_formula_sum "Si O2"
_cell_formula_units_Z 15
_cell_length_a 7.223281
_cell_length_b 5.921662
_cell_length_c 19.194238
_cell_angle_alpha 87.732623
_cell_angle_beta 82.094274
_cell_angle_gamma 41.391509
_cell_volume 535.150351
_symmetry_space_group_name_H-M "P -1"
_symmetry_group_IT_number 2
_symmetry_cell_setting 'triclinic'
loop_
_space_group_symop_operation_xyz
x,y,z
-x,-y,-z
loop_
_atom_site_type_symbol
_atom_site_label
_atom_site_fract_x
_atom_site_fract_y
_atom_site_fract_z
Si Si1 0.645710 0.186926 0.546490
Si Si2 0.323950 0.100966 0.326573
Si Si3 0.909801 0.360332 0.144683
Si Si4 0.308435 0.365779 0.198466
Si Si5 0.068432 0.164281 0.591952
Si Si6 0.909034 0.109614 0.278005
Si Si7 0.293005 0.618742 0.068990
Si Si8 0.000000 0.500000 0.000000
O O1 0.500000 0.500000 0.500000
O O2 0.880511 0.126739 0.573282
O O3 0.501911 0.181670 0.617659
O O4 0.769099 0.905999 0.484853
O O5 0.477267 0.088952 0.254813
O O6 0.127027 0.462614 0.371517
O O7 0.115428 0.109776 0.300980
O O8 0.107050 0.363539 0.173278
O O9 0.791610 0.585332 0.078037
O O10 0.752591 0.374434 0.217543
O O11 0.119833 0.984846 0.103887
O O12 0.110756 0.735144 0.238907
O O13 0.460940 0.348322 0.127019
O O14 0.241297 0.887414 0.650192
O O15 0.092600 0.619422 0.042873
O O16 0.500000 0.500000 0.000000
#
# Coordination Sequence:
#
# PCOD9093225 Si02
#       8
#     2   2   2   2   2   2   2   1
#     4  10  20  32  51  80 110 140 183 234 285 342
#     4   9  16  31  54  77 102 143 190 230 282 349
#     4   9  17  32  54  78 107 146 182 230 287 339
#     4   8  16  30  53  81  98 143 190 227 283 341
#     4   9  18  33  53  76 104 145 186 226 286 349
#     4   8  15  30  54  75  99 139 187 226 276 343
#     4  10  20  34  55  82 113 149 193 238 284 345
#     4  10  20  32  52  82 112 144 188 232 290 336
#
# _framework density 28.029506999999999
#
# number of rings (size 3 to 8) (size 9 to 14) (size 15 to 20)
#    0.000    2.933    0.000    0.800    0.000    2.667 
#    0.000    0.000   20.533    0.000   34.667    0.000 
#    0.000    0.000    0.000    0.000    0.000    0.000 
#
# Total GULP energy -83639.681963 kJ/mol
# GULP energy per Si atom -5575.978798 kJ/mol
# Density = 2.796571 g / cm^3
# Si number density = 28.029507 Si / 1000 Ang^3
#
#
#
# Elastic Constant Matrix: (Units=GPa)
#
#
# Indices 1 2 3 4 5 6 
#
# 1 103.9576 26.8937 46.8404 20.3278 20.8663 17.0574
# 2 26.8937 119.2328 68.9073 7.0695 0.6645 23.0685
# 3 46.8404 68.9073 230.7067 -36.8981 -9.7032 21.6965
# 4 20.3278 7.0695 -36.8981 59.6474 32.4834 5.8044
# 5 20.8663 0.6645 -9.7032 32.4834 60.8150 8.3234
# 6 17.0574 23.0685 21.6965 5.8044 8.3234 28.8529
#
#
#
# Elastic Compliance Matrix: (Units=1/GPa)
#
#
# Indices 1 2 3 4 5 6 
#
# 1 0.013012 -0.000084 -0.003147 -0.005051 -0.001756 -0.003736
# 2 -0.000084 0.011981 -0.003504 -0.004294 0.002559 -0.006769
# 3 -0.003147 -0.003504 0.007218 0.006710 -0.001067 -0.001808
# 4 -0.005051 -0.004294 0.006710 0.030482 -0.013305 -0.000921
# 5 -0.001756 0.002559 -0.001067 -0.013305 0.024587 -0.004621
# 6 -0.003736 -0.006769 -0.001808 -0.000921 -0.004621 0.045157
#
#
# Mechanical properties :
#
#
# Convention : Reuss Voigt Hill
#
# Bulk Modulus (GPa) = 53.35822 82.13109 67.74466
# Shear Modulus (GPa) = 32.86141 50.61343 41.73742
#
# Velocity S-wave (km/s) = 3.42773 4.25399 3.86301
# Velocity P-wave (km/s) = 5.89436 7.31395 6.64219
#
# Compressibility (1/GPa) = 0.01874125
#
# Stress axis : x y z
#
# Youngs Moduli (GPa) = 76.84958 83.46712 138.53532
#
# Poissons Ratio (x) = 0.00702 0.43600
# Poissons Ratio (y) = 0.00646 0.48541
# Poissons Ratio (z) = 0.24186 0.29246
#
# Static dielectric constant tensor:
#      x y z
#    x 2.226110 -0.035590 -0.085340 
#    y -0.035590 2.276780 -0.109040 
#    z -0.085340 -0.109040 2.344940 
# 
# From -- ./inp_files/9900.got.cif
#   From: 2010.05.17/outbox.cif.g08.bks.cpg/sg2_5_cif.got.tgz:9900.got - 2010.06.03 11:33:40.
