data_PCOD9093474
_publ_section_title
;
Structure prediction by ZEFSAII (Michael W. Deem and Ramdas Pophale) SiO2 
 PCOD9093474
Probable space group: P -1
;
_chemical_formula_sum "Si O2"
_cell_formula_units_Z 12
_cell_length_a 5.232968
_cell_length_b 13.013099
_cell_length_c 10.811784
_cell_angle_alpha 59.303980
_cell_angle_beta 66.212953
_cell_angle_gamma 103.007629
_cell_volume 484.684197
_symmetry_space_group_name_H-M "P -1"
_symmetry_group_IT_number 2
_symmetry_cell_setting 'triclinic'
loop_
_space_group_symop_operation_xyz
x,y,z
-x,-y,-z
loop_
_atom_site_type_symbol
_atom_site_label
_atom_site_fract_x
_atom_site_fract_y
_atom_site_fract_z
Si Si1 0.753418 0.163038 0.383461
Si Si2 0.697287 0.048412 0.100096
Si Si3 0.271011 0.581694 0.790948
Si Si4 0.048890 0.378897 0.393227
Si Si5 0.751287 0.837814 0.883727
Si Si6 0.744331 0.242814 0.782778
O O1 0.600933 0.253038 0.313590
O O2 0.852236 0.217211 0.471332
O O3 0.100719 0.216424 0.212216
O O4 0.500000 0.000000 0.500000
O O5 0.422153 0.081266 0.179192
O O6 0.928945 0.057657 0.158019
O O7 0.526573 0.902617 0.147688
O O8 0.906157 0.181725 0.880460
O O9 0.566840 0.557738 0.746993
O O10 0.101578 0.552353 0.706112
O O11 0.000000 0.500000 0.000000
O O12 0.968143 0.357761 0.566658
O O13 0.471045 0.724744 0.103443
#
# Coordination Sequence:
#
# PCOD9093474 Si02
#       6
#     2   2   2   2   2   2
#     4  10  24  36  62  92 123 151 194 247 293 347
#     4   9  20  28  54  71 128 151 184 218 301 348
#     4  10  24  42  61  84 119 160 197 240 296 353
#     4  10  23  36  66  84 118 151 209 237 287 354
#     4  10  20  33  50  81 121 150 185 232 300 336
#     4   9  20  32  54  80 113 154 194 232 286 343
#
# _framework density 24.758389000000001
#
# number of rings (size 3 to 8) (size 9 to 14) (size 15 to 20)
#    2.000    0.333    0.000    2.000    7.000    0.667 
#    0.000    0.000    0.000    2.000    0.000    0.000 
#    0.000    0.000    0.000    0.000    0.000    0.000 
#
# Total GULP energy -66963.733242 kJ/mol
# GULP energy per Si atom -5580.311104 kJ/mol
# Density = 2.470204 g / cm^3
# Si number density = 24.758389 Si / 1000 Ang^3
#
#
#
# Elastic Constant Matrix: (Units=GPa)
#
#
# Indices 1 2 3 4 5 6 
#
# 1 100.0472 8.4530 3.2394 -5.1170 -10.7976 -11.0326
# 2 8.4530 90.7604 1.0230 0.4317 -5.7653 -4.5848
# 3 3.2394 1.0230 128.1758 19.5700 1.5171 -2.5959
# 4 -5.1170 0.4317 19.5700 34.0231 -5.6962 -7.2894
# 5 -10.7976 -5.7653 1.5171 -5.6962 25.1795 4.4660
# 6 -11.0326 -4.5848 -2.5959 -7.2894 4.4660 24.5879
#
#
#
# Elastic Compliance Matrix: (Units=1/GPa)
#
#
# Indices 1 2 3 4 5 6 
#
# 1 0.011380 -0.000497 -0.000868 0.004156 0.004823 0.005278
# 2 -0.000497 0.011287 -0.000162 0.000599 0.002226 0.001638
# 3 -0.000868 -0.000162 0.008696 -0.005648 -0.002069 -0.000800
# 4 0.004156 0.000599 -0.005648 0.037027 0.008725 0.010772
# 5 0.004823 0.002226 -0.002069 0.008725 0.044962 -0.003219
# 6 0.005278 0.001638 -0.000800 0.010772 -0.003219 0.047038
#
#
# Mechanical properties :
#
#
# Convention : Reuss Voigt Hill
#
# Bulk Modulus (GPa) = 35.32478 38.26825 36.79652
# Shear Modulus (GPa) = 28.92156 37.17597 33.04876
#
# Velocity S-wave (km/s) = 3.42153 3.87919 3.65753
# Velocity P-wave (km/s) = 5.46882 5.96275 5.72112
#
# Compressibility (1/GPa) = 0.02830874
#
# Stress axis : x y z
#
# Youngs Moduli (GPa) = 87.87007 88.59421 114.99980
#
# Poissons Ratio (x) = 0.04403 0.09986
# Poissons Ratio (y) = 0.04367 0.01865
# Poissons Ratio (z) = 0.07630 0.01436
#
# Static dielectric constant tensor:
#      x y z
#    x 1.925820 0.040390 0.005460 
#    y 0.040390 1.990210 -0.018930 
#    z 0.005460 -0.018930 2.072250 
# 
# From -- ./inp_files/368890.got.cif
#   From: 2010.05.17/outbox.cif.g08.bks.cpg/sg2_185_cif.got.tgz:368890.got - 2010.06.03 11:33:40.
