data_PCOD9093406
_publ_section_title
;
Structure prediction by ZEFSAII (Michael W. Deem and Ramdas Pophale) SiO2 
 PCOD9093406
Probable space group: P -1
;
_chemical_formula_sum "Si O2"
_cell_formula_units_Z 16
_cell_length_a 11.575971
_cell_length_b 15.808022
_cell_length_c 9.346828
_cell_angle_alpha 103.761880
_cell_angle_beta 120.865255
_cell_angle_gamma 38.497703
_cell_volume 870.009330
_symmetry_space_group_name_H-M "P -1"
_symmetry_group_IT_number 2
_symmetry_cell_setting 'triclinic'
loop_
_space_group_symop_operation_xyz
x,y,z
-x,-y,-z
loop_
_atom_site_type_symbol
_atom_site_label
_atom_site_fract_x
_atom_site_fract_y
_atom_site_fract_z
Si Si1 0.881617 0.881123 0.213961
Si Si2 0.666700 0.902628 0.345822
Si Si3 0.644789 0.661821 0.841675
Si Si4 0.484388 0.826272 0.079151
Si Si5 0.194832 0.866293 0.466062
Si Si6 0.819854 0.038908 0.813492
Si Si7 0.045324 0.332872 0.001014
Si Si8 0.178555 0.166890 0.274237
O O1 0.765022 0.923271 0.309202
O O2 0.902367 0.778754 0.105307
O O3 0.113900 0.810343 0.353211
O O4 0.724324 0.024029 0.076962
O O5 0.645441 0.824197 0.212526
O O6 0.806766 0.817844 0.544025
O O7 0.422160 0.051279 0.309103
O O8 0.427171 0.755144 0.649022
O O9 0.827519 0.493652 0.874333
O O10 0.580539 0.706053 0.985352
O O11 0.760695 0.694499 0.889943
O O12 0.402627 0.836060 0.185051
O O13 0.199567 0.918344 0.343098
O O14 0.000000 0.000000 0.500000
O O15 0.874876 0.908098 0.798808
O O16 0.000000 0.000000 0.000000
O O17 0.023834 0.306626 0.137306
#
# Coordination Sequence:
#
# PCOD9093406 Si02
#       8
#     2   2   2   2   2   2   2   2
#     4  12  20  38  64  89 122 159 204 253 298 368
#     4  10  20  32  60  94 114 149 212 252 299 344
#     4  11  25  41  60  91 127 166 203 248 311 364
#     4  11  20  36  61  91 117 160 202 256 297 356
#     4  12  24  38  64  97 125 157 205 261 301 357
#     4  11  20  36  58  92 125 153 199 254 313 349
#     4  11  23  42  62  86 130 167 200 248 308 374
#     4  10  21  34  59  92 119 156 198 268 294 358
#
# _framework density 18.390609000000001
#
# number of rings (size 3 to 8) (size 9 to 14) (size 15 to 20)
#    0.000    1.000    6.250    1.875    5.250    0.500 
#    0.000    1.875    0.000    9.000    0.000    0.000 
#    0.000    0.000    0.000    0.000    0.000    0.000 
#
# Total GULP energy -89348.556721 kJ/mol
# GULP energy per Si atom -5584.284795 kJ/mol
# Density = 1.834875 g / cm^3
# Si number density = 18.390609 Si / 1000 Ang^3
#
#
#
# Elastic Constant Matrix: (Units=GPa)
#
#
# Indices 1 2 3 4 5 6 
#
# 1 118.7626 16.7314 52.7328 -6.5486 -8.9689 3.9458
# 2 16.7314 45.2921 19.7325 -2.2352 2.9768 1.8942
# 3 52.7328 19.7325 122.4542 -0.8522 0.0232 0.4037
# 4 -6.5486 -2.2352 -0.8522 21.5457 -3.9084 -0.9997
# 5 -8.9689 2.9768 0.0232 -3.9084 43.8434 5.9130
# 6 3.9458 1.8942 0.4037 -0.9997 5.9130 17.8533
#
#
#
# Elastic Compliance Matrix: (Units=1/GPa)
#
#
# Indices 1 2 3 4 5 6 
#
# 1 0.011227 -0.002115 -0.004461 0.003449 0.003156 -0.003008
# 2 -0.002115 0.024414 -0.003009 0.001384 -0.001778 -0.001388
# 3 -0.004461 -0.003009 0.010558 -0.001373 -0.001015 0.001326
# 4 0.003449 0.001384 -0.001373 0.048450 0.004903 0.000211
# 5 0.003156 -0.001778 -0.001015 0.004903 0.025165 -0.008546
# 6 -0.003008 -0.001388 0.001326 0.000211 -0.008546 0.059637
#
#
# Mechanical properties :
#
#
# Convention : Reuss Voigt Hill
#
# Bulk Modulus (GPa) = 36.99530 51.65578 44.32554
# Shear Modulus (GPa) = 24.08120 29.80263 26.94192
#
# Velocity S-wave (km/s) = 3.62253 4.02995 3.83166
# Velocity P-wave (km/s) = 6.13653 7.05713 6.61287
#
# Compressibility (1/GPa) = 0.02703046
#
# Stress axis : x y z
#
# Youngs Moduli (GPa) = 89.06892 40.95949 94.71232
#
# Poissons Ratio (x) = 0.08665 0.42247
# Poissons Ratio (y) = 0.18842 0.28495
# Poissons Ratio (z) = 0.39730 0.12323
#
# Static dielectric constant tensor:
#      x y z
#    x 1.676690 -0.005880 0.004200 
#    y -0.005880 1.623790 0.018460 
#    z 0.004200 0.018460 1.647900 
# 
# From -- ./inp_files/262039.got.cif
#   From: 2010.05.17/outbox.cif.g08.bks.cpg/sg2_132_cif.got.tgz:262039.got - 2010.06.03 11:33:40.
