data_PCOD9093626
_publ_section_title
;
Structure prediction by ZEFSAII (Michael W. Deem and Ramdas Pophale) SiO2 
 PCOD9093626
Probable space group: P -1
;
_chemical_formula_sum "Si O2"
_cell_formula_units_Z 16
_cell_length_a 20.648092
_cell_length_b 9.166932
_cell_length_c 8.097769
_cell_angle_alpha 126.749121
_cell_angle_beta 103.827768
_cell_angle_gamma 41.897626
_cell_volume 756.712891
_symmetry_space_group_name_H-M "P -1"
_symmetry_group_IT_number 2
_symmetry_cell_setting 'triclinic'
loop_
_space_group_symop_operation_xyz
x,y,z
-x,-y,-z
loop_
_atom_site_type_symbol
_atom_site_label
_atom_site_fract_x
_atom_site_fract_y
_atom_site_fract_z
Si Si1 0.531103 0.675132 0.956648
Si Si2 0.948022 0.168646 0.812305
Si Si3 0.579126 0.383885 0.321517
Si Si4 0.343418 0.332914 0.172359
Si Si5 0.763376 0.568046 0.174224
Si Si6 0.802981 0.810101 0.190699
Si Si7 0.393092 0.335288 0.671492
Si Si8 0.133080 0.906230 0.571947
O O1 0.482540 0.580842 0.841974
O O2 0.609655 0.570862 0.787696
O O3 0.593497 0.573773 0.093252
O O4 0.433293 0.021241 0.100105
O O5 0.931124 0.038191 0.586793
O O6 0.882826 0.253271 0.994156
O O7 0.067746 0.978973 0.740778
O O8 0.883138 0.492777 0.945458
O O9 0.500000 0.500000 0.500000
O O10 0.693633 0.056652 0.194790
O O11 0.603190 0.539991 0.396760
O O12 0.243645 0.572564 0.388570
O O13 0.303291 0.336976 0.972162
O O14 0.703385 0.595772 0.303070
O O15 0.772246 0.769251 0.315166
O O16 0.850664 0.910799 0.301523
O O17 0.500000 0.000000 0.500000
#
# Coordination Sequence:
#
# PCOD9093626 Si02
#       8
#     2   2   2   2   2   2   2   2
#     4  10  20  37  53  78 120 152 180 236 282 324
#     4   8  18  32  53  83 114 138 184 239 277 326
#     4  12  23  36  56  85 109 148 196 230 279 352
#     4   9  17  30  57  79 112 147 182 226 284 330
#     4   8  17  36  49  77 112 145 175 236 278 320
#     4  10  19  32  54  81 111 142 185 231 273 333
#     4  11  24  35  54  80 113 152 189 231 281 338
#     4  10  16  29  54  90 107 143 188 228 280 333
#
# _framework density 21.144083999999999
#
# number of rings (size 3 to 8) (size 9 to 14) (size 15 to 20)
#    0.750    1.500    1.250    2.250    5.250    0.000 
#    0.000    1.250    0.000    0.750    0.000    9.625 
#    0.000    0.000    0.000    0.000    0.000    0.000 
#
# Total GULP energy -89076.085350 kJ/mol
# GULP energy per Si atom -5567.255334 kJ/mol
# Density = 2.109596 g / cm^3
# Si number density = 21.144084 Si / 1000 Ang^3
#
#
#
# Elastic Constant Matrix: (Units=GPa)
#
#
# Indices 1 2 3 4 5 6 
#
# 1 171.6108 16.6314 36.5273 -5.8365 -23.9479 10.4662
# 2 16.6314 37.1772 14.8037 -4.1116 -15.4562 5.3518
# 3 36.5273 14.8037 51.4654 -0.4681 -22.3778 2.3656
# 4 -5.8365 -4.1116 -0.4681 24.4227 -7.1718 -8.4029
# 5 -23.9479 -15.4562 -22.3778 -7.1718 52.9229 -0.6024
# 6 10.4662 5.3518 2.3656 -8.4029 -0.6024 29.4647
#
#
#
# Elastic Compliance Matrix: (Units=1/GPa)
#
#
# Indices 1 2 3 4 5 6 
#
# 1 0.007121 -0.000515 -0.004174 0.001393 0.001477 -0.001673
# 2 -0.000515 0.034018 -0.005640 0.006709 0.008187 -0.003463
# 3 -0.004174 -0.005640 0.027609 0.001315 0.008326 0.000836
# 4 0.001393 0.006709 0.001315 0.049698 0.010023 0.012559
# 5 0.001477 0.008187 0.008326 0.010023 0.026842 0.000727
# 6 -0.001673 -0.003463 0.000836 0.012559 0.000727 0.038692
#
#
# Mechanical properties :
#
#
# Convention : Reuss Voigt Hill
#
# Bulk Modulus (GPa) = 20.79395 44.01980 32.40688
# Shear Modulus (GPa) = 22.65850 34.18146 28.41998
#
# Velocity S-wave (km/s) = 3.27712 4.02505 3.67019
# Velocity P-wave (km/s) = 4.91682 6.51656 5.77238
#
# Compressibility (1/GPa) = 0.04809090
#
# Stress axis : x y z
#
# Youngs Moduli (GPa) = 140.42904 29.39590 36.21964
#
# Poissons Ratio (x) = 0.01512 0.15120
# Poissons Ratio (y) = 0.07225 0.20428
# Poissons Ratio (z) = 0.58622 0.16579
#
# Static dielectric constant tensor:
#      x y z
#    x 1.809820 -0.017190 0.006840 
#    y -0.017190 1.807200 -0.049140 
#    z 0.006840 -0.049140 1.834530 
# 
# From -- ./inp_files/342935.got.cif
#   From: 2010.05.17/outbox.cif.g08.bks.cpg/sg2_172_cif.got.tgz:342935.got - 2010.06.03 11:33:40.
