data_PCOD9093388
_publ_section_title
;
Structure prediction by ZEFSAII (Michael W. Deem and Ramdas Pophale) SiO2 
 PCOD9093388
Probable space group: P -1
;
_chemical_formula_sum "Si O2"
_cell_formula_units_Z 16
_cell_length_a 15.399149
_cell_length_b 9.280333
_cell_length_c 13.198664
_cell_angle_alpha 58.703985
_cell_angle_beta 154.133099
_cell_angle_gamma 110.132605
_cell_volume 663.659620
_symmetry_space_group_name_H-M "P -1"
_symmetry_group_IT_number 2
_symmetry_cell_setting 'triclinic'
loop_
_space_group_symop_operation_xyz
x,y,z
-x,-y,-z
loop_
_atom_site_type_symbol
_atom_site_label
_atom_site_fract_x
_atom_site_fract_y
_atom_site_fract_z
Si Si1 0.378539 0.921941 0.557759
Si Si2 0.274135 0.575590 0.561447
Si Si3 0.650840 0.217932 0.073965
Si Si4 0.138418 0.679366 0.149740
Si Si5 0.346770 0.111225 0.663027
Si Si6 0.305595 0.953985 0.236015
Si Si7 0.708916 0.601193 0.757520
Si Si8 0.036561 0.613326 0.723998
O O1 0.315589 0.750000 0.584453
O O2 0.286250 0.983763 0.325292
O O3 0.334097 0.056319 0.555360
O O4 0.628160 0.893163 0.805169
O O5 0.237288 0.624408 0.385141
O O6 0.073807 0.512911 0.402659
O O7 0.477248 0.403659 0.856659
O O8 0.874341 0.249776 0.291305
O O9 0.648958 0.060296 0.204194
O O10 0.553862 0.165246 0.887123
O O11 0.119911 0.884164 0.030836
O O12 0.276335 0.542085 0.262318
O O13 0.913325 0.656594 0.928905
O O14 0.144697 0.272882 0.429932
O O15 0.502176 0.771473 0.488829
O O16 0.763388 0.501902 0.958472
#
# Coordination Sequence:
#
# PCOD9093388 Si02
#       8
#     2   2   2   2   2   2   2   2
#     4  10  22  39  56  83 121 156 183 234 285 333
#     4   9  20  39  57  82 120 149 187 239 274 341
#     4  10  21  40  64  85 107 150 195 238 290 331
#     4   9  19  33  54  88 111 145 192 234 275 329
#     4  10  23  39  60  87 117 141 189 251 283 329
#     4  10  21  37  56  79 121 157 187 223 279 346
#     4  10  20  32  59  87 111 150 192 232 281 332
#     4  10  20  37  62  85 113 146 192 240 282 338
#
# _framework density 24.108744000000002
#
# number of rings (size 3 to 8) (size 9 to 14) (size 15 to 20)
#    0.000    2.250    0.000    2.250    8.750    0.500 
#    0.000   16.875    0.000    0.000    0.000    0.000 
#    0.000    0.000    0.000    0.000    0.000    0.000 
#
# Total GULP energy -89403.547704 kJ/mol
# GULP energy per Si atom -5587.721731 kJ/mol
# Density = 2.405387 g / cm^3
# Si number density = 24.108744 Si / 1000 Ang^3
#
#
#
# Elastic Constant Matrix: (Units=GPa)
#
#
# Indices 1 2 3 4 5 6 
#
# 1 54.5110 19.8117 18.9514 8.5273 19.6989 16.7207
# 2 19.8117 105.8462 18.5741 6.6167 11.1656 26.3481
# 3 18.9514 18.5741 49.1426 -3.9260 8.2223 -1.4884
# 4 8.5273 6.6167 -3.9260 37.8545 10.7853 13.2887
# 5 19.6989 11.1656 8.2223 10.7853 28.7799 6.0757
# 6 16.7207 26.3481 -1.4884 13.2887 6.0757 51.4834
#
#
#
# Elastic Compliance Matrix: (Units=1/GPa)
#
#
# Indices 1 2 3 4 5 6 
#
# 1 0.029777 -0.000368 -0.008939 -0.000299 -0.015930 -0.007784
# 2 -0.000368 0.011925 -0.004192 0.000215 -0.002007 -0.005923
# 3 -0.008939 -0.004192 0.026300 0.004441 -0.002480 0.004955
# 4 -0.000299 0.000215 0.004441 0.032745 -0.011956 -0.006925
# 5 -0.015930 -0.002007 -0.002480 -0.011956 0.050941 0.003203
# 6 -0.007784 -0.005923 0.004955 -0.006925 0.003203 0.026536
#
#
# Mechanical properties :
#
#
# Convention : Reuss Voigt Hill
#
# Bulk Modulus (GPa) = 24.38700 36.01936 30.20318
# Shear Modulus (GPa) = 22.84256 33.76774 28.30515
#
# Velocity S-wave (km/s) = 3.08146 3.74658 3.43018
# Velocity P-wave (km/s) = 4.77471 5.80419 5.31444
#
# Compressibility (1/GPa) = 0.04100546
#
# Stress axis : x y z
#
# Youngs Moduli (GPa) = 33.58253 83.85855 38.02277
#
# Poissons Ratio (x) = 0.03088 0.33987
# Poissons Ratio (y) = 0.01237 0.15937
# Poissons Ratio (z) = 0.30018 0.35150
#
# Static dielectric constant tensor:
#      x y z
#    x 1.939890 0.064180 0.024440 
#    y 0.064180 2.007090 0.024870 
#    z 0.024440 0.024870 1.973820 
# 
# From -- ./inp_files/447270.got.cif
#   From: 2010.05.17/outbox.cif.g08.bks.cpg/sg2_224_cif.got.tgz:447270.got - 2010.06.03 11:33:40.
