data_PCOD9093716
_publ_section_title
;
Structure prediction by ZEFSAII (Michael W. Deem and Ramdas Pophale) SiO2 
 PCOD9093716
Probable space group: P -1
;
_chemical_formula_sum "Si O2"
_cell_formula_units_Z 16
_cell_length_a 6.118519
_cell_length_b 11.323286
_cell_length_c 19.915566
_cell_angle_alpha 135.228125
_cell_angle_beta 56.464612
_cell_angle_gamma 112.989173
_cell_volume 810.004859
_symmetry_space_group_name_H-M "P -1"
_symmetry_group_IT_number 2
_symmetry_cell_setting 'triclinic'
loop_
_space_group_symop_operation_xyz
x,y,z
-x,-y,-z
loop_
_atom_site_type_symbol
_atom_site_label
_atom_site_fract_x
_atom_site_fract_y
_atom_site_fract_z
Si Si1 0.246216 0.876554 0.420753
Si Si2 0.459864 0.340923 0.488754
Si Si3 0.255777 0.258706 0.231853
Si Si4 0.317008 0.106538 0.301316
Si Si5 0.996758 0.536697 0.298439
Si Si6 0.848846 0.257521 0.110434
Si Si7 0.241504 0.920177 0.597142
Si Si8 0.120429 0.001744 0.874666
O O1 0.185402 0.695947 0.326942
O O2 0.267974 0.865799 0.493313
O O3 0.515910 0.956792 0.381377
O O4 0.000000 0.000000 0.500000
O O5 0.500000 0.500000 0.500000
O O6 0.316072 0.210029 0.411921
O O7 0.717500 0.246054 0.432121
O O8 0.283587 0.389710 0.601603
O O9 0.311872 0.238473 0.293224
O O10 0.090380 0.414340 0.293910
O O11 0.539657 0.270591 0.152697
O O12 0.095154 0.091429 0.171911
O O13 0.044336 0.007042 0.308790
O O14 0.588518 0.004912 0.208333
O O15 0.960924 0.425465 0.193198
O O16 0.861778 0.119887 0.112465
O O17 0.015322 0.179899 0.990122
#
# Coordination Sequence:
#
# PCOD9093716 Si02
#       8
#     2   2   2   2   2   2   2   2
#     4  11  23  41  59  79 116 155 205 246 276 337
#     4  12  23  35  55  87 126 150 185 235 292 356
#     4  10  20  33  56  86 116 157 187 233 292 347
#     4  11  21  35  55  83 119 153 191 232 289 349
#     4  11  22  35  55  85 118 148 195 241 288 338
#     4   9  19  33  55  80 115 152 192 237 287 342
#     4  11  23  38  59  82 111 163 197 234 290 338
#     4   9  18  35  52  81 116 152 192 236 284 345
#
# _framework density 19.752967000000002
#
# number of rings (size 3 to 8) (size 9 to 14) (size 15 to 20)
#    0.000    1.500    2.500    4.125    3.500    2.000 
#    0.000    0.000    0.000    0.750    0.000    7.000 
#    0.000    0.000    0.000    0.000    0.000    0.000 
#
# Total GULP energy -89317.250645 kJ/mol
# GULP energy per Si atom -5582.328165 kJ/mol
# Density = 1.970801 g / cm^3
# Si number density = 19.752967 Si / 1000 Ang^3
#
#
#
# Elastic Constant Matrix: (Units=GPa)
#
#
# Indices 1 2 3 4 5 6 
#
# 1 95.4481 34.3219 43.7262 10.6196 -5.1254 22.7734
# 2 34.3219 68.1253 36.1420 1.8789 0.4343 24.5152
# 3 43.7262 36.1420 114.2459 18.7318 0.0745 29.1399
# 4 10.6196 1.8789 18.7318 11.5423 6.4911 1.1765
# 5 -5.1254 0.4343 0.0745 6.4911 18.9595 -7.7910
# 6 22.7734 24.5152 29.1399 1.1765 -7.7910 43.0031
#
#
#
# Elastic Compliance Matrix: (Units=1/GPa)
#
#
# Indices 1 2 3 4 5 6 
#
# 1 0.016199 -0.006665 -0.000569 -0.018265 0.009926 -0.002096
# 2 -0.006665 0.024000 -0.006080 0.020281 -0.012941 -0.008932
# 3 -0.000569 -0.006080 0.017362 -0.030613 0.008055 -0.005701
# 4 -0.018265 0.020281 -0.030613 0.188768 -0.069455 0.001107
# 5 0.009926 -0.012941 0.008055 -0.069455 0.085225 0.014003
# 6 -0.002096 -0.008932 -0.005701 0.001107 0.014003 0.035825
#
#
# Mechanical properties :
#
#
# Convention : Reuss Voigt Hill
#
# Bulk Modulus (GPa) = 32.32753 56.24438 44.28596
# Shear Modulus (GPa) = 12.36647 25.60960 18.98803
#
# Velocity S-wave (km/s) = 2.50483 3.60459 3.10381
# Velocity P-wave (km/s) = 4.97664 6.77199 5.94251
#
# Compressibility (1/GPa) = 0.03093338
#
# Stress axis : x y z
#
# Youngs Moduli (GPa) = 61.73111 41.66752 57.59583
#
# Poissons Ratio (x) = 0.27771 0.03276
# Poissons Ratio (y) = 0.41143 0.35019
# Poissons Ratio (z) = 0.03512 0.25334
#
# Static dielectric constant tensor:
#      x y z
#    x 1.755200 0.011700 0.002230 
#    y 0.011700 1.704190 -0.013270 
#    z 0.002230 -0.013270 1.689040 
# 
# From -- ./inp_files/67325.got.cif
#   From: 2010.05.17/outbox.cif.g08.bks.cpg/sg2_34_cif.got.tgz:67325.got - 2010.06.03 11:33:40.
