data_PCOD9093032
_publ_section_title
;
Structure prediction by ZEFSAII (Michael W. Deem and Ramdas Pophale) SiO2 
 PCOD9093032
Probable space group: P -1
;
_chemical_formula_sum "Si O2"
_cell_formula_units_Z 10
_cell_length_a 9.057758
_cell_length_b 27.290643
_cell_length_c 5.587685
_cell_angle_alpha 52.103539
_cell_angle_beta 128.089264
_cell_angle_gamma 157.695293
_cell_volume 408.189789
_symmetry_space_group_name_H-M "P -1"
_symmetry_group_IT_number 2
_symmetry_cell_setting 'triclinic'
loop_
_space_group_symop_operation_xyz
x,y,z
-x,-y,-z
loop_
_atom_site_type_symbol
_atom_site_label
_atom_site_fract_x
_atom_site_fract_y
_atom_site_fract_z
Si Si1 0.833160 0.043166 0.705196
Si Si2 0.166840 0.956834 0.797872
Si Si3 0.910569 0.555199 0.494975
Si Si4 0.448645 0.590339 0.927624
Si Si5 0.304758 0.803320 0.144795
O O1 0.045083 0.104896 0.480394
O O2 0.500000 0.000000 0.500000
O O3 0.065516 0.119476 0.957085
O O4 0.581458 0.906488 0.894469
O O5 0.418543 0.093513 0.670481
O O6 0.500000 0.000000 0.000000
O O7 0.669632 0.477653 0.236888
O O8 0.124693 0.683436 0.324383
O O9 0.218785 0.588246 0.704045
O O10 0.669644 0.477657 0.736471
O O11 0.917430 0.734064 0.965239
#
# Coordination Sequence:
#
# PCOD9093032 Si02
#       5
#     2   2   2   2   2
#     4   8  16  28  45  75  97 121 160 200 237 283
#     4   8  16  28  45  75  97 121 160 200 237 283
#     4  10  22  36  49  73 103 127 164 210 241 282
#     4  10  22  36  49  73 103 127 164 210 241 282
#     4  10  20  30  60  70  96 136 168 186 252 300
#
# _framework density 24.498408999999999
#
# number of rings (size 3 to 8) (size 9 to 14) (size 15 to 20)
#    1.200    1.600    0.000    1.200    5.600    0.000 
#    0.000    0.000    0.000    2.400    0.000    0.000 
#    0.000    0.000    0.000    0.000    0.000    0.000 
#
# Total GULP energy -55810.910898 kJ/mol
# GULP energy per Si atom -5581.091090 kJ/mol
# Density = 2.444265 g / cm^3
# Si number density = 24.498409 Si / 1000 Ang^3
#
#
#
# Elastic Constant Matrix: (Units=GPa)
#
#
# Indices 1 2 3 4 5 6 
#
# 1 83.2908 35.6889 71.8058 9.2401 -23.7924 -8.8663
# 2 35.6889 98.0583 40.6073 -3.9585 -10.6152 -0.1361
# 3 71.8058 40.6073 143.7480 5.5146 -58.6729 -16.6209
# 4 9.2401 -3.9585 5.5146 30.2858 -15.9783 14.8752
# 5 -23.7924 -10.6152 -58.6729 -15.9783 68.7910 4.2783
# 6 -8.8663 -0.1361 -16.6209 14.8752 4.2783 41.1771
#
#
#
# Elastic Compliance Matrix: (Units=1/GPa)
#
#
# Indices 1 2 3 4 5 6 
#
# 1 0.025039 -0.005074 -0.012344 -0.011577 -0.005661 0.005163
# 2 -0.005074 0.012979 -0.001618 0.005603 0.000404 -0.003769
# 3 -0.012344 -0.001618 0.018725 0.006278 0.012830 0.001294
# 4 -0.011577 0.005603 0.006278 0.055470 0.016448 -0.021688
# 5 -0.005661 0.000404 0.012830 0.016448 0.027706 -0.004860
# 6 0.005163 -0.003769 0.001294 -0.021688 -0.004860 0.034246
#
#
# Mechanical properties :
#
#
# Convention : Reuss Voigt Hill
#
# Bulk Modulus (GPa) = 53.55654 69.03344 61.29499
# Shear Modulus (GPa) = 22.88729 39.85046 31.36888
#
# Velocity S-wave (km/s) = 3.05984 4.03756 3.58221
# Velocity P-wave (km/s) = 5.86449 7.06935 6.49492
#
# Compressibility (1/GPa) = 0.01867186
#
# Stress axis : x y z
#
# Youngs Moduli (GPa) = 39.93794 77.04495 53.40450
#
# Poissons Ratio (x) = 0.39095 0.65921
# Poissons Ratio (y) = 0.20266 0.08639
# Poissons Ratio (z) = 0.49298 0.12463
#
# Static dielectric constant tensor:
#      x y z
#    x 2.018660 -0.033580 0.016180 
#    y -0.033580 1.806150 0.014280 
#    z 0.016180 0.014280 2.014320 
# 
# From -- ./inp_files/22546.got.cif
#   From: 2010.05.17/outbox.cif.g08.bks.cpg/sg2_12_cif.got.tgz:22546.got - 2010.06.03 11:33:40.
