data_PCOD9093022
_publ_section_title
;
Structure prediction by ZEFSAII (Michael W. Deem and Ramdas Pophale) SiO2 
 PCOD9093022
Probable space group: P -1
;
_chemical_formula_sum "Si O2"
_cell_formula_units_Z 16
_cell_length_a 15.141738
_cell_length_b 14.451225
_cell_length_c 5.295687
_cell_angle_alpha 107.142939
_cell_angle_beta 95.495932
_cell_angle_gamma 50.778143
_cell_volume 851.381373
_symmetry_space_group_name_H-M "P -1"
_symmetry_group_IT_number 2
_symmetry_cell_setting 'triclinic'
loop_
_space_group_symop_operation_xyz
x,y,z
-x,-y,-z
loop_
_atom_site_type_symbol
_atom_site_label
_atom_site_fract_x
_atom_site_fract_y
_atom_site_fract_z
Si Si1 0.869418 0.095330 0.639292
Si Si2 0.732557 0.489404 0.947448
Si Si3 0.119676 0.333560 0.655383
Si Si4 0.084497 0.144926 0.486191
Si Si5 0.444787 0.462743 0.763468
Si Si6 0.850869 0.570517 0.752357
Si Si7 0.932124 0.242531 0.028553
Si Si8 0.321824 0.667777 0.505366
O O1 0.874547 0.176875 0.914485
O O2 0.781059 0.189005 0.473082
O O3 0.844734 0.003415 0.646096
O O4 0.000000 0.000000 0.500000
O O5 0.764094 0.547236 0.797646
O O6 0.843604 0.391273 0.072505
O O7 0.707017 0.405108 0.736423
O O8 0.618850 0.582310 0.158884
O O9 0.150324 0.200140 0.521831
O O10 0.169709 0.365280 0.470800
O O11 0.980563 0.437704 0.675790
O O12 0.149684 0.352140 0.955393
O O13 0.025001 0.187122 0.781327
O O14 0.987907 0.209097 0.291592
O O15 0.345726 0.595150 0.711258
O O16 0.554650 0.366493 0.540380
O O17 0.500000 0.500000 0.000000
#
# Coordination Sequence:
#
# PCOD9093022 Si02
#       8
#     2   2   2   2   2   2   2   2
#     4   9  20  34  52  82 112 149 181 219 262 335
#     4  10  20  30  54  77 102 146 175 229 276 326
#     4  10  21  33  48  71 109 144 186 226 269 320
#     4  11  20  36  49  74 109 155 176 221 268 321
#     4   9  19  34  55  77 110 139 179 226 275 322
#     4  10  21  33  49  75 103 143 185 230 272 319
#     4  10  21  31  51  77 111 140 189 212 264 327
#     4   9  19  37  52  81 113 141 178 223 271 332
#
# _framework density 18.792988999999999
#
# number of rings (size 3 to 8) (size 9 to 14) (size 15 to 20)
#    0.000    2.250    1.250    1.125   10.500    0.000 
#    6.750    0.000    0.000    0.000    0.000    1.750 
#    0.000    0.000    0.000    0.000    0.000    0.000 
#
# Total GULP energy -89180.103060 kJ/mol
# GULP energy per Si atom -5573.756441 kJ/mol
# Density = 1.875022 g / cm^3
# Si number density = 18.792989 Si / 1000 Ang^3
#
#
#
# Elastic Constant Matrix: (Units=GPa)
#
#
# Indices 1 2 3 4 5 6 
#
# 1 96.9583 34.5682 14.6842 4.7278 -26.5564 20.5422
# 2 34.5682 85.7702 22.9165 -8.1840 2.9389 8.3445
# 3 14.6842 22.9165 57.7210 -12.9073 -3.5799 4.3380
# 4 4.7278 -8.1840 -12.9073 22.6823 3.2796 4.3424
# 5 -26.5564 2.9389 -3.5799 3.2796 30.5925 -1.8794
# 6 20.5422 8.3445 4.3380 4.3424 -1.8794 30.5937
#
#
#
# Elastic Compliance Matrix: (Units=1/GPa)
#
#
# Indices 1 2 3 4 5 6 
#
# 1 0.021774 -0.008916 -0.002358 -0.010235 0.020016 -0.009172
# 2 -0.008916 0.017288 -0.003559 0.007599 -0.010629 0.000044
# 3 -0.002358 -0.003559 0.022258 0.012417 -0.000579 -0.002400
# 4 -0.010235 0.007599 0.012417 0.059392 -0.014916 -0.006307
# 5 0.020016 -0.010629 -0.000579 -0.014916 0.052300 -0.005129
# 6 -0.009172 0.000044 -0.002400 -0.006307 -0.005129 0.039753
#
#
# Mechanical properties :
#
#
# Convention : Reuss Voigt Hill
#
# Bulk Modulus (GPa) = 31.58930 42.75415 37.17172
# Shear Modulus (GPa) = 19.76417 27.99242 23.87830
#
# Velocity S-wave (km/s) = 3.24648 3.86361 3.56841
# Velocity P-wave (km/s) = 5.55863 6.53473 6.06635
#
# Compressibility (1/GPa) = 0.03165629
#
# Stress axis : x y z
#
# Youngs Moduli (GPa) = 45.92641 57.84254 44.92669
#
# Poissons Ratio (x) = 0.51572 0.10592
# Poissons Ratio (y) = 0.40947 0.15989
# Poissons Ratio (z) = 0.10827 0.20585
#
# Static dielectric constant tensor:
#      x y z
#    x 1.716700 0.004480 -0.032500 
#    y 0.004480 1.668490 -0.000040 
#    z -0.032500 -0.000040 1.737670 
# 
# From -- ./inp_files/96621.got.cif
#   From: 2010.05.17/outbox.cif.g08.bks.cpg/sg2_49_cif.got.tgz:96621.got - 2010.06.03 11:33:40.
