data_PCOD9093547
_publ_section_title
;
Structure prediction by ZEFSAII (Michael W. Deem and Ramdas Pophale) SiO2 
 PCOD9093547
Probable space group: P -1
;
_chemical_formula_sum "Si O2"
_cell_formula_units_Z 16
_cell_length_a 5.234213
_cell_length_b 5.258882
_cell_length_c 22.052874
_cell_angle_alpha 111.853568
_cell_angle_beta 79.248262
_cell_angle_gamma 99.431027
_cell_volume 550.541433
_symmetry_space_group_name_H-M "P -1"
_symmetry_group_IT_number 2
_symmetry_cell_setting 'triclinic'
loop_
_space_group_symop_operation_xyz
x,y,z
-x,-y,-z
loop_
_atom_site_type_symbol
_atom_site_label
_atom_site_fract_x
_atom_site_fract_y
_atom_site_fract_z
Si Si1 0.230817 0.252664 0.585678
Si Si2 0.977959 0.496987 0.836132
Si Si3 0.160921 0.294759 0.334040
Si Si4 0.726046 0.736732 0.084564
Si Si5 0.196552 0.269845 0.459739
Si Si6 0.450611 0.024097 0.212323
Si Si7 0.255707 0.207979 0.708148
Si Si8 0.699537 0.774168 0.959978
O O1 0.361529 0.266166 0.514261
O O2 0.394210 0.219925 0.637227
O O3 0.061471 0.502339 0.631932
O O4 0.003166 0.003582 0.563158
O O5 0.760472 0.240496 0.811424
O O6 0.851284 0.768643 0.888503
O O7 0.122557 0.402945 0.881669
O O8 0.162789 0.482293 0.767823
O O9 0.323106 0.318902 0.392094
O O10 0.316616 0.293033 0.263562
O O11 0.004081 0.992619 0.313134
O O12 0.625140 0.009695 0.143162
O O13 0.476038 0.518729 0.062846
O O14 0.859817 0.777026 0.016584
O O15 0.000000 0.500000 0.500000
O O16 0.604300 0.941952 0.258106
O O17 0.500000 0.000000 0.000000
#
# Coordination Sequence:
#
# PCOD9093547 Si02
#       8
#     2   2   2   2   2   2   2   2
#     4   9  16  29  52  75  98 131 166 204 249 294
#     4   9  18  35  53  70 101 137 164 201 250 295
#     4   9  17  31  51  73  98 129 164 205 251 295
#     4   9  19  36  53  72 102 134 163 201 249 297
#     4   8  15  29  51  75  99 131 167 201 246 299
#     4   9  18  34  52  71 100 133 165 205 248 293
#     4   9  18  33  50  71 100 131 165 205 248 295
#     4  10  20  33  53  79 101 127 167 208 245 292
#
# _framework density 29.062301000000001
#
# number of rings (size 3 to 8) (size 9 to 14) (size 15 to 20)
#    0.000    3.000    0.000    0.375    0.000    1.500 
#    0.000   15.625    0.000   25.500    0.000    0.000 
#    0.000    0.000    0.000    0.000    0.000    0.000 
#
# Total GULP energy -89540.712729 kJ/mol
# GULP energy per Si atom -5596.294546 kJ/mol
# Density = 2.899615 g / cm^3
# Si number density = 29.062301 Si / 1000 Ang^3
#
#
#
# Elastic Constant Matrix: (Units=GPa)
#
#
# Indices 1 2 3 4 5 6 
#
# 1 66.5324 7.2397 51.4009 -17.2794 2.7453 -0.8931
# 2 7.2397 72.1498 56.0224 4.1007 -9.0115 -7.6621
# 3 51.4009 56.0224 243.6273 7.0467 13.9455 -6.3694
# 4 -17.2794 4.1007 7.0467 67.8569 -9.1170 -4.7713
# 5 2.7453 -9.0115 13.9455 -9.1170 60.8260 -11.4875
# 6 -0.8931 -7.6621 -6.3694 -4.7713 -11.4875 57.5088
#
#
#
# Elastic Compliance Matrix: (Units=1/GPa)
#
#
# Indices 1 2 3 4 5 6 
#
# 1 0.020034 0.001690 -0.004846 0.005754 0.001465 0.000770
# 2 0.001690 0.018166 -0.004725 0.000604 0.004325 0.002837
# 3 -0.004846 -0.004725 0.006389 -0.001974 -0.002361 -0.000633
# 4 0.005754 0.000604 -0.001974 0.016941 0.003198 0.001996
# 5 0.001465 0.004325 -0.002361 0.003198 0.018861 0.004370
# 6 0.000770 0.002837 -0.000633 0.001996 0.004370 0.018747
#
#
# Mechanical properties :
#
#
# Convention : Reuss Voigt Hill
#
# Bulk Modulus (GPa) = 34.68776 67.95950 51.32363
# Shear Modulus (GPa) = 40.15791 55.08145 47.61968
#
# Velocity S-wave (km/s) = 3.72127 4.35821 4.05228
# Velocity P-wave (km/s) = 5.51592 6.98285 6.29228
#
# Compressibility (1/GPa) = 0.02882861
#
# Stress axis : x y z
#
# Youngs Moduli (GPa) = 49.91494 55.04713 156.51611
#
# Poissons Ratio (x) = -0.09302 0.75841
# Poissons Ratio (y) = -0.08435 0.73949
# Poissons Ratio (z) = 0.24186 0.26008
#
# Static dielectric constant tensor:
#      x y z
#    x 2.295000 0.019900 -0.085020 
#    y 0.019900 2.305540 -0.074050 
#    z -0.085020 -0.074050 2.264930 
# 
# From -- ./inp_files/14311.got.cif
#   From: 2010.05.17/outbox.cif.g08.bks.cpg/sg2_8_cif.got.tgz:14311.got - 2010.06.03 11:33:40.
