data_PCOD9093155
_publ_section_title
;
Structure prediction by ZEFSAII (Michael W. Deem and Ramdas Pophale) SiO2 
 PCOD9093155
Probable space group: P -1
;
_chemical_formula_sum "Si O2"
_cell_formula_units_Z 15
_cell_length_a 6.019465
_cell_length_b 7.264648
_cell_length_c 18.650617
_cell_angle_alpha 92.428250
_cell_angle_beta 92.928469
_cell_angle_gamma 39.208593
_cell_volume 514.885905
_symmetry_space_group_name_H-M "P -1"
_symmetry_group_IT_number 2
_symmetry_cell_setting 'triclinic'
loop_
_space_group_symop_operation_xyz
x,y,z
-x,-y,-z
loop_
_atom_site_type_symbol
_atom_site_label
_atom_site_fract_x
_atom_site_fract_y
_atom_site_fract_z
Si Si1 0.102025 0.331628 0.569397
Si Si2 0.173624 0.005625 0.352888
Si Si3 0.144477 0.669668 0.956027
Si Si4 0.196734 0.564867 0.299646
Si Si5 0.517564 0.454611 0.172212
Si Si6 0.472345 0.915360 0.217108
Si Si7 0.000000 0.000000 0.500000
Si Si8 0.803313 0.796918 0.085498
O O1 0.459103 0.178654 0.605681
O O2 0.115273 0.112230 0.542515
O O3 0.000000 0.500000 0.500000
O O4 0.804833 0.544311 0.628704
O O5 0.192747 0.781305 0.324629
O O6 0.177714 0.116876 0.278812
O O7 0.922372 0.168857 0.421376
O O8 0.166369 0.766343 0.882995
O O9 0.168931 0.437451 0.935297
O O10 0.500000 0.500000 0.000000
O O11 0.828015 0.890404 0.011736
O O12 0.507896 0.345733 0.243839
O O13 0.834532 0.742429 0.258344
O O14 0.499344 0.682068 0.194574
O O15 0.160123 0.627602 0.128899
O O16 0.490265 0.012861 0.142595
#
# Coordination Sequence:
#
# PCOD9093155 Si02
#       8
#     2   2   2   2   2   2   1   2
#     4  10  20  33  49  68  90 117 150 187 226 270
#     4   9  17  30  45  63  86 113 147 183 223 269
#     4   8  12  16  24  40  65  97 135 175 213 255
#     4   8  15  25  39  57  77 106 142 176 216 264
#     4   8  12  19  30  45  69 100 136 175 212 257
#     4   8  13  22  35  51  74 104 140 177 214 261
#     4  10  20  32  48  68  90 116 148 186 228 270
#     4   8  12  17  26  43  66  98 138 174 213 257
#
# _framework density 29.132669
#
# number of rings (size 3 to 8) (size 9 to 14) (size 15 to 20)
#    0.000    3.467    0.000    0.400    0.000    2.133 
#    0.000    0.000    0.000    0.000    0.000    0.000 
#    0.000    0.000    0.000    1.200    0.000  949.733 
#
# Total GULP energy -83729.566155 kJ/mol
# GULP energy per Si atom -5581.971077 kJ/mol
# Density = 2.906636 g / cm^3
# Si number density = 29.132669 Si / 1000 Ang^3
#
#
#
# Elastic Constant Matrix: (Units=GPa)
#
#
# Indices 1 2 3 4 5 6 
#
# 1 203.7057 56.0412 84.8378 4.9776 22.4803 -0.3566
# 2 56.0412 89.6353 44.7138 -9.8682 20.3934 14.7562
# 3 84.8378 44.7138 220.1987 1.7693 -59.7544 5.3418
# 4 4.9776 -9.8682 1.7693 32.0132 25.1543 12.4447
# 5 22.4803 20.3934 -59.7544 25.1543 125.3893 16.9379
# 6 -0.3566 14.7562 5.3418 12.4447 16.9379 39.7742
#
#
#
# Elastic Compliance Matrix: (Units=1/GPa)
#
#
# Indices 1 2 3 4 5 6 
#
# 1 0.007269 -0.003308 -0.002794 -0.001441 -0.002222 0.003065
# 2 -0.003308 0.020366 -0.004650 0.015996 -0.006926 -0.009016
# 3 -0.002794 -0.004650 0.008414 -0.006589 0.006614 -0.000185
# 4 -0.001441 0.015996 -0.006589 0.054100 -0.014182 -0.015950
# 5 -0.002222 -0.006926 0.006614 -0.014182 0.015569 -0.000531
# 6 0.003065 -0.009016 -0.000185 -0.015950 -0.000531 0.033756
#
#
# Mechanical properties :
#
#
# Convention : Reuss Voigt Hill
#
# Bulk Modulus (GPa) = 68.76118 98.30281 83.53200
# Shear Modulus (GPa) = 30.15188 61.29848 45.72518
#
# Velocity S-wave (km/s) = 3.22061 4.59204 3.96605
# Velocity P-wave (km/s) = 6.12240 7.86970 7.05039
#
# Compressibility (1/GPa) = 0.01454309
#
# Stress axis : x y z
#
# Youngs Moduli (GPa) = 137.57590 49.10211 118.84304
#
# Poissons Ratio (x) = 0.16245 0.33208
# Poissons Ratio (y) = 0.45516 0.55264
# Poissons Ratio (z) = 0.38443 0.22833
#
# Static dielectric constant tensor:
#      x y z
#    x 2.269420 -0.041770 -0.126850 
#    y -0.041770 2.272200 0.026200 
#    z -0.126850 0.026200 2.431140 
# 
# From -- ./inp_files/42238.got.cif
#   From: 2010.05.17/outbox.cif.g08.bks.cpg/sg2_22_cif.got.tgz:42238.got - 2010.06.03 11:33:40.
