data_PCOD9093060
_publ_section_title
;
Structure prediction by ZEFSAII (Michael W. Deem and Ramdas Pophale) SiO2 
 PCOD9093060
Probable space group: P -1
;
_chemical_formula_sum "Si O2"
_cell_formula_units_Z 16
_cell_length_a 15.266621
_cell_length_b 24.281157
_cell_length_c 16.219318
_cell_angle_alpha 163.854356
_cell_angle_beta 154.097262
_cell_angle_gamma 25.058554
_cell_volume 685.727804
_symmetry_space_group_name_H-M "P -1"
_symmetry_group_IT_number 2
_symmetry_cell_setting 'triclinic'
loop_
_space_group_symop_operation_xyz
x,y,z
-x,-y,-z
loop_
_atom_site_type_symbol
_atom_site_label
_atom_site_fract_x
_atom_site_fract_y
_atom_site_fract_z
Si Si1 0.188122 0.070743 0.797006
Si Si2 0.334540 0.420499 0.792611
Si Si3 0.227915 0.855611 0.782024
Si Si4 0.418411 0.550138 0.811242
Si Si5 0.196384 0.044781 0.340536
Si Si6 0.884575 0.698127 0.761251
Si Si7 0.587365 0.037693 0.756917
Si Si8 0.502647 0.698749 0.634126
O O1 0.366465 0.862283 0.684292
O O2 0.101873 0.209000 0.003094
O O3 0.310375 0.206658 0.046594
O O4 0.000000 0.000000 0.500000
O O5 0.423214 0.170176 0.506937
O O6 0.110495 0.508396 0.681812
O O7 0.500000 0.500000 0.000000
O O8 0.360660 0.482022 0.999143
O O9 0.156789 0.099056 0.039953
O O10 0.386599 0.822437 0.945490
O O11 0.016728 0.838698 0.621805
O O12 0.347900 0.716010 0.605563
O O13 0.307533 0.392017 0.526262
O O14 0.423118 0.511488 0.661105
O O15 0.270601 0.791198 0.051552
O O16 0.381485 0.122226 0.646075
O O17 0.210720 0.055180 0.268269
#
# Coordination Sequence:
#
# PCOD9093060 Si02
#       8
#     2   2   2   2   2   2   2   2
#     4   9  17  31  49  71 110 152 177 210 271 332
#     4  11  21  33  56  85 111 141 179 227 274 321
#     4  11  21  35  56  82 112 142 181 231 275 323
#     4  10  20  37  55  78 114 146 180 226 274 321
#     4  10  22  39  59  77 104 149 189 227 273 322
#     4  10  20  31  50  82 111 140 178 219 271 329
#     4  10  22  38  56  80 109 143 186 226 273 331
#     4   9  20  33  51  80 109 143 183 224 272 330
#
# _framework density 23.332872999999999
#
# number of rings (size 3 to 8) (size 9 to 14) (size 15 to 20)
#    0.000    2.000    0.000    4.875    0.000    4.500 
#    0.000    0.625    0.000    6.750    0.000    0.000 
#    0.000    0.000    0.000    0.000    0.000    0.000 
#
# Total GULP energy -89287.576110 kJ/mol
# GULP energy per Si atom -5580.473507 kJ/mol
# Density = 2.327977 g / cm^3
# Si number density = 23.332873 Si / 1000 Ang^3
#
#
#
# Elastic Constant Matrix: (Units=GPa)
#
#
# Indices 1 2 3 4 5 6 
#
# 1 130.7003 3.3007 22.5186 -6.2878 -17.6900 -13.0372
# 2 3.3007 41.9011 22.5857 -15.0212 -3.4988 4.1004
# 3 22.5186 22.5857 86.7350 -35.8111 -13.7390 -11.9733
# 4 -6.2878 -15.0212 -35.8111 34.3027 1.3627 4.2744
# 5 -17.6900 -3.4988 -13.7390 1.3627 39.4465 6.8470
# 6 -13.0372 4.1004 -11.9733 4.2744 6.8470 33.3995
#
#
#
# Elastic Compliance Matrix: (Units=1/GPa)
#
#
# Indices 1 2 3 4 5 6 
#
# 1 0.008524 0.000069 -0.001715 -0.000585 0.002871 0.002190
# 2 0.000069 0.030618 -0.004892 0.009114 0.001952 -0.007052
# 3 -0.001715 -0.004892 0.023558 0.021357 0.005480 0.004520
# 4 -0.000585 0.009114 0.021357 0.055337 0.006436 -0.002093
# 5 0.002871 0.001952 0.005480 0.006436 0.029185 -0.003961
# 6 0.002190 -0.007052 0.004520 -0.002093 -0.003961 0.034361
#
#
# Mechanical properties :
#
#
# Convention : Reuss Voigt Hill
#
# Bulk Modulus (GPa) = 20.15204 39.57185 29.86194
# Shear Modulus (GPa) = 23.67410 35.49182 29.58296
#
# Velocity S-wave (km/s) = 3.18877 3.90437 3.56457
# Velocity P-wave (km/s) = 4.71309 6.10917 5.45597
#
# Compressibility (1/GPa) = 0.04962278
#
# Stress axis : x y z
#
# Youngs Moduli (GPa) = 117.31816 32.66087 42.44810
#
# Poissons Ratio (x) = -0.00225 0.07282
# Poissons Ratio (y) = -0.00808 0.20765
# Poissons Ratio (z) = 0.20125 0.15977
#
# Static dielectric constant tensor:
#      x y z
#    x 1.912830 -0.033380 -0.050960 
#    y -0.033380 1.927360 0.017410 
#    z -0.050960 0.017410 1.917420 
# 
# From -- ./inp_files/465461.got.cif
#   From: 2010.05.17/outbox.cif.g08.bks.cpg/sg2_233_cif.got.tgz:465461.got - 2010.06.03 11:33:40.
