data_PCOD9093448
_publ_section_title
;
Structure prediction by ZEFSAII (Michael W. Deem and Ramdas Pophale) SiO2 
 PCOD9093448
Probable space group: P -1
;
_chemical_formula_sum "Si O2"
_cell_formula_units_Z 16
_cell_length_a 12.858588
_cell_length_b 5.459171
_cell_length_c 13.324272
_cell_angle_alpha 125.879578
_cell_angle_beta 62.982435
_cell_angle_gamma 107.975021
_cell_volume 673.979239
_symmetry_space_group_name_H-M "P -1"
_symmetry_group_IT_number 2
_symmetry_cell_setting 'triclinic'
loop_
_space_group_symop_operation_xyz
x,y,z
-x,-y,-z
loop_
_atom_site_type_symbol
_atom_site_label
_atom_site_fract_x
_atom_site_fract_y
_atom_site_fract_z
Si Si1 0.611661 0.864209 0.858575
Si Si2 0.900678 0.211954 0.062356
Si Si3 0.634347 0.115926 0.487526
Si Si4 0.881434 0.942408 0.803683
Si Si5 0.728087 0.671607 0.477255
Si Si6 0.014018 0.371086 0.702637
Si Si7 0.463369 0.717757 0.160275
Si Si8 0.320264 0.908163 0.753094
O O1 0.741735 0.878173 0.849872
O O2 0.572696 0.512508 0.791597
O O3 0.624569 0.066305 0.802065
O O4 0.500000 0.000000 0.000000
O O5 0.925146 0.501937 0.190310
O O6 0.782628 0.043843 0.114456
O O7 0.898699 0.210861 0.943874
O O8 0.000000 0.000000 0.000000
O O9 0.683113 0.985710 0.536676
O O10 0.699694 0.987824 0.327897
O O11 0.500000 0.000000 0.500000
O O12 0.668404 0.473114 0.544521
O O13 0.945175 0.641267 0.743260
O O14 0.933775 0.083242 0.709907
O O15 0.868881 0.690412 0.426764
O O16 0.678671 0.450499 0.353727
O O17 0.566042 0.938190 0.211257
O O18 0.500000 0.500000 0.000000
#
# Coordination Sequence:
#
# PCOD9093448 Si02
#       8
#     2   2   2   2   2   2   2   2
#     4  10  21  33  47  66  97 139 187 227 249 288
#     4   9  18  31  45  72 101 144 174 207 246 311
#     4  10  20  36  57  80 110 138 169 215 272 329
#     4  11  20  33  47  68 102 144 186 211 252 297
#     4   9  20  34  55  79 111 135 171 213 270 321
#     4  10  20  33  49  71 103 139 176 214 254 316
#     4  10  20  34  48  69 101 142 184 214 256 297
#     4   9  21  33  53  75 110 145 174 215 263 304
#
# _framework density 23.739604
#
# number of rings (size 3 to 8) (size 9 to 14) (size 15 to 20)
#    0.750    1.500    0.000    3.750    3.500    3.000 
#    4.500    0.000    0.000    0.000    0.000    0.000 
#    0.000   20.000    0.000    0.000    0.000    0.000 
#
# Total GULP energy -89125.207594 kJ/mol
# GULP energy per Si atom -5570.325475 kJ/mol
# Density = 2.368557 g / cm^3
# Si number density = 23.739604 Si / 1000 Ang^3
#
#
#
# Elastic Constant Matrix: (Units=GPa)
#
#
# Indices 1 2 3 4 5 6 
#
# 1 71.6382 25.5408 31.7292 1.6288 -29.7959 -13.4649
# 2 25.5408 136.1287 53.8144 -16.5301 -27.6337 -38.1391
# 3 31.7292 53.8144 88.9428 -17.4914 -10.5440 -15.2071
# 4 1.6288 -16.5301 -17.4914 44.2046 1.3965 2.0913
# 5 -29.7959 -27.6337 -10.5440 1.3965 38.0006 -6.2590
# 6 -13.4649 -38.1391 -15.2071 2.0913 -6.2590 41.4743
#
#
#
# Elastic Compliance Matrix: (Units=1/GPa)
#
#
# Indices 1 2 3 4 5 6 
#
# 1 0.034581 0.011564 -0.011841 -0.003875 0.036198 0.023177
# 2 0.011564 0.020661 -0.009359 0.001709 0.025227 0.023043
# 3 -0.011841 -0.009359 0.019488 0.005380 -0.012100 -0.007403
# 4 -0.003875 0.001709 0.005380 0.025528 -0.001104 0.000833
# 5 0.036198 0.025227 -0.012100 -0.001104 0.076666 0.042139
# 6 0.023177 0.023043 -0.007403 0.000833 0.042139 0.056429
#
#
# Mechanical properties :
#
#
# Convention : Reuss Voigt Hill
#
# Bulk Modulus (GPa) = 18.03224 57.65318 37.84271
# Shear Modulus (GPa) = 18.44262 37.11091 27.77677
#
# Velocity S-wave (km/s) = 2.79027 3.95808 3.42433
# Velocity P-wave (km/s) = 4.24183 6.72510 5.62228
#
# Compressibility (1/GPa) = 0.05545622
#
# Stress axis : x y z
#
# Youngs Moduli (GPa) = 28.91798 48.40104 51.31343
#
# Poissons Ratio (x) = -0.55970 0.60761
# Poissons Ratio (y) = -0.33440 0.48026
# Poissons Ratio (z) = 0.34242 0.45301
#
# Static dielectric constant tensor:
#      x y z
#    x 1.893320 -0.015350 0.107460 
#    y -0.015350 2.013770 -0.051870 
#    z 0.107460 -0.051870 2.077220 
# 
# From -- ./inp_files/592369.got.cif
#   From: 2010.05.17/outbox.cif.g08.bks.cpg/sg2_297_cif.got.tgz:592369.got - 2010.06.03 11:33:40.
