data_PCOD9093757
_publ_section_title
;
Structure prediction by ZEFSAII (Michael W. Deem and Ramdas Pophale) SiO2 
 PCOD9093757
Probable space group: P -1
;
_chemical_formula_sum "Si O2"
_cell_formula_units_Z 14
_cell_length_a 9.767310
_cell_length_b 15.553622
_cell_length_c 9.395923
_cell_angle_alpha 38.716588
_cell_angle_beta 135.064853
_cell_angle_gamma 110.441290
_cell_volume 559.997100
_symmetry_space_group_name_H-M "P -1"
_symmetry_group_IT_number 2
_symmetry_cell_setting 'triclinic'
loop_
_space_group_symop_operation_xyz
x,y,z
-x,-y,-z
loop_
_atom_site_type_symbol
_atom_site_label
_atom_site_fract_x
_atom_site_fract_y
_atom_site_fract_z
Si Si1 0.642894 0.636157 0.922903
Si Si2 0.240906 0.553225 0.248469
Si Si3 0.492251 0.157512 0.698766
Si Si4 0.104851 0.292080 0.453338
Si Si5 0.168997 0.719814 0.495811
Si Si6 0.086469 0.846986 0.958386
Si Si7 0.358639 0.067976 0.445837
O O1 0.583829 0.679281 0.655680
O O2 0.408095 0.696764 0.748723
O O3 0.748337 0.745670 0.901814
O O4 0.781632 0.455911 0.276339
O O5 0.500000 0.500000 0.500000
O O6 0.185816 0.411582 0.425156
O O7 0.139839 0.693455 0.105199
O O8 0.108306 0.618256 0.919690
O O9 0.300229 0.188027 0.625953
O O10 0.724012 0.110103 0.999412
O O11 0.500403 0.049831 0.712945
O O12 0.020630 0.217505 0.609219
O O13 0.111495 0.816512 0.185214
O O14 0.834376 0.969914 0.602723
O O15 0.500000 0.000000 0.500000
#
# Coordination Sequence:
#
# PCOD9093757 Si02
#       7
#     2   2   2   2   2   2   2
#     4   8  18  35  51  83 113 151 170 232 279 333
#     4  11  21  31  54  83 117 156 191 214 276 348
#     4   9  19  37  54  82 113 146 195 228 273 331
#     4  11  20  34  52  81 122 152 174 236 280 339
#     4  10  20  33  57  85 126 141 173 230 301 345
#     4  11  21  37  57  89 111 150 189 229 282 349
#     4  10  21  39  61  81 106 150 203 241 268 316
#
# _framework density 25.000129000000001
#
# number of rings (size 3 to 8) (size 9 to 14) (size 15 to 20)
#    0.857    1.143    2.857    2.571    4.000    2.857 
#    0.000    0.000    0.000    1.714    0.000    0.000 
#    0.000    0.000    0.000    0.000    0.000    0.000 
#
# Total GULP energy -78248.726147 kJ/mol
# GULP energy per Si atom -5589.194725 kJ/mol
# Density = 2.494323 g / cm^3
# Si number density = 25.000129 Si / 1000 Ang^3
#
#
#
# Elastic Constant Matrix: (Units=GPa)
#
#
# Indices 1 2 3 4 5 6 
#
# 1 162.7625 47.7862 54.5008 -2.0122 41.9750 -24.1525
# 2 47.7862 86.4155 30.6707 11.3062 35.4936 -14.4093
# 3 54.5008 30.6707 81.7661 13.8295 37.4210 0.6218
# 4 -2.0122 11.3062 13.8295 20.4019 8.3745 4.0146
# 5 41.9750 35.4936 37.4210 8.3745 57.2330 -12.4637
# 6 -24.1525 -14.4093 0.6218 4.0146 -12.4637 40.4954
#
#
#
# Elastic Compliance Matrix: (Units=1/GPa)
#
#
# Indices 1 2 3 4 5 6 
#
# 1 0.010141 -0.002968 -0.005967 0.006683 -0.001833 0.003857
# 2 -0.002968 0.017625 -0.000254 -0.007741 -0.006759 0.003192
# 3 -0.005967 -0.000254 0.022767 -0.010525 -0.010135 -0.006075
# 4 0.006683 -0.007741 -0.010525 0.063913 -0.003910 -0.006146
# 5 -0.001833 -0.006759 -0.010135 -0.003910 0.031688 0.006798
# 6 0.003857 0.003192 -0.006075 -0.006146 0.006798 0.030925
#
#
# Mechanical properties :
#
#
# Convention : Reuss Voigt Hill
#
# Bulk Modulus (GPa) = 31.09949 66.31774 48.70861
# Shear Modulus (GPa) = 24.25346 36.82516 30.53931
#
# Velocity S-wave (km/s) = 3.11808 3.84213 3.49888
# Velocity P-wave (km/s) = 5.04281 6.80200 5.98737
#
# Compressibility (1/GPa) = 0.03215487
#
# Stress axis : x y z
#
# Youngs Moduli (GPa) = 98.60795 56.73764 43.92273
#
# Poissons Ratio (x) = 0.16842 0.26207
# Poissons Ratio (y) = 0.29271 0.01116
# Poissons Ratio (z) = 0.58837 0.01442
#
# Static dielectric constant tensor:
#      x y z
#    x 1.992930 0.056110 -0.006030 
#    y 0.056110 2.014570 -0.034520 
#    z -0.006030 -0.034520 2.057150 
# 
# From -- ./inp_files/214800.got.cif
#   From: 2010.05.17/outbox.cif.g08.bks.cpg/sg2_108_cif.got.tgz:214800.got - 2010.06.03 11:33:40.
