data_PCOD9093006
_publ_section_title
;
Structure prediction by ZEFSAII (Michael W. Deem and Ramdas Pophale) SiO2 
 PCOD9093006
Probable space group: P -1
;
_chemical_formula_sum "Si O2"
_cell_formula_units_Z 16
_cell_length_a 5.307448
_cell_length_b 13.889733
_cell_length_c 12.229768
_cell_angle_alpha 41.042679
_cell_angle_beta 84.115293
_cell_angle_gamma 90.835986
_cell_volume 583.007740
_symmetry_space_group_name_H-M "P -1"
_symmetry_group_IT_number 2
_symmetry_cell_setting 'triclinic'
loop_
_space_group_symop_operation_xyz
x,y,z
-x,-y,-z
loop_
_atom_site_type_symbol
_atom_site_label
_atom_site_fract_x
_atom_site_fract_y
_atom_site_fract_z
Si Si1 0.637210 0.758372 0.368906
Si Si2 0.805129 0.122367 0.832784
Si Si3 0.975854 0.248093 0.363529
Si Si4 0.945094 0.260060 0.912074
Si Si5 0.518091 0.559893 0.245635
Si Si6 0.087744 0.452131 0.918959
Si Si7 0.353941 0.989345 0.275063
Si Si8 0.491539 0.164734 0.314035
O O1 0.435975 0.792802 0.255451
O O2 0.549078 0.597962 0.559102
O O3 0.574378 0.883352 0.351640
O O4 0.932136 0.785609 0.300542
O O5 0.855802 0.113159 0.968025
O O6 0.732654 0.987325 0.865508
O O7 0.240773 0.224980 0.317437
O O8 0.994770 0.413830 0.267880
O O9 0.877028 0.114154 0.564657
O O10 0.747364 0.244549 0.288343
O O11 0.720032 0.353410 0.811896
O O12 0.224072 0.347420 0.793202
O O13 0.970506 0.290009 0.016295
O O14 0.613287 0.539947 0.132402
O O15 0.000000 0.500000 0.000000
O O16 0.448537 0.135363 0.212410
O O17 0.500000 0.000000 0.500000
#
# Coordination Sequence:
#
# PCOD9093006 Si02
#       8
#     2   2   2   2   2   2   2   2
#     4  10  20  30  51  76 116 143 176 210 270 334
#     4  10  21  31  51  79 111 144 180 212 270 339
#     4  11  22  36  52  82 110 148 188 226 265 331
#     4  10  22  36  52  77 106 143 187 226 272 328
#     4  10  21  36  51  75 112 141 189 221 271 321
#     4  10  24  41  59  79 110 150 194 240 276 310
#     4   9  20  32  52  78 111 145 171 214 270 333
#     4  10  22  34  56  77 114 147 182 219 276 327
#
# _framework density 27.443888999999999
#
# number of rings (size 3 to 8) (size 9 to 14) (size 15 to 20)
#    1.500    0.500    1.250    3.000    8.750    3.500 
#    0.000    0.000    0.000    0.000    0.000    1.750 
#    0.000    0.000    0.000    0.000    0.000    0.000 
#
# Total GULP energy -89372.791724 kJ/mol
# GULP energy per Si atom -5585.799483 kJ/mol
# Density = 2.738143 g / cm^3
# Si number density = 27.443889 Si / 1000 Ang^3
#
#
#
# Elastic Constant Matrix: (Units=GPa)
#
#
# Indices 1 2 3 4 5 6 
#
# 1 216.5912 56.7148 37.5402 6.4083 -16.4839 -0.9071
# 2 56.7148 152.5338 20.4766 24.2738 -1.5711 30.4480
# 3 37.5402 20.4766 93.4135 -10.2995 -18.6355 14.2232
# 4 6.4083 24.2738 -10.2995 27.8013 4.8107 10.8585
# 5 -16.4839 -1.5711 -18.6355 4.8107 44.1462 -0.2105
# 6 -0.9071 30.4480 14.2232 10.8585 -0.2105 43.0428
#
#
#
# Elastic Compliance Matrix: (Units=1/GPa)
#
#
# Indices 1 2 3 4 5 6 
#
# 1 0.005702 -0.002114 -0.002150 -0.001560 0.001329 0.002726
# 2 -0.002114 0.009460 -0.001269 -0.006345 -0.000319 -0.004718
# 3 -0.002150 -0.001269 0.014603 0.008659 0.004344 -0.006136
# 4 -0.001560 -0.006345 0.008659 0.049825 -0.002635 -0.010988
# 5 0.001329 -0.000319 0.004344 -0.002635 0.025256 -0.000393
# 6 0.002726 -0.004718 -0.006136 -0.010988 -0.000393 0.031425
#
#
# Mechanical properties :
#
#
# Convention : Reuss Voigt Hill
#
# Bulk Modulus (GPa) = 53.47763 76.88909 65.18336
# Shear Modulus (GPa) = 32.55856 46.18517 39.37187
#
# Velocity S-wave (km/s) = 3.44811 4.10676 3.79176
# Velocity P-wave (km/s) = 5.94820 7.11090 6.55538
#
# Compressibility (1/GPa) = 0.01869941
#
# Stress axis : x y z
#
# Youngs Moduli (GPa) = 175.38304 105.70305 68.48022
#
# Poissons Ratio (x) = 0.22341 0.14723
# Poissons Ratio (y) = 0.37069 0.08692
# Poissons Ratio (z) = 0.37706 0.13417
#
# Static dielectric constant tensor:
#      x y z
#    x 2.135590 0.073100 0.018200 
#    y 0.073100 2.349610 0.102810 
#    z 0.018200 0.102810 2.137280 
# 
# From -- ./inp_files/483850.got.cif
#   From: 2010.05.17/outbox.cif.g08.bks.cpg/sg2_242_cif.got.tgz:483850.got - 2010.06.03 11:33:40.
