data_PCOD9093409
_publ_section_title
;
Structure prediction by ZEFSAII (Michael W. Deem and Ramdas Pophale) SiO2 
 PCOD9093409
Probable space group: P -1
;
_chemical_formula_sum "Si O2"
_cell_formula_units_Z 14
_cell_length_a 17.489167
_cell_length_b 23.211615
_cell_length_c 22.894981
_cell_angle_alpha 12.012383
_cell_angle_beta 18.333763
_cell_angle_gamma 20.085061
_cell_volume 600.225864
_symmetry_space_group_name_H-M "P -1"
_symmetry_group_IT_number 2
_symmetry_cell_setting 'triclinic'
loop_
_space_group_symop_operation_xyz
x,y,z
-x,-y,-z
loop_
_atom_site_type_symbol
_atom_site_label
_atom_site_fract_x
_atom_site_fract_y
_atom_site_fract_z
Si Si1 0.124772 0.114183 0.738842
Si Si2 0.508201 0.560668 0.597294
Si Si3 0.801242 0.910537 0.688247
Si Si4 0.600697 0.733812 0.230916
Si Si5 0.558257 0.142798 0.475034
Si Si6 0.123871 0.311983 0.706309
Si Si7 0.866464 0.601393 0.827078
O O1 0.402028 0.133420 0.538353
O O2 0.984801 0.419953 0.519557
O O3 0.000000 0.000000 0.000000
O O4 0.078962 0.892871 0.941227
O O5 0.501241 0.711541 0.390363
O O6 0.768971 0.564087 0.435995
O O7 0.320245 0.784216 0.548807
O O8 0.400906 0.270979 0.959689
O O9 0.900239 0.719950 0.750328
O O10 0.000000 0.000000 0.500000
O O11 0.500000 0.500000 0.500000
O O12 0.891153 0.625191 0.134697
O O13 0.500000 0.000000 0.000000
O O14 0.355985 0.123043 0.692478
O O15 0.788769 0.890730 0.560731
O O16 0.644098 0.437243 0.134715
#
# Coordination Sequence:
#
# PCOD9093409 Si02
#       7
#     2   2   2   2   2   2   2
#     4  10  20  32  60  97 138 167 202 266 326 399
#     4  12  25  43  69  93 135 173 222 276 329 403
#     4  12  24  42  66 100 127 169 219 287 339 382
#     4  12  28  49  66  92 129 181 231 270 334 405
#     4  11  20  37  63  98 133 167 213 265 333 383
#     4  11  19  37  61  98 133 168 213 261 332 392
#     4  12  23  42  67  93 131 169 221 275 324 393
#
# _framework density 23.324553999999999
#
# number of rings (size 3 to 8) (size 9 to 14) (size 15 to 20)
#    0.000    0.571    2.857    8.143    0.000    2.286 
#    0.000    0.000    0.000    5.143    0.000    0.000 
#    0.000    0.000    0.000    0.000    0.000    0.000 
#
# Total GULP energy -78090.456128 kJ/mol
# GULP energy per Si atom -5577.889723 kJ/mol
# Density = 2.327147 g / cm^3
# Si number density = 23.324554 Si / 1000 Ang^3
#
#
#
# Elastic Constant Matrix: (Units=GPa)
#
#
# Indices 1 2 3 4 5 6 
#
# 1 128.7131 26.3114 56.4702 4.9306 -36.0289 -43.2840
# 2 26.3114 65.6976 24.1005 -14.3242 -4.9107 -24.1286
# 3 56.4702 24.1005 154.9519 -24.7044 -45.0115 -13.2492
# 4 4.9306 -14.3242 -24.7044 34.6165 -18.1315 1.7330
# 5 -36.0289 -4.9107 -45.0115 -18.1315 53.2889 4.2623
# 6 -43.2840 -24.1286 -13.2492 1.7330 4.2623 37.8217
#
#
#
# Elastic Compliance Matrix: (Units=1/GPa)
#
#
# Indices 1 2 3 4 5 6 
#
# 1 0.017175 0.001435 -0.002794 -0.000800 0.007611 0.018771
# 2 0.001435 0.023510 0.001955 0.014582 0.008494 0.015700
# 3 -0.002794 0.001955 0.017350 0.024722 0.021310 0.000593
# 4 -0.000800 0.014582 0.024722 0.077007 0.047231 0.008196
# 5 0.007611 0.008494 0.021310 0.047231 0.057731 0.012924
# 6 0.018771 0.015700 0.000593 0.008196 0.012924 0.056314
#
#
# Mechanical properties :
#
#
# Convention : Reuss Voigt Hill
#
# Bulk Modulus (GPa) = 16.88410 62.56966 39.72688
# Shear Modulus (GPa) = 18.68197 41.31078 29.99637
#
# Velocity S-wave (km/s) = 2.83319 4.21304 3.59003
# Velocity P-wave (km/s) = 4.23758 7.10987 5.85266
#
# Compressibility (1/GPa) = 0.05922731
#
# Stress axis : x y z
#
# Youngs Moduli (GPa) = 58.22312 42.53575 57.63558
#
# Poissons Ratio (x) = -0.06104 0.16104
# Poissons Ratio (y) = -0.08355 -0.11268
# Poissons Ratio (z) = 0.16268 -0.08316
#
# Static dielectric constant tensor:
#      x y z
#    x 1.829940 -0.162670 -0.002470 
#    y -0.162670 1.811910 0.128760 
#    z -0.002470 0.128760 1.852040 
# 
# From -- ./inp_files/613329.got.cif
#   From: 2010.05.17/outbox.cif.g08.bks.cpg/sg2_307_cif.got.tgz:613329.got - 2010.06.03 11:33:40.
