data_PCOD9093065
_publ_section_title
;
Structure prediction by ZEFSAII (Michael W. Deem and Ramdas Pophale) SiO2 
 PCOD9093065
Probable space group: P -1
;
_chemical_formula_sum "Si O2"
_cell_formula_units_Z 16
_cell_length_a 14.908032
_cell_length_b 5.298175
_cell_length_c 17.253045
_cell_angle_alpha 78.094131
_cell_angle_beta 42.965767
_cell_angle_gamma 87.187320
_cell_volume 898.138756
_symmetry_space_group_name_H-M "P -1"
_symmetry_group_IT_number 2
_symmetry_cell_setting 'triclinic'
loop_
_space_group_symop_operation_xyz
x,y,z
-x,-y,-z
loop_
_atom_site_type_symbol
_atom_site_label
_atom_site_fract_x
_atom_site_fract_y
_atom_site_fract_z
Si Si1 0.778483 0.960787 0.644842
Si Si2 0.885695 0.532616 0.507809
Si Si3 0.100138 0.909493 0.282202
Si Si4 0.251965 0.773656 0.939069
Si Si5 0.388186 0.750754 0.097200
Si Si6 0.499566 0.324768 0.128972
Si Si7 0.892196 0.811489 0.899473
Si Si8 0.071698 0.794631 0.919902
O O1 0.798361 0.734060 0.587167
O O2 0.630477 0.895205 0.778115
O O3 0.806713 0.242595 0.568347
O O4 0.881710 0.959355 0.652044
O O5 0.000000 0.500000 0.500000
O O6 0.971978 0.685604 0.375099
O O7 0.236597 0.789194 0.196969
O O8 0.097114 0.107055 0.201509
O O9 0.172989 0.489513 0.030908
O O10 0.199242 0.998712 0.010548
O O11 0.404903 0.750744 0.860110
O O12 0.214353 0.817112 0.870258
O O13 0.432161 0.584771 0.151044
O O14 0.404668 0.623020 0.010436
O O15 0.500000 0.000000 0.000000
O O16 0.034909 0.847036 0.851232
O O17 0.000000 0.500000 0.000000
O O18 0.000000 0.000000 0.000000
#
# Coordination Sequence:
#
# PCOD9093065 Si02
#       8
#     2   2   2   2   2   2   2   2
#     4  11  23  36  50  69 101 136 173 208 240 286
#     4  10  22  37  51  68  94 136 177 211 242 278
#     4  11  20  35  54  72 103 134 171 209 250 294
#     4  10  20  32  49  74 103 134 164 194 250 307
#     4  11  21  33  45  74 109 134 161 205 247 299
#     4  11  22  31  50  71 105 138 167 198 249 303
#     4  10  20  31  51  76 100 130 164 203 253 296
#     4   8  16  32  47  68 101 129 159 201 240 299
#
# _framework density 17.814620000000001
#
# number of rings (size 3 to 8) (size 9 to 14) (size 15 to 20)
#    0.000    1.750    2.500    3.750    1.750    3.000 
#    0.000    0.000    0.000    0.000    0.000    1.750 
#    0.000    0.000    0.000    2.750    0.000    0.000 
#
# Total GULP energy -89109.657131 kJ/mol
# GULP energy per Si atom -5569.353571 kJ/mol
# Density = 1.777407 g / cm^3
# Si number density = 17.814620 Si / 1000 Ang^3
#
#
#
# Elastic Constant Matrix: (Units=GPa)
#
#
# Indices 1 2 3 4 5 6 
#
# 1 99.2435 10.0931 8.9915 -5.2674 -2.6502 -21.4378
# 2 10.0931 102.2178 26.8780 -5.3280 -3.5437 -3.4430
# 3 8.9915 26.8780 70.9216 -5.5941 -8.2294 -4.1315
# 4 -5.2674 -5.3280 -5.5941 23.5564 1.3715 -1.7887
# 5 -2.6502 -3.5437 -8.2294 1.3715 13.2174 -1.4464
# 6 -21.4378 -3.4430 -4.1315 -1.7887 -1.4464 24.1732
#
#
#
# Elastic Compliance Matrix: (Units=1/GPa)
#
#
# Indices 1 2 3 4 5 6 
#
# 1 0.012978 -0.000565 -0.000079 0.003463 0.003342 0.011872
# 2 -0.000565 0.010969 -0.003906 0.001449 0.000302 0.000519
# 3 -0.000079 -0.003906 0.017112 0.002836 0.009634 0.003084
# 4 0.003463 0.001449 0.002836 0.044820 -0.001034 0.007016
# 5 0.003342 0.000302 0.009634 -0.001034 0.083563 0.009576
# 6 0.011872 0.000519 0.003084 0.007016 0.009576 0.053590
#
#
# Mechanical properties :
#
#
# Convention : Reuss Voigt Hill
#
# Bulk Modulus (GPa) = 31.28881 40.47867 35.88374
# Shear Modulus (GPa) = 20.59443 27.28409 23.93926
#
# Velocity S-wave (km/s) = 3.40375 3.91776 3.66976
# Velocity P-wave (km/s) = 5.74883 6.57545 6.17599
#
# Compressibility (1/GPa) = 0.03196031
#
# Stress axis : x y z
#
# Youngs Moduli (GPa) = 77.05190 91.16310 58.43965
#
# Poissons Ratio (x) = 0.05146 0.00462
# Poissons Ratio (y) = 0.04350 0.22826
# Poissons Ratio (z) = 0.00609 0.35608
#
# Static dielectric constant tensor:
#      x y z
#    x 1.667680 0.034600 0.003160 
#    y 0.034600 1.715550 0.012240 
#    z 0.003160 0.012240 1.652420 
# 
# From -- ./inp_files/481687.got.cif
#   From: 2010.05.17/outbox.cif.g08.bks.cpg/sg2_241_cif.got.tgz:481687.got - 2010.06.03 11:33:40.
