data_PCOD9093196
_publ_section_title
;
Structure prediction by ZEFSAII (Michael W. Deem and Ramdas Pophale) SiO2 
 PCOD9093196
Probable space group: P -1
;
_chemical_formula_sum "Si O2"
_cell_formula_units_Z 16
_cell_length_a 8.247125
_cell_length_b 8.963528
_cell_length_c 17.908416
_cell_angle_alpha 139.440157
_cell_angle_beta 47.622567
_cell_angle_gamma 122.728959
_cell_volume 634.779441
_symmetry_space_group_name_H-M "P -1"
_symmetry_group_IT_number 2
_symmetry_cell_setting 'triclinic'
loop_
_space_group_symop_operation_xyz
x,y,z
-x,-y,-z
loop_
_atom_site_type_symbol
_atom_site_label
_atom_site_fract_x
_atom_site_fract_y
_atom_site_fract_z
Si Si1 0.885858 0.237877 0.353865
Si Si2 0.996119 0.333604 0.150978
Si Si3 0.207037 0.552824 0.901063
Si Si4 0.724536 0.061092 0.869381
Si Si5 0.358299 0.017709 0.860297
Si Si6 0.034801 0.744512 0.483813
Si Si7 0.214102 0.810375 0.263290
Si Si8 0.518111 0.894165 0.371240
O O1 0.917163 0.251804 0.440243
O O2 0.093611 0.093276 0.210999
O O3 0.917542 0.495410 0.412593
O O4 0.653731 0.097331 0.362709
O O5 0.080672 0.584037 0.246787
O O6 0.884258 0.357571 0.113932
O O7 0.207509 0.188528 0.016028
O O8 0.808551 0.181472 0.195205
O O9 0.347657 0.755068 0.978459
O O10 0.339780 0.328699 0.760378
O O11 0.000000 0.500000 0.000000
O O12 0.529730 0.924182 0.832198
O O13 0.829969 0.199208 0.817470
O O14 0.519653 0.166390 0.810709
O O15 0.269410 0.807735 0.395978
O O16 0.878739 0.949122 0.593913
O O17 0.500000 0.000000 0.500000
#
# Coordination Sequence:
#
# PCOD9093196 Si02
#       8
#     2   2   2   2   2   2   2   2
#     4   9  16  31  47  71 116 139 176 228 278 332
#     4  11  20  35  58  80 116 151 194 233 277 342
#     4  12  20  34  58  88 120 147 182 236 301 337
#     4   9  19  35  50  81 118 142 176 231 292 326
#     4   9  22  36  53  84 112 154 195 231 281 333
#     4   9  18  29  48  77 105 145 185 220 284 331
#     4   9  18  35  54  79 116 142 187 236 284 328
#     4  10  20  32  50  78 115 147 184 220 280 342
#
# _framework density 25.205604999999998
#
# number of rings (size 3 to 8) (size 9 to 14) (size 15 to 20)
#    0.750    1.500    2.500    1.875    1.750    2.500 
#    0.000    0.000    0.000    0.000    0.000    8.750 
#    0.000    0.000    0.000    0.000    0.000    0.000 
#
# Total GULP energy -89475.031448 kJ/mol
# GULP energy per Si atom -5592.189466 kJ/mol
# Density = 2.514824 g / cm^3
# Si number density = 25.205605 Si / 1000 Ang^3
#
#
#
# Elastic Constant Matrix: (Units=GPa)
#
#
# Indices 1 2 3 4 5 6 
#
# 1 84.4543 41.3884 25.7327 0.5336 9.7074 19.8555
# 2 41.3884 199.3704 81.2481 2.1210 -8.1448 29.0569
# 3 25.7327 81.2481 137.7649 6.5377 -7.7551 14.2458
# 4 0.5336 2.1210 6.5377 47.7926 10.0765 12.1968
# 5 9.7074 -8.1448 -7.7551 10.0765 33.4681 -6.2675
# 6 19.8555 29.0569 14.2458 12.1968 -6.2675 50.6952
#
#
#
# Elastic Compliance Matrix: (Units=1/GPa)
#
#
# Indices 1 2 3 4 5 6 
#
# 1 0.015656 -0.001997 -0.001686 0.003343 -0.007596 -0.006257
# 2 -0.001997 0.007306 -0.003667 0.000636 0.000863 -0.002421
# 3 -0.001686 -0.003667 0.009895 -0.001918 0.002610 0.000766
# 4 0.003343 0.000636 -0.001918 0.025536 -0.010555 -0.008583
# 5 -0.007596 0.000863 0.002610 -0.010555 0.037752 0.008954
# 6 -0.006257 -0.002421 0.000766 -0.008583 0.008954 0.026521
#
#
# Mechanical properties :
#
#
# Convention : Reuss Voigt Hill
#
# Bulk Modulus (GPa) = 55.07394 79.81424 67.44409
# Shear Modulus (GPa) = 34.86294 44.60588 39.73441
#
# Velocity S-wave (km/s) = 3.72310 4.21132 3.97471
# Velocity P-wave (km/s) = 6.35447 7.44184 6.91955
#
# Compressibility (1/GPa) = 0.01815741
#
# Stress axis : x y z
#
# Youngs Moduli (GPa) = 63.87316 136.87079 101.06048
#
# Poissons Ratio (x) = 0.27335 0.17036
# Poissons Ratio (y) = 0.12756 0.37059
# Poissons Ratio (z) = 0.10767 0.50191
#
# Static dielectric constant tensor:
#      x y z
#    x 2.024940 -0.018870 0.091520 
#    y -0.018870 2.084620 -0.098140 
#    z 0.091520 -0.098140 1.971070 
# 
# From -- ./inp_files/618378.got.cif
#   From: 2010.05.17/outbox.cif.g08.bks.cpg/sg2_310_cif.got.tgz:618378.got - 2010.06.03 11:33:40.
