data_PCOD9093422
_publ_section_title
;
Structure prediction by ZEFSAII (Michael W. Deem and Ramdas Pophale) SiO2 
 PCOD9093422
Probable space group: P -1
;
_chemical_formula_sum "Si O2"
_cell_formula_units_Z 15
_cell_length_a 10.993931
_cell_length_b 8.469257
_cell_length_c 17.362241
_cell_angle_alpha 43.649538
_cell_angle_beta 139.683411
_cell_angle_gamma 137.996426
_cell_volume 652.311281
_symmetry_space_group_name_H-M "P -1"
_symmetry_group_IT_number 2
_symmetry_cell_setting 'triclinic'
loop_
_space_group_symop_operation_xyz
x,y,z
-x,-y,-z
loop_
_atom_site_type_symbol
_atom_site_label
_atom_site_fract_x
_atom_site_fract_y
_atom_site_fract_z
Si Si1 0.093339 0.211578 0.864098
Si Si2 0.094675 0.780468 0.485937
Si Si3 0.748791 0.127461 0.836984
Si Si4 0.575099 0.626622 0.785136
Si Si5 0.500000 0.000000 0.500000
Si Si6 0.315953 0.761235 0.741183
Si Si7 0.089845 0.531838 0.947406
Si Si8 0.780972 0.902675 0.205344
O O1 0.219033 0.513714 0.834866
O O2 0.127924 0.147894 0.814989
O O3 0.854940 0.142481 0.798633
O O4 0.190174 0.062731 0.015524
O O5 0.315119 0.928709 0.499135
O O6 0.131839 0.772454 0.597624
O O7 0.000000 0.500000 0.500000
O O8 0.939538 0.900154 0.347517
O O9 0.889670 0.402220 0.842357
O O10 0.500919 0.026133 0.762466
O O11 0.585815 0.806520 0.655883
O O12 0.444855 0.681308 0.769469
O O13 0.436941 0.332698 0.800571
O O14 0.774827 0.626074 0.924306
O O15 0.222602 0.826904 0.891730
O O16 0.000000 0.500000 0.000000
#
# Coordination Sequence:
#
# PCOD9093422 Si02
#       8
#     2   2   2   2   1   2   2   2
#     4  10  20  38  64  86 131 155 212 265 311 361
#     4  11  20  37  63  97 123 161 213 270 305 361
#     4  11  23  38  58  95 125 168 205 256 320 379
#     4  10  21  38  62  97 121 167 208 264 316 362
#     4  10  20  32  62  94 130 146 218 258 312 350
#     4  10  22  37  64  95 125 158 213 263 317 358
#     4  12  24  40  61  90 135 168 208 255 323 386
#     4  11  22  41  63  96 130 165 214 263 310 379
#
# _framework density 22.995158
#
# number of rings (size 3 to 8) (size 9 to 14) (size 15 to 20)
#    0.000    1.333    5.333    3.200    3.733    1.067 
#    2.400    0.667    0.000    0.800    0.000    0.000 
#    0.000    0.000    0.000    0.000    0.000    0.000 
#
# Total GULP energy -83505.711784 kJ/mol
# GULP energy per Si atom -5567.047452 kJ/mol
# Density = 2.294282 g / cm^3
# Si number density = 22.995158 Si / 1000 Ang^3
#
#
#
# Elastic Constant Matrix: (Units=GPa)
#
#
# Indices 1 2 3 4 5 6 
#
# 1 17.4254 6.6027 -2.7136 -3.6330 -11.2122 0.9156
# 2 6.6027 108.2408 25.9550 1.6309 -8.1234 3.3747
# 3 -2.7136 25.9550 102.4249 -3.0168 0.7499 1.8427
# 4 -3.6330 1.6309 -3.0168 36.2001 8.4228 -1.7193
# 5 -11.2122 -8.1234 0.7499 8.4228 23.5777 -3.8505
# 6 0.9156 3.3747 1.8427 -1.7193 -3.8505 29.0472
#
#
#
# Elastic Compliance Matrix: (Units=1/GPa)
#
#
# Indices 1 2 3 4 5 6 
#
# 1 0.084063 -0.002875 0.002610 -0.000264 0.039443 0.002731
# 2 -0.002875 0.010326 -0.002750 -0.001657 0.002761 -0.000667
# 3 0.002610 -0.002750 0.010582 0.001389 -0.000610 -0.000433
# 4 -0.000264 -0.001657 0.001389 0.030499 -0.011573 0.000384
# 5 0.039443 0.002761 -0.000610 -0.011573 0.067372 0.006720
# 6 0.002731 -0.000667 -0.000433 0.000384 0.006720 0.035359
#
#
# Mechanical properties :
#
#
# Convention : Reuss Voigt Hill
#
# Bulk Modulus (GPa) = 10.10686 31.97549 21.04118
# Shear Modulus (GPa) = 18.03666 30.98148 24.50907
#
# Velocity S-wave (km/s) = 2.80370 3.67455 3.26826
# Velocity P-wave (km/s) = 3.85820 5.65142 4.83861
#
# Compressibility (1/GPa) = 0.09894269
#
# Stress axis : x y z
#
# Youngs Moduli (GPa) = 11.89578 96.83899 94.49642
#
# Poissons Ratio (x) = 0.27838 -0.24663
# Poissons Ratio (y) = 0.03420 0.25986
# Poissons Ratio (z) = -0.03105 0.26630
#
# Static dielectric constant tensor:
#      x y z
#    x 1.899250 0.036330 0.076730 
#    y 0.036330 2.071030 0.140850 
#    z 0.076730 0.140850 2.040590 
# 
# From -- ./inp_files/566460.got.cif
#   From: 2010.05.17/outbox.cif.g08.bks.cpg/sg2_284_cif.got.tgz:566460.got - 2010.06.03 11:33:40.
