data_PCOD9093958
_publ_section_title
;
Structure prediction by ZEFSAII (Michael W. Deem and Ramdas Pophale) SiO2 
 PCOD9093958
Probable space group: P -1
;
_chemical_formula_sum "Si O2"
_cell_formula_units_Z 16
_cell_length_a 9.194843
_cell_length_b 5.340635
_cell_length_c 16.194820
_cell_angle_alpha 77.910813
_cell_angle_beta 106.324529
_cell_angle_gamma 72.449334
_cell_volume 689.042552
_symmetry_space_group_name_H-M "P -1"
_symmetry_group_IT_number 2
_symmetry_cell_setting 'triclinic'
loop_
_space_group_symop_operation_xyz
x,y,z
-x,-y,-z
loop_
_atom_site_type_symbol
_atom_site_label
_atom_site_fract_x
_atom_site_fract_y
_atom_site_fract_z
Si Si1 0.087570 0.831480 0.127957
Si Si2 0.212376 0.310945 0.074735
Si Si3 0.209388 0.647884 0.892164
Si Si4 0.173090 0.552003 0.330888
Si Si5 0.181430 0.391521 0.745095
Si Si6 0.211037 0.830360 0.625710
Si Si7 0.814850 0.030843 0.571742
Si Si8 0.572774 0.156304 0.184548
O O1 0.089404 0.589929 0.082313
O O2 0.187681 0.664943 0.234940
O O3 0.168119 0.040387 0.091428
O O4 0.907676 0.050929 0.111417
O O5 0.382648 0.239583 0.155167
O O6 0.235457 0.416831 0.980814
O O7 0.119950 0.602089 0.798081
O O8 0.377844 0.646374 0.881955
O O9 0.219650 0.225725 0.376725
O O10 0.974432 0.670837 0.301050
O O11 0.246264 0.699155 0.399062
O O12 0.242552 0.509360 0.667788
O O13 0.337924 0.143538 0.820842
O O14 0.325356 0.876048 0.711948
O O15 0.012731 0.952965 0.599469
O O16 0.248377 0.910931 0.536014
#
# Coordination Sequence:
#
# PCOD9093958 Si02
#       8
#     2   2   2   2   2   2   2   2
#     4  12  25  46  66  94 131 174 221 271 319 381
#     4  12  29  42  67  98 132 172 221 270 323 385
#     4  11  24  44  68  95 127 177 222 269 316 387
#     4  11  20  39  62  94 122 168 212 268 316 375
#     4  10  20  36  67  93 133 168 211 265 328 379
#     4   9  20  34  58  98 133 163 203 273 325 376
#     4  10  20  33  64 100 124 158 220 265 315 381
#     4  11  23  42  66  95 137 172 209 270 333 384
#
# _framework density 23.220627
#
# number of rings (size 3 to 8) (size 9 to 14) (size 15 to 20)
#    0.000    1.250    2.500    4.125    7.000    2.000 
#    0.000    0.000    0.000    4.500    0.000    0.000 
#    0.000    0.000    0.000    0.000    0.000    0.000 
#
# Total GULP energy -89319.185224 kJ/mol
# GULP energy per Si atom -5582.449076 kJ/mol
# Density = 2.316778 g / cm^3
# Si number density = 23.220627 Si / 1000 Ang^3
#
#
#
# Elastic Constant Matrix: (Units=GPa)
#
#
# Indices 1 2 3 4 5 6 
#
# 1 34.6300 5.1374 1.8231 -9.7422 9.7243 5.1609
# 2 5.1374 109.3343 31.6044 -6.1214 -14.7953 20.3329
# 3 1.8231 31.6044 141.6142 -12.1164 -19.2837 16.2478
# 4 -9.7422 -6.1214 -12.1164 26.4824 8.5031 -8.1917
# 5 9.7243 -14.7953 -19.2837 8.5031 27.1470 -7.5903
# 6 5.1609 20.3329 16.2478 -8.1917 -7.5903 17.5725
#
#
#
# Elastic Compliance Matrix: (Units=1/GPa)
#
#
# Indices 1 2 3 4 5 6 
#
# 1 0.044599 -0.002205 -0.000664 0.020661 -0.027530 -0.012193
# 2 -0.002205 0.012237 -0.000991 -0.003699 0.004447 -0.012399
# 3 -0.000664 -0.000991 0.008422 0.000685 0.004269 -0.004283
# 4 0.020661 -0.003699 0.000685 0.056463 -0.022672 0.014108
# 5 -0.027530 0.004447 0.004269 -0.022672 0.063713 0.015944
# 6 -0.012193 -0.012399 -0.004283 0.014108 0.015944 0.092258
#
#
# Mechanical properties :
#
#
# Convention : Reuss Voigt Hill
#
# Bulk Modulus (GPa) = 17.37979 40.30095 28.84037
# Shear Modulus (GPa) = 16.41545 30.70796 23.56170
#
# Velocity S-wave (km/s) = 2.66171 3.64049 3.18887
# Velocity P-wave (km/s) = 4.11669 5.92150 5.09957
#
# Compressibility (1/GPa) = 0.05753811
#
# Stress axis : x y z
#
# Youngs Moduli (GPa) = 22.42214 81.72096 118.73155
#
# Poissons Ratio (x) = 0.18018 0.07886
# Poissons Ratio (y) = 0.04944 0.11765
# Poissons Ratio (z) = 0.01489 0.08098
#
# Static dielectric constant tensor:
#      x y z
#    x 1.864750 0.005960 -0.007830 
#    y 0.005960 1.974270 -0.017140 
#    z -0.007830 -0.017140 1.884040 
# 
# From -- ./inp_files/90986.got.cif
#   From: 2010.05.17/outbox.cif.g08.bks.cpg/sg2_46_cif.got.tgz:90986.got - 2010.06.03 11:33:40.
