data_PCOD9093256
_publ_section_title
;
Structure prediction by ZEFSAII (Michael W. Deem and Ramdas Pophale) SiO2 
 PCOD9093256
Probable space group: P -1
;
_chemical_formula_sum "Si O2"
_cell_formula_units_Z 16
_cell_length_a 9.321801
_cell_length_b 15.254508
_cell_length_c 23.811481
_cell_angle_alpha 16.331914
_cell_angle_beta 38.707029
_cell_angle_gamma 42.726517
_cell_volume 593.448637
_symmetry_space_group_name_H-M "P -1"
_symmetry_group_IT_number 2
_symmetry_cell_setting 'triclinic'
loop_
_space_group_symop_operation_xyz
x,y,z
-x,-y,-z
loop_
_atom_site_type_symbol
_atom_site_label
_atom_site_fract_x
_atom_site_fract_y
_atom_site_fract_z
Si Si1 0.087506 0.720141 0.721305
Si Si2 0.184916 0.406970 0.587534
Si Si3 0.114218 0.146056 0.661217
Si Si4 0.710515 0.220715 0.267622
Si Si5 0.399187 0.747255 0.042959
Si Si6 0.303177 0.457307 0.644268
Si Si7 0.471565 0.650394 0.201405
Si Si8 0.120214 0.403471 0.244297
O O1 0.079051 0.784064 0.750382
O O2 0.281477 0.475947 0.807347
O O3 0.871692 0.596361 0.825500
O O4 0.171556 0.057223 0.461688
O O5 0.067800 0.131783 0.751389
O O6 0.151536 0.460296 0.631864
O O7 0.455230 0.339471 0.551614
O O8 0.093497 0.713010 0.396389
O O9 0.326862 0.414724 0.430722
O O10 0.213347 0.890716 0.747927
O O11 0.624907 0.564712 0.077576
O O12 0.500000 0.000000 0.500000
O O13 0.329796 0.624228 0.202358
O O14 0.257742 0.651032 0.089678
O O15 0.391525 0.112465 0.830507
O O16 0.142713 0.548783 0.687312
O O17 0.500000 0.000000 0.000000
#
# Coordination Sequence:
#
# PCOD9093256 Si02
#       8
#     2   2   2   2   2   2   2   2
#     4  10  20  32  52  91 118 145 182 223 317 355
#     4  10  24  39  59  79 114 171 201 229 270 349
#     4  11  20  40  63  84 114 156 205 231 285 356
#     4  11  19  37  62  88 117 147 187 247 307 352
#     4  11  21  35  59  90 118 145 188 250 310 347
#     4  11  23  39  55  84 120 157 201 234 285 344
#     4  11  20  34  59  91 120 144 185 255 306 340
#     4  11  20  34  58  85 122 149 184 250 302 349
#
# _framework density 26.961053
#
# number of rings (size 3 to 8) (size 9 to 14) (size 15 to 20)
#    0.000    1.250    3.750    4.125    0.000    1.000 
#    0.000    2.500    0.000    6.000    0.000    0.000 
#    0.000    0.000    0.000    0.000    0.000    0.000 
#
# Total GULP energy -89395.931437 kJ/mol
# GULP energy per Si atom -5587.245715 kJ/mol
# Density = 2.689969 g / cm^3
# Si number density = 26.961053 Si / 1000 Ang^3
#
#
#
# Elastic Constant Matrix: (Units=GPa)
#
#
# Indices 1 2 3 4 5 6 
#
# 1 174.4904 40.6626 11.3289 4.4847 5.3463 30.8713
# 2 40.6626 122.4055 30.1269 -30.9125 6.4124 26.5626
# 3 11.3289 30.1269 68.9313 -30.3114 -4.2409 -1.5142
# 4 4.4847 -30.9125 -30.3114 47.2336 1.4380 1.2466
# 5 5.3463 6.4124 -4.2409 1.4380 32.2290 -4.7302
# 6 30.8713 26.5626 -1.5142 1.2466 -4.7302 47.7223
#
#
#
# Elastic Compliance Matrix: (Units=1/GPa)
#
#
# Indices 1 2 3 4 5 6 
#
# 1 0.007024 -0.001710 -0.001814 -0.002807 -0.001485 -0.003723
# 2 -0.001710 0.012851 -0.002541 0.007238 -0.003915 -0.006705
# 3 -0.001814 -0.002541 0.021548 0.012141 0.003586 0.003310
# 4 -0.002807 0.007238 0.012141 0.034082 -0.001316 -0.002849
# 5 -0.001485 -0.003915 0.003586 -0.001316 0.033554 0.006613
# 6 -0.003723 -0.006705 0.003310 -0.002849 0.006613 0.027930
#
#
# Mechanical properties :
#
#
# Convention : Reuss Voigt Hill
#
# Bulk Modulus (GPa) = 34.13819 58.89599 46.51709
# Shear Modulus (GPa) = 31.46984 44.35090 37.91037
#
# Velocity S-wave (km/s) = 3.42019 4.06026 3.75389
# Velocity P-wave (km/s) = 5.31850 6.62368 6.00665
#
# Compressibility (1/GPa) = 0.02929271
#
# Stress axis : x y z
#
# Youngs Moduli (GPa) = 142.37776 77.81592 46.40808
#
# Poissons Ratio (x) = 0.13304 0.08421
# Poissons Ratio (y) = 0.24342 0.11791
# Poissons Ratio (z) = 0.25834 0.19771
#
# Static dielectric constant tensor:
#      x y z
#    x 2.132930 0.034950 -0.009850 
#    y 0.034950 2.121660 0.082450 
#    z -0.009850 0.082450 2.214110 
# 
# From -- ./inp_files/259199.got.cif
#   From: 2010.05.17/outbox.cif.g08.bks.cpg/sg2_130_cif.got.tgz:259199.got - 2010.06.03 11:33:40.
