data_PCOD9093723
_publ_section_title
;
Structure prediction by ZEFSAII (Michael W. Deem and Ramdas Pophale) SiO2 
 PCOD9093723
Probable space group: P -1
;
_chemical_formula_sum "Si O2"
_cell_formula_units_Z 16
_cell_length_a 6.628752
_cell_length_b 15.456078
_cell_length_c 13.851205
_cell_angle_alpha 151.381539
_cell_angle_beta 100.726674
_cell_angle_gamma 66.130504
_cell_volume 573.397941
_symmetry_space_group_name_H-M "P -1"
_symmetry_group_IT_number 2
_symmetry_cell_setting 'triclinic'
loop_
_space_group_symop_operation_xyz
x,y,z
-x,-y,-z
loop_
_atom_site_type_symbol
_atom_site_label
_atom_site_fract_x
_atom_site_fract_y
_atom_site_fract_z
Si Si1 0.800886 0.157867 0.234646
Si Si2 0.583931 0.468772 0.819223
Si Si3 0.453658 0.940586 0.709689
Si Si4 0.471488 0.795684 0.287992
Si Si5 0.023812 0.981288 0.626849
Si Si6 0.924358 0.598516 0.461397
Si Si7 0.730802 0.176843 0.990299
Si Si8 0.355736 0.250305 0.214497
O O1 0.666344 0.128455 0.285508
O O2 0.585711 0.276792 0.253692
O O3 0.911938 0.299023 0.408747
O O4 0.040868 0.925818 0.017950
O O5 0.466118 0.369402 0.780844
O O6 0.839279 0.271269 0.618679
O O7 0.593691 0.646998 0.059086
O O8 0.427406 0.582658 0.821342
O O9 0.243045 0.026392 0.696424
O O10 0.710139 0.738111 0.506477
O O11 0.544900 0.093919 0.905347
O O12 0.500000 0.000000 0.500000
O O13 0.186011 0.894452 0.346186
O O14 0.872068 0.064921 0.793664
O O15 0.781745 0.642269 0.592374
O O16 0.129289 0.358145 0.227787
O O17 0.500000 0.000000 0.000000
#
# Coordination Sequence:
#
# PCOD9093723 Si02
#       8
#     2   2   2   2   2   2   2   2
#     4   9  18  37  58  81 122 155 193 248 294 349
#     4  10  22  40  62  92 115 158 201 237 304 356
#     4   9  19  38  62  80 119 157 191 250 300 346
#     4  10  23  43  62  89 125 153 196 249 296 361
#     4  10  21  38  61  88 115 151 198 242 297 360
#     4   9  19  37  57  82 118 157 192 242 302 343
#     4   9  20  40  58  87 119 153 199 251 293 355
#     4  10  20  33  56  88 113 156 201 241 294 351
#
# _framework density 27.903829999999999
#
# number of rings (size 3 to 8) (size 9 to 14) (size 15 to 20)
#    0.000    2.500    0.000    0.750    3.500    2.000 
#    9.000   11.250    0.000    0.000    0.000    0.000 
#    0.000    0.000    0.000    0.000    0.000    0.000 
#
# Total GULP energy -89339.641539 kJ/mol
# GULP energy per Si atom -5583.727596 kJ/mol
# Density = 2.784032 g / cm^3
# Si number density = 27.903830 Si / 1000 Ang^3
#
#
#
# Elastic Constant Matrix: (Units=GPa)
#
#
# Indices 1 2 3 4 5 6 
#
# 1 178.8778 31.3747 51.2710 23.1485 -1.3959 -29.6104
# 2 31.3747 120.5878 9.5750 41.7112 4.9240 -38.3521
# 3 51.2710 9.5750 161.7435 25.9385 -9.8937 -24.7057
# 4 23.1485 41.7112 25.9385 53.5319 -9.5008 -5.8264
# 5 -1.3959 4.9240 -9.8937 -9.5008 80.2099 5.5977
# 6 -29.6104 -38.3521 -24.7057 -5.8264 5.5977 54.4299
#
#
#
# Elastic Compliance Matrix: (Units=1/GPa)
#
#
# Indices 1 2 3 4 5 6 
#
# 1 0.006721 -0.000032 -0.001409 -0.001976 -0.000487 0.002832
# 2 -0.000032 0.016705 0.002835 -0.013634 -0.003122 0.011901
# 3 -0.001409 0.002835 0.007911 -0.004985 -0.000113 0.004300
# 4 -0.001976 -0.013634 -0.004985 0.032325 0.004712 -0.009969
# 5 -0.000487 -0.003122 -0.000113 0.004712 0.013431 -0.003393
# 6 0.002832 0.011901 0.004300 -0.009969 -0.003393 0.029532
#
#
# Mechanical properties :
#
#
# Convention : Reuss Voigt Hill
#
# Bulk Modulus (GPa) = 29.30545 71.73892 50.52218
# Shear Modulus (GPa) = 43.39832 62.23358 52.81595
#
# Velocity S-wave (km/s) = 3.94798 4.72772 4.35533
# Velocity P-wave (km/s) = 5.59528 7.45432 6.59068
#
# Compressibility (1/GPa) = 0.03412335
#
# Stress axis : x y z
#
# Youngs Moduli (GPa) = 148.79454 59.86362 126.41294
#
# Poissons Ratio (x) = 0.00194 0.17807
# Poissons Ratio (y) = 0.00482 -0.35835
# Poissons Ratio (z) = 0.20960 -0.16970
#
# Static dielectric constant tensor:
#      x y z
#    x 2.180490 -0.048670 0.052530 
#    y -0.048670 2.691860 -0.157270 
#    z 0.052530 -0.157270 2.363700 
# 
# From -- ./inp_files/584340.got.cif
#   From: 2010.05.17/outbox.cif.g08.bks.cpg/sg2_293_cif.got.tgz:584340.got - 2010.06.03 11:33:40.
