data_PCOD9093322
_publ_section_title
;
Structure prediction by ZEFSAII (Michael W. Deem and Ramdas Pophale) SiO2 
 PCOD9093322
Probable space group: P -1
;
_chemical_formula_sum "Si O2"
_cell_formula_units_Z 16
_cell_length_a 5.439440
_cell_length_b 5.208279
_cell_length_c 22.469050
_cell_angle_alpha 88.750590
_cell_angle_beta 67.902741
_cell_angle_gamma 87.421519
_cell_volume 589.188760
_symmetry_space_group_name_H-M "P -1"
_symmetry_group_IT_number 2
_symmetry_cell_setting 'triclinic'
loop_
_space_group_symop_operation_xyz
x,y,z
-x,-y,-z
loop_
_atom_site_type_symbol
_atom_site_label
_atom_site_fract_x
_atom_site_fract_y
_atom_site_fract_z
Si Si1 0.428125 0.950582 0.184520
Si Si2 0.721848 0.012410 0.400508
Si Si3 0.715089 0.304937 0.510130
Si Si4 0.846354 0.425483 0.627761
Si Si5 0.945259 0.999927 0.075474
Si Si6 0.134489 0.444196 0.245677
Si Si7 0.335428 0.126818 0.715518
Si Si8 0.813118 0.504897 0.957253
O O1 0.342015 0.656929 0.202027
O O2 0.615152 0.996700 0.224789
O O3 0.196013 0.170639 0.210072
O O4 0.631669 0.993046 0.112672
O O5 0.425789 0.947545 0.449161
O O6 0.725953 0.076950 0.330282
O O7 0.881835 0.741549 0.388709
O O8 0.850490 0.189909 0.437798
O O9 0.500000 0.500000 0.500000
O O10 0.817684 0.448496 0.558676
O O11 0.827162 0.608603 0.686201
O O12 0.609715 0.238937 0.667477
O O13 0.092519 0.243053 0.084984
O O14 0.091413 0.742755 0.087479
O O15 0.000000 0.000000 0.000000
O O16 0.868051 0.626043 0.262405
O O17 0.500000 0.500000 0.000000
O O18 0.000000 0.500000 0.000000
#
# Coordination Sequence:
#
# PCOD9093322 Si02
#       8
#     2   2   2   2   2   2   2   2
#     4  11  23  44  68  94 133 170 222 272 333 400
#     4   9  19  38  55  82 121 157 205 261 321 386
#     4  10  20  32  55  87 116 154 206 257 320 390
#     4   9  19  39  58  81 123 161 207 263 326 383
#     4  10  22  43  67 101 137 175 226 281 347 415
#     4  10  23  42  66  94 127 174 219 272 330 390
#     4   9  21  42  62  91 120 170 217 271 321 399
#     4  10  21  42  69 100 143 184 229 277 347 420
#
# _framework density 27.155984
#
# number of rings (size 3 to 8) (size 9 to 14) (size 15 to 20)
#    0.000    2.250    0.000    1.500    1.750    2.500 
#   31.500    0.000    0.000    0.000    0.000    0.000 
#    0.000    0.000    0.000    0.000    0.000    0.000 
#
# Total GULP energy -89416.292852 kJ/mol
# GULP energy per Si atom -5588.518303 kJ/mol
# Density = 2.709418 g / cm^3
# Si number density = 27.155984 Si / 1000 Ang^3
#
#
#
# Elastic Constant Matrix: (Units=GPa)
#
#
# Indices 1 2 3 4 5 6 
#
# 1 71.2600 -6.4846 6.6652 -14.5801 4.7660 -1.7836
# 2 -6.4846 123.9945 -10.6138 8.3895 -12.6169 2.2520
# 3 6.6652 -10.6138 135.9197 -20.5675 -9.5633 -20.4614
# 4 -14.5801 8.3895 -20.5675 24.4714 -4.8195 -11.7961
# 5 4.7660 -12.6169 -9.5633 -4.8195 58.3932 -6.3975
# 6 -1.7836 2.2520 -20.4614 -11.7961 -6.3975 33.1028
#
#
#
# Elastic Compliance Matrix: (Units=1/GPa)
#
#
# Indices 1 2 3 4 5 6 
#
# 1 0.017722 -0.000046 0.003715 0.019087 0.001869 0.010417
# 2 -0.000046 0.008460 0.000036 -0.003331 0.001401 -0.001472
# 3 0.003715 0.000036 0.014100 0.024280 0.006071 0.018739
# 4 0.019087 -0.003331 0.024280 0.104337 0.016515 0.056635
# 5 0.001869 0.001401 0.006071 0.016515 0.021137 0.013728
# 6 0.010417 -0.001472 0.018739 0.056635 0.013728 0.065288
#
#
# Mechanical properties :
#
#
# Convention : Reuss Voigt Hill
#
# Bulk Modulus (GPa) = 20.96707 34.47866 27.72286
# Shear Modulus (GPa) = 20.87404 45.96733 33.42068
#
# Velocity S-wave (km/s) = 2.77550 4.11872 3.51193
# Velocity P-wave (km/s) = 4.24369 5.94496 5.16486
#
# Compressibility (1/GPa) = 0.04769384
#
# Stress axis : x y z
#
# Youngs Moduli (GPa) = 56.42558 118.19963 70.92165
#
# Poissons Ratio (x) = 0.00539 -0.26349
# Poissons Ratio (y) = 0.00257 -0.00254
# Poissons Ratio (z) = -0.20964 -0.00424
#
# Static dielectric constant tensor:
#      x y z
#    x 2.162020 0.140890 -0.023530 
#    y 0.140890 1.955810 0.077310 
#    z -0.023530 0.077310 2.098910 
# 
# From -- ./inp_files/14782.got.cif
#   From: 2010.05.17/outbox.cif.g08.bks.cpg/sg2_8_cif.got.tgz:14782.got - 2010.06.03 11:33:40.
