data_PCOD9093891
_publ_section_title
;
Structure prediction by ZEFSAII (Michael W. Deem and Ramdas Pophale) SiO2 
 PCOD9093891
Probable space group: P -1
;
_chemical_formula_sum "Si O2"
_cell_formula_units_Z 16
_cell_length_a 5.093990
_cell_length_b 15.731443
_cell_length_c 13.411573
_cell_angle_alpha 41.362609
_cell_angle_beta 91.209107
_cell_angle_gamma 97.211315
_cell_volume 700.203666
_symmetry_space_group_name_H-M "P -1"
_symmetry_group_IT_number 2
_symmetry_cell_setting 'triclinic'
loop_
_space_group_symop_operation_xyz
x,y,z
-x,-y,-z
loop_
_atom_site_type_symbol
_atom_site_label
_atom_site_fract_x
_atom_site_fract_y
_atom_site_fract_z
Si Si1 0.614747 0.415895 0.160100
Si Si2 0.831948 0.079735 0.998956
Si Si3 0.332326 0.588908 0.482269
Si Si4 0.982135 0.831809 0.437355
Si Si5 0.016919 0.638211 0.241409
Si Si6 0.854355 0.542889 0.745407
Si Si7 0.594686 0.126587 0.756160
Si Si8 0.497010 0.874683 0.540645
O O1 0.422809 0.436542 0.230196
O O2 0.544515 0.260047 0.277392
O O3 0.919280 0.455213 0.167543
O O4 0.500000 0.500000 0.000000
O O5 0.014753 0.215044 0.912245
O O6 0.628259 0.127295 0.875585
O O7 0.648015 0.992666 0.154746
O O8 0.000000 0.000000 0.000000
O O9 0.500000 0.500000 0.500000
O O10 0.118198 0.626791 0.366289
O O11 0.473775 0.730803 0.395588
O O12 0.217530 0.485461 0.655922
O O13 0.131023 0.886247 0.287192
O O14 0.231124 0.865723 0.482896
O O15 0.938392 0.674567 0.565463
O O16 0.738320 0.873731 0.462727
O O17 0.199768 0.589421 0.202127
O O18 0.500000 0.000000 0.500000
#
# Coordination Sequence:
#
# PCOD9093891 Si02
#       8
#     2   2   2   2   2   2   2   2
#     4  10  22  42  66  91 126 161 200 257 336 383
#     4  10  22  39  55  78 130 172 202 256 314 365
#     4  10  20  33  60  85 118 160 206 260 304 363
#     4  10  21  38  66  93 122 159 210 263 310 375
#     4  10  21  36  54  90 118 155 215 251 306 360
#     4  10  21  39  64  95 122 158 207 267 305 379
#     4  10  21  38  56  86 120 166 215 249 314 369
#     4  10  22  41  66  94 125 157 204 264 323 388
#
# _framework density 22.850491000000002
#
# number of rings (size 3 to 8) (size 9 to 14) (size 15 to 20)
#    0.000    2.000    1.250    1.500    3.500    1.000 
#    2.250    0.000    0.000    0.000    0.000    0.000 
#    0.000    0.000    0.000    0.000    0.000    0.000 
#
# Total GULP energy -89120.748751 kJ/mol
# GULP energy per Si atom -5570.046797 kJ/mol
# Density = 2.279848 g / cm^3
# Si number density = 22.850491 Si / 1000 Ang^3
#
#
#
# Elastic Constant Matrix: (Units=GPa)
#
#
# Indices 1 2 3 4 5 6 
#
# 1 96.9609 19.8294 26.3367 -3.7837 4.0574 -2.3584
# 2 19.8294 109.4405 54.6121 -34.3427 0.4006 -17.8565
# 3 26.3367 54.6121 136.9325 -20.9520 -17.1608 5.9166
# 4 -3.7837 -34.3427 -20.9520 39.9177 4.1902 14.0254
# 5 4.0574 0.4006 -17.1608 4.1902 27.2012 10.5761
# 6 -2.3584 -17.8565 5.9166 14.0254 10.5761 34.5196
#
#
#
# Elastic Compliance Matrix: (Units=1/GPa)
#
#
# Indices 1 2 3 4 5 6 
#
# 1 0.011412 -0.000632 -0.002850 -0.001517 -0.004385 0.002901
# 2 -0.000632 0.016962 -0.006912 0.008628 -0.009465 0.009310
# 3 -0.002850 -0.006912 0.013203 0.003345 0.012732 -0.011293
# 4 -0.001517 0.008628 0.003345 0.038214 0.001007 -0.012049
# 5 -0.004385 -0.009465 0.012732 0.001007 0.055015 -0.024642
# 6 0.002901 0.009310 -0.011293 -0.012049 -0.024642 0.048364
#
#
# Mechanical properties :
#
#
# Convention : Reuss Voigt Hill
#
# Bulk Modulus (GPa) = 48.10153 60.54334 54.32244
# Shear Modulus (GPa) = 23.70951 36.49808 30.10380
#
# Velocity S-wave (km/s) = 3.22466 4.00090 3.63357
# Velocity P-wave (km/s) = 5.91277 6.92069 6.43649
#
# Compressibility (1/GPa) = 0.02078936
#
# Stress axis : x y z
#
# Youngs Moduli (GPa) = 87.63005 58.95539 75.74208
#
# Poissons Ratio (x) = 0.03728 0.21583
# Poissons Ratio (y) = 0.05542 0.52349
# Poissons Ratio (z) = 0.24971 0.40747
#
# Static dielectric constant tensor:
#      x y z
#    x 1.962670 -0.061380 -0.052470 
#    y -0.061380 1.988670 0.050600 
#    z -0.052470 0.050600 2.055930 
# 
# From -- ./inp_files/113417.got.cif
#   From: 2010.05.17/outbox.cif.g08.bks.cpg/sg2_57_cif.got.tgz:113417.got - 2010.06.03 11:33:40.
