data_PCOD9093607
_publ_section_title
;
Structure prediction by ZEFSAII (Michael W. Deem and Ramdas Pophale) SiO2 
 PCOD9093607
Probable space group: P -1
;
_chemical_formula_sum "Si O2"
_cell_formula_units_Z 14
_cell_length_a 5.810953
_cell_length_b 17.698405
_cell_length_c 4.878190
_cell_angle_alpha 79.149616
_cell_angle_beta 95.794240
_cell_angle_gamma 102.756432
_cell_volume 479.639944
_symmetry_space_group_name_H-M "P -1"
_symmetry_group_IT_number 2
_symmetry_cell_setting 'triclinic'
loop_
_space_group_symop_operation_xyz
x,y,z
-x,-y,-z
loop_
_atom_site_type_symbol
_atom_site_label
_atom_site_fract_x
_atom_site_fract_y
_atom_site_fract_z
Si Si1 0.076531 0.193768 0.881388
Si Si2 0.198383 0.478149 0.736444
Si Si3 0.505831 0.230112 0.314869
Si Si4 0.509010 0.622149 0.509757
Si Si5 0.889118 0.337075 0.954847
Si Si6 0.209548 0.052144 0.811183
Si Si7 0.652239 0.089126 0.255730
O O1 0.122164 0.133737 0.686148
O O2 0.996479 0.276621 0.820041
O O3 0.327579 0.211919 0.053480
O O4 0.871691 0.141456 0.081022
O O5 0.380872 0.559300 0.765743
O O6 0.327836 0.423941 0.603778
O O7 0.000000 0.500000 0.500000
O O8 0.076009 0.416856 0.994960
O O9 0.387320 0.289620 0.437822
O O10 0.579105 0.146596 0.441721
O O11 0.753008 0.286785 0.219077
O O12 0.309429 0.636327 0.267229
O O13 0.270175 0.993797 0.621914
O O14 0.435000 0.070271 0.028414
O O15 0.000000 0.000000 0.000000
#
# Coordination Sequence:
#
# PCOD9093607 Si02
#       7
#     2   2   2   2   2   2   2
#     4   9  17  29  49  79 108 138 177 216 260 312
#     4   9  20  38  56  75 103 140 178 218 270 323
#     4  10  20  33  54  82 107 138 181 221 262 314
#     4  10  21  38  56  76 106 140 176 222 270 318
#     4  10  20  36  55  79 108 138 179 223 266 315
#     4   8  13  25  46  74 108 141 174 213 255 306
#     4   8  15  27  46  76 108 139 176 214 257 309
#
# _framework density 29.188562999999998
#
# number of rings (size 3 to 8) (size 9 to 14) (size 15 to 20)
#    0.000    2.857    0.000    0.857    0.000    5.143 
#    0.000   10.000    0.000    0.857    0.000   99.000 
#    0.000    0.000    0.000    0.000    0.000    0.000 
#
# Total GULP energy -78401.662663 kJ/mol
# GULP energy per Si atom -5600.118762 kJ/mol
# Density = 2.912213 g / cm^3
# Si number density = 29.188563 Si / 1000 Ang^3
#
#
#
# Elastic Constant Matrix: (Units=GPa)
#
#
# Indices 1 2 3 4 5 6 
#
# 1 131.3388 65.3883 27.1509 2.5661 -7.1406 -33.9748
# 2 65.3883 259.4713 39.0509 7.0212 0.3065 -38.9631
# 3 27.1509 39.0509 78.3761 9.1618 0.3618 -6.6259
# 4 2.5661 7.0212 9.1618 42.7290 -7.1496 -19.5615
# 5 -7.1406 0.3065 0.3618 -7.1496 31.7611 5.9167
# 6 -33.9748 -38.9631 -6.6259 -19.5615 5.9167 98.5140
#
#
#
# Elastic Compliance Matrix: (Units=1/GPa)
#
#
# Indices 1 2 3 4 5 6 
#
# 1 0.009791 -0.001725 -0.002526 0.001863 0.002151 0.002765
# 2 -0.001725 0.004720 -0.001665 0.000144 -0.000610 0.001225
# 3 -0.002526 -0.001665 0.014780 -0.003486 -0.001291 -0.001150
# 4 0.001863 0.000144 -0.003486 0.027514 0.005609 0.005591
# 5 0.002151 -0.000610 -0.001291 0.005609 0.033340 -0.000475
# 6 0.002765 0.001225 -0.001150 0.005591 -0.000475 0.012650
#
#
# Mechanical properties :
#
#
# Convention : Reuss Voigt Hill
#
# Bulk Modulus (GPa) = 57.27665 81.37407 69.32536
# Shear Modulus (GPa) = 41.51248 57.10724 49.30986
#
# Velocity S-wave (km/s) = 3.77532 4.42803 4.11464
# Velocity P-wave (km/s) = 6.21849 7.35408 6.81000
#
# Compressibility (1/GPa) = 0.01745912
#
# Stress axis : x y z
#
# Youngs Moduli (GPa) = 102.13800 211.86450 67.66011
#
# Poissons Ratio (x) = 0.36543 0.17092
# Poissons Ratio (y) = 0.17617 0.11263
# Poissons Ratio (z) = 0.25802 0.35268
#
# Static dielectric constant tensor:
#      x y z
#    x 2.297520 0.017770 -0.118370 
#    y 0.017770 2.316240 -0.014040 
#    z -0.118370 -0.014040 2.249030 
# 
# From -- ./inp_files/6501.got.cif
#   From: 2010.05.17/outbox.cif.g08.bks.cpg/sg2_4_cif.got.tgz:6501.got - 2010.06.03 11:33:40.
