data_PCOD9093747
_publ_section_title
;
Structure prediction by ZEFSAII (Michael W. Deem and Ramdas Pophale) SiO2 
 PCOD9093747
Probable space group: P -1
;
_chemical_formula_sum "Si O2"
_cell_formula_units_Z 16
_cell_length_a 18.113217
_cell_length_b 12.003661
_cell_length_c 12.836703
_cell_angle_alpha 61.835684
_cell_angle_beta 43.400860
_cell_angle_gamma 26.654053
_cell_volume 703.617086
_symmetry_space_group_name_H-M "P -1"
_symmetry_group_IT_number 2
_symmetry_cell_setting 'triclinic'
loop_
_space_group_symop_operation_xyz
x,y,z
-x,-y,-z
loop_
_atom_site_type_symbol
_atom_site_label
_atom_site_fract_x
_atom_site_fract_y
_atom_site_fract_z
Si Si1 0.507557 0.284023 0.073360
Si Si2 0.687791 0.601591 0.981230
Si Si3 0.314287 0.552986 0.655561
Si Si4 0.729327 0.664893 0.115691
Si Si5 0.306733 0.675822 0.821995
Si Si6 0.304579 0.948350 0.674847
Si Si7 0.111408 0.901250 0.310752
Si Si8 0.700340 0.880171 0.217821
O O1 0.403068 0.295149 0.089712
O O2 0.271499 0.611709 0.226388
O O3 0.656105 0.044348 0.112735
O O4 0.697878 0.183199 0.868776
O O5 0.998840 0.279897 0.817893
O O6 0.587141 0.798228 0.091726
O O7 0.604794 0.545506 0.116247
O O8 0.186999 0.567545 0.837640
O O9 0.375251 0.582972 0.672761
O O10 0.554596 0.228549 0.498696
O O11 0.127283 0.813256 0.647204
O O12 0.600824 0.869070 0.257081
O O13 0.993875 0.461439 0.920762
O O14 0.373980 0.744467 0.757882
O O15 0.000000 0.000000 0.000000
O O16 0.405257 0.958062 0.634660
O O17 0.000000 0.000000 0.500000
#
# Coordination Sequence:
#
# PCOD9093747 Si02
#       8
#     2   2   2   2   2   2   2   2
#     4  11  23  38  61  83 124 162 182 239 305 344
#     4   9  20  36  55  85 112 152 194 233 289 353
#     4  11  20  36  58  86 115 153 189 245 290 335
#     4   9  20  39  60  83 109 146 210 239 272 345
#     4   9  18  31  53  78 111 144 188 230 274 341
#     4  10  20  33  57  84 116 148 193 243 286 341
#     4  11  24  37  56  91 126 154 192 233 297 364
#     4  10  20  38  61  82 109 155 198 240 280 346
#
# _framework density 22.739642
#
# number of rings (size 3 to 8) (size 9 to 14) (size 15 to 20)
#    0.000    2.000    1.250    3.375    5.250    1.000 
#    2.250    0.000    0.000    0.750    0.000    0.000 
#    0.000    0.000    0.000    0.000    0.000    0.000 
#
# Total GULP energy -89161.521938 kJ/mol
# GULP energy per Si atom -5572.595121 kJ/mol
# Density = 2.268789 g / cm^3
# Si number density = 22.739642 Si / 1000 Ang^3
#
#
#
# Elastic Constant Matrix: (Units=GPa)
#
#
# Indices 1 2 3 4 5 6 
#
# 1 171.3591 36.9292 27.8931 13.9952 30.4994 6.2868
# 2 36.9292 32.8552 17.4544 -1.9736 8.5478 3.8928
# 3 27.8931 17.4544 91.7757 11.1896 25.2590 -3.1703
# 4 13.9952 -1.9736 11.1896 24.0412 4.7967 6.4404
# 5 30.4994 8.5478 25.2590 4.7967 33.5091 -5.0396
# 6 6.2868 3.8928 -3.1703 6.4404 -5.0396 42.2893
#
#
#
# Elastic Compliance Matrix: (Units=1/GPa)
#
#
# Indices 1 2 3 4 5 6 
#
# 1 0.009323 -0.009922 0.001459 -0.005595 -0.006292 -0.000261
# 2 -0.009922 0.047442 -0.008021 0.014958 -0.000035 -0.005776
# 3 0.001459 -0.008021 0.015606 -0.007262 -0.009760 0.001634
# 4 -0.005595 0.014958 -0.007262 0.052387 -0.002150 -0.009324
# 5 -0.006292 -0.000035 -0.009760 -0.002150 0.044115 0.005792
# 6 -0.000261 -0.005776 0.001634 -0.009324 0.005792 0.026450
#
#
# Mechanical properties :
#
#
# Convention : Reuss Voigt Hill
#
# Bulk Modulus (GPa) = 25.37901 51.17147 38.27524
# Shear Modulus (GPa) = 20.71029 34.21548 27.46288
#
# Velocity S-wave (km/s) = 3.02115 3.88321 3.47898
# Velocity P-wave (km/s) = 4.83267 6.53129 5.74511
#
# Compressibility (1/GPa) = 0.03940263
#
# Stress axis : x y z
#
# Youngs Moduli (GPa) = 107.26086 21.07841 64.07639
#
# Poissons Ratio (x) = 0.20914 -0.09346
# Poissons Ratio (y) = 1.06425 0.51395
# Poissons Ratio (z) = -0.15644 0.16907
#
# Static dielectric constant tensor:
#      x y z
#    x 1.823400 0.047680 0.005240 
#    y 0.047680 1.850880 -0.040800 
#    z 0.005240 -0.040800 1.949420 
# 
# From -- ./inp_files/399962.got.cif
#   From: 2010.05.17/outbox.cif.g08.bks.cpg/sg2_200_cif.got.tgz:399962.got - 2010.06.03 11:33:40.
