data_PCOD9093718
_publ_section_title
;
Structure prediction by ZEFSAII (Michael W. Deem and Ramdas Pophale) SiO2 
 PCOD9093718
Probable space group: P -1
;
_chemical_formula_sum "Si O2"
_cell_formula_units_Z 16
_cell_length_a 20.301647
_cell_length_b 12.963456
_cell_length_c 9.000690
_cell_angle_alpha 124.367703
_cell_angle_beta 125.608482
_cell_angle_gamma 25.016552
_cell_volume 809.711136
_symmetry_space_group_name_H-M "P -1"
_symmetry_group_IT_number 2
_symmetry_cell_setting 'triclinic'
loop_
_space_group_symop_operation_xyz
x,y,z
-x,-y,-z
loop_
_atom_site_type_symbol
_atom_site_label
_atom_site_fract_x
_atom_site_fract_y
_atom_site_fract_z
Si Si1 0.776055 0.524668 0.756091
Si Si2 0.329276 0.250439 0.905781
Si Si3 0.827313 0.770315 0.455356
Si Si4 0.482027 0.946792 0.282181
Si Si5 0.699853 0.112170 0.365603
Si Si6 0.659857 0.082356 0.766532
Si Si7 0.091786 0.242707 0.919780
Si Si8 0.573739 0.547340 0.484170
O O1 0.684839 0.520522 0.581107
O O2 0.954551 0.320850 0.776670
O O3 0.668197 0.785461 0.774383
O O4 0.768138 0.536139 0.934694
O O5 0.243247 0.232982 0.757084
O O6 0.370163 0.245318 0.791751
O O7 0.500000 0.000000 0.000000
O O8 0.000000 0.500000 0.500000
O O9 0.824238 0.911894 0.495707
O O10 0.722806 0.906980 0.577027
O O11 0.445399 0.854923 0.205597
O O12 0.500000 0.000000 0.500000
O O13 0.673342 0.291302 0.439083
O O14 0.537138 0.283514 0.376282
O O15 0.772099 0.950166 0.183907
O O16 0.543185 0.321693 0.705357
O O17 0.816927 0.907007 0.925968
O O18 0.000000 0.500000 0.000000
#
# Coordination Sequence:
#
# PCOD9093718 Si02
#       8
#     2   2   2   2   2   2   2   2
#     4  11  22  36  59  88 123 158 198 250 305 359
#     4  10  20  33  56  86 119 153 193 245 300 353
#     4  11  21  36  59  87 121 153 192 248 317 353
#     4  11  18  32  56  90 118 151 204 252 293 346
#     4  10  23  42  65  87 119 165 208 244 293 374
#     4  11  21  35  58  89 122 154 199 253 298 357
#     4  12  24  37  62  96 126 151 197 259 316 347
#     4  10  23  44  64  83 118 173 211 235 293 366
#
# _framework density 19.760133
#
# number of rings (size 3 to 8) (size 9 to 14) (size 15 to 20)
#    0.000    1.250    3.750    4.500    3.500    1.000 
#    0.000    0.000    0.000    7.500    0.000    0.000 
#    0.000    0.000    0.000    0.000    0.000    0.000 
#
# Total GULP energy -89104.263908 kJ/mol
# GULP energy per Si atom -5569.016494 kJ/mol
# Density = 1.971516 g / cm^3
# Si number density = 19.760133 Si / 1000 Ang^3
#
#
#
# Elastic Constant Matrix: (Units=GPa)
#
#
# Indices 1 2 3 4 5 6 
#
# 1 84.2425 43.1634 22.7033 -8.2077 -6.3590 9.3805
# 2 43.1634 105.5435 33.6229 -7.7452 3.5306 17.4799
# 3 22.7033 33.6229 68.7211 -12.3701 -14.5610 -4.7815
# 4 -8.2077 -7.7452 -12.3701 27.9746 -6.2613 0.4796
# 5 -6.3590 3.5306 -14.5610 -6.2613 30.4230 -0.4160
# 6 9.3805 17.4799 -4.7815 0.4796 -0.4160 23.0753
#
#
#
# Elastic Compliance Matrix: (Units=1/GPa)
#
#
# Indices 1 2 3 4 5 6 
#
# 1 0.016016 -0.005636 -0.001185 0.003584 0.004138 -0.002487
# 2 -0.005636 0.017056 -0.009716 -0.002931 -0.008585 -0.012736
# 3 -0.001185 -0.009716 0.026159 0.011889 0.016029 0.013304
# 4 0.003584 -0.002931 0.011889 0.044788 0.016032 0.002585
# 5 0.004138 -0.008585 0.016029 0.016032 0.045820 0.008635
# 6 -0.002487 -0.012736 0.013304 0.002585 0.008635 0.056854
#
#
# Mechanical properties :
#
#
# Convention : Reuss Voigt Hill
#
# Bulk Modulus (GPa) = 38.23002 50.83182 44.53092
# Shear Modulus (GPa) = 20.12187 26.89574 23.50881
#
# Velocity S-wave (km/s) = 3.19455 3.69333 3.45296
# Velocity P-wave (km/s) = 5.74421 6.63082 6.20338
#
# Compressibility (1/GPa) = 0.02615746
#
# Stress axis : x y z
#
# Youngs Moduli (GPa) = 62.43766 58.62899 38.22847
#
# Poissons Ratio (x) = 0.33044 0.04529
# Poissons Ratio (y) = 0.35191 0.37142
# Poissons Ratio (z) = 0.07397 0.56963
#
# Static dielectric constant tensor:
#      x y z
#    x 1.750390 -0.007680 -0.027620 
#    y -0.007680 1.723130 -0.023450 
#    z -0.027620 -0.023450 1.747410 
# 
# From -- ./inp_files/332388.got.cif
#   From: 2010.05.17/outbox.cif.g08.bks.cpg/sg2_167_cif.got.tgz:332388.got - 2010.06.03 11:33:40.
