data_PCOD9093312
_publ_section_title
;
Structure prediction by ZEFSAII (Michael W. Deem and Ramdas Pophale) SiO2 
 PCOD9093312
Probable space group: P -1
;
_chemical_formula_sum "Si O2"
_cell_formula_units_Z 14
_cell_length_a 8.033129
_cell_length_b 16.102450
_cell_length_c 6.349239
_cell_angle_alpha 77.200799
_cell_angle_beta 85.820980
_cell_angle_gamma 122.427519
_cell_volume 657.421193
_symmetry_space_group_name_H-M "P -1"
_symmetry_group_IT_number 2
_symmetry_cell_setting 'triclinic'
loop_
_space_group_symop_operation_xyz
x,y,z
-x,-y,-z
loop_
_atom_site_type_symbol
_atom_site_label
_atom_site_fract_x
_atom_site_fract_y
_atom_site_fract_z
Si Si1 0.461064 0.770590 0.141056
Si Si2 0.718149 0.741737 0.788447
Si Si3 0.718241 0.109028 0.933572
Si Si4 0.096787 0.929611 0.415617
Si Si5 0.650402 0.568254 0.139925
Si Si6 0.579447 0.395981 0.488375
Si Si7 0.196131 0.025509 0.752475
O O1 0.313180 0.802441 0.057001
O O2 0.354228 0.670836 0.361050
O O3 0.632345 0.869944 0.206494
O O4 0.576841 0.756130 0.949594
O O5 0.585455 0.676765 0.633155
O O6 0.906936 0.845571 0.617829
O O7 0.788007 0.679292 0.953071
O O8 0.817220 0.124590 0.687873
O O9 0.500000 0.000000 0.000000
O O10 0.834112 0.076660 0.089663
O O11 0.004741 0.974708 0.244482
O O12 0.253805 0.019906 0.507689
O O13 0.724746 0.503756 0.286317
O O14 0.527488 0.582235 0.325816
O O15 0.500000 0.500000 0.000000
#
# Coordination Sequence:
#
# PCOD9093312 Si02
#       7
#     2   2   2   2   2   2   2
#     4  10  21  35  54  80 110 144 182 222 268 323
#     4  10  20  32  55  84 106 139 182 222 271 315
#     4  10  24  37  50  74 109 147 185 224 269 320
#     4  11  23  36  56  77 105 150 184 228 269 310
#     4   8  16  30  52  85 110 135 170 224 268 318
#     4   9  16  32  55  80 114 136 173 222 269 319
#     4  10  23  36  55  74 109 144 190 224 264 313
#
# _framework density 21.295328000000001
#
# number of rings (size 3 to 8) (size 9 to 14) (size 15 to 20)
#    0.000    2.286    1.429    0.429   10.000    3.429 
#    0.000    0.000    0.000    0.857    0.000   35.000 
#    0.000    0.000    0.000    0.000    0.000    0.000 
#
# Total GULP energy -77993.824160 kJ/mol
# GULP energy per Si atom -5570.987440 kJ/mol
# Density = 2.124686 g / cm^3
# Si number density = 21.295328 Si / 1000 Ang^3
#
#
#
# Elastic Constant Matrix: (Units=GPa)
#
#
# Indices 1 2 3 4 5 6 
#
# 1 42.6334 31.7303 38.3991 -2.1179 -0.1514 -23.3333
# 2 31.7303 95.9129 53.1703 -10.0702 10.9575 -29.1660
# 3 38.3991 53.1703 122.6018 -11.3909 11.3624 -20.9975
# 4 -2.1179 -10.0702 -11.3909 57.7111 -1.6260 14.9921
# 5 -0.1514 10.9575 11.3624 -1.6260 20.3960 -1.5206
# 6 -23.3333 -29.1660 -20.9975 14.9921 -1.5206 25.6420
#
#
#
# Elastic Compliance Matrix: (Units=1/GPa)
#
#
# Indices 1 2 3 4 5 6 
#
# 1 0.068050 0.000864 -0.013615 -0.015734 0.010964 0.061606
# 2 0.000864 0.019441 -0.004918 -0.002985 -0.006428 0.020236
# 3 -0.013615 -0.004918 0.013849 0.003573 -0.005565 -0.009061
# 4 -0.015734 -0.002985 0.003573 0.024486 -0.000725 -0.029146
# 5 0.010964 -0.006428 -0.005565 -0.000725 0.055743 0.001838
# 6 0.061606 0.020236 -0.009061 -0.029146 0.001838 0.127805
#
#
# Mechanical properties :
#
#
# Convention : Reuss Voigt Hill
#
# Bulk Modulus (GPa) = 15.15079 56.41639 35.78359
# Shear Modulus (GPa) = 13.63466 29.93971 21.78719
#
# Velocity S-wave (km/s) = 2.53309 3.75364 3.20206
# Velocity P-wave (km/s) = 3.96049 6.73322 5.52367
#
# Compressibility (1/GPa) = 0.06600314
#
# Stress axis : x y z
#
# Youngs Moduli (GPa) = 14.69509 51.43792 72.20526
#
# Poissons Ratio (x) = -0.04446 0.98308
# Poissons Ratio (y) = -0.01270 0.35509
# Poissons Ratio (z) = 0.20008 0.25296
#
# Static dielectric constant tensor:
#      x y z
#    x 1.773360 -0.018490 0.065380 
#    y -0.018490 1.842620 -0.004810 
#    z 0.065380 -0.004810 1.856910 
# 
# From -- ./inp_files/37941.got.cif
#   From: 2010.05.17/outbox.cif.g08.bks.cpg/sg2_19_cif.got.tgz:37941.got - 2010.06.03 11:33:40.
