data_PCOD9093509
_publ_section_title
;
Structure prediction by ZEFSAII (Michael W. Deem and Ramdas Pophale) SiO2 
 PCOD9093509
Probable space group: P -1
;
_chemical_formula_sum "Si O2"
_cell_formula_units_Z 16
_cell_length_a 17.725716
_cell_length_b 11.946949
_cell_length_c 12.184296
_cell_angle_alpha 32.146254
_cell_angle_beta 131.062969
_cell_angle_gamma 142.686376
_cell_volume 831.132080
_symmetry_space_group_name_H-M "P -1"
_symmetry_group_IT_number 2
_symmetry_cell_setting 'triclinic'
loop_
_space_group_symop_operation_xyz
x,y,z
-x,-y,-z
loop_
_atom_site_type_symbol
_atom_site_label
_atom_site_fract_x
_atom_site_fract_y
_atom_site_fract_z
Si Si1 0.936249 0.032170 0.092957
Si Si2 0.189403 0.704930 0.268561
Si Si3 0.883655 0.519628 0.380326
Si Si4 0.730346 0.665781 0.693640
Si Si5 0.642395 0.177511 0.870636
Si Si6 0.788687 0.457750 0.104802
Si Si7 0.004845 0.121815 0.518390
Si Si8 0.382388 0.085624 0.721114
O O1 0.937645 0.822186 0.197256
O O2 0.836177 0.079740 0.926759
O O3 0.915993 0.926844 0.284316
O O4 0.068834 0.313097 0.979448
O O5 0.193564 0.628847 0.460318
O O6 0.300043 0.798362 0.212211
O O7 0.070651 0.430244 0.330382
O O8 0.797175 0.422073 0.271580
O O9 0.000000 0.500000 0.500000
O O10 0.725814 0.453933 0.787070
O O11 0.865065 0.943863 0.580132
O O12 0.628815 0.697705 0.521077
O O13 0.715918 0.562629 0.890007
O O14 0.507865 0.118452 0.783336
O O15 0.631933 0.963774 0.120076
O O16 0.730387 0.184703 0.216898
O O17 0.000000 0.000000 0.500000
#
# Coordination Sequence:
#
# PCOD9093509 Si02
#       8
#     2   2   2   2   2   2   2   2
#     4  10  22  35  55  86 113 151 184 224 293 346
#     4  11  22  36  57  83 120 153 182 237 284 337
#     4  11  23  38  59  86 117 148 187 233 287 351
#     4  10  20  36  59  84 116 154 185 235 283 337
#     4  10  22  39  56  87 113 152 198 229 283 334
#     4  10  21  37  57  87 111 145 196 227 280 340
#     4  10  20  33  51  88 122 145 183 225 289 351
#     4  10  22  38  61  81 114 153 195 240 273 331
#
# _framework density 19.250851000000001
#
# number of rings (size 3 to 8) (size 9 to 14) (size 15 to 20)
#    0.000    1.750    2.500    1.500    5.250    0.500 
#    0.000    0.625    0.000    1.500    0.000    0.000 
#    0.000    0.000    0.000    0.000    0.000    0.000 
#
# Total GULP energy -89188.021158 kJ/mol
# GULP energy per Si atom -5574.251322 kJ/mol
# Density = 1.920704 g / cm^3
# Si number density = 19.250851 Si / 1000 Ang^3
#
#
#
# Elastic Constant Matrix: (Units=GPa)
#
#
# Indices 1 2 3 4 5 6 
#
# 1 87.7278 20.7156 64.0781 16.5188 -16.4008 -9.3135
# 2 20.7156 28.1793 31.1467 17.4036 -0.4925 -9.0022
# 3 64.0781 31.1467 133.5334 31.3893 2.3473 -10.2215
# 4 16.5188 17.4036 31.3893 38.1358 -8.5760 -6.0801
# 5 -16.4008 -0.4925 2.3473 -8.5760 25.4138 2.0694
# 6 -9.3135 -9.0022 -10.2215 -6.0801 2.0694 25.4093
#
#
#
# Elastic Compliance Matrix: (Units=1/GPa)
#
#
# Indices 1 2 3 4 5 6 
#
# 1 0.024198 -0.008967 -0.011534 0.007578 0.018957 0.001322
# 2 -0.008967 0.065120 -0.004167 -0.023170 -0.013069 0.013628
# 3 -0.011534 -0.004167 0.016388 -0.009388 -0.012176 -0.000366
# 4 0.007578 -0.023170 -0.009388 0.045933 0.020801 0.000089
# 5 0.018957 -0.013069 -0.012176 0.020801 0.059674 -0.002462
# 6 0.001322 0.013628 -0.000366 0.000089 -0.002462 0.044743
#
#
# Mechanical properties :
#
#
# Convention : Reuss Voigt Hill
#
# Bulk Modulus (GPa) = 17.73950 53.48015 35.60982
# Shear Modulus (GPa) = 15.42342 26.69179 21.05761
#
# Velocity S-wave (km/s) = 2.83359 3.72765 3.31093
# Velocity P-wave (km/s) = 4.46548 6.80941 5.75798
#
# Compressibility (1/GPa) = 0.05637137
#
# Stress axis : x y z
#
# Youngs Moduli (GPa) = 41.32503 15.35626 61.01975
#
# Poissons Ratio (x) = 0.13770 0.70379
# Poissons Ratio (y) = 0.37056 0.25426
# Poissons Ratio (z) = 0.47663 0.06399
#
# Static dielectric constant tensor:
#      x y z
#    x 1.663880 -0.001770 -0.002940 
#    y -0.001770 1.689510 0.011310 
#    z -0.002940 0.011310 1.745870 
# 
# From -- ./inp_files/70665.got.cif
#   From: 2010.05.17/outbox.cif.g08.bks.cpg/sg2_36_cif.got.tgz:70665.got - 2010.06.03 11:33:40.
