data_PCOD9093637
_publ_section_title
;
Structure prediction by ZEFSAII (Michael W. Deem and Ramdas Pophale) SiO2 
 PCOD9093637
Probable space group: P -1
;
_chemical_formula_sum "Si O2"
_cell_formula_units_Z 14
_cell_length_a 8.870286
_cell_length_b 21.508313
_cell_length_c 9.626899
_cell_angle_alpha 37.787033
_cell_angle_beta 122.223645
_cell_angle_gamma 147.545981
_cell_volume 551.770122
_symmetry_space_group_name_H-M "P -1"
_symmetry_group_IT_number 2
_symmetry_cell_setting 'triclinic'
loop_
_space_group_symop_operation_xyz
x,y,z
-x,-y,-z
loop_
_atom_site_type_symbol
_atom_site_label
_atom_site_fract_x
_atom_site_fract_y
_atom_site_fract_z
Si Si1 0.759895 0.866141 0.737793
Si Si2 0.020955 0.267086 0.766336
Si Si3 0.394021 0.559004 0.906115
Si Si4 0.669238 0.834043 0.325070
Si Si5 0.502449 0.651417 0.302376
Si Si6 0.674820 0.223350 0.158441
Si Si7 0.527496 0.046420 0.124489
O O1 0.566832 0.680431 0.913978
O O2 0.523955 0.850357 0.671305
O O3 0.000000 0.000000 0.500000
O O4 0.994594 0.982039 0.778488
O O5 0.837085 0.148036 0.024703
O O6 0.198683 0.452891 0.555286
O O7 0.288609 0.321012 0.741025
O O8 0.762858 0.151892 0.722005
O O9 0.471270 0.681894 0.611864
O O10 0.035599 0.380305 0.079085
O O11 0.500000 0.500000 0.000000
O O12 0.700815 0.774361 0.315476
O O13 0.517832 0.865823 0.133345
O O14 0.384345 0.694824 0.087225
O O15 0.557130 0.087222 0.228355
#
# Coordination Sequence:
#
# PCOD9093637 Si02
#       7
#     2   2   2   2   2   2   2
#     4  10  23  43  63  86 121 168 210 249 302 370
#     4  10  20  33  54  98 132 151 192 240 314 378
#     4  11  25  42  63  89 122 167 215 257 296 359
#     4  10  21  41  62  88 126 162 204 251 311 371
#     4  10  21  37  63  95 124 158 197 257 319 362
#     4  11  22  41  65  89 124 164 208 253 311 373
#     4  10  21  37  63  95 125 159 196 256 320 363
#
# _framework density 25.372886000000001
#
# number of rings (size 3 to 8) (size 9 to 14) (size 15 to 20)
#    0.000    1.714    0.000    3.857    0.000   11.429 
#    0.000    7.143    0.000    0.000    0.000    0.000 
#    0.000    0.000    0.000    0.000    0.000    0.000 
#
# Total GULP energy -78377.394226 kJ/mol
# GULP energy per Si atom -5598.385302 kJ/mol
# Density = 2.531514 g / cm^3
# Si number density = 25.372886 Si / 1000 Ang^3
#
#
#
# Elastic Constant Matrix: (Units=GPa)
#
#
# Indices 1 2 3 4 5 6 
#
# 1 176.8935 84.5469 31.7722 -29.5369 -15.2057 -13.1636
# 2 84.5469 146.6626 37.9278 -31.2393 -3.7241 -17.3314
# 3 31.7722 37.9278 70.5009 -21.2933 0.9212 -2.1217
# 4 -29.5369 -31.2393 -21.2933 41.7184 -0.2116 -3.2191
# 5 -15.2057 -3.7241 0.9212 -0.2116 48.8050 -11.1705
# 6 -13.1636 -17.3314 -2.1217 -3.2191 -11.1705 54.4754
#
#
#
# Elastic Compliance Matrix: (Units=1/GPa)
#
#
# Indices 1 2 3 4 5 6 
#
# 1 0.008441 -0.003783 -0.000910 0.002811 0.002720 0.001525
# 2 -0.003783 0.010992 -0.002821 0.004331 0.000374 0.002806
# 3 -0.000910 -0.002821 0.018062 0.006442 -0.000860 -0.000209
# 4 0.002811 0.004331 0.006442 0.032868 0.002308 0.004724
# 5 0.002720 0.000374 -0.000860 0.002308 0.022656 0.005525
# 6 0.001525 0.002806 -0.000209 0.004724 0.005525 0.021022
#
#
# Mechanical properties :
#
#
# Convention : Reuss Voigt Hill
#
# Bulk Modulus (GPa) = 44.50648 78.06121 61.28384
# Shear Modulus (GPa) = 36.61416 44.98710 40.80063
#
# Velocity S-wave (km/s) = 3.80286 4.21531 4.01439
# Velocity P-wave (km/s) = 6.07136 7.38405 6.75965
#
# Compressibility (1/GPa) = 0.02246864
#
# Stress axis : x y z
#
# Youngs Moduli (GPa) = 118.46780 90.97245 55.36341
#
# Poissons Ratio (x) = 0.34414 0.05037
# Poissons Ratio (y) = 0.44815 0.15618
# Poissons Ratio (z) = 0.10777 0.25664
#
# Static dielectric constant tensor:
#      x y z
#    x 2.057310 -0.013830 -0.017870 
#    y -0.013830 1.980990 0.113570 
#    z -0.017870 0.113570 2.082110 
# 
# From -- ./inp_files/406618.got.cif
#   From: 2010.05.17/outbox.cif.g08.bks.cpg/sg2_204_cif.got.tgz:406618.got - 2010.06.03 11:33:40.
