data_PCOD9093071
_publ_section_title
;
Structure prediction by ZEFSAII (Michael W. Deem and Ramdas Pophale) SiO2 
 PCOD9093071
Probable space group: P -1
;
_chemical_formula_sum "Si O2"
_cell_formula_units_Z 16
_cell_length_a 25.722510
_cell_length_b 5.204707
_cell_length_c 17.446510
_cell_angle_alpha 107.219765
_cell_angle_beta 158.597031
_cell_angle_gamma 72.694032
_cell_volume 812.550291
_symmetry_space_group_name_H-M "P -1"
_symmetry_group_IT_number 2
_symmetry_cell_setting 'triclinic'
loop_
_space_group_symop_operation_xyz
x,y,z
-x,-y,-z
loop_
_atom_site_type_symbol
_atom_site_label
_atom_site_fract_x
_atom_site_fract_y
_atom_site_fract_z
Si Si1 0.409216 0.245340 0.980154
Si Si2 0.229835 0.966880 0.814297
Si Si3 0.177135 0.275873 0.284780
Si Si4 0.020220 0.851896 0.136170
Si Si5 0.042298 0.046882 0.344465
Si Si6 0.526411 0.700469 0.247647
Si Si7 0.650170 0.774580 0.261610
Si Si8 0.992385 0.351787 0.599194
O O1 0.377502 0.394260 0.868644
O O2 0.271675 0.092394 0.801311
O O3 0.452774 0.420767 0.127227
O O4 0.540128 0.032109 0.129888
O O5 0.132268 0.718165 0.638817
O O6 0.133359 0.186950 0.747196
O O7 0.383869 0.893117 0.057481
O O8 0.123145 0.579629 0.261239
O O9 0.349100 0.238659 0.518368
O O10 0.109239 0.070870 0.232840
O O11 0.107967 0.219215 0.102512
O O12 0.966285 0.959486 0.154066
O O13 0.195630 0.117948 0.527920
O O14 0.988142 0.331877 0.333962
O O15 0.043634 0.798004 0.383576
O O16 0.616197 0.656839 0.286887
#
# Coordination Sequence:
#
# PCOD9093071 Si02
#       8
#     2   2   2   2   2   2   2   2
#     4  10  20  34  54  80 121 153 190 235 293 352
#     4  10  24  40  55  85 113 162 209 242 279 341
#     4  10  21  37  62  89 122 153 184 239 295 364
#     4  10  21  39  59  91 122 149 191 234 300 360
#     4  12  22  38  62  85 117 157 193 246 292 349
#     4  11  21  34  59  83 120 156 188 243 292 356
#     4  10  20  31  51  87 116 150 183 230 296 356
#     4  11  26  40  61  81 118 162 207 242 284 334
#
# _framework density 19.691087
#
# number of rings (size 3 to 8) (size 9 to 14) (size 15 to 20)
#    0.000    1.500    2.500    2.625    5.250    1.000 
#    0.000    0.000    0.000    1.500    0.000    0.000 
#    0.000    0.000    0.000    0.000    0.000    0.000 
#
# Total GULP energy -89231.175764 kJ/mol
# GULP energy per Si atom -5576.948485 kJ/mol
# Density = 1.964627 g / cm^3
# Si number density = 19.691087 Si / 1000 Ang^3
#
#
#
# Elastic Constant Matrix: (Units=GPa)
#
#
# Indices 1 2 3 4 5 6 
#
# 1 292.3937 -207.3628 -125.2700 203.5609 98.8474 158.2237
# 2 -207.3628 274.7607 147.2733 -181.7500 -91.4256 -139.9014
# 3 -125.2700 147.2733 205.3126 -130.6984 -66.1387 -105.7694
# 4 203.5609 -181.7500 -130.6984 193.4692 76.7513 140.6443
# 5 98.8474 -91.4256 -66.1387 76.7513 67.8117 63.7533
# 6 158.2237 -139.9014 -105.7694 140.6443 63.7533 138.6683
#
#
#
# Elastic Compliance Matrix: (Units=1/GPa)
#
#
# Indices 1 2 3 4 5 6 
#
# 1 0.015748 0.001580 -0.003185 -0.011843 -0.007294 -0.003438
# 2 0.001580 0.011120 -0.001945 0.005498 0.004146 0.000449
# 3 -0.003185 -0.001945 0.009989 0.004874 0.003803 0.002600
# 4 -0.011843 0.005498 0.004874 0.035574 0.002947 -0.014658
# 5 -0.007294 0.004146 0.003803 0.002947 0.034642 -0.003509
# 6 -0.003438 0.000449 0.002600 -0.014658 -0.003509 0.030050
#
#
# Mechanical properties :
#
#
# Convention : Reuss Voigt Hill
#
# Bulk Modulus (GPa) = 33.60593 44.63867 39.12230
# Shear Modulus (GPa) = 32.43719 143.84496 88.14107
#
# Velocity S-wave (km/s) = 4.06310 8.55625 6.69769
# Velocity P-wave (km/s) = 6.25423 10.96956 8.92879
#
# Compressibility (1/GPa) = 0.02975665
#
# Stress axis : x y z
#
# Youngs Moduli (GPa) = 63.50207 89.92424 100.10551
#
# Poissons Ratio (x) = -0.14210 0.31888
# Poissons Ratio (y) = -0.10035 0.19473
# Poissons Ratio (z) = 0.20228 0.17492
#
# Static dielectric constant tensor:
#      x y z
#    x 1.724790 0.003430 -0.024570 
#    y 0.003430 1.754620 0.020580 
#    z -0.024570 0.020580 1.747060 
# 
# From -- ./inp_files/83956.got.cif
#   From: 2010.05.17/outbox.cif.g08.bks.cpg/sg2_42_cif.got.tgz:83956.got - 2010.06.03 11:33:40.
