data_PCOD9093207
_publ_section_title
;
Structure prediction by ZEFSAII (Michael W. Deem and Ramdas Pophale) SiO2 
 PCOD9093207
Probable space group: P -1
;
_chemical_formula_sum "Si O2"
_cell_formula_units_Z 13
_cell_length_a 9.432730
_cell_length_b 13.548292
_cell_length_c 8.287591
_cell_angle_alpha 87.038662
_cell_angle_beta 149.000304
_cell_angle_gamma 89.300256
_cell_volume 541.464082
_symmetry_space_group_name_H-M "P -1"
_symmetry_group_IT_number 2
_symmetry_cell_setting 'triclinic'
loop_
_space_group_symop_operation_xyz
x,y,z
-x,-y,-z
loop_
_atom_site_type_symbol
_atom_site_label
_atom_site_fract_x
_atom_site_fract_y
_atom_site_fract_z
Si Si1 0.000000 0.500000 0.000000
Si Si2 0.149135 0.676525 0.373645
Si Si3 0.029552 0.739268 0.919603
Si Si4 0.765858 0.933695 0.827405
Si Si5 0.401822 0.201726 0.076507
Si Si6 0.545774 0.728915 0.217755
Si Si7 0.505962 0.519506 0.266863
O O1 0.707451 0.543956 0.609653
O O2 0.801835 0.494880 0.974497
O O3 0.350959 0.764085 0.573849
O O4 0.330237 0.581844 0.627954
O O5 0.080330 0.652653 0.116987
O O6 0.863883 0.715559 0.175083
O O7 0.860134 0.828310 0.843330
O O8 0.850706 0.726625 0.588574
O O9 0.327600 0.760319 0.145003
O O10 0.700704 0.899282 0.947720
O O11 0.500000 0.000000 0.500000
O O12 0.000000 0.000000 0.000000
O O13 0.496759 0.202048 0.985098
O O14 0.493950 0.616489 0.136591
#
# Coordination Sequence:
#
# PCOD9093207 Si02
#       7
#     1   2   2   2   2   2   2
#     4  10  20  32  50  86 116 156 218 264 288 328
#     4  11  22  40  63  90 127 176 224 245 289 363
#     4  11  23  41  66  95 124 164 209 259 308 371
#     4  11  23  45  71  91 116 160 210 252 312 394
#     4  11  25  42  63  95 131 162 202 268 317 363
#     4  12  24  40  62  96 137 163 201 260 322 354
#     4  11  21  35  59  87 127 175 213 250 293 357
#
# _framework density 24.008980999999999
#
# number of rings (size 3 to 8) (size 9 to 14) (size 15 to 20)
#    0.000    0.923    0.000   10.154    0.000    2.462 
#    0.000    4.615    0.000    0.000    0.000    0.000 
#    0.000    0.000    0.000    0.000    0.000    0.000 
#
# Total GULP energy -72537.796577 kJ/mol
# GULP energy per Si atom -5579.830506 kJ/mol
# Density = 2.395434 g / cm^3
# Si number density = 24.008981 Si / 1000 Ang^3
#
#
#
# Elastic Constant Matrix: (Units=GPa)
#
#
# Indices 1 2 3 4 5 6 
#
# 1 90.9499 20.0464 37.2088 -8.0267 -4.5951 30.3269
# 2 20.0464 73.5586 12.3881 -19.9880 -5.4613 29.5468
# 3 37.2088 12.3881 137.9649 6.9260 29.1830 7.4898
# 4 -8.0267 -19.9880 6.9260 45.1677 -2.2333 11.9104
# 5 -4.5951 -5.4613 29.1830 -2.2333 50.4441 -6.4581
# 6 30.3269 29.5468 7.4898 11.9104 -6.4581 44.7189
#
#
#
# Elastic Compliance Matrix: (Units=1/GPa)
#
#
# Indices 1 2 3 4 5 6 
#
# 1 0.020644 0.008463 -0.006858 0.014392 0.004635 -0.021607
# 2 0.008463 0.032577 -0.005696 0.025580 0.004570 -0.032462
# 3 -0.006858 -0.005696 0.011070 -0.007794 -0.007015 0.007622
# 4 0.014392 0.025580 -0.007794 0.047287 0.005934 -0.037093
# 5 0.004635 0.004570 -0.007015 0.005934 0.024677 -0.003004
# 6 -0.021607 -0.032462 0.007622 -0.037093 -0.003004 0.066633
#
#
# Mechanical properties :
#
#
# Convention : Reuss Voigt Hill
#
# Bulk Modulus (GPa) = 17.82198 49.08444 33.45321
# Shear Modulus (GPa) = 21.76057 43.58815 32.67436
#
# Velocity S-wave (km/s) = 3.01383 4.26548 3.69307
# Velocity P-wave (km/s) = 4.42155 6.68937 5.67000
#
# Compressibility (1/GPa) = 0.05611049
#
# Stress axis : x y z
#
# Youngs Moduli (GPa) = 48.43920 30.69653 90.33091
#
# Poissons Ratio (x) = -0.25978 0.61945
# Poissons Ratio (y) = -0.40993 0.51452
# Poissons Ratio (z) = 0.33217 0.17484
#
# Static dielectric constant tensor:
#      x y z
#    x 1.890020 0.106320 -0.010030 
#    y 0.106320 1.965970 -0.003460 
#    z -0.010030 -0.003460 1.836570 
# 
# From -- ./inp_files/201696.got.cif
#   From: 2010.05.17/outbox.cif.g08.bks.cpg/sg2_101_cif.got.tgz:201696.got - 2010.06.03 11:33:40.
