data_PCOD9093229
_publ_section_title
;
Structure prediction by ZEFSAII (Michael W. Deem and Ramdas Pophale) SiO2 
 PCOD9093229
Probable space group: P -1
;
_chemical_formula_sum "Si O2"
_cell_formula_units_Z 16
_cell_length_a 18.902512
_cell_length_b 8.434286
_cell_length_c 6.788100
_cell_angle_alpha 123.759555
_cell_angle_beta 129.157663
_cell_angle_gamma 50.648338
_cell_volume 626.753529
_symmetry_space_group_name_H-M "P -1"
_symmetry_group_IT_number 2
_symmetry_cell_setting 'triclinic'
loop_
_space_group_symop_operation_xyz
x,y,z
-x,-y,-z
loop_
_atom_site_type_symbol
_atom_site_label
_atom_site_fract_x
_atom_site_fract_y
_atom_site_fract_z
Si Si1 0.674527 0.745093 0.799598
Si Si2 0.126902 0.009919 0.716557
Si Si3 0.526463 0.162214 0.359028
Si Si4 0.261311 0.731176 0.425833
Si Si5 0.517496 0.411934 0.189260
Si Si6 0.860270 0.665771 0.320762
Si Si7 0.246225 0.143922 0.342954
Si Si8 0.911336 0.169654 0.092033
O O1 0.556081 0.896956 0.719755
O O2 0.689423 0.512405 0.713593
O O3 0.720293 0.711052 0.637402
O O4 0.748286 0.776686 0.105063
O O5 0.085939 0.222952 0.648488
O O6 0.183953 0.820778 0.532420
O O7 0.072248 0.922760 0.721175
O O8 0.204451 0.045687 0.027863
O O9 0.478400 0.257413 0.124725
O O10 0.523392 0.368425 0.609888
O O11 0.644469 0.002589 0.470975
O O12 0.362628 0.739798 0.681920
O O13 0.191365 0.831294 0.181970
O O14 0.500000 0.500000 0.000000
O O15 0.839518 0.734357 0.560122
O O16 0.900982 0.409759 0.206442
O O17 0.000000 0.000000 0.000000
#
# Coordination Sequence:
#
# PCOD9093229 Si02
#       8
#     2   2   2   2   2   2   2   2
#     4   9  21  36  56  85 124 168 209 258 305 355
#     4  11  22  40  67  91 123 165 201 253 318 372
#     4  10  20  32  51  85 121 159 214 255 293 363
#     4  10  21  41  63  90 125 165 211 254 305 370
#     4  10  20  33  54  85 123 165 207 252 301 357
#     4  10  23  41  62  92 124 160 207 255 312 380
#     4  11  21  38  60  88 125 165 206 255 314 367
#     4  11  25  45  69  94 121 159 207 261 319 375
#
# _framework density 25.528379000000001
#
# number of rings (size 3 to 8) (size 9 to 14) (size 15 to 20)
#    0.000    1.750    0.000    4.125    0.000    8.500 
#    0.000    2.500    0.000    0.000    0.000    0.000 
#    0.000    0.000    0.000    0.000    0.000    0.000 
#
# Total GULP energy -89144.114943 kJ/mol
# GULP energy per Si atom -5571.507184 kJ/mol
# Density = 2.547028 g / cm^3
# Si number density = 25.528379 Si / 1000 Ang^3
#
#
#
# Elastic Constant Matrix: (Units=GPa)
#
#
# Indices 1 2 3 4 5 6 
#
# 1 115.3746 50.2655 31.5771 -15.5011 -23.2341 16.0909
# 2 50.2655 123.4863 47.8826 -10.2275 -12.6391 -16.5898
# 3 31.5771 47.8826 102.7646 -20.3687 -31.9836 0.5396
# 4 -15.5011 -10.2275 -20.3687 55.6697 -0.0420 -11.9466
# 5 -23.2341 -12.6391 -31.9836 -0.0420 49.3237 -0.5249
# 6 16.0909 -16.5898 0.5396 -11.9466 -0.5249 22.9411
#
#
#
# Elastic Compliance Matrix: (Units=1/GPa)
#
#
# Indices 1 2 3 4 5 6 
#
# 1 0.015559 -0.008466 0.000855 -0.000607 0.005530 -0.017245
# 2 -0.008466 0.016121 -0.005474 0.002687 -0.003201 0.019051
# 3 0.000855 -0.005474 0.015795 0.004510 0.009221 -0.002370
# 4 -0.000607 0.002687 0.004510 0.023015 0.003499 0.014328
# 5 0.005530 -0.003201 0.009221 0.003499 0.027999 -0.003948
# 6 -0.017245 0.019051 -0.002370 0.014328 -0.003948 0.076889
#
#
# Mechanical properties :
#
#
# Convention : Reuss Voigt Hill
#
# Bulk Modulus (GPa) = 46.93549 66.78622 56.86086
# Shear Modulus (GPa) = 23.96373 39.71358 31.83865
#
# Velocity S-wave (km/s) = 3.06716 3.94847 3.53538
# Velocity P-wave (km/s) = 5.56496 6.85606 6.24397
#
# Compressibility (1/GPa) = 0.02130584
#
# Stress axis : x y z
#
# Youngs Moduli (GPa) = 64.27183 62.03111 63.31185
#
# Poissons Ratio (x) = 0.52515 -0.05415
# Poissons Ratio (y) = 0.54412 0.34656
# Poissons Ratio (z) = -0.05497 0.33955
#
# Static dielectric constant tensor:
#      x y z
#    x 2.305380 0.155180 0.092470 
#    y 0.155180 2.031800 -0.028580 
#    z 0.092470 -0.028580 2.057400 
# 
# From -- ./inp_files/117485.got.cif
#   From: 2010.05.17/outbox.cif.g08.bks.cpg/sg2_59_cif.got.tgz:117485.got - 2010.06.03 11:33:40.
