data_PCOD9093792
_publ_section_title
;
Structure prediction by ZEFSAII (Michael W. Deem and Ramdas Pophale) SiO2 
 PCOD9093792
Probable space group: P -1
;
_chemical_formula_sum "Si O2"
_cell_formula_units_Z 14
_cell_length_a 7.163913
_cell_length_b 9.545255
_cell_length_c 12.822164
_cell_angle_alpha 115.508714
_cell_angle_beta 63.226240
_cell_angle_gamma 68.632190
_cell_volume 509.374509
_symmetry_space_group_name_H-M "P -1"
_symmetry_group_IT_number 2
_symmetry_cell_setting 'triclinic'
loop_
_space_group_symop_operation_xyz
x,y,z
-x,-y,-z
loop_
_atom_site_type_symbol
_atom_site_label
_atom_site_fract_x
_atom_site_fract_y
_atom_site_fract_z
Si Si1 0.224901 0.178993 0.399856
Si Si2 0.346095 0.420421 0.536690
Si Si3 0.536750 0.755948 0.096540
Si Si4 0.758333 0.967880 0.318385
Si Si5 0.836300 0.237209 0.662948
Si Si6 0.025942 0.253901 0.101492
Si Si7 0.746225 0.177682 0.010673
O O1 0.288379 0.329722 0.427881
O O2 0.500977 0.991987 0.347664
O O3 0.917236 0.313563 0.575127
O O4 0.285351 0.021515 0.245700
O O5 0.500000 0.500000 0.500000
O O6 0.566703 0.209844 0.486162
O O7 0.059057 0.608299 0.730996
O O8 0.455599 0.679103 0.183777
O O9 0.249475 0.692971 0.861072
O O10 0.496767 0.694291 0.974994
O O11 0.956014 0.934986 0.164486
O O12 0.975186 0.798894 0.296739
O O13 0.000000 0.000000 0.500000
O O14 0.230808 0.003609 0.001303
O O15 0.167243 0.301803 0.001337
#
# Coordination Sequence:
#
# PCOD9093792 Si02
#       7
#     2   2   2   2   2   2   2
#     4   9  18  35  58  81 107 144 187 227 274 318
#     4  10  20  34  56  82 116 147 178 222 283 338
#     4  10  20  35  56  85 106 142 196 227 267 321
#     4   9  17  34  58  81 104 145 184 222 275 320
#     4   9  18  33  58  83 107 138 194 239 258 317
#     4  11  19  36  53  79 116 149 179 226 273 332
#     4  10  20  33  58  78 110 149 188 225 267 324
#
# _framework density 27.484688999999999
#
# number of rings (size 3 to 8) (size 9 to 14) (size 15 to 20)
#    0.857    1.429    2.857    0.857    2.000    0.000 
#    0.000    5.714    0.000   12.000    0.000    0.000 
#    0.000    0.000    0.000    0.000    0.000    0.000 
#
# Total GULP energy -78194.256371 kJ/mol
# GULP energy per Si atom -5585.304027 kJ/mol
# Density = 2.742213 g / cm^3
# Si number density = 27.484689 Si / 1000 Ang^3
#
#
#
# Elastic Constant Matrix: (Units=GPa)
#
#
# Indices 1 2 3 4 5 6 
#
# 1 110.0526 40.6843 9.5687 3.7591 -8.2225 19.0761
# 2 40.6843 104.6472 17.5409 3.7975 -3.9104 16.0806
# 3 9.5687 17.5409 52.6654 6.9832 0.0467 5.5419
# 4 3.7591 3.7975 6.9832 31.8986 18.8100 -4.0922
# 5 -8.2225 -3.9104 0.0467 18.8100 44.8975 -5.4836
# 6 19.0761 16.0806 5.5419 -4.0922 -5.4836 50.0876
#
#
#
# Elastic Compliance Matrix: (Units=1/GPa)
#
#
# Indices 1 2 3 4 5 6 
#
# 1 0.011274 -0.003700 -0.000136 -0.002732 0.002516 -0.003039
# 2 -0.003700 0.011858 -0.002941 -0.000878 0.000470 -0.002093
# 3 -0.000136 -0.002941 0.020880 -0.005464 0.001795 -0.001564
# 4 -0.002732 -0.000878 -0.005464 0.044499 -0.018786 0.003506
# 5 0.002516 0.000470 0.001795 -0.018786 0.030707 0.000519
# 6 -0.003039 -0.002093 -0.001564 0.003506 0.000519 0.022310
#
#
# Mechanical properties :
#
#
# Convention : Reuss Voigt Hill
#
# Bulk Modulus (GPa) = 32.83318 44.77256 38.80287
# Shear Modulus (GPa) = 30.25961 38.68149 34.47055
#
# Velocity S-wave (km/s) = 3.32168 3.75558 3.54527
# Velocity P-wave (km/s) = 5.16559 5.92716 5.55943
#
# Compressibility (1/GPa) = 0.03045700
#
# Stress axis : x y z
#
# Youngs Moduli (GPa) = 88.69726 84.32777 47.89360
#
# Poissons Ratio (x) = 0.31204 0.00653
# Poissons Ratio (y) = 0.32820 0.14086
# Poissons Ratio (z) = 0.01209 0.24802
#
# Static dielectric constant tensor:
#      x y z
#    x 2.135070 -0.065880 0.032870 
#    y -0.065880 2.183020 0.040950 
#    z 0.032870 0.040950 2.229460 
# 
# From -- ./inp_files/496879.got.cif
#   From: 2010.05.17/outbox.cif.g08.bks.cpg/sg2_249_cif.got.tgz:496879.got - 2010.06.03 11:33:40.
