data_PCOD9093760
_publ_section_title
;
Structure prediction by ZEFSAII (Michael W. Deem and Ramdas Pophale) SiO2 
 PCOD9093760
Probable space group: P -1
;
_chemical_formula_sum "Si O2"
_cell_formula_units_Z 16
_cell_length_a 8.272777
_cell_length_b 9.424579
_cell_length_c 20.892344
_cell_angle_alpha 142.655239
_cell_angle_beta 70.999707
_cell_angle_gamma 90.244344
_cell_volume 837.220154
_symmetry_space_group_name_H-M "P -1"
_symmetry_group_IT_number 2
_symmetry_cell_setting 'triclinic'
loop_
_space_group_symop_operation_xyz
x,y,z
-x,-y,-z
loop_
_atom_site_type_symbol
_atom_site_label
_atom_site_fract_x
_atom_site_fract_y
_atom_site_fract_z
Si Si1 0.150422 0.239846 0.545612
Si Si2 0.431619 0.737427 0.799485
Si Si3 0.047715 0.285925 0.719384
Si Si4 0.862455 0.898780 0.944465
Si Si5 0.465766 0.174920 0.631062
Si Si6 0.809237 0.551687 0.608145
Si Si7 0.036165 0.866562 0.655070
Si Si8 0.880034 0.196379 0.235593
O O1 0.079447 0.194968 0.608260
O O2 0.192741 0.490881 0.639188
O O3 0.981026 0.342097 0.553555
O O4 0.345059 0.993001 0.412807
O O5 0.453909 0.453523 0.715080
O O6 0.628875 0.693988 0.727449
O O7 0.271514 0.847441 0.803854
O O8 0.347357 0.923276 0.938213
O O9 0.257543 0.221874 0.697672
O O10 0.926452 0.596989 0.844686
O O11 0.969572 0.123490 0.713434
O O12 0.920062 0.906807 0.866074
O O13 0.000000 0.000000 0.000000
O O14 0.500000 0.000000 0.500000
O O15 0.790105 0.372477 0.489852
O O16 0.880939 0.754736 0.643970
O O17 0.094484 0.907093 0.733218
#
# Coordination Sequence:
#
# PCOD9093760 Si02
#       8
#     2   2   2   2   2   2   2   2
#     4   9  18  34  56  80 109 142 186 227 275 321
#     4  11  19  34  61  83 109 140 190 231 267 318
#     4  10  18  34  58  82 107 143 187 233 268 319
#     4   9  17  36  60  83 106 137 191 240 265 303
#     4  10  16  29  56  89 100 130 185 237 267 310
#     4  10  22  38  52  82 119 149 175 222 277 339
#     4  10  22  37  53  79 120 151 175 218 284 336
#     4   9  18  36  57  80 110 147 182 222 279 327
#
# _framework density 19.110863999999999
#
# number of rings (size 3 to 8) (size 9 to 14) (size 15 to 20)
#    0.000    2.250    5.000    1.500    0.000    2.500 
#    4.500    8.750    0.000    0.000    0.000    0.000 
#    0.000    0.000    0.000    0.000    0.000    0.000 
#
# Total GULP energy -89210.147642 kJ/mol
# GULP energy per Si atom -5575.634228 kJ/mol
# Density = 1.906737 g / cm^3
# Si number density = 19.110864 Si / 1000 Ang^3
#
#
#
# Elastic Constant Matrix: (Units=GPa)
#
#
# Indices 1 2 3 4 5 6 
#
# 1 45.6904 31.5671 29.0540 -10.4828 -12.4487 -1.8927
# 2 31.5671 119.4311 33.9225 -2.1103 -1.5315 0.6606
# 3 29.0540 33.9225 105.8225 -0.5078 -24.3523 2.2521
# 4 -10.4828 -2.1103 -0.5078 20.8067 7.2712 7.2067
# 5 -12.4487 -1.5315 -24.3523 7.2712 25.5054 -4.6748
# 6 -1.8927 0.6606 2.2521 7.2067 -4.6748 22.5844
#
#
#
# Elastic Compliance Matrix: (Units=1/GPa)
#
#
# Indices 1 2 3 4 5 6 
#
# 1 0.036193 -0.007624 -0.005611 0.014220 0.007966 0.000927
# 2 -0.007624 0.011130 -0.002846 0.000047 -0.006145 -0.001968
# 3 -0.005611 -0.002846 0.015252 -0.009513 0.015146 0.004263
# 4 0.014220 0.000047 -0.009513 0.074448 -0.028404 -0.027497
# 5 0.007966 -0.006145 0.015146 -0.028404 0.069460 0.022778
# 6 0.000927 -0.001968 0.004263 -0.027497 0.022778 0.057478
#
#
# Mechanical properties :
#
#
# Convention : Reuss Voigt Hill
#
# Bulk Modulus (GPa) = 32.88291 51.11460 41.99875
# Shear Modulus (GPa) = 16.32589 25.53931 20.93260
#
# Velocity S-wave (km/s) = 2.92597 3.65961 3.31316
# Velocity P-wave (km/s) = 5.35339 6.68292 6.05476
#
# Compressibility (1/GPa) = 0.03041094
#
# Stress axis : x y z
#
# Youngs Moduli (GPa) = 27.62934 89.85048 65.56544
#
# Poissons Ratio (x) = 0.68504 0.36791
# Poissons Ratio (y) = 0.21065 0.18662
# Poissons Ratio (z) = 0.15504 0.25575
#
# Static dielectric constant tensor:
#      x y z
#    x 1.739870 -0.007480 0.011280 
#    y -0.007480 1.661320 -0.027540 
#    z 0.011280 -0.027540 1.698080 
# 
# From -- ./inp_files/177817.got.cif
#   From: 2010.05.17/outbox.cif.g08.bks.cpg/sg2_89_cif.got.tgz:177817.got - 2010.06.03 11:33:40.
