data_PCOD9093834
_publ_section_title
;
Structure prediction by ZEFSAII (Michael W. Deem and Ramdas Pophale) SiO2 
 PCOD9093834
Probable space group: P -1
;
_chemical_formula_sum "Si O2"
_cell_formula_units_Z 14
_cell_length_a 12.516361
_cell_length_b 8.711048
_cell_length_c 21.201177
_cell_angle_alpha 41.275510
_cell_angle_beta 27.084617
_cell_angle_gamma 35.210029
_cell_volume 604.267801
_symmetry_space_group_name_H-M "P -1"
_symmetry_group_IT_number 2
_symmetry_cell_setting 'triclinic'
loop_
_space_group_symop_operation_xyz
x,y,z
-x,-y,-z
loop_
_atom_site_type_symbol
_atom_site_label
_atom_site_fract_x
_atom_site_fract_y
_atom_site_fract_z
Si Si1 0.013712 0.211331 0.513693
Si Si2 0.251773 0.190588 0.528593
Si Si3 0.247472 0.218324 0.873430
Si Si4 0.801195 0.797510 0.718227
Si Si5 0.237975 0.515271 0.667504
Si Si6 0.301981 0.376796 0.924631
Si Si7 0.135741 0.989503 0.196187
O O1 0.783624 0.517048 0.548994
O O2 0.210822 0.128860 0.496125
O O3 0.152894 0.230529 0.371131
O O4 0.891372 0.017563 0.623360
O O5 0.015406 0.167404 0.696563
O O6 0.500000 0.000000 0.500000
O O7 0.315132 0.277972 0.749780
O O8 0.290962 0.396025 0.849286
O O9 0.482947 0.921147 0.859095
O O10 0.923889 0.345872 0.010868
O O11 0.018324 0.544531 0.721775
O O12 0.500000 0.500000 0.500000
O O13 0.067557 0.770779 0.724397
O O14 0.600004 0.238822 0.837609
O O15 0.222520 0.146064 0.053855
#
# Coordination Sequence:
#
# PCOD9093834 Si02
#       7
#     2   2   2   2   2   2   2
#     4  10  23  38  57  90 128 165 196 249 317 377
#     4  11  24  39  59  89 132 171 196 244 325 381
#     4  10  20  33  58  91 118 157 200 265 311 343
#     4  11  21  37  62  90 127 154 210 260 298 371
#     4  11  21  31  57  92 126 155 194 262 317 358
#     4   9  19  37  59  87 120 162 217 261 292 348
#     4  10  20  38  59  87 125 161 211 258 299 369
#
# _framework density 23.168534999999999
#
# number of rings (size 3 to 8) (size 9 to 14) (size 15 to 20)
#    0.000    1.714    2.857    1.714    6.000    0.000 
#    2.571    0.714    0.000    1.714    0.000    0.000 
#    0.000    0.000    0.000    0.000    0.000    0.000 
#
# Total GULP energy -78006.020340 kJ/mol
# GULP energy per Si atom -5571.858596 kJ/mol
# Density = 2.311580 g / cm^3
# Si number density = 23.168535 Si / 1000 Ang^3
#
#
#
# Elastic Constant Matrix: (Units=GPa)
#
#
# Indices 1 2 3 4 5 6 
#
# 1 127.8519 60.6396 31.4366 9.9615 4.9117 -44.5201
# 2 60.6396 48.4099 18.9878 15.4198 -14.2345 -28.0460
# 3 31.4366 18.9878 78.2500 20.8369 -3.4578 -16.2818
# 4 9.9615 15.4198 20.8369 38.1591 -4.2526 -12.4302
# 5 4.9117 -14.2345 -3.4578 -4.2526 42.0195 10.1847
# 6 -44.5201 -28.0460 -16.2818 -12.4302 10.1847 48.7302
#
#
#
# Elastic Compliance Matrix: (Units=1/GPa)
#
#
# Indices 1 2 3 4 5 6 
#
# 1 0.033351 -0.043367 -0.004832 0.012911 -0.020459 0.011465
# 2 -0.043367 0.091862 0.003098 -0.023311 0.033774 0.001280
# 3 -0.004832 0.003098 0.016408 -0.008652 0.002036 0.000218
# 4 0.012911 -0.023311 -0.008652 0.038354 -0.007915 0.006926
# 5 -0.020459 0.033774 0.002036 -0.007915 0.039123 -0.008769
# 6 0.011465 0.001280 0.000218 0.006926 -0.008769 0.035405
#
#
# Mechanical properties :
#
#
# Convention : Reuss Voigt Hill
#
# Bulk Modulus (GPa) = 19.44811 52.95997 36.20404
# Shear Modulus (GPa) = 13.81804 35.34496 24.58150
#
# Velocity S-wave (km/s) = 2.44481 3.91008 3.26081
# Velocity P-wave (km/s) = 4.04745 6.57975 5.46237
#
# Compressibility (1/GPa) = 0.05141887
#
# Stress axis : x y z
#
# Youngs Moduli (GPa) = 29.98421 10.88585 60.94430
#
# Poissons Ratio (x) = 0.47209 0.29447
# Poissons Ratio (y) = 1.30033 -0.18879
# Poissons Ratio (z) = 0.14488 -0.03372
#
# Static dielectric constant tensor:
#      x y z
#    x 1.901710 -0.052060 0.025260 
#    y -0.052060 1.960140 0.036070 
#    z 0.025260 0.036070 1.926280 
# 
# From -- ./inp_files/594011.got.cif
#   From: 2010.05.17/outbox.cif.g08.bks.cpg/sg2_298_cif.got.tgz:594011.got - 2010.06.03 11:33:40.
