data_PCOD9093677
_publ_section_title
;
Structure prediction by ZEFSAII (Michael W. Deem and Ramdas Pophale) SiO2 
 PCOD9093677
Probable space group: P -1
;
_chemical_formula_sum "Si O2"
_cell_formula_units_Z 16
_cell_length_a 23.106781
_cell_length_b 12.310059
_cell_length_c 5.714290
_cell_angle_alpha 109.109230
_cell_angle_beta 117.630424
_cell_angle_gamma 28.260270
_cell_volume 668.957007
_symmetry_space_group_name_H-M "P -1"
_symmetry_group_IT_number 2
_symmetry_cell_setting 'triclinic'
loop_
_space_group_symop_operation_xyz
x,y,z
-x,-y,-z
loop_
_atom_site_type_symbol
_atom_site_label
_atom_site_fract_x
_atom_site_fract_y
_atom_site_fract_z
Si Si1 0.044945 0.614990 0.587474
Si Si2 0.090632 0.802200 0.725743
Si Si3 0.476977 0.795131 0.875650
Si Si4 0.579422 0.361617 0.300781
Si Si5 0.725435 0.349425 0.735928
Si Si6 0.298507 0.174965 0.423352
Si Si7 0.341832 0.359324 0.564343
Si Si8 0.883853 0.677439 0.098921
O O1 0.032250 0.771592 0.692224
O O2 0.165331 0.406888 0.485521
O O3 0.089615 0.476244 0.802290
O O4 0.914267 0.747460 0.346123
O O5 0.226741 0.554755 0.678759
O O6 0.134999 0.831773 0.013935
O O7 0.000000 0.000000 0.500000
O O8 0.382415 0.831061 0.764972
O O9 0.613885 0.527533 0.854463
O O10 0.412866 0.968456 0.674339
O O11 0.522026 0.803292 0.181928
O O12 0.500000 0.500000 0.500000
O O13 0.695484 0.278843 0.487575
O O14 0.500000 0.500000 0.000000
O O15 0.694035 0.504443 0.619571
O O16 0.337062 0.232934 0.406643
O O17 0.255145 0.133273 0.155838
O O18 0.000000 0.500000 0.000000
#
# Coordination Sequence:
#
# PCOD9093677 Si02
#       8
#     2   2   2   2   2   2   2   2
#     4   9  19  37  56  79 116 148 185 245 295 351
#     4  10  22  38  57  84 111 150 199 243 300 361
#     4  10  21  35  55  85 114 151 196 236 295 359
#     4  10  20  39  62  84 119 163 202 247 299 355
#     4  10  21  37  59  81 115 155 192 245 300 354
#     4  10  20  33  55  86 112 148 191 236 293 358
#     4  10  20  37  56  78 117 149 187 244 297 353
#     4   9  18  35  57  76 109 148 187 236 300 347
#
# _framework density 23.917829999999999
#
# number of rings (size 3 to 8) (size 9 to 14) (size 15 to 20)
#    0.000    2.250    1.250    1.125    0.000    3.000 
#    0.000    3.750    0.000    0.000    0.000    0.000 
#    0.000    0.000    0.000    0.000    0.000    0.000 
#
# Total GULP energy -89352.910836 kJ/mol
# GULP energy per Si atom -5584.556927 kJ/mol
# Density = 2.386339 g / cm^3
# Si number density = 23.917830 Si / 1000 Ang^3
#
#
#
# Elastic Constant Matrix: (Units=GPa)
#
#
# Indices 1 2 3 4 5 6 
#
# 1 154.3974 29.8537 59.2582 -2.8413 22.4276 26.5168
# 2 29.8537 59.7553 29.6885 17.0820 19.5190 -1.4306
# 3 59.2582 29.6885 170.5171 -19.1442 33.0350 8.3379
# 4 -2.8413 17.0820 -19.1442 34.7712 -10.2863 -5.0322
# 5 22.4276 19.5190 33.0350 -10.2863 44.1523 1.0531
# 6 26.5168 -1.4306 8.3379 -5.0322 1.0531 34.1172
#
#
#
# Elastic Compliance Matrix: (Units=1/GPa)
#
#
# Indices 1 2 3 4 5 6 
#
# 1 0.009288 -0.003130 -0.002054 -0.000331 -0.001711 -0.006844
# 2 -0.003130 0.031334 -0.004150 -0.021879 -0.014301 0.001975
# 3 -0.002054 -0.004150 0.008335 0.005918 -0.001987 0.000320
# 4 -0.000331 -0.021879 0.005918 0.048288 0.016555 0.004505
# 5 -0.001711 -0.014301 -0.001987 0.016555 0.035123 0.002574
# 6 -0.006844 0.001975 0.000320 0.004505 0.002574 0.035220
#
#
# Mechanical properties :
#
#
# Convention : Reuss Voigt Hill
#
# Bulk Modulus (GPa) = 33.01562 69.14118 51.07840
# Shear Modulus (GPa) = 25.46444 40.33278 32.89861
#
# Velocity S-wave (km/s) = 3.26646 4.11092 3.71278
# Velocity P-wave (km/s) = 5.29718 7.17659 6.30728
#
# Compressibility (1/GPa) = 0.03028869
#
# Stress axis : x y z
#
# Youngs Moduli (GPa) = 107.66241 31.91432 119.98284
#
# Poissons Ratio (x) = 0.09990 0.24642
# Poissons Ratio (y) = 0.33702 0.49792
# Poissons Ratio (z) = 0.22111 0.13244
#
# Static dielectric constant tensor:
#      x y z
#    x 1.936660 -0.061300 0.027990 
#    y -0.061300 1.857400 -0.000510 
#    z 0.027990 -0.000510 1.893970 
# 
# From -- ./inp_files/71110.got.cif
#   From: 2010.05.17/outbox.cif.g08.bks.cpg/sg2_36_cif.got.tgz:71110.got - 2010.06.03 11:33:40.
