data_PCOD9093513
_publ_section_title
;
Structure prediction by ZEFSAII (Michael W. Deem and Ramdas Pophale) SiO2 
 PCOD9093513
Probable space group: P -1
;
_chemical_formula_sum "Si O2"
_cell_formula_units_Z 16
_cell_length_a 5.504722
_cell_length_b 21.713918
_cell_length_c 19.944016
_cell_angle_alpha 19.224533
_cell_angle_beta 69.049704
_cell_angle_gamma 76.240988
_cell_volume 693.388808
_symmetry_space_group_name_H-M "P -1"
_symmetry_group_IT_number 2
_symmetry_cell_setting 'triclinic'
loop_
_space_group_symop_operation_xyz
x,y,z
-x,-y,-z
loop_
_atom_site_type_symbol
_atom_site_label
_atom_site_fract_x
_atom_site_fract_y
_atom_site_fract_z
Si Si1 0.582672 0.851482 0.231257
Si Si2 0.634765 0.436247 0.858417
Si Si3 0.942443 0.786313 0.830563
Si Si4 0.778353 0.066716 0.207918
Si Si5 0.245757 0.540292 0.018378
Si Si6 0.208783 0.843639 0.525669
Si Si7 0.110168 0.717496 0.301332
Si Si8 0.094649 0.822856 0.400420
O O1 0.348915 0.743460 0.308367
O O2 0.388455 0.834599 0.331778
O O3 0.827171 0.757189 0.310977
O O4 0.733673 0.085621 0.960703
O O5 0.707690 0.447126 0.919043
O O6 0.855306 0.621907 0.612211
O O7 0.313609 0.406710 0.926185
O O8 0.657509 0.239211 0.021757
O O9 0.071417 0.851255 0.822859
O O10 0.831676 0.961054 0.637874
O O11 0.162124 0.735855 0.813769
O O12 0.529380 0.877239 0.451953
O O13 0.982694 0.001850 0.206634
O O14 0.982668 0.353416 0.220177
O O15 0.500000 0.500000 0.000000
O O16 0.115748 0.834543 0.466585
O O17 0.000000 0.500000 0.500000
#
# Coordination Sequence:
#
# PCOD9093513 Si02
#       8
#     2   2   2   2   2   2   2   2
#     4  10  23  40  65  95 122 165 211 249 294 369
#     4   9  19  36  52  75 111 139 180 233 282 342
#     4   9  18  35  51  72 104 139 177 224 284 339
#     4   9  18  34  54  76 109 142 173 229 290 340
#     4  10  20  33  52  74  99 142 187 226 279 338
#     4   9  19  35  53  74 109 139 173 235 284 332
#     4  10  22  45  64  88 132 166 203 250 301 350
#     4  10  20  34  56  85 109 141 185 233 285 331
#
# _framework density 23.075074999999998
#
# number of rings (size 3 to 8) (size 9 to 14) (size 15 to 20)
#    0.000    2.500    0.000    1.125    1.750    2.000 
#    6.750    5.625    0.000    0.000    0.000    0.000 
#    0.000    0.000    0.000    0.000    0.000    0.000 
#
# Total GULP energy -89182.321441 kJ/mol
# GULP energy per Si atom -5573.895090 kJ/mol
# Density = 2.302256 g / cm^3
# Si number density = 23.075075 Si / 1000 Ang^3
#
#
#
# Elastic Constant Matrix: (Units=GPa)
#
#
# Indices 1 2 3 4 5 6 
#
# 1 83.3507 26.1522 30.1269 -5.3921 -28.0671 -21.9731
# 2 26.1522 95.8903 50.8414 -13.6872 2.7594 -42.3331
# 3 30.1269 50.8414 97.6426 -24.8726 -28.9763 -14.6424
# 4 -5.3921 -13.6872 -24.8726 19.4367 1.0436 -2.0680
# 5 -28.0671 2.7594 -28.9763 1.0436 36.6707 0.4995
# 6 -21.9731 -42.3331 -14.6424 -2.0680 0.4995 49.4781
#
#
#
# Elastic Compliance Matrix: (Units=1/GPa)
#
#
# Indices 1 2 3 4 5 6 
#
# 1 0.020708 -0.004749 0.005336 0.008883 0.020077 0.006881
# 2 -0.004749 0.029141 -0.016239 0.001383 -0.018948 0.018267
# 3 0.005336 -0.016239 0.034924 0.033006 0.031965 -0.000132
# 4 0.008883 0.001383 0.033006 0.097514 0.029746 0.018672
# 5 0.020077 -0.018948 0.031965 0.029746 0.068436 0.002717
# 6 0.006881 0.018267 -0.000132 0.018672 0.002717 0.039610
#
#
# Mechanical properties :
#
#
# Convention : Reuss Voigt Hill
#
# Bulk Modulus (GPa) = 18.70242 54.56940 36.63591
# Shear Modulus (GPa) = 14.72925 32.43465 23.58195
#
# Velocity S-wave (km/s) = 2.52924 3.75322 3.20029
# Velocity P-wave (km/s) = 4.08069 6.51784 5.43756
#
# Compressibility (1/GPa) = 0.05346901
#
# Stress axis : x y z
#
# Youngs Moduli (GPa) = 48.29052 34.31582 28.63334
#
# Poissons Ratio (x) = 0.16296 -0.15279
# Poissons Ratio (y) = 0.22932 0.46499
# Poissons Ratio (z) = -0.25768 0.55727
#
# Static dielectric constant tensor:
#      x y z
#    x 1.946500 -0.024010 0.040760 
#    y -0.024010 1.890620 -0.039820 
#    z 0.040760 -0.039820 1.908940 
# 
# From -- ./inp_files/120590.got.cif
#   From: 2010.05.17/outbox.cif.g08.bks.cpg/sg2_61_cif.got.tgz:120590.got - 2010.06.03 11:33:40.
