data_PCOD9093642
_publ_section_title
;
Structure prediction by ZEFSAII (Michael W. Deem and Ramdas Pophale) SiO2 
 PCOD9093642
Probable space group: P -1
;
_chemical_formula_sum "Si O2"
_cell_formula_units_Z 16
_cell_length_a 16.046807
_cell_length_b 10.315248
_cell_length_c 5.147342
_cell_angle_alpha 93.417947
_cell_angle_beta 73.562202
_cell_angle_gamma 61.204932
_cell_volume 696.423808
_symmetry_space_group_name_H-M "P -1"
_symmetry_group_IT_number 2
_symmetry_cell_setting 'triclinic'
loop_
_space_group_symop_operation_xyz
x,y,z
-x,-y,-z
loop_
_atom_site_type_symbol
_atom_site_label
_atom_site_fract_x
_atom_site_fract_y
_atom_site_fract_z
Si Si1 0.408059 0.196538 0.371591
Si Si2 0.618241 0.546767 0.925232
Si Si3 0.260184 0.706070 0.866257
Si Si4 0.970550 0.855268 0.280379
Si Si5 0.366492 0.064437 0.876077
Si Si6 0.408081 0.707714 0.364335
Si Si7 0.768168 0.023830 0.760868
Si Si8 0.077755 0.801221 0.677596
O O1 0.373130 0.360673 0.307429
O O2 0.357738 0.177289 0.671019
O O3 0.530568 0.097310 0.293357
O O4 0.384623 0.118281 0.143273
O O5 0.599083 0.420695 0.804468
O O6 0.712331 0.443091 0.016017
O O7 0.522551 0.663892 0.203913
O O8 0.364974 0.695515 0.678768
O O9 0.190996 0.724115 0.683764
O O10 0.205702 0.859945 0.104886
O O11 0.054871 0.759985 0.413032
O O12 0.862003 0.898354 0.496710
O O13 0.957260 0.021595 0.289226
O O14 0.008805 0.785142 0.955548
O O15 0.271352 0.044560 0.996352
O O16 0.326977 0.869348 0.330583
#
# Coordination Sequence:
#
# PCOD9093642 Si02
#       8
#     2   2   2   2   2   2   2   2
#     4  10  22  40  56  80 109 152 192 238 272 325
#     4  10  22  37  53  81 115 157 191 228 278 335
#     4  11  22  33  57  82 119 155 185 231 280 348
#     4  10  20  33  55  78 119 150 179 230 284 345
#     4  10  23  37  59  80 110 148 194 236 279 324
#     4  10  21  35  53  83 117 151 189 226 276 348
#     4  11  21  35  55  87 115 151 187 232 288 341
#     4  10  20  34  51  84 115 150 184 223 286 345
#
# _framework density 22.974516999999999
#
# number of rings (size 3 to 8) (size 9 to 14) (size 15 to 20)
#    0.000    1.750    2.500    2.625    5.250    1.000 
#    0.000    0.000    0.000    0.000    0.000    5.250 
#    0.000    0.000    0.000    0.000    0.000    0.000 
#
# Total GULP energy -89506.613861 kJ/mol
# GULP energy per Si atom -5594.163366 kJ/mol
# Density = 2.292223 g / cm^3
# Si number density = 22.974517 Si / 1000 Ang^3
#
#
#
# Elastic Constant Matrix: (Units=GPa)
#
#
# Indices 1 2 3 4 5 6 
#
# 1 54.6454 44.2584 40.4630 -12.1179 -12.2053 -17.6834
# 2 44.2584 75.6039 45.2506 -34.4911 -10.1284 -16.9993
# 3 40.4630 45.2506 152.9712 -23.8125 -26.5970 -6.8049
# 4 -12.1179 -34.4911 -23.8125 46.4247 -2.7053 3.9948
# 5 -12.2053 -10.1284 -26.5970 -2.7053 39.8584 0.2408
# 6 -17.6834 -16.9993 -6.8049 3.9948 0.2408 20.3919
#
#
#
# Elastic Compliance Matrix: (Units=1/GPa)
#
#
# Indices 1 2 3 4 5 6 
#
# 1 0.046577 -0.022971 -0.005295 -0.009210 0.004139 0.021230
# 2 -0.022971 0.040289 -0.001234 0.022777 0.003874 0.008747
# 3 -0.005295 -0.001234 0.009442 0.003081 0.004594 -0.003127
# 4 -0.009210 0.022777 0.003081 0.037687 0.007554 0.004557
# 5 0.004139 0.003874 0.004594 0.007554 0.030879 0.006507
# 6 0.021230 0.008747 -0.003127 0.004557 0.006507 0.072728
#
#
# Mechanical properties :
#
#
# Convention : Reuss Voigt Hill
#
# Bulk Modulus (GPa) = 26.80287 60.35162 43.57724
# Shear Modulus (GPa) = 16.17935 31.55159 23.86547
#
# Velocity S-wave (km/s) = 2.65661 3.70987 3.22651
# Velocity P-wave (km/s) = 4.59367 6.68407 5.73492
#
# Compressibility (1/GPa) = 0.03730944
#
# Stress axis : x y z
#
# Youngs Moduli (GPa) = 21.46976 24.82083 105.91113
#
# Poissons Ratio (x) = 0.57015 0.56079
# Poissons Ratio (y) = 0.49317 0.13065
# Poissons Ratio (z) = 0.11368 0.03062
#
# Static dielectric constant tensor:
#      x y z
#    x 1.909620 -0.012900 -0.003080 
#    y -0.012900 1.854820 0.025520 
#    z -0.003080 0.025520 1.939290 
# 
# From -- ./inp_files/108916.got.cif
#   From: 2010.05.17/outbox.cif.g08.bks.cpg/sg2_55_cif.got.tgz:108916.got - 2010.06.03 11:33:40.
