data_PCOD9093492
_publ_section_title
;
Structure prediction by ZEFSAII (Michael W. Deem and Ramdas Pophale) SiO2 
 PCOD9093492
Probable space group: P -1
;
_chemical_formula_sum "Si O2"
_cell_formula_units_Z 16
_cell_length_a 14.545502
_cell_length_b 9.472034
_cell_length_c 23.348954
_cell_angle_alpha 124.711505
_cell_angle_beta 158.431891
_cell_angle_gamma 50.227828
_cell_volume 905.199970
_symmetry_space_group_name_H-M "P -1"
_symmetry_group_IT_number 2
_symmetry_cell_setting 'triclinic'
loop_
_space_group_symop_operation_xyz
x,y,z
-x,-y,-z
loop_
_atom_site_type_symbol
_atom_site_label
_atom_site_fract_x
_atom_site_fract_y
_atom_site_fract_z
Si Si1 0.009805 0.365921 0.897897
Si Si2 0.401756 0.257734 0.411351
Si Si3 0.601509 0.603450 0.436362
Si Si4 0.053326 0.661796 0.270048
Si Si5 0.932249 0.768506 0.977111
Si Si6 0.549315 0.138263 0.698493
Si Si7 0.645396 0.975349 0.334311
Si Si8 0.024285 0.207477 0.622296
O O1 0.688402 0.413980 0.726956
O O2 0.092129 0.290317 0.864333
O O3 0.052788 0.556122 0.977837
O O4 0.125756 0.235391 0.989213
O O5 0.365823 0.276770 0.463353
O O6 0.174115 0.438796 0.294539
O O7 0.684605 0.280222 0.566494
O O8 0.407532 0.064103 0.347618
O O9 0.589060 0.708343 0.394202
O O10 0.826467 0.402161 0.526765
O O11 0.902864 0.751322 0.261759
O O12 0.653979 0.874080 0.809112
O O13 0.159582 0.853006 0.118703
O O14 0.372590 0.162157 0.658496
O O15 0.736551 0.880369 0.303933
O O16 0.853373 0.073648 0.494055
#
# Coordination Sequence:
#
# PCOD9093492 Si02
#       8
#     2   2   2   2   2   2   2   2
#     4   9  17  32  55  78 101 133 172 206 259 304
#     4   9  16  28  51  81 104 125 165 215 262 298
#     4   9  18  32  53  78 105 130 165 218 260 292
#     4   9  16  31  54  75 100 133 173 212 247 297
#     4  10  20  33  51  78 109 133 162 213 256 308
#     4  11  20  31  52  81 106 131 163 216 261 300
#     4  11  21  34  51  75 105 137 177 205 248 306
#     4  10  20  35  54  72 102 140 173 213 243 301
#
# _framework density 17.675653000000001
#
# number of rings (size 3 to 8) (size 9 to 14) (size 15 to 20)
#    0.000    2.250    2.500    2.250    0.000    0.500 
#    0.000    0.625    0.000    6.750    0.000    0.000 
#    0.000    0.000    0.000    0.000    0.000    0.000 
#
# Total GULP energy -89219.759000 kJ/mol
# GULP energy per Si atom -5576.234938 kJ/mol
# Density = 1.763542 g / cm^3
# Si number density = 17.675653 Si / 1000 Ang^3
#
#
#
# Elastic Constant Matrix: (Units=GPa)
#
#
# Indices 1 2 3 4 5 6 
#
# 1 128.1628 27.5213 12.8972 8.0317 -9.3910 8.6536
# 2 27.5213 42.0425 7.4681 18.2263 5.3541 5.3677
# 3 12.8972 7.4681 29.6318 14.5743 -2.4093 9.3286
# 4 8.0317 18.2263 14.5743 23.7914 1.3111 -1.7932
# 5 -9.3910 5.3541 -2.4093 1.3111 23.0184 2.8332
# 6 8.6536 5.3677 9.3286 -1.7932 2.8332 24.4162
#
#
#
# Elastic Compliance Matrix: (Units=1/GPa)
#
#
# Indices 1 2 3 4 5 6 
#
# 1 0.010293 -0.009336 -0.004816 0.006330 0.005498 0.000071
# 2 -0.009336 0.051219 0.020788 -0.049756 -0.008427 -0.018570
# 3 -0.004816 0.020788 0.073745 -0.062737 0.009008 -0.036691
# 4 0.006330 -0.049756 -0.062737 0.119851 -0.004404 0.041978
# 5 0.005498 -0.008427 0.009008 -0.004404 0.050030 -0.009666
# 6 0.000071 -0.018570 -0.036691 0.041978 -0.009666 0.063237
#
#
# Mechanical properties :
#
#
# Convention : Reuss Voigt Hill
#
# Bulk Modulus (GPa) = 6.73268 32.84558 19.78913
# Shear Modulus (GPa) = 12.35752 24.37524 18.36638
#
# Velocity S-wave (km/s) = 2.64697 3.71756 3.22697
# Velocity P-wave (km/s) = 3.62756 6.08685 5.01043
#
# Compressibility (1/GPa) = 0.14852937
#
# Stress axis : x y z
#
# Youngs Moduli (GPa) = 97.15016 19.52418 13.56025
#
# Poissons Ratio (x) = 0.18228 0.06531
# Poissons Ratio (y) = 0.90699 -0.28189
# Poissons Ratio (z) = 0.46787 -0.40587
#
# Static dielectric constant tensor:
#      x y z
#    x 1.647200 0.014300 -0.034370 
#    y 0.014300 1.588550 0.003520 
#    z -0.034370 0.003520 1.584500 
# 
# From -- ./inp_files/251993.got.cif
#   From: 2010.05.17/outbox.cif.g08.bks.cpg/sg2_126_cif.got.tgz:251993.got - 2010.06.03 11:33:40.
