data_PCOD9093535
_publ_section_title
;
Structure prediction by ZEFSAII (Michael W. Deem and Ramdas Pophale) SiO2 
 PCOD9093535
Probable space group: P -1
;
_chemical_formula_sum "Si O2"
_cell_formula_units_Z 16
_cell_length_a 16.765625
_cell_length_b 10.537912
_cell_length_c 14.464364
_cell_angle_alpha 28.171641
_cell_angle_beta 39.981551
_cell_angle_gamma 39.974211
_cell_volume 739.628806
_symmetry_space_group_name_H-M "P -1"
_symmetry_group_IT_number 2
_symmetry_cell_setting 'triclinic'
loop_
_space_group_symop_operation_xyz
x,y,z
-x,-y,-z
loop_
_atom_site_type_symbol
_atom_site_label
_atom_site_fract_x
_atom_site_fract_y
_atom_site_fract_z
Si Si1 0.676205 0.413495 0.305783
Si Si2 0.094242 0.898328 0.845990
Si Si3 0.208650 0.848714 0.445051
Si Si4 0.519859 0.616311 0.647575
Si Si5 0.323527 0.950269 0.081573
Si Si6 0.022752 0.587167 0.683144
Si Si7 0.709194 0.867792 0.404102
Si Si8 0.863188 0.317340 0.677121
O O1 0.798094 0.260082 0.226497
O O2 0.701167 0.247829 0.485464
O O3 0.542814 0.411052 0.377115
O O4 0.668448 0.736545 0.125644
O O5 0.173249 0.998112 0.792764
O O6 0.022541 0.681059 0.083887
O O7 0.983573 0.167581 0.730841
O O8 0.278975 0.892009 0.261499
O O9 0.126479 0.631756 0.636559
O O10 0.102770 0.143594 0.370164
O O11 0.548362 0.320094 0.867356
O O12 0.650265 0.714429 0.475036
O O13 0.409729 0.867189 0.631715
O O14 0.217871 0.898679 0.137235
O O15 0.079766 0.607328 0.518508
O O16 0.759604 0.621982 0.595768
#
# Coordination Sequence:
#
# PCOD9093535 Si02
#       8
#     2   2   2   2   2   2   2   2
#     4  11  20  33  58  84 109 144 180 216 271 330
#     4  11  20  33  58  84 109 144 180 216 271 330
#     4  10  20  33  52  84 119 141 167 216 275 333
#     4   9  20  38  57  77 106 146 189 229 263 304
#     4  10  20  35  57  83 112 143 175 219 274 324
#     4  10  20  33  52  84 119 141 167 216 275 333
#     4   9  20  38  57  77 106 146 189 229 263 304
#     4  10  20  35  57  83 112 143 175 219 274 324
#
# _framework density 21.632473000000001
#
# number of rings (size 3 to 8) (size 9 to 14) (size 15 to 20)
#    0.000    2.000    2.500    1.500    0.000    2.000 
#    0.000    0.000    0.000    2.250    0.000    0.000 
#    0.000    0.000    0.000    0.000    0.000    0.000 
#
# Total GULP energy -89283.528860 kJ/mol
# GULP energy per Si atom -5580.220554 kJ/mol
# Density = 2.158324 g / cm^3
# Si number density = 21.632473 Si / 1000 Ang^3
#
#
#
# Elastic Constant Matrix: (Units=GPa)
#
#
# Indices 1 2 3 4 5 6 
#
# 1 93.6932 9.2441 9.6732 1.7571 -5.4555 -38.4071
# 2 9.2441 98.8612 14.5526 -31.7901 6.4128 -17.5492
# 3 9.6732 14.5526 55.7972 -17.8373 -7.0082 -8.8155
# 4 1.7571 -31.7901 -17.8373 27.7903 3.2322 2.9134
# 5 -5.4555 6.4128 -7.0082 3.2322 16.9065 -2.8265
# 6 -38.4071 -17.5492 -8.8155 2.9134 -2.8265 28.7463
#
#
#
# Elastic Compliance Matrix: (Units=1/GPa)
#
#
# Indices 1 2 3 4 5 6 
#
# 1 0.028748 0.001797 0.001790 -0.005066 0.017373 0.042277
# 2 0.001797 0.020147 0.003225 0.024682 -0.008376 0.012365
# 3 0.001790 0.003225 0.025202 0.017623 0.008291 0.011118
# 4 -0.005066 0.024682 0.017623 0.077492 -0.017821 0.004098
# 5 0.017373 -0.008376 0.008291 -0.017821 0.079841 0.030297
# 6 0.042277 0.012365 0.011118 0.004098 0.030297 0.104794
#
#
# Mechanical properties :
#
#
# Convention : Reuss Voigt Hill
#
# Bulk Modulus (GPa) = 11.39964 35.03236 23.21600
# Shear Modulus (GPa) = 14.21098 29.01408 21.61253
#
# Velocity S-wave (km/s) = 2.56584 3.66625 3.16425
# Velocity P-wave (km/s) = 3.74956 5.84392 4.90971
#
# Compressibility (1/GPa) = 0.08772211
#
# Stress axis : x y z
#
# Youngs Moduli (GPa) = 34.78504 49.63429 39.67935
#
# Poissons Ratio (x) = -0.08921 -0.07101
# Poissons Ratio (y) = -0.06252 -0.12798
# Poissons Ratio (z) = -0.06225 -0.16009
#
# Static dielectric constant tensor:
#      x y z
#    x 1.777070 -0.015940 -0.033240 
#    y -0.015940 1.908750 -0.041440 
#    z -0.033240 -0.041440 1.765840 
# 
# From -- ./inp_files/364730.got.cif
#   From: 2010.05.17/outbox.cif.g08.bks.cpg/sg2_183_cif.got.tgz:364730.got - 2010.06.03 11:33:40.
