data_PCOD9093099
_publ_section_title
;
Structure prediction by ZEFSAII (Michael W. Deem and Ramdas Pophale) SiO2 
 PCOD9093099
Probable space group: P -1
;
_chemical_formula_sum "Si O2"
_cell_formula_units_Z 16
_cell_length_a 11.072591
_cell_length_b 11.080357
_cell_length_c 8.943080
_cell_angle_alpha 112.177222
_cell_angle_beta 67.870030
_cell_angle_gamma 141.572300
_cell_volume 625.210851
_symmetry_space_group_name_H-M "P -1"
_symmetry_group_IT_number 2
_symmetry_cell_setting 'triclinic'
loop_
_space_group_symop_operation_xyz
x,y,z
-x,-y,-z
loop_
_atom_site_type_symbol
_atom_site_label
_atom_site_fract_x
_atom_site_fract_y
_atom_site_fract_z
Si Si1 0.277031 0.680632 0.525269
Si Si2 0.169381 0.509599 0.915404
Si Si3 0.660702 0.729776 0.066585
Si Si4 0.537624 0.883631 0.045736
Si Si5 0.994474 0.932322 0.763554
Si Si6 0.093988 0.292981 0.555995
Si Si7 0.676229 0.084965 0.638483
Si Si8 0.924809 0.252550 0.156105
O O1 0.205055 0.480447 0.483000
O O2 0.244250 0.734637 0.413569
O O3 0.157487 0.676262 0.701703
O O4 0.506420 0.876333 0.540039
O O5 0.155581 0.393520 0.736236
O O6 0.395556 0.723851 0.910315
O O7 0.000000 0.500000 0.000000
O O8 0.127589 0.414343 0.051425
O O9 0.549824 0.784693 0.126493
O O10 0.500000 0.500000 0.000000
O O11 0.820270 0.849761 0.913462
O O12 0.804534 0.835467 0.194411
O O13 0.421204 0.921254 0.177303
O O14 0.765079 0.092155 0.029429
O O15 0.900657 0.837999 0.600415
O O16 0.059359 0.841557 0.764176
O O17 0.861391 0.137055 0.604538
#
# Coordination Sequence:
#
# PCOD9093099 Si02
#       8
#     2   2   2   2   2   2   2   2
#     4  10  20  31  54  87 121 155 185 242 295 345
#     4  12  23  36  55  88 125 168 192 223 289 355
#     4  10  22  41  66  88 110 147 201 257 298 339
#     4  10  22  38  59  84 119 157 198 238 291 351
#     4  10  23  40  63  91 113 148 200 251 297 342
#     4  12  23  35  56  89 126 152 192 239 290 350
#     4  10  20  33  54  88 120 151 193 237 298 347
#     4  10  20  38  59  83 123 157 194 239 285 350
#
# _framework density 25.591367000000002
#
# number of rings (size 3 to 8) (size 9 to 14) (size 15 to 20)
#    0.000    1.500    3.750    1.125    5.250    1.500 
#    0.000    0.625    0.000   10.500    0.000    0.000 
#    0.000    0.000    0.000    0.000    0.000    0.000 
#
# Total GULP energy -89363.576626 kJ/mol
# GULP energy per Si atom -5585.223539 kJ/mol
# Density = 2.553312 g / cm^3
# Si number density = 25.591367 Si / 1000 Ang^3
#
#
#
# Elastic Constant Matrix: (Units=GPa)
#
#
# Indices 1 2 3 4 5 6 
#
# 1 39.8026 25.2396 2.9028 8.1278 -0.6321 3.4570
# 2 25.2396 150.6487 37.8220 20.3507 12.2040 15.5908
# 3 2.9028 37.8220 118.2169 26.2923 3.6352 11.2531
# 4 8.1278 20.3507 26.2923 42.7077 4.0718 9.4588
# 5 -0.6321 12.2040 3.6352 4.0718 23.6346 -0.2630
# 6 3.4570 15.5908 11.2531 9.4588 -0.2630 41.8063
#
#
#
# Elastic Compliance Matrix: (Units=1/GPa)
#
#
# Indices 1 2 3 4 5 6 
#
# 1 0.029194 -0.005038 0.001804 -0.004651 0.003907 0.000056
# 2 -0.005038 0.008699 -0.002105 -0.001041 -0.004146 -0.002052
# 3 0.001804 -0.002105 0.010402 -0.005592 0.000489 -0.000896
# 4 -0.004651 -0.001041 -0.005592 0.029592 -0.003874 -0.004442
# 5 0.003907 -0.004146 0.000489 -0.003874 0.045174 0.002252
# 6 0.000056 -0.002052 -0.000896 -0.004442 0.002252 0.025941
#
#
# Mechanical properties :
#
#
# Convention : Reuss Voigt Hill
#
# Bulk Modulus (GPa) = 26.58386 48.95523 37.76955
# Shear Modulus (GPa) = 29.03266 37.80997 33.42131
#
# Velocity S-wave (km/s) = 3.37184 3.84793 3.61773
# Velocity P-wave (km/s) = 5.05663 6.23805 5.67815
#
# Compressibility (1/GPa) = 0.03761681
#
# Stress axis : x y z
#
# Youngs Moduli (GPa) = 34.25357 114.95037 96.13265
#
# Poissons Ratio (x) = 0.57913 -0.17341
# Poissons Ratio (y) = 0.17257 0.20239
# Poissons Ratio (z) = -0.06179 0.24200
#
# Static dielectric constant tensor:
#      x y z
#    x 2.093230 -0.081160 0.051460 
#    y -0.081160 2.035810 0.040720 
#    z 0.051460 0.040720 2.082090 
# 
# From -- ./inp_files/315736.got.cif
#   From: 2010.05.17/outbox.cif.g08.bks.cpg/sg2_158_cif.got.tgz:315736.got - 2010.06.03 11:33:40.
