data_PCOD9093197
_publ_section_title
;
Structure prediction by ZEFSAII (Michael W. Deem and Ramdas Pophale) SiO2 
 PCOD9093197
Probable space group: P -1
;
_chemical_formula_sum "Si O2"
_cell_formula_units_Z 16
_cell_length_a 30.238878
_cell_length_b 29.350603
_cell_length_c 13.183642
_cell_angle_alpha 27.444426
_cell_angle_beta 153.046870
_cell_angle_gamma 170.528017
_cell_volume 867.447390
_symmetry_space_group_name_H-M "P -1"
_symmetry_group_IT_number 2
_symmetry_cell_setting 'triclinic'
loop_
_space_group_symop_operation_xyz
x,y,z
-x,-y,-z
loop_
_atom_site_type_symbol
_atom_site_label
_atom_site_fract_x
_atom_site_fract_y
_atom_site_fract_z
Si Si1 0.351725 0.540159 0.304517
Si Si2 0.277570 0.878256 0.577399
Si Si3 0.623948 0.162900 0.331508
Si Si4 0.191185 0.880721 0.875981
Si Si5 0.833715 0.540480 0.110126
Si Si6 0.706039 0.718128 0.397829
Si Si7 0.622281 0.859172 0.879274
Si Si8 0.137663 0.635733 0.122584
O O1 0.615866 0.841098 0.302322
O O2 0.317095 0.390209 0.519925
O O3 0.350807 0.569355 0.125946
O O4 0.084735 0.338871 0.204630
O O5 0.278968 0.821639 0.584611
O O6 0.018523 0.590536 0.676761
O O7 0.315771 0.028303 0.323809
O O8 0.544253 0.094450 0.757133
O O9 0.854113 0.456448 0.260394
O O10 0.500000 0.000000 0.500000
O O11 0.383615 0.999243 0.110466
O O12 0.119192 0.730715 0.940057
O O13 0.663974 0.373857 0.196955
O O14 0.125919 0.865979 0.079028
O O15 0.500000 0.500000 0.500000
O O16 0.633947 0.752464 0.126102
O O17 0.000000 0.000000 0.500000
O O18 0.000000 0.500000 0.000000
#
# Coordination Sequence:
#
# PCOD9093197 Si02
#       8
#     2   2   2   2   2   2   2   2
#     4  11  20  35  53  74 115 146 197 232 258 305
#     4  11  24  37  56  87 114 147 190 232 280 348
#     4  10  20  32  50  78 118 158 182 209 275 331
#     4  10  22  36  53  85 105 142 190 233 274 340
#     4  11  20  31  48  70 111 159 185 220 254 309
#     4  12  22  35  52  77 109 167 205 223 260 314
#     4  12  22  35  49  77 114 149 197 223 264 317
#     4  11  23  44  64  84 110 142 186 243 300 353
#
# _framework density 18.444922999999999
#
# number of rings (size 3 to 8) (size 9 to 14) (size 15 to 20)
#    0.000    1.000    3.750    5.625    1.750    1.500 
#    0.000    0.000    0.000    0.000    0.000    5.250 
#    0.000    0.000    0.000    0.000    0.000    0.000 
#
# Total GULP energy -89333.843780 kJ/mol
# GULP energy per Si atom -5583.365236 kJ/mol
# Density = 1.840294 g / cm^3
# Si number density = 18.444923 Si / 1000 Ang^3
#
#
#
# Elastic Constant Matrix: (Units=GPa)
#
#
# Indices 1 2 3 4 5 6 
#
# 1 79.3536 28.4714 43.3912 -3.5786 11.6988 -21.3464
# 2 28.4714 99.9294 11.0406 -15.2647 8.4196 -1.1411
# 3 43.3912 11.0406 91.1849 -16.8936 22.3659 -14.4216
# 4 -3.5786 -15.2647 -16.8936 22.8986 -6.1765 1.3408
# 5 11.6988 8.4196 22.3659 -6.1765 27.0419 -0.4836
# 6 -21.3464 -1.1411 -14.4216 1.3408 -0.4836 28.4999
#
#
#
# Elastic Compliance Matrix: (Units=1/GPa)
#
#
# Indices 1 2 3 4 5 6 
#
# 1 0.023651 -0.006762 -0.009575 -0.009196 -0.002075 0.012996
# 2 -0.006762 0.013190 0.003366 0.009941 -0.001754 -0.003331
# 3 -0.009575 0.003366 0.020591 0.012831 -0.010959 0.002593
# 4 -0.009196 0.009941 0.012831 0.059516 0.003816 -0.002733
# 5 -0.002075 -0.001754 -0.010959 0.003816 0.048242 -0.006531
# 6 0.012996 -0.003331 0.002593 -0.002733 -0.006531 0.046018
#
#
# Mechanical properties :
#
#
# Convention : Reuss Voigt Hill
#
# Bulk Modulus (GPa) = 31.75677 48.47494 40.11585
# Shear Modulus (GPa) = 20.18996 28.19238 24.19117
#
# Velocity S-wave (km/s) = 3.31208 3.91380 3.62544
# Velocity P-wave (km/s) = 5.64632 6.83825 6.27067
#
# Compressibility (1/GPa) = 0.03148935
#
# Stress axis : x y z
#
# Youngs Moduli (GPa) = 42.28146 75.81395 48.56518
#
# Poissons Ratio (x) = 0.51267 0.46502
# Poissons Ratio (y) = 0.28592 -0.16348
# Poissons Ratio (z) = 0.40486 -0.25520
#
# Static dielectric constant tensor:
#      x y z
#    x 1.629320 -0.005920 0.041120 
#    y -0.005920 1.682610 -0.020400 
#    z 0.041120 -0.020400 1.735070 
# 
# From -- ./inp_files/477213.got.cif
#   From: 2010.05.17/outbox.cif.g08.bks.cpg/sg2_239_cif.got.tgz:477213.got - 2010.06.03 11:33:40.
