data_PCOD9093993
_publ_section_title
;
Structure prediction by ZEFSAII (Michael W. Deem and Ramdas Pophale) SiO2 
 PCOD9093993
Probable space group: P -1
;
_chemical_formula_sum "Si O2"
_cell_formula_units_Z 16
_cell_length_a 22.535977
_cell_length_b 7.907576
_cell_length_c 21.469759
_cell_angle_alpha 138.563426
_cell_angle_beta 18.050878
_cell_angle_gamma 140.240408
_cell_volume 754.814207
_symmetry_space_group_name_H-M "P -1"
_symmetry_group_IT_number 2
_symmetry_cell_setting 'triclinic'
loop_
_space_group_symop_operation_xyz
x,y,z
-x,-y,-z
loop_
_atom_site_type_symbol
_atom_site_label
_atom_site_fract_x
_atom_site_fract_y
_atom_site_fract_z
Si Si1 0.937587 0.388323 0.633023
Si Si2 0.117787 0.917735 0.521354
Si Si3 0.456531 0.126302 0.331364
Si Si4 0.281112 0.588697 0.434504
Si Si5 0.693833 0.505326 0.019240
Si Si6 0.213466 0.517878 0.719124
Si Si7 0.999173 0.459060 0.794683
Si Si8 0.813680 0.124423 0.046377
O O1 0.988097 0.671348 0.623912
O O2 0.140561 0.407220 0.473019
O O3 0.888024 0.171869 0.568784
O O4 0.770736 0.361124 0.845150
O O5 0.342280 0.009217 0.349777
O O6 0.026491 0.163596 0.688797
O O7 0.386478 0.388361 0.489420
O O8 0.366317 0.882563 0.402206
O O9 0.690345 0.173149 0.122436
O O10 0.145588 0.599023 0.631570
O O11 0.459954 0.468435 0.241637
O O12 0.783561 0.451254 0.980702
O O13 0.786693 0.816889 0.997908
O O14 0.094848 0.596544 0.800871
O O15 0.044008 0.279113 0.853733
O O16 0.273772 0.750808 0.773244
#
# Coordination Sequence:
#
# PCOD9093993 Si02
#       8
#     2   2   2   2   2   2   2   2
#     4   9  18  37  56  74 102 135 171 211 252 296
#     4   9  18  34  57  78 100 132 172 214 252 296
#     4   9  18  36  54  73 103 136 169 212 253 295
#     4   9  19  34  52  73 105 140 170 201 252 308
#     4  10  20  35  52  74 107 141 166 204 255 305
#     4  10  20  34  55  79 100 131 172 217 254 293
#     4  10  20  34  51  75 106 133 166 212 255 298
#     4  10  20  35  55  77 101 133 174 208 254 307
#
# _framework density 21.19727
#
# number of rings (size 3 to 8) (size 9 to 14) (size 15 to 20)
#    0.000    2.500    0.000    3.375    0.000    4.500 
#    0.000   18.750    0.000    0.000    0.000    0.000 
#    0.000    0.000    0.000    0.000    0.000    0.000 
#
# Total GULP energy -89339.852389 kJ/mol
# GULP energy per Si atom -5583.740774 kJ/mol
# Density = 2.114902 g / cm^3
# Si number density = 21.197270 Si / 1000 Ang^3
#
#
#
# Elastic Constant Matrix: (Units=GPa)
#
#
# Indices 1 2 3 4 5 6 
#
# 1 128.9159 21.8389 19.3860 10.7876 -18.3825 13.6981
# 2 21.8389 21.9409 12.1757 2.2628 2.9194 15.0005
# 3 19.3860 12.1757 51.8199 4.7367 -29.1557 8.2357
# 4 10.7876 2.2628 4.7367 15.4698 0.4518 2.0530
# 5 -18.3825 2.9194 -29.1557 0.4518 36.4459 4.3956
# 6 13.6981 15.0005 8.2357 2.0530 4.3956 30.7329
#
#
#
# Elastic Compliance Matrix: (Units=1/GPa)
#
#
# Indices 1 2 3 4 5 6 
#
# 1 0.012452 -0.017976 0.009064 -0.009171 0.015177 -0.000763
# 2 -0.017976 0.114060 -0.045902 0.015261 -0.051616 -0.028996
# 3 0.009064 -0.045902 0.062863 -0.019839 0.059465 -0.005661
# 4 -0.009171 0.015261 -0.019839 0.075521 -0.022674 0.000153
# 5 0.015177 -0.051616 0.059465 -0.022674 0.088116 -0.008595
# 6 -0.000763 -0.028996 -0.005661 0.000153 -0.008595 0.049767
#
#
# Mechanical properties :
#
#
# Convention : Reuss Voigt Hill
#
# Bulk Modulus (GPa) = 12.53982 34.38643 23.46312
# Shear Modulus (GPa) = 9.27663 26.48146 17.87905
#
# Velocity S-wave (km/s) = 2.09424 3.53836 2.90739
# Velocity P-wave (km/s) = 3.43168 5.74026 4.72901
#
# Compressibility (1/GPa) = 0.07974594
#
# Stress axis : x y z
#
# Youngs Moduli (GPa) = 80.30992 8.76733 15.90772
#
# Poissons Ratio (x) = 0.15760 -0.14419
# Poissons Ratio (y) = 1.44362 0.73020
# Poissons Ratio (z) = -0.72793 0.40244
#
# Static dielectric constant tensor:
#      x y z
#    x 1.794080 -0.013680 0.002130 
#    y -0.013680 1.742430 -0.031670 
#    z 0.002130 -0.031670 1.784610 
# 
# From -- ./inp_files/270579.got.cif
#   From: 2010.05.17/outbox.cif.g08.bks.cpg/sg2_136_cif.got.tgz:270579.got - 2010.06.03 11:33:40.
