data_PCOD9093937
_publ_section_title
;
Structure prediction by ZEFSAII (Michael W. Deem and Ramdas Pophale) SiO2 
 PCOD9093937
Probable space group: P -1
;
_chemical_formula_sum "Si O2"
_cell_formula_units_Z 16
_cell_length_a 11.859571
_cell_length_b 8.015305
_cell_length_c 17.843189
_cell_angle_alpha 64.392843
_cell_angle_beta 28.693256
_cell_angle_gamma 63.943402
_cell_volume 727.246714
_symmetry_space_group_name_H-M "P -1"
_symmetry_group_IT_number 2
_symmetry_cell_setting 'triclinic'
loop_
_space_group_symop_operation_xyz
x,y,z
-x,-y,-z
loop_
_atom_site_type_symbol
_atom_site_label
_atom_site_fract_x
_atom_site_fract_y
_atom_site_fract_z
Si Si1 0.264550 0.929200 0.769149
Si Si2 0.007498 0.940851 0.246381
Si Si3 0.973289 0.302612 0.934197
Si Si4 0.180430 0.268956 0.373667
Si Si5 0.212439 0.409782 0.491692
Si Si6 0.557020 0.546110 0.371669
Si Si7 0.746572 0.064668 0.506698
Si Si8 0.390533 0.691774 0.986477
O O1 0.156660 0.963158 0.743012
O O2 0.134941 0.109888 0.854414
O O3 0.539546 0.958287 0.609360
O O4 0.182675 0.752439 0.894357
O O5 0.926808 0.747611 0.360880
O O6 0.948804 0.079379 0.324037
O O7 0.264826 0.861107 0.078838
O O8 0.166468 0.442420 0.805586
O O9 0.806265 0.354473 0.949939
O O10 0.245141 0.381993 0.388739
O O11 0.401911 0.238545 0.195847
O O12 0.962346 0.395235 0.438018
O O13 0.137289 0.072523 0.470685
O O14 0.446645 0.413965 0.403492
O O15 0.500000 0.500000 0.500000
O O16 0.400702 0.748219 0.413668
O O17 0.500000 0.500000 0.000000
#
# Coordination Sequence:
#
# PCOD9093937 Si02
#       8
#     2   2   2   2   2   2   2   2
#     4   9  16  31  55  83 117 144 203 242 287 342
#     4  10  20  33  62  90 113 156 208 246 289 349
#     4   9  19  33  54  88 112 153 194 247 295 352
#     4  10  21  37  64  88 115 157 214 247 288 349
#     4  10  21  40  59  91 120 159 200 250 298 359
#     4  11  23  39  61  87 130 158 193 245 316 366
#     4  10  20  36  60  89 117 156 199 251 295 356
#     4  11  19  34  61  90 117 153 205 257 289 340
#
# _framework density 22.000786999999999
#
# number of rings (size 3 to 8) (size 9 to 14) (size 15 to 20)
#    0.000    2.000    2.500    2.625    1.750    1.500 
#    0.000    0.625    2.750    0.750    0.000    0.000 
#    0.000    0.000    0.000    0.000    0.000    0.000 
#
# Total GULP energy -89304.294900 kJ/mol
# GULP energy per Si atom -5581.518431 kJ/mol
# Density = 2.195071 g / cm^3
# Si number density = 22.000787 Si / 1000 Ang^3
#
#
#
# Elastic Constant Matrix: (Units=GPa)
#
#
# Indices 1 2 3 4 5 6 
#
# 1 79.7689 4.0022 35.4831 -2.8339 -2.7026 -9.3095
# 2 4.0022 41.8819 2.1894 11.0257 -3.5263 -19.5386
# 3 35.4831 2.1894 113.2580 20.6433 17.0116 -0.9167
# 4 -2.8339 11.0257 20.6433 34.9787 -3.6192 -3.4966
# 5 -2.7026 -3.5263 17.0116 -3.6192 27.0736 2.6299
# 6 -9.3095 -19.5386 -0.9167 -3.4966 2.6299 32.2219
#
#
#
# Elastic Compliance Matrix: (Units=1/GPa)
#
#
# Indices 1 2 3 4 5 6 
#
# 1 0.016984 -0.000336 -0.007627 0.007171 0.006946 0.004698
# 2 -0.000336 0.036234 0.001347 -0.010118 0.000469 0.020776
# 3 -0.007627 0.001347 0.014915 -0.011141 -0.011326 -0.001247
# 4 0.007171 -0.010118 -0.011141 0.040060 0.011851 -0.001000
# 5 0.006946 0.000469 -0.011326 0.011851 0.046444 -0.000535
# 6 0.004698 0.020776 -0.001247 -0.001000 -0.000535 0.044890
#
#
# Mechanical properties :
#
#
# Convention : Reuss Voigt Hill
#
# Bulk Modulus (GPa) = 18.21485 35.36203 26.78844
# Shear Modulus (GPa) = 21.63949 31.73711 26.68830
#
# Velocity S-wave (km/s) = 3.13961 3.80220 3.48668
# Velocity P-wave (km/s) = 4.63033 5.94842 5.33027
#
# Compressibility (1/GPa) = 0.05490026
#
# Stress axis : x y z
#
# Youngs Moduli (GPa) = 58.87854 27.59845 67.04855
#
# Poissons Ratio (x) = 0.00927 0.51138
# Poissons Ratio (y) = 0.01977 -0.09029
# Poissons Ratio (z) = 0.44907 -0.03716
#
# Static dielectric constant tensor:
#      x y z
#    x 1.818320 0.024800 0.005530 
#    y 0.024800 1.865620 0.026540 
#    z 0.005530 0.026540 1.813750 
# 
# From -- ./inp_files/186676.got.cif
#   From: 2010.05.17/outbox.cif.g08.bks.cpg/sg2_94_cif.got.tgz:186676.got - 2010.06.03 11:33:40.
