data_PCOD9093774
_publ_section_title
;
Structure prediction by ZEFSAII (Michael W. Deem and Ramdas Pophale) SiO2 
 PCOD9093774
Probable space group: P -1
;
_chemical_formula_sum "Si O2"
_cell_formula_units_Z 16
_cell_length_a 5.797972
_cell_length_b 28.249681
_cell_length_c 15.790155
_cell_angle_alpha 19.557793
_cell_angle_beta 106.734794
_cell_angle_gamma 106.812245
_cell_volume 827.815582
_symmetry_space_group_name_H-M "P -1"
_symmetry_group_IT_number 2
_symmetry_cell_setting 'triclinic'
loop_
_space_group_symop_operation_xyz
x,y,z
-x,-y,-z
loop_
_atom_site_type_symbol
_atom_site_label
_atom_site_fract_x
_atom_site_fract_y
_atom_site_fract_z
Si Si1 0.363827 0.549328 0.695165
Si Si2 0.349858 0.961132 0.388013
Si Si3 0.252706 0.508728 0.560401
Si Si4 0.993459 0.284089 0.314869
Si Si5 0.723986 0.753393 0.741878
Si Si6 0.921211 0.590579 0.709149
Si Si7 0.854149 0.125429 0.311878
Si Si8 0.508175 0.736569 0.082806
O O1 0.251879 0.548518 0.591090
O O2 0.642021 0.616979 0.608762
O O3 0.147803 0.597216 0.655010
O O4 0.407384 0.387114 0.999292
O O5 0.168069 0.854260 0.497545
O O6 0.604836 0.900283 0.496077
O O7 0.311823 0.937324 0.524128
O O8 0.340903 0.127854 0.092039
O O9 0.421380 0.626769 0.330804
O O10 0.354164 0.354206 0.818231
O O11 0.000000 0.500000 0.500000
O O12 0.242610 0.265357 0.323034
O O13 0.012584 0.306452 0.378578
O O14 0.915471 0.431251 0.016832
O O15 0.969913 0.764686 0.802836
O O16 0.714027 0.201142 0.095890
O O17 0.000000 0.000000 0.500000
#
# Coordination Sequence:
#
# PCOD9093774 Si02
#       8
#     2   2   2   2   2   2   2   2
#     4  11  23  39  64  90 126 166 216 259 313 373
#     4  11  21  36  58  90 125 163 198 256 316 391
#     4  11  27  43  62  84 123 172 221 266 303 368
#     4   9  21  35  58  94 128 158 200 254 330 379
#     4  10  20  33  57  88 129 160 199 250 316 382
#     4  10  22  38  64  93 128 165 206 263 318 387
#     4  11  22  34  55  92 128 164 196 253 320 386
#     4  11  25  39  61  87 123 169 216 255 317 375
#
# _framework density 19.327978000000002
#
# number of rings (size 3 to 8) (size 9 to 14) (size 15 to 20)
#    0.000    1.500    2.500    1.875   12.250    1.500 
#    0.000    0.000    0.000    1.500    0.000    0.000 
#    0.000    0.000    0.000    0.000    0.000    0.000 
#
# Total GULP energy -89165.840935 kJ/mol
# GULP energy per Si atom -5572.865058 kJ/mol
# Density = 1.928399 g / cm^3
# Si number density = 19.327978 Si / 1000 Ang^3
#
#
#
# Elastic Constant Matrix: (Units=GPa)
#
#
# Indices 1 2 3 4 5 6 
#
# 1 75.7705 58.2355 15.2857 5.1527 8.3344 -2.5299
# 2 58.2355 159.7348 35.6433 -6.3076 1.6089 -18.9853
# 3 15.2857 35.6433 61.4606 -16.3220 2.2132 -4.5256
# 4 5.1527 -6.3076 -16.3220 23.9002 5.9268 -5.6052
# 5 8.3344 1.6089 2.2132 5.9268 27.1109 -3.6474
# 6 -2.5299 -18.9853 -4.5256 -5.6052 -3.6474 26.1085
#
#
#
# Elastic Compliance Matrix: (Units=1/GPa)
#
#
# Indices 1 2 3 4 5 6 
#
# 1 0.021006 -0.008067 -0.003439 -0.009541 -0.004569 -0.007114
# 2 -0.008067 0.010880 -0.002738 0.004023 0.002232 0.007830
# 3 -0.003439 -0.002738 0.024274 0.018886 -0.004170 0.005355
# 4 -0.009541 0.004023 0.018886 0.064629 -0.010599 0.017669
# 5 -0.004569 0.002232 -0.004170 -0.010599 0.041348 0.003958
# 6 -0.007114 0.007830 0.005355 0.017669 0.003958 0.048581
#
#
# Mechanical properties :
#
#
# Convention : Reuss Voigt Hill
#
# Bulk Modulus (GPa) = 36.14001 57.25501 46.69751
# Shear Modulus (GPa) = 20.12640 27.94402 24.03521
#
# Velocity S-wave (km/s) = 3.23043 3.80647 3.53022
# Velocity P-wave (km/s) = 5.71429 7.00044 6.38981
#
# Compressibility (1/GPa) = 0.02767016
#
# Stress axis : x y z
#
# Youngs Moduli (GPa) = 47.60643 91.91554 41.19617
#
# Poissons Ratio (x) = 0.74148 0.14168
# Poissons Ratio (y) = 0.38404 0.11282
# Poissons Ratio (z) = 0.16372 0.25171
#
# Static dielectric constant tensor:
#      x y z
#    x 1.792660 0.005700 -0.028550 
#    y 0.005700 1.690770 -0.013640 
#    z -0.028550 -0.013640 1.661410 
# 
# From -- ./inp_files/39264.got.cif
#   From: 2010.05.17/outbox.cif.g08.bks.cpg/sg2_20_cif.got.tgz:39264.got - 2010.06.03 11:33:40.
