data_PCOD9093145
_publ_section_title
;
Structure prediction by ZEFSAII (Michael W. Deem and Ramdas Pophale) SiO2 
 PCOD9093145
Probable space group: P -1
;
_chemical_formula_sum "Si O2"
_cell_formula_units_Z 16
_cell_length_a 11.779209
_cell_length_b 21.693115
_cell_length_c 8.498091
_cell_angle_alpha 84.990205
_cell_angle_beta 73.334878
_cell_angle_gamma 152.367576
_cell_volume 617.513376
_symmetry_space_group_name_H-M "P -1"
_symmetry_group_IT_number 2
_symmetry_cell_setting 'triclinic'
loop_
_space_group_symop_operation_xyz
x,y,z
-x,-y,-z
loop_
_atom_site_type_symbol
_atom_site_label
_atom_site_fract_x
_atom_site_fract_y
_atom_site_fract_z
Si Si1 0.154465 0.273941 0.034047
Si Si2 0.535051 0.216123 0.642749
Si Si3 0.480225 0.694164 0.885264
Si Si4 0.585097 0.871006 0.648370
Si Si5 0.174063 0.898685 0.295167
Si Si6 0.432880 0.546161 0.831287
Si Si7 0.385717 0.868028 0.263586
Si Si8 0.395444 0.271611 0.814273
O O1 0.186391 0.361029 0.953434
O O2 0.396105 0.346751 0.809509
O O3 0.315182 0.342265 0.131364
O O4 0.693770 0.027992 0.250697
O O5 0.558176 0.210778 0.452888
O O6 0.782334 0.285283 0.619163
O O7 0.586516 0.315650 0.614583
O O8 0.086109 0.980632 0.940382
O O9 0.407686 0.727366 0.855117
O O10 0.243524 0.518491 0.942461
O O11 0.460322 0.679184 0.082917
O O12 0.937177 0.906012 0.607743
O O13 0.581558 0.935986 0.718496
O O14 0.145911 0.812443 0.373468
O O15 0.722284 0.696267 0.533841
O O16 0.367566 0.003559 0.025295
#
# Coordination Sequence:
#
# PCOD9093145 Si02
#       8
#     2   2   2   2   2   2   2   2
#     4   9  18  32  50  72  96 123 155 190 231 278
#     4   9  16  26  43  66  90 118 153 192 231 270
#     4   8  14  25  42  65  92 118 146 186 232 273
#     4   9  16  26  43  66  90 118 153 192 231 270
#     4  10  20  32  47  69  96 125 156 191 232 276
#     4   9  18  32  50  72  96 123 155 190 231 278
#     4  10  20  32  47  69  96 125 156 191 232 276
#     4   8  14  25  42  65  92 118 146 186 232 273
#
# _framework density 25.910371999999999
#
# number of rings (size 3 to 8) (size 9 to 14) (size 15 to 20)
#    0.000    3.000    0.000    3.000    0.000    8.500 
#    0.000    0.000    0.000    1.500    0.000    0.000 
#    0.000    0.000    0.000    0.000    0.000    0.000 
#
# Total GULP energy -89377.879816 kJ/mol
# GULP energy per Si atom -5586.117489 kJ/mol
# Density = 2.585140 g / cm^3
# Si number density = 25.910372 Si / 1000 Ang^3
#
#
#
# Elastic Constant Matrix: (Units=GPa)
#
#
# Indices 1 2 3 4 5 6 
#
# 1 165.0225 40.6115 36.4381 12.0204 4.1255 -40.2556
# 2 40.6115 87.9670 21.4354 4.7918 6.3505 -41.0278
# 3 36.4381 21.4354 50.4127 14.1633 -9.8952 -21.8733
# 4 12.0204 4.7918 14.1633 31.6945 -7.9632 -1.5953
# 5 4.1255 6.3505 -9.8952 -7.9632 36.0984 -9.7331
# 6 -40.2556 -41.0278 -21.8733 -1.5953 -9.7331 48.9333
#
#
#
# Elastic Compliance Matrix: (Units=1/GPa)
#
#
# Indices 1 2 3 4 5 6 
#
# 1 0.008203 -0.000786 -0.003510 -0.001439 -0.000922 0.004290
# 2 -0.000786 0.018905 -0.000459 -0.001510 0.000355 0.015020
# 3 -0.003510 -0.000459 0.033462 -0.010084 0.011086 0.013561
# 4 -0.001439 -0.001510 -0.010084 0.037773 0.004707 -0.004790
# 5 -0.000922 0.000355 0.011086 0.004707 0.034950 0.011600
# 6 0.004290 0.015020 0.013561 -0.004790 0.011600 0.044771
#
#
# Mechanical properties :
#
#
# Convention : Reuss Voigt Hill
#
# Bulk Modulus (GPa) = 19.58546 55.59691 37.59119
# Shear Modulus (GPa) = 24.43870 37.00639 30.72254
#
# Velocity S-wave (km/s) = 3.07449 3.78331 3.44717
# Velocity P-wave (km/s) = 4.49207 6.37092 5.51213
#
# Compressibility (1/GPa) = 0.05105829
#
# Stress axis : x y z
#
# Youngs Moduli (GPa) = 121.91356 52.89736 29.88473
#
# Poissons Ratio (x) = 0.04157 0.10490
# Poissons Ratio (y) = 0.09581 0.01373
# Poissons Ratio (z) = 0.42792 0.02430
#
# Static dielectric constant tensor:
#      x y z
#    x 2.060440 0.011750 -0.052060 
#    y 0.011750 2.125930 -0.149910 
#    z -0.052060 -0.149910 2.072640 
# 
# From -- ./inp_files/259561.got.cif
#   From: 2010.05.17/outbox.cif.g08.bks.cpg/sg2_130_cif.got.tgz:259561.got - 2010.06.03 11:33:40.
