data_PCOD9093805
_publ_section_title
;
Structure prediction by ZEFSAII (Michael W. Deem and Ramdas Pophale) SiO2 
 PCOD9093805
Probable space group: P -1
;
_chemical_formula_sum "Si O2"
_cell_formula_units_Z 16
_cell_length_a 15.144877
_cell_length_b 8.639399
_cell_length_c 8.552381
_cell_angle_alpha 50.143179
_cell_angle_beta 94.846531
_cell_angle_gamma 60.529219
_cell_volume 599.300877
_symmetry_space_group_name_H-M "P -1"
_symmetry_group_IT_number 2
_symmetry_cell_setting 'triclinic'
loop_
_space_group_symop_operation_xyz
x,y,z
-x,-y,-z
loop_
_atom_site_type_symbol
_atom_site_label
_atom_site_fract_x
_atom_site_fract_y
_atom_site_fract_z
Si Si1 0.864674 0.350921 0.998505
Si Si2 0.248457 0.763475 0.161974
Si Si3 0.492462 0.485260 0.697109
Si Si4 0.713380 0.746153 0.352852
Si Si5 0.086779 0.351801 0.345353
Si Si6 0.400769 0.005667 0.540871
Si Si7 0.859135 0.428536 0.308519
Si Si8 0.219731 0.850086 0.434089
O O1 0.855840 0.155451 0.027645
O O2 0.955525 0.381756 0.931804
O O3 0.732179 0.681197 0.727538
O O4 0.858695 0.350612 0.182621
O O5 0.357564 0.708460 0.122211
O O6 0.289509 0.480225 0.432891
O O7 0.216737 0.941571 0.197741
O O8 0.500000 0.500000 0.500000
O O9 0.428646 0.769175 0.597421
O O10 0.369801 0.537986 0.678074
O O11 0.832768 0.679329 0.481551
O O12 0.732793 0.717367 0.188928
O O13 0.596635 0.030642 0.247541
O O14 0.971721 0.403357 0.352639
O O15 0.170304 0.073530 0.421817
O O16 0.500000 0.000000 0.500000
O O17 0.873076 0.194551 0.553214
#
# Coordination Sequence:
#
# PCOD9093805 Si02
#       8
#     2   2   2   2   2   2   2   2
#     4  10  20  35  55  78 105 138 173 223 258 308
#     4   8  17  32  55  78 101 138 175 207 260 318
#     4  10  16  29  58  79  96 129 181 211 244 309
#     4   9  18  32  55  78 102 134 176 217 249 310
#     4  10  19  36  58  74  98 147 187 209 245 321
#     4  10  16  33  60  76  97 136 185 205 246 321
#     4  11  22  35  49  80 114 135 168 225 275 285
#     4  10  19  33  55  79 103 134 182 215 253 313
#
# _framework density 26.697772000000001
#
# number of rings (size 3 to 8) (size 9 to 14) (size 15 to 20)
#    0.000    2.500    5.000    1.125    0.000    0.000 
#    0.000    3.125    0.000    0.000    0.000    0.000 
#    0.000    0.000    0.000    0.000    0.000    0.000 
#
# Total GULP energy -89087.938456 kJ/mol
# GULP energy per Si atom -5567.996154 kJ/mol
# Density = 2.663701 g / cm^3
# Si number density = 26.697772 Si / 1000 Ang^3
#
#
#
# Elastic Constant Matrix: (Units=GPa)
#
#
# Indices 1 2 3 4 5 6 
#
# 1 207.4554 35.4970 31.8279 6.0548 -7.7210 -10.5178
# 2 35.4970 112.1728 27.4834 29.0067 -4.3146 -23.5235
# 3 31.8279 27.4834 55.9464 12.9191 -7.8242 -3.6764
# 4 6.0548 29.0067 12.9191 43.4347 -1.8942 -0.6714
# 5 -7.7210 -4.3146 -7.8242 -1.8942 28.9982 11.6239
# 6 -10.5178 -23.5235 -3.6764 -0.6714 11.6239 53.0394
#
#
#
# Elastic Compliance Matrix: (Units=1/GPa)
#
#
# Indices 1 2 3 4 5 6 
#
# 1 0.005437 -0.001237 -0.002597 0.000867 0.000521 0.000246
# 2 -0.001237 0.013390 -0.004060 -0.007571 -0.002256 0.005811
# 3 -0.002597 -0.004060 0.022781 -0.003497 0.005411 -0.001967
# 4 0.000867 -0.007571 -0.003497 0.029008 0.001406 -0.003369
# 5 0.000521 -0.002256 0.005411 0.001406 0.039513 -0.009164
# 6 0.000246 0.005811 -0.001967 -0.003369 -0.009164 0.023309
#
#
# Mechanical properties :
#
#
# Convention : Reuss Voigt Hill
#
# Bulk Modulus (GPa) = 38.72681 62.79901 50.76291
# Shear Modulus (GPa) = 31.67923 43.81220 37.74571
#
# Velocity S-wave (km/s) = 3.44842 4.05537 3.76415
# Velocity P-wave (km/s) = 5.51295 6.74547 6.16011
#
# Compressibility (1/GPa) = 0.02582190
#
# Stress axis : x y z
#
# Youngs Moduli (GPa) = 183.92888 74.68009 43.89639
#
# Poissons Ratio (x) = 0.09236 0.11398
# Poissons Ratio (y) = 0.22747 0.17821
# Poissons Ratio (z) = 0.47760 0.30319
#
# Static dielectric constant tensor:
#      x y z
#    x 2.512100 0.113190 0.205140 
#    y 0.113190 2.353560 0.019480 
#    z 0.205140 0.019480 2.974680 
# 
# From -- ./inp_files/239767.got.cif
#   From: 2010.05.17/outbox.cif.g08.bks.cpg/sg2_120_cif.got.tgz:239767.got - 2010.06.03 11:33:40.
