data_PCOD9093540
_publ_section_title
;
Structure prediction by ZEFSAII (Michael W. Deem and Ramdas Pophale) SiO2 
 PCOD9093540
Probable space group: P -1
;
_chemical_formula_sum "Si O2"
_cell_formula_units_Z 16
_cell_length_a 17.543474
_cell_length_b 5.604811
_cell_length_c 20.569272
_cell_angle_alpha 59.171041
_cell_angle_beta 151.431066
_cell_angle_gamma 125.838893
_cell_volume 784.074331
_symmetry_space_group_name_H-M "P -1"
_symmetry_group_IT_number 2
_symmetry_cell_setting 'triclinic'
loop_
_space_group_symop_operation_xyz
x,y,z
-x,-y,-z
loop_
_atom_site_type_symbol
_atom_site_label
_atom_site_fract_x
_atom_site_fract_y
_atom_site_fract_z
Si Si1 0.238886 0.022432 0.211253
Si Si2 0.350849 0.105062 0.901044
Si Si3 0.076808 0.489260 0.976404
Si Si4 0.412306 0.367298 0.521460
Si Si5 0.624176 0.081338 0.795557
Si Si6 0.855333 0.473919 0.128517
Si Si7 0.759535 0.170414 0.620050
Si Si8 0.462749 0.330801 0.097588
O O1 0.373629 0.093731 0.244615
O O2 0.291303 0.024144 0.324571
O O3 0.133982 0.239591 0.089684
O O4 0.122630 0.676889 0.159648
O O5 0.370756 0.392224 0.832578
O O6 0.179804 0.831921 0.816277
O O7 0.403138 0.190223 0.002589
O O8 0.500000 0.000000 0.000000
O O9 0.180174 0.780773 0.052623
O O10 0.143854 0.560297 0.943758
O O11 0.500000 0.500000 0.500000
O O12 0.544798 0.324692 0.679095
O O13 0.311524 0.562281 0.453043
O O14 0.302500 0.039170 0.459444
O O15 0.520797 0.889506 0.803856
O O16 0.037276 0.702654 0.249099
O O17 0.694849 0.572662 0.010125
#
# Coordination Sequence:
#
# PCOD9093540 Si02
#       8
#     2   2   2   2   2   2   2   2
#     4  10  21  35  54  82 122 156 198 254 297 365
#     4   9  19  37  58  92 122 148 182 248 329 389
#     4  10  20  33  52  89 116 152 195 245 324 351
#     4  12  26  43  60  83 127 176 222 248 286 346
#     4  12  22  34  61  81 123 157 203 254 293 369
#     4  10  20  36  63  88 125 150 201 255 307 376
#     4  11  26  42  61  89 120 177 216 248 293 350
#     4  10  20  35  61  95 118 149 193 248 331 369
#
# _framework density 20.406230000000001
#
# number of rings (size 3 to 8) (size 9 to 14) (size 15 to 20)
#    0.000    1.500    3.750    1.500    3.500    0.000 
#    0.000    0.000    0.000    1.500    0.000    0.000 
#    0.000    0.000    0.000    0.000    0.000    0.000 
#
# Total GULP energy -89201.939189 kJ/mol
# GULP energy per Si atom -5575.121199 kJ/mol
# Density = 2.035978 g / cm^3
# Si number density = 20.406230 Si / 1000 Ang^3
#
#
#
# Elastic Constant Matrix: (Units=GPa)
#
#
# Indices 1 2 3 4 5 6 
#
# 1 100.1555 31.1402 8.6749 6.5781 -6.3519 20.8110
# 2 31.1402 83.3709 25.5365 2.2447 -14.1507 14.8199
# 3 8.6749 25.5365 63.1396 5.5657 -5.7020 7.4726
# 4 6.5781 2.2447 5.5657 33.3216 -5.9263 -8.9060
# 5 -6.3519 -14.1507 -5.7020 -5.9263 14.8962 -9.1192
# 6 20.8110 14.8199 7.4726 -8.9060 -9.1192 29.0994
#
#
#
# Elastic Compliance Matrix: (Units=1/GPa)
#
#
# Indices 1 2 3 4 5 6 
#
# 1 0.014003 -0.004638 0.001390 -0.007867 -0.009169 -0.013290
# 2 -0.004638 0.017629 -0.005664 0.003836 0.015183 0.001725
# 3 0.001390 -0.005664 0.018749 -0.004957 -0.002848 -0.005334
# 4 -0.007867 0.003836 -0.004957 0.046537 0.035455 0.030300
# 5 -0.009169 0.015183 -0.002848 0.035455 0.120066 0.048034
# 6 -0.013290 0.001725 -0.005334 0.030300 0.048034 0.068687
#
#
# Mechanical properties :
#
#
# Convention : Reuss Voigt Hill
#
# Bulk Modulus (GPa) = 30.71512 41.92993 36.32253
# Shear Modulus (GPa) = 15.90602 27.55106 21.72854
#
# Velocity S-wave (km/s) = 2.79493 3.67840 3.26667
# Velocity P-wave (km/s) = 5.04975 6.21555 5.66273
#
# Compressibility (1/GPa) = 0.03255725
#
# Stress axis : x y z
#
# Youngs Moduli (GPa) = 71.41367 56.72496 53.33736
#
# Poissons Ratio (x) = 0.26310 -0.07416
# Poissons Ratio (y) = 0.33122 0.30209
# Poissons Ratio (z) = -0.09929 0.32128
#
# Static dielectric constant tensor:
#      x y z
#    x 1.814210 0.005770 -0.006460 
#    y 0.005770 1.863670 0.023640 
#    z -0.006460 0.023640 1.766160 
# 
# From -- ./inp_files/76365.got.cif
#   From: 2010.05.17/outbox.cif.g08.bks.cpg/sg2_39_cif.got.tgz:76365.got - 2010.06.03 11:33:40.
