data_PCOD9093822
_publ_section_title
;
Structure prediction by ZEFSAII (Michael W. Deem and Ramdas Pophale) SiO2 
 PCOD9093822
Probable space group: P -1
;
_chemical_formula_sum "Si O2"
_cell_formula_units_Z 16
_cell_length_a 5.658704
_cell_length_b 12.340489
_cell_length_c 12.961782
_cell_angle_alpha 108.692354
_cell_angle_beta 119.647581
_cell_angle_gamma 61.117985
_cell_volume 684.827217
_symmetry_space_group_name_H-M "P -1"
_symmetry_group_IT_number 2
_symmetry_cell_setting 'triclinic'
loop_
_space_group_symop_operation_xyz
x,y,z
-x,-y,-z
loop_
_atom_site_type_symbol
_atom_site_label
_atom_site_fract_x
_atom_site_fract_y
_atom_site_fract_z
Si Si1 0.548749 0.474747 0.134551
Si Si2 0.485589 0.898881 0.323813
Si Si3 0.027937 0.650356 0.618101
Si Si4 0.913882 0.283599 0.637317
Si Si5 0.446662 0.878370 0.539813
Si Si6 0.372077 0.423278 0.364139
Si Si7 0.125387 0.358242 0.094272
Si Si8 0.134117 0.759541 0.149451
O O1 0.760159 0.403045 0.253840
O O2 0.291143 0.422254 0.076413
O O3 0.404624 0.622860 0.162649
O O4 0.785675 0.438702 0.081418
O O5 0.356813 0.931484 0.421036
O O6 0.257323 0.867281 0.194904
O O7 0.763184 0.768098 0.358410
O O8 0.605310 0.006225 0.359825
O O9 0.274534 0.621408 0.574284
O O10 0.795105 0.792272 0.603850
O O11 0.797158 0.585688 0.570852
O O12 0.731710 0.210825 0.521648
O O13 0.766530 0.433087 0.658358
O O14 0.974754 0.236437 0.755453
O O15 0.299131 0.339771 0.235100
O O16 0.094277 0.247379 0.988011
#
# Coordination Sequence:
#
# PCOD9093822 Si02
#       8
#     2   2   2   2   2   2   2   2
#     4  10  20  35  56  92 124 150 190 234 293 366
#     4  10  23  42  58  85 114 151 214 248 283 347
#     4  10  21  40  60  87 119 161 189 241 296 356
#     4  11  22  37  59  87 119 152 195 254 290 354
#     4  10  24  41  61  80 113 162 204 247 296 337
#     4  10  22  38  59  95 125 146 195 237 296 367
#     4  10  20  33  58  88 126 156 182 233 300 353
#     4  11  21  34  58  88 119 155 190 242 296 346
#
# _framework density 23.363558999999999
#
# number of rings (size 3 to 8) (size 9 to 14) (size 15 to 20)
#    0.000    1.750    2.500    2.625    5.250    1.000 
#    0.000    0.000    0.000    6.000    0.000    0.000 
#    0.000    0.000    0.000    0.000    0.000    0.000 
#
# Total GULP energy -89114.252453 kJ/mol
# GULP energy per Si atom -5569.640778 kJ/mol
# Density = 2.331038 g / cm^3
# Si number density = 23.363559 Si / 1000 Ang^3
#
#
#
# Elastic Constant Matrix: (Units=GPa)
#
#
# Indices 1 2 3 4 5 6 
#
# 1 129.5578 7.1889 22.2209 12.2502 8.8308 8.5573
# 2 7.1889 58.4770 28.1186 16.3881 13.8567 -1.2290
# 3 22.2209 28.1186 143.3213 33.1624 27.7117 12.9850
# 4 12.2502 16.3881 33.1624 33.7067 9.4201 8.2894
# 5 8.8308 13.8567 27.7117 9.4201 42.5002 -4.7582
# 6 8.5573 -1.2290 12.9850 8.2894 -4.7582 32.0236
#
#
#
# Elastic Compliance Matrix: (Units=1/GPa)
#
#
# Indices 1 2 3 4 5 6 
#
# 1 0.008159 -0.000049 -0.000472 -0.001724 -0.001182 -0.001720
# 2 -0.000049 0.021216 -0.001850 -0.008285 -0.003506 0.003201
# 3 -0.000472 -0.001850 0.010201 -0.006897 -0.004758 -0.003003
# 4 -0.001724 -0.008285 -0.006897 0.044229 -0.003253 -0.008993
# 5 -0.001182 -0.003506 -0.004758 -0.003253 0.029564 0.007345
# 6 -0.001720 0.003201 -0.003003 -0.008993 0.007345 0.036446
#
#
# Mechanical properties :
#
#
# Convention : Reuss Voigt Hill
#
# Bulk Modulus (GPa) = 28.70712 49.60143 39.15428
# Shear Modulus (GPa) = 30.08964 39.90128 34.99546
#
# Velocity S-wave (km/s) = 3.59261 4.13709 3.87442
# Velocity P-wave (km/s) = 5.43350 6.64056 6.06712
#
# Compressibility (1/GPa) = 0.03483456
#
# Stress axis : x y z
#
# Youngs Moduli (GPa) = 122.55741 47.13381 98.02510
#
# Poissons Ratio (x) = 0.00231 0.04629
# Poissons Ratio (y) = 0.00601 0.18135
# Poissons Ratio (z) = 0.05787 0.08720
#
# Static dielectric constant tensor:
#      x y z
#    x 2.017450 0.019620 -0.010980 
#    y 0.019620 1.924220 -0.038860 
#    z -0.010980 -0.038860 2.008350 
# 
# From -- ./inp_files/76701.got.cif
#   From: 2010.05.17/outbox.cif.g08.bks.cpg/sg2_39_cif.got.tgz:76701.got - 2010.06.03 11:33:40.
