data_PCOD9093887
_publ_section_title
;
Structure prediction by ZEFSAII (Michael W. Deem and Ramdas Pophale) SiO2 
 PCOD9093887
Probable space group: P -1
;
_chemical_formula_sum "Si O2"
_cell_formula_units_Z 16
_cell_length_a 10.557176
_cell_length_b 13.957619
_cell_length_c 9.974022
_cell_angle_alpha 44.611970
_cell_angle_beta 50.166217
_cell_angle_gamma 56.929099
_cell_volume 781.579267
_symmetry_space_group_name_H-M "P -1"
_symmetry_group_IT_number 2
_symmetry_cell_setting 'triclinic'
loop_
_space_group_symop_operation_xyz
x,y,z
-x,-y,-z
loop_
_atom_site_type_symbol
_atom_site_label
_atom_site_fract_x
_atom_site_fract_y
_atom_site_fract_z
Si Si1 0.462342 0.735634 0.540996
Si Si2 0.784409 0.684967 0.027713
Si Si3 0.683665 0.931869 0.054550
Si Si4 0.367354 0.897328 0.706345
Si Si5 0.981772 0.007882 0.270456
Si Si6 0.573295 0.226300 0.917604
Si Si7 0.099932 0.783278 0.629858
Si Si8 0.655295 0.493278 0.503049
O O1 0.560061 0.856567 0.300998
O O2 0.408701 0.776476 0.687322
O O3 0.296140 0.726620 0.574131
O O4 0.590110 0.595290 0.567954
O O5 0.735876 0.831755 0.992812
O O6 0.784974 0.564335 0.257633
O O7 0.620090 0.695288 0.034855
O O8 0.963594 0.682626 0.841431
O O9 0.598583 0.091670 0.937158
O O10 0.869672 0.947349 0.963154
O O11 0.381277 0.833593 0.907502
O O12 0.500000 0.000000 0.500000
O O13 0.186029 0.983577 0.708369
O O14 0.052370 0.867144 0.441867
O O15 0.932923 0.111849 0.325606
O O16 0.688284 0.337514 0.686796
O O17 0.500000 0.500000 0.500000
#
# Coordination Sequence:
#
# PCOD9093887 Si02
#       8
#     2   2   2   2   2   2   2   2
#     4  10  21  37  60  82 114 153 185 228 285 328
#     4   9  19  36  58  83 112 143 190 237 281 325
#     4  10  20  33  60  84 110 144 190 236 280 320
#     4  11  21  37  56  84 120 147 184 227 282 338
#     4   9  20  31  52  88 115 140 182 236 279 330
#     4  11  21  34  58  82 117 149 186 229 278 334
#     4   9  18  32  57  84 114 140 186 235 284 324
#     4   9  21  38  57  82 111 148 193 230 275 333
#
# _framework density 20.471373
#
# number of rings (size 3 to 8) (size 9 to 14) (size 15 to 20)
#    0.000    2.250    1.250    1.125   10.500    1.000 
#    0.000    2.500    2.750   12.000    0.000    0.000 
#    0.000    0.000    0.000    0.000    0.000    0.000 
#
# Total GULP energy -89188.531680 kJ/mol
# GULP energy per Si atom -5574.283230 kJ/mol
# Density = 2.042478 g / cm^3
# Si number density = 20.471373 Si / 1000 Ang^3
#
#
#
# Elastic Constant Matrix: (Units=GPa)
#
#
# Indices 1 2 3 4 5 6 
#
# 1 98.7048 14.5312 58.1936 8.7192 1.2749 -16.9900
# 2 14.5312 77.5025 56.3233 -3.2703 -3.3209 5.5266
# 3 58.1936 56.3233 126.3031 -8.6446 -7.6142 -19.2888
# 4 8.7192 -3.2703 -8.6446 32.7321 -4.4054 -9.6928
# 5 1.2749 -3.3209 -7.6142 -4.4054 37.0187 11.2811
# 6 -16.9900 5.5266 -19.2888 -9.6928 11.2811 30.3594
#
#
#
# Elastic Compliance Matrix: (Units=1/GPa)
#
#
# Indices 1 2 3 4 5 6 
#
# 1 0.015938 0.003029 -0.009035 -0.006224 -0.003464 0.001928
# 2 0.003029 0.023861 -0.014588 -0.006333 0.002853 -0.014999
# 3 -0.009035 -0.014588 0.021614 0.011066 0.000265 0.014767
# 4 -0.006224 -0.006333 0.011066 0.039680 0.001524 0.016802
# 5 -0.003464 0.002853 0.000265 0.001524 0.031772 -0.013609
# 6 0.001928 -0.014999 0.014767 0.016802 -0.013609 0.056551
#
#
# Mechanical properties :
#
#
# Convention : Reuss Voigt Hill
#
# Bulk Modulus (GPa) = 49.44258 62.28961 55.86609
# Shear Modulus (GPa) = 21.06629 31.58620 26.32624
#
# Velocity S-wave (km/s) = 3.21138 3.93229 3.58998
# Velocity P-wave (km/s) = 6.16077 7.14919 6.67331
#
# Compressibility (1/GPa) = 0.02022548
#
# Stress axis : x y z
#
# Youngs Moduli (GPa) = 62.74205 41.90889 46.26610
#
# Poissons Ratio (x) = -0.12694 0.41799
# Poissons Ratio (y) = -0.19004 0.67495
# Poissons Ratio (z) = 0.56685 0.61138
#
# Static dielectric constant tensor:
#      x y z
#    x 1.733810 0.009750 -0.037090 
#    y 0.009750 1.803470 0.011930 
#    z -0.037090 0.011930 1.760080 
# 
# From -- ./inp_files/398346.got.cif
#   From: 2010.05.17/outbox.cif.g08.bks.cpg/sg2_200_cif.got.tgz:398346.got - 2010.06.03 11:33:40.
