data_PCOD9093410
_publ_section_title
;
Structure prediction by ZEFSAII (Michael W. Deem and Ramdas Pophale) SiO2 
 PCOD9093410
Probable space group: P -1
;
_chemical_formula_sum "Si O2"
_cell_formula_units_Z 14
_cell_length_a 7.030369
_cell_length_b 8.501049
_cell_length_c 14.771653
_cell_angle_alpha 39.796161
_cell_angle_beta 78.685017
_cell_angle_gamma 89.173563
_cell_volume 540.854440
_symmetry_space_group_name_H-M "P -1"
_symmetry_group_IT_number 2
_symmetry_cell_setting 'triclinic'
loop_
_space_group_symop_operation_xyz
x,y,z
-x,-y,-z
loop_
_atom_site_type_symbol
_atom_site_label
_atom_site_fract_x
_atom_site_fract_y
_atom_site_fract_z
Si Si1 0.031112 0.236470 0.826026
Si Si2 0.528153 0.777751 0.830527
Si Si3 0.681606 0.465161 0.199727
Si Si4 0.199785 0.427758 0.554984
Si Si5 0.286661 0.248395 0.438517
Si Si6 0.361380 0.006105 0.094354
Si Si7 0.190731 0.882181 0.467684
O O1 0.138120 0.470998 0.773616
O O2 0.157232 0.222814 0.729968
O O3 0.818705 0.228881 0.803207
O O4 0.000000 0.000000 0.000000
O O5 0.357538 0.742127 0.785017
O O6 0.536415 0.968484 0.829104
O O7 0.736092 0.873404 0.713516
O O8 0.500000 0.500000 0.000000
O O9 0.470709 0.426265 0.290137
O O10 0.712818 0.733942 0.025121
O O11 0.306141 0.330459 0.504542
O O12 0.281481 0.678035 0.495166
O O13 0.000000 0.500000 0.500000
O O14 0.046498 0.216911 0.458992
O O15 0.290173 0.976024 0.512965
O O16 0.500000 0.000000 0.000000
#
# Coordination Sequence:
#
# PCOD9093410 Si02
#       7
#     2   2   2   2   2   2   2
#     4  10  22  41  59  87 130 162 192 256 323 357
#     4   9  18  36  55  84 118 161 199 241 309 360
#     4   9  20  36  57  81 122 159 193 250 316 365
#     4  10  20  34  63  88 116 161 210 251 296 368
#     4   9  18  33  55  87 117 155 200 247 313 359
#     4  10  20  32  61  87 112 158 213 248 284 373
#     4   9  18  32  56  86 120 150 205 263 287 358
#
# _framework density 25.884969999999999
#
# number of rings (size 3 to 8) (size 9 to 14) (size 15 to 20)
#    0.000    2.571    0.000    1.714    6.000    0.571 
#    0.000    3.571    6.286    0.000    0.000    0.000 
#    0.000    0.000    0.000    0.000    0.000    0.000 
#
# Total GULP energy -78001.758109 kJ/mol
# GULP energy per Si atom -5571.554151 kJ/mol
# Density = 2.582605 g / cm^3
# Si number density = 25.884970 Si / 1000 Ang^3
#
#
#
# Elastic Constant Matrix: (Units=GPa)
#
#
# Indices 1 2 3 4 5 6 
#
# 1 120.9575 70.9273 30.8880 -3.8212 -18.9623 38.7620
# 2 70.9273 268.0381 49.7501 23.8757 -12.1256 49.5733
# 3 30.8880 49.7501 162.5238 4.2550 -8.0101 11.7320
# 4 -3.8212 23.8757 4.2550 52.2146 15.0597 2.4403
# 5 -18.9623 -12.1256 -8.0101 15.0597 32.1709 -6.1785
# 6 38.7620 49.5733 11.7320 2.4403 -6.1785 38.4415
#
#
#
# Elastic Compliance Matrix: (Units=1/GPa)
#
#
# Indices 1 2 3 4 5 6 
#
# 1 0.013597 -0.001171 -0.001208 0.000770 0.004777 -0.011113
# 2 -0.001171 0.005479 -0.000940 -0.002673 0.001392 -0.005204
# 3 -0.001208 -0.000940 0.006689 -0.000503 0.000944 0.000573
# 4 0.000770 -0.002673 -0.000503 0.023967 -0.012019 -0.000630
# 5 0.004777 0.001392 0.000944 -0.012019 0.040353 0.000348
# 6 -0.011113 -0.005204 0.000573 -0.000630 0.000348 0.043851
#
#
# Mechanical properties :
#
#
# Convention : Reuss Voigt Hill
#
# Bulk Modulus (GPa) = 52.28638 94.96114 73.62376
# Shear Modulus (GPa) = 34.02539 51.22901 42.62720
#
# Velocity S-wave (km/s) = 3.62952 4.45354 4.06247
# Velocity P-wave (km/s) = 6.14881 7.95052 7.10699
#
# Compressibility (1/GPa) = 0.01912544
#
# Stress axis : x y z
#
# Youngs Moduli (GPa) = 73.54587 182.52343 149.50536
#
# Poissons Ratio (x) = 0.21373 0.18064
# Poissons Ratio (y) = 0.08612 0.14058
# Poissons Ratio (z) = 0.08886 0.17163
#
# Static dielectric constant tensor:
#      x y z
#    x 1.724500 0.129670 0.055010 
#    y 0.129670 2.035310 -0.050660 
#    z 0.055010 -0.050660 2.128900 
# 
# From -- ./inp_files/195686.got.cif
#   From: 2010.05.17/outbox.cif.g08.bks.cpg/sg2_98_cif.got.tgz:195686.got - 2010.06.03 11:33:40.
