data_PCOD9093507
_publ_section_title
;
Structure prediction by ZEFSAII (Michael W. Deem and Ramdas Pophale) SiO2 
 PCOD9093507
Probable space group: P -1
;
_chemical_formula_sum "Si O2"
_cell_formula_units_Z 16
_cell_length_a 7.897980
_cell_length_b 9.001221
_cell_length_c 15.406432
_cell_angle_alpha 102.166991
_cell_angle_beta 66.517275
_cell_angle_gamma 128.981288
_cell_volume 779.669157
_symmetry_space_group_name_H-M "P -1"
_symmetry_group_IT_number 2
_symmetry_cell_setting 'triclinic'
loop_
_space_group_symop_operation_xyz
x,y,z
-x,-y,-z
loop_
_atom_site_type_symbol
_atom_site_label
_atom_site_fract_x
_atom_site_fract_y
_atom_site_fract_z
Si Si1 0.831365 0.176158 0.863812
Si Si2 0.661421 0.559921 0.720099
Si Si3 0.017631 0.511939 0.738742
Si Si4 0.404998 0.356227 0.080673
Si Si5 0.669038 0.987996 0.037721
Si Si6 0.852582 0.110252 0.193090
Si Si7 0.042762 0.008039 0.687279
Si Si8 0.668920 0.609729 0.398839
O O1 0.553625 0.025595 0.893191
O O2 0.905826 0.369543 0.826704
O O3 0.942680 0.094316 0.777989
O O4 0.858470 0.168166 0.961201
O O5 0.507817 0.547448 0.830986
O O6 0.489856 0.446211 0.661524
O O7 0.820745 0.498322 0.716993
O O8 0.842015 0.784314 0.681926
O O9 0.185800 0.729668 0.766735
O O10 0.165048 0.454843 0.653874
O O11 0.129852 0.240532 0.137764
O O12 0.500000 0.500000 0.000000
O O13 0.427019 0.197401 0.022917
O O14 0.759502 0.982681 0.111385
O O15 0.787872 0.996235 0.281440
O O16 0.171158 0.158607 0.602128
O O17 0.500000 0.500000 0.500000
#
# Coordination Sequence:
#
# PCOD9093507 Si02
#       8
#     2   2   2   2   2   2   2   2
#     4  10  20  33  51  82 124 158 199 251 287 348
#     4  10  22  43  63  85 133 164 189 262 310 345
#     4   9  22  42  57  88 123 154 206 244 314 371
#     4  10  20  33  53  87 122 164 207 238 292 358
#     4  11  20  30  55  85 121 158 215 234 282 356
#     4  10  21  35  56  84 118 166 199 246 297 358
#     4   9  21  42  58  88 123 155 202 249 316 367
#     4  11  25  42  70  95 111 156 211 253 323 381
#
# _framework density 20.521523999999999
#
# number of rings (size 3 to 8) (size 9 to 14) (size 15 to 20)
#    0.000    2.250    2.500    1.875    5.250    2.500 
#    0.000    2.500    0.000    0.000    0.000    0.000 
#    0.000    0.000    0.000    0.000    0.000    0.000 
#
# Total GULP energy -89106.003846 kJ/mol
# GULP energy per Si atom -5569.125240 kJ/mol
# Density = 2.047482 g / cm^3
# Si number density = 20.521524 Si / 1000 Ang^3
#
#
#
# Elastic Constant Matrix: (Units=GPa)
#
#
# Indices 1 2 3 4 5 6 
#
# 1 49.4682 25.8551 2.5182 4.4297 1.7035 -17.8124
# 2 25.8551 96.3647 27.8334 -28.1130 2.2145 -33.2455
# 3 2.5182 27.8334 43.6901 -20.4456 1.2930 -4.6436
# 4 4.4297 -28.1130 -20.4456 32.8443 5.1094 8.5725
# 5 1.7035 2.2145 1.2930 5.1094 18.5111 -0.0702
# 6 -17.8124 -33.2455 -4.6436 8.5725 -0.0702 25.8841
#
#
#
# Elastic Compliance Matrix: (Units=1/GPa)
#
#
# Indices 1 2 3 4 5 6 
#
# 1 0.031986 -0.005679 -0.004424 -0.017542 0.002962 0.019741
# 2 -0.005679 0.026489 -0.007597 0.013237 -0.005677 0.024351
# 3 -0.004424 -0.007597 0.036942 0.021722 -0.007311 -0.013389
# 4 -0.017542 0.013237 0.021722 0.063878 -0.019165 -0.012381
# 5 0.002962 -0.005677 -0.007311 -0.019165 0.060228 -0.000055
# 6 0.019741 0.024351 -0.013389 -0.012381 -0.000055 0.085194
#
#
# Mechanical properties :
#
#
# Convention : Reuss Voigt Hill
#
# Bulk Modulus (GPa) = 16.66240 33.54845 25.10543
# Shear Modulus (GPa) = 13.88420 24.33567 19.10994
#
# Velocity S-wave (km/s) = 2.60391 3.44737 3.05489
# Velocity P-wave (km/s) = 4.14459 5.67708 4.97025
#
# Compressibility (1/GPa) = 0.06001535
#
# Stress axis : x y z
#
# Youngs Moduli (GPa) = 31.26407 37.75213 27.06955
#
# Poissons Ratio (x) = 0.21440 0.11976
# Poissons Ratio (y) = 0.17756 0.20564
# Poissons Ratio (z) = 0.13832 0.28680
#
# Static dielectric constant tensor:
#      x y z
#    x 1.816760 -0.012250 0.048890 
#    y -0.012250 1.804280 0.000180 
#    z 0.048890 0.000180 1.780900 
# 
# From -- ./inp_files/218419.got.cif
#   From: 2010.05.17/outbox.cif.g08.bks.cpg/sg2_110_cif.got.tgz:218419.got - 2010.06.03 11:33:40.
