data_PCOD9093786
_publ_section_title
;
Structure prediction by ZEFSAII (Michael W. Deem and Ramdas Pophale) SiO2 
 PCOD9093786
Probable space group: P -1
;
_chemical_formula_sum "Si O2"
_cell_formula_units_Z 16
_cell_length_a 20.654828
_cell_length_b 5.520099
_cell_length_c 6.742790
_cell_angle_alpha 73.993158
_cell_angle_beta 115.948308
_cell_angle_gamma 119.893802
_cell_volume 597.670298
_symmetry_space_group_name_H-M "P -1"
_symmetry_group_IT_number 2
_symmetry_cell_setting 'triclinic'
loop_
_space_group_symop_operation_xyz
x,y,z
-x,-y,-z
loop_
_atom_site_type_symbol
_atom_site_label
_atom_site_fract_x
_atom_site_fract_y
_atom_site_fract_z
Si Si1 0.579894 0.275091 0.509396
Si Si2 0.854903 0.431152 0.202335
Si Si3 0.985837 0.273530 0.858280
Si Si4 0.784980 0.810840 0.151528
Si Si5 0.460639 0.299380 0.807149
Si Si6 0.800628 0.009087 0.666671
Si Si7 0.382437 0.715214 0.912458
Si Si8 0.253942 0.598212 0.308517
O O1 0.568704 0.559597 0.435502
O O2 0.600613 0.277335 0.302140
O O3 0.659248 0.272881 0.709544
O O4 0.500000 0.000000 0.500000
O O5 0.948570 0.560273 0.256415
O O6 0.837793 0.636809 0.280983
O O7 0.811748 0.095620 0.250323
O O8 0.814428 0.454750 0.933122
O O9 0.893666 0.168088 0.700545
O O10 0.000000 0.500000 0.000000
O O11 0.000000 0.000000 0.000000
O O12 0.694466 0.570479 0.088700
O O13 0.799113 0.926348 0.917787
O O14 0.388707 0.026678 0.865367
O O15 0.500000 0.500000 0.000000
O O16 0.539978 0.260042 0.864736
O O17 0.755491 0.206863 0.578570
O O18 0.759001 0.708949 0.571879
#
# Coordination Sequence:
#
# PCOD9093786 Si02
#       8
#     2   2   2   2   2   2   2   2
#     4  11  26  41  61  87 120 165 204 255 309 373
#     4  10  20  33  57  94 120 160 197 258 297 367
#     4  12  16  32  53  90 130 155 199 244 316 357
#     4  10  20  33  58  84 120 154 200 247 304 349
#     4   9  22  42  61  86 111 156 207 259 308 363
#     4  10  20  34  57  91 121 162 192 258 300 366
#     4  10  23  41  62  84 116 161 208 258 307 365
#     4  10  21  36  54  86 124 155 201 242 311 354
#
# _framework density 26.770613999999998
#
# number of rings (size 3 to 8) (size 9 to 14) (size 15 to 20)
#    0.000    1.750    5.000    0.000    8.750    5.500 
#    0.000    0.000    0.000    0.000    0.000    9.625 
#    0.000    0.000    0.000    0.000    0.000    0.000 
#
# Total GULP energy -89493.193134 kJ/mol
# GULP energy per Si atom -5593.324571 kJ/mol
# Density = 2.670968 g / cm^3
# Si number density = 26.770614 Si / 1000 Ang^3
#
#
#
# Elastic Constant Matrix: (Units=GPa)
#
#
# Indices 1 2 3 4 5 6 
#
# 1 142.0604 82.9638 2.6262 -1.7900 40.4623 8.0434
# 2 82.9638 219.2651 24.0852 -7.6340 23.9769 -1.3969
# 3 2.6262 24.0852 76.3617 -2.7220 14.1589 12.0647
# 4 -1.7900 -7.6340 -2.7220 51.0637 3.9672 -0.7075
# 5 40.4623 23.9769 14.1589 3.9672 29.6921 8.8821
# 6 8.0434 -1.3969 12.0647 -0.7075 8.8821 82.6583
#
#
#
# Elastic Compliance Matrix: (Units=1/GPa)
#
#
# Indices 1 2 3 4 5 6 
#
# 1 0.014725 -0.003892 0.004350 0.001657 -0.019202 -0.000056
# 2 -0.003892 0.006176 -0.002091 0.000605 0.001029 0.000683
# 3 0.004350 -0.002091 0.016065 0.001580 -0.011650 -0.001538
# 4 0.001657 0.000605 0.001580 0.020317 -0.006357 0.000475
# 5 -0.019202 0.001029 -0.011650 -0.006357 0.066502 -0.003614
# 6 -0.000056 0.000683 -0.001538 0.000475 -0.003614 0.012732
#
#
# Mechanical properties :
#
#
# Convention : Reuss Voigt Hill
#
# Bulk Modulus (GPa) = 29.67479 73.00417 51.33948
# Shear Modulus (GPa) = 33.10876 54.55027 43.82951
#
# Velocity S-wave (km/s) = 3.52057 4.51898 4.05065
# Velocity P-wave (km/s) = 5.25688 7.38632 6.41063
#
# Compressibility (1/GPa) = 0.03369864
#
# Stress axis : x y z
#
# Youngs Moduli (GPa) = 67.91024 161.91637 62.24670
#
# Poissons Ratio (x) = 0.63023 -0.27075
# Poissons Ratio (y) = 0.26433 0.13017
# Poissons Ratio (z) = -0.29538 0.33861
#
# Static dielectric constant tensor:
#      x y z
#    x 2.340750 -0.102050 -0.097540 
#    y -0.102050 2.130810 -0.090040 
#    z -0.097540 -0.090040 2.209270 
# 
# From -- ./inp_files/105479.got.cif
#   From: 2010.05.17/outbox.cif.g08.bks.cpg/sg2_53_cif.got.tgz:105479.got - 2010.06.03 11:33:40.
