data_PCOD9093668
_publ_section_title
;
Structure prediction by ZEFSAII (Michael W. Deem and Ramdas Pophale) SiO2 
 PCOD9093668
Probable space group: P -1
;
_chemical_formula_sum "Si O2"
_cell_formula_units_Z 16
_cell_length_a 20.906310
_cell_length_b 19.199278
_cell_length_c 10.638939
_cell_angle_alpha 32.469176
_cell_angle_beta 35.962615
_cell_angle_gamma 20.212504
_cell_volume 788.462370
_symmetry_space_group_name_H-M "P -1"
_symmetry_group_IT_number 2
_symmetry_cell_setting 'triclinic'
loop_
_space_group_symop_operation_xyz
x,y,z
-x,-y,-z
loop_
_atom_site_type_symbol
_atom_site_label
_atom_site_fract_x
_atom_site_fract_y
_atom_site_fract_z
Si Si1 0.813967 0.064215 0.194089
Si Si2 0.012981 0.802333 0.872971
Si Si3 0.224952 0.679789 0.340391
Si Si4 0.987294 0.328283 0.181244
Si Si5 0.307024 0.706723 0.423854
Si Si6 0.556939 0.716607 0.587920
Si Si7 0.690047 0.798782 0.080055
Si Si8 0.831030 0.312352 0.924757
O O1 0.659657 0.103811 0.361707
O O2 0.808513 0.160622 0.931545
O O3 0.789120 0.197893 0.139817
O O4 0.018799 0.805381 0.247867
O O5 0.040147 0.663135 0.937950
O O6 0.154514 0.776604 0.640262
O O7 0.074161 0.733517 0.026153
O O8 0.800909 0.055950 0.801141
O O9 0.048156 0.774818 0.535432
O O10 0.336943 0.610624 0.389689
O O11 0.351204 0.465421 0.384401
O O12 0.830744 0.573028 0.118099
O O13 0.189578 0.189673 0.101179
O O14 0.500000 0.500000 0.500000
O O15 0.630077 0.786102 0.324588
O O16 0.645899 0.574020 0.791347
O O17 0.500000 0.000000 0.000000
#
# Coordination Sequence:
#
# PCOD9093668 Si02
#       8
#     2   2   2   2   2   2   2   2
#     4  10  20  33  55  84 120 153 185 223 277 344
#     4  10  21  36  53  85 117 154 189 228 292 336
#     4   9  17  35  53  86 115 146 185 220 286 334
#     4   9  21  39  61  83 114 143 195 247 279 343
#     4  10  21  32  52  81 122 157 186 221 278 351
#     4  10  22  35  56  85 110 150 196 234 281 331
#     4  10  22  42  64  83 105 145 200 247 292 330
#     4  10  20  34  55  81 119 154 185 227 280 347
#
# _framework density 20.292660999999999
#
# number of rings (size 3 to 8) (size 9 to 14) (size 15 to 20)
#    0.000    2.250    1.250    1.500    3.500    8.000 
#    0.000    0.625    0.000    1.500    0.000    0.000 
#    0.000    0.000    0.000    0.000    0.000    0.000 
#
# Total GULP energy -89069.250665 kJ/mol
# GULP energy per Si atom -5566.828167 kJ/mol
# Density = 2.024647 g / cm^3
# Si number density = 20.292661 Si / 1000 Ang^3
#
#
#
# Elastic Constant Matrix: (Units=GPa)
#
#
# Indices 1 2 3 4 5 6 
#
# 1 114.7831 18.9374 26.5746 3.1880 7.5658 -16.4442
# 2 18.9374 81.9772 7.6747 13.0924 -5.4600 -31.3312
# 3 26.5746 7.6747 32.7605 9.4474 -2.0081 -8.1120
# 4 3.1880 13.0924 9.4474 22.8118 -9.3519 0.4402
# 5 7.5658 -5.4600 -2.0081 -9.3519 20.1986 4.7794
# 6 -16.4442 -31.3312 -8.1120 0.4402 4.7794 28.3510
#
#
#
# Elastic Compliance Matrix: (Units=1/GPa)
#
#
# Indices 1 2 3 4 5 6 
#
# 1 0.012001 -0.000093 -0.008388 -0.001245 -0.007281 0.005705
# 2 -0.000093 0.028756 0.009184 -0.025915 -0.011979 0.036775
# 3 -0.008388 0.009184 0.047648 -0.027119 -0.007052 0.020527
# 4 -0.001245 -0.025915 -0.027119 0.088423 0.042509 -0.045660
# 5 -0.007281 -0.011979 -0.007052 0.042509 0.075765 -0.032912
# 6 0.005705 0.036775 0.020527 -0.045660 -0.032912 0.091352
#
#
# Mechanical properties :
#
#
# Convention : Reuss Voigt Hill
#
# Bulk Modulus (GPa) = 11.13438 37.32157 24.22798
# Shear Modulus (GPa) = 13.42361 26.02790 19.72576
#
# Velocity S-wave (km/s) = 2.57476 3.58526 3.12118
# Velocity P-wave (km/s) = 3.78655 5.96409 4.99542
#
# Compressibility (1/GPa) = 0.08981193
#
# Stress axis : x y z
#
# Youngs Moduli (GPa) = 83.32535 34.77503 20.98711
#
# Poissons Ratio (x) = 0.00322 0.17604
# Poissons Ratio (y) = 0.00772 -0.19274
# Poissons Ratio (z) = 0.69892 -0.31936
#
# Static dielectric constant tensor:
#      x y z
#    x 1.762680 -0.018830 0.012970 
#    y -0.018830 1.812000 -0.021920 
#    z 0.012970 -0.021920 1.786600 
# 
# From -- ./inp_files/472658.got.cif
#   From: 2010.05.17/outbox.cif.g08.bks.cpg/sg2_237_cif.got.tgz:472658.got - 2010.06.03 11:33:40.
