data_PCOD9093081
_publ_section_title
;
Structure prediction by ZEFSAII (Michael W. Deem and Ramdas Pophale) SiO2 
 PCOD9093081
Probable space group: P -1
;
_chemical_formula_sum "Si O2"
_cell_formula_units_Z 12
_cell_length_a 10.192112
_cell_length_b 13.267462
_cell_length_c 4.929175
_cell_angle_alpha 101.686028
_cell_angle_beta 74.299462
_cell_angle_gamma 130.452480
_cell_volume 487.944792
_symmetry_space_group_name_H-M "P -1"
_symmetry_group_IT_number 2
_symmetry_cell_setting 'triclinic'
loop_
_space_group_symop_operation_xyz
x,y,z
-x,-y,-z
loop_
_atom_site_type_symbol
_atom_site_label
_atom_site_fract_x
_atom_site_fract_y
_atom_site_fract_z
Si Si1 0.793036 0.932575 0.593225
Si Si2 0.204156 0.272239 0.256326
Si Si3 0.804899 0.070051 0.175425
Si Si4 0.665530 0.559466 0.249660
Si Si5 0.784315 0.421842 0.811481
Si Si6 0.817591 0.311629 0.246588
O O1 0.717256 0.791443 0.678677
O O2 0.987650 0.837743 0.821326
O O3 0.773270 0.013921 0.863671
O O4 0.000000 0.000000 0.500000
O O5 0.314048 0.358807 0.980242
O O6 0.185191 0.344776 0.555080
O O7 0.274182 0.051827 0.640446
O O8 0.760559 0.169230 0.272412
O O9 0.500000 0.500000 0.500000
O O10 0.674156 0.452540 0.052633
O O11 0.727106 0.352434 0.515335
O O12 0.973811 0.569026 0.755075
O O13 0.796618 0.330054 0.954250
#
# Coordination Sequence:
#
# PCOD9093081 Si02
#       6
#     2   2   2   2   2   2
#     4  10  20  31  52  81 112 142 174 214 279 338
#     4  11  21  36  53  79 114 144 178 229 266 317
#     4  11  19  33  54  84 111 143 170 214 287 336
#     4  12  24  38  56  78 109 153 190 219 261 313
#     4  10  21  34  50  79 108 144 180 216 268 322
#     4  10  20  32  55  78 111 142 168 220 279 328
#
# _framework density 24.592945
#
# number of rings (size 3 to 8) (size 9 to 14) (size 15 to 20)
#    0.000    1.333    1.667    7.500    4.667    0.000 
#    0.000    0.000    0.000    0.000    0.000   23.333 
#    0.000    0.000    0.000    0.000    0.000    0.000 
#
# Total GULP energy -67102.193193 kJ/mol
# GULP energy per Si atom -5591.849433 kJ/mol
# Density = 2.453697 g / cm^3
# Si number density = 24.592945 Si / 1000 Ang^3
#
#
#
# Elastic Constant Matrix: (Units=GPa)
#
#
# Indices 1 2 3 4 5 6 
#
# 1 29.1769 31.1086 13.2547 -11.4956 -2.3057 -23.7380
# 2 31.1086 87.7313 23.4931 -21.0522 -7.5290 -38.7746
# 3 13.2547 23.4931 151.2385 -11.8608 -11.9748 -14.3241
# 4 -11.4956 -21.0522 -11.8608 32.5846 -14.1469 7.5335
# 5 -2.3057 -7.5290 -11.9748 -14.1469 37.3044 -1.7398
# 6 -23.7380 -38.7746 -14.3241 7.5335 -1.7398 40.9265
#
#
#
# Elastic Compliance Matrix: (Units=1/GPa)
#
#
# Indices 1 2 3 4 5 6 
#
# 1 0.081325 -0.004890 0.000293 0.022983 0.014670 0.039032
# 2 -0.004890 0.027193 0.000466 0.016755 0.012647 0.020543
# 3 0.000293 0.000466 0.007441 0.004371 0.004279 0.002593
# 4 0.022983 0.016755 0.004371 0.059205 0.029641 0.021096
# 5 0.014670 0.012647 0.004279 0.029641 0.043738 0.018392
# 6 0.039032 0.020543 0.002593 0.021096 0.018392 0.064343
#
#
# Mechanical properties :
#
#
# Convention : Reuss Voigt Hill
#
# Bulk Modulus (GPa) = 9.28539 44.87327 27.07933
# Shear Modulus (GPa) = 15.27143 35.51579 25.39361
#
# Velocity S-wave (km/s) = 2.49463 3.80431 3.21683
# Velocity P-wave (km/s) = 3.47583 6.13050 4.98319
#
# Compressibility (1/GPa) = 0.10769609
#
# Stress axis : x y z
#
# Youngs Moduli (GPa) = 12.29627 36.77373 134.38541
#
# Poissons Ratio (x) = 0.17984 -0.03937
# Poissons Ratio (y) = 0.06013 -0.06256
# Poissons Ratio (z) = -0.00360 -0.01712
#
# Static dielectric constant tensor:
#      x y z
#    x 2.031290 0.047940 -0.002660 
#    y 0.047940 2.088830 0.025820 
#    z -0.002660 0.025820 1.914430 
# 
# From -- ./inp_files/78723.got.cif
#   From: 2010.05.17/outbox.cif.g08.bks.cpg/sg2_40_cif.got.tgz:78723.got - 2010.06.03 11:33:40.
