data_PCOD9093919
_publ_section_title
;
Structure prediction by ZEFSAII (Michael W. Deem and Ramdas Pophale) SiO2 
 PCOD9093919
Probable space group: P -1
;
_chemical_formula_sum "Si O2"
_cell_formula_units_Z 16
_cell_length_a 13.766053
_cell_length_b 10.213919
_cell_length_c 8.826489
_cell_angle_alpha 42.154603
_cell_angle_beta 89.092116
_cell_angle_gamma 66.113193
_cell_volume 674.877425
_symmetry_space_group_name_H-M "P -1"
_symmetry_group_IT_number 2
_symmetry_cell_setting 'triclinic'
loop_
_space_group_symop_operation_xyz
x,y,z
-x,-y,-z
loop_
_atom_site_type_symbol
_atom_site_label
_atom_site_fract_x
_atom_site_fract_y
_atom_site_fract_z
Si Si1 0.493577 0.678959 0.720491
Si Si2 0.020059 0.244259 0.717530
Si Si3 0.219288 0.499726 0.659890
Si Si4 0.278451 0.042204 0.876877
Si Si5 0.075535 0.169788 0.116134
Si Si6 0.880575 0.459996 0.074227
Si Si7 0.675190 0.801466 0.570184
Si Si8 0.343428 0.718296 0.414292
O O1 0.614170 0.660679 0.703580
O O2 0.442315 0.654697 0.587475
O O3 0.399936 0.955613 0.538230
O O4 0.500000 0.500000 0.000000
O O5 0.157948 0.062530 0.819164
O O6 0.000000 0.500000 0.500000
O O7 0.911484 0.290317 0.582822
O O8 0.014675 0.191708 0.938408
O O9 0.244651 0.251378 0.818294
O O10 0.321403 0.515075 0.575329
O O11 0.210245 0.533675 0.811568
O O12 0.323574 0.103853 0.677007
O O13 0.359037 0.804405 0.178926
O O14 0.075736 0.404147 0.946007
O O15 0.213191 0.941735 0.295005
O O16 0.990893 0.205520 0.225958
O O17 0.806245 0.625601 0.790444
#
# Coordination Sequence:
#
# PCOD9093919 Si02
#       8
#     2   2   2   2   2   2   2   2
#     4  11  25  46  68  92 121 161 214 265 311 368
#     4   9  16  34  54  87 125 166 200 240 301 364
#     4  11  21  35  63  90 131 172 201 254 308 372
#     4  10  22  40  62  92 123 164 210 256 308 375
#     4  10  20  33  61  90 128 164 201 253 301 372
#     4  11  19  36  63  94 124 164 204 250 313 363
#     4  11  24  43  70  91 123 167 207 260 316 368
#     4  11  23  43  62  93 129 165 212 257 312 367
#
# _framework density 23.708006999999998
#
# number of rings (size 3 to 8) (size 9 to 14) (size 15 to 20)
#    0.000    1.500    5.000    2.250    1.750    5.000 
#    0.000    3.750    0.000    0.000    0.000    0.000 
#    0.000    0.000    0.000    0.000    0.000    0.000 
#
# Total GULP energy -89426.589542 kJ/mol
# GULP energy per Si atom -5589.161846 kJ/mol
# Density = 2.365405 g / cm^3
# Si number density = 23.708007 Si / 1000 Ang^3
#
#
#
# Elastic Constant Matrix: (Units=GPa)
#
#
# Indices 1 2 3 4 5 6 
#
# 1 107.4765 16.5854 49.5553 15.3545 -5.9699 12.3447
# 2 16.5854 63.5428 11.8506 5.0796 1.1500 -21.5339
# 3 49.5553 11.8506 122.1455 25.4120 -13.5995 9.2377
# 4 15.3545 5.0796 25.4120 33.8120 -2.9679 -1.9889
# 5 -5.9699 1.1500 -13.5995 -2.9679 41.9783 4.7614
# 6 12.3447 -21.5339 9.2377 -1.9889 4.7614 27.8400
#
#
#
# Elastic Compliance Matrix: (Units=1/GPa)
#
#
# Indices 1 2 3 4 5 6 
#
# 1 0.013484 -0.006179 -0.003205 -0.003216 0.001986 -0.010265
# 2 -0.006179 0.026364 -0.002979 0.002102 -0.005273 0.025173
# 3 -0.003205 -0.002979 0.012165 -0.007269 0.003742 -0.006079
# 4 -0.003216 0.002102 -0.007269 0.036563 -0.001225 0.008285
# 5 0.001986 -0.005273 0.003742 -0.001225 0.026604 -0.010838
# 6 -0.010265 0.025173 -0.006079 0.008285 -0.010838 0.064404
#
#
# Mechanical properties :
#
#
# Convention : Reuss Voigt Hill
#
# Bulk Modulus (GPa) = 36.64750 49.90528 43.27639
# Shear Modulus (GPa) = 23.42954 35.07096 29.25025
#
# Velocity S-wave (km/s) = 3.14706 3.85032 3.51632
# Velocity P-wave (km/s) = 5.35693 6.39236 5.89742
#
# Compressibility (1/GPa) = 0.02728699
#
# Stress axis : x y z
#
# Youngs Moduli (GPa) = 74.16026 37.93064 82.20407
#
# Poissons Ratio (x) = 0.23439 0.26344
# Poissons Ratio (y) = 0.45826 0.24489
# Poissons Ratio (z) = 0.23766 0.11300
#
# Static dielectric constant tensor:
#      x y z
#    x 1.978970 -0.058660 -0.053740 
#    y -0.058660 1.905420 -0.011930 
#    z -0.053740 -0.011930 1.921530 
# 
# From -- ./inp_files/306245.got.cif
#   From: 2010.05.17/outbox.cif.g08.bks.cpg/sg2_154_cif.got.tgz:306245.got - 2010.06.03 11:33:40.
