data_PCOD9093592
_publ_section_title
;
Structure prediction by ZEFSAII (Michael W. Deem and Ramdas Pophale) SiO2 
 PCOD9093592
Probable space group: P -1
;
_chemical_formula_sum "Si O2"
_cell_formula_units_Z 16
_cell_length_a 8.023407
_cell_length_b 13.625251
_cell_length_c 16.328374
_cell_angle_alpha 38.279820
_cell_angle_beta 51.977224
_cell_angle_gamma 79.015169
_cell_volume 696.676961
_symmetry_space_group_name_H-M "P -1"
_symmetry_group_IT_number 2
_symmetry_cell_setting 'triclinic'
loop_
_space_group_symop_operation_xyz
x,y,z
-x,-y,-z
loop_
_atom_site_type_symbol
_atom_site_label
_atom_site_fract_x
_atom_site_fract_y
_atom_site_fract_z
Si Si1 0.542506 0.839455 0.126807
Si Si2 0.388177 0.160513 0.072642
Si Si3 0.560226 0.886595 0.363832
Si Si4 0.210412 0.111776 0.538985
Si Si5 0.809641 0.435075 0.443778
Si Si6 0.860128 0.121779 0.978329
Si Si7 0.907441 0.131351 0.411815
Si Si8 0.720641 0.547582 0.796612
O O1 0.578928 0.762459 0.081194
O O2 0.177678 0.935396 0.877763
O O3 0.788530 0.957220 0.039505
O O4 0.500000 0.000000 0.000000
O O5 0.464417 0.324490 0.010092
O O6 0.593905 0.111855 0.055933
O O7 0.089557 0.970895 0.296537
O O8 0.416138 0.705594 0.462022
O O9 0.350646 0.929584 0.420217
O O10 0.633603 0.839971 0.456903
O O11 0.176197 0.934855 0.613050
O O12 0.335266 0.305657 0.319698
O O13 0.699783 0.334219 0.631623
O O14 0.900395 0.658040 0.264116
O O15 0.062611 0.445653 0.330818
O O16 0.134214 0.357637 0.222839
O O17 0.000000 0.000000 0.500000
#
# Coordination Sequence:
#
# PCOD9093592 Si02
#       8
#     2   2   2   2   2   2   2   2
#     4   9  17  30  53  84 108 132 177 224 264 304
#     4  10  20  33  54  80 105 138 177 218 262 310
#     4  10  20  35  54  79 108 139 174 213 263 318
#     4  11  21  34  53  77 110 141 172 217 265 317
#     4   9  18  34  55  78 106 142 178 219 262 306
#     4   9  18  34  56  78 106 140 178 220 262 309
#     4   9  18  36  59  78 102 136 175 220 266 310
#     4   9  19  34  54  78 104 137 178 219 262 311
#
# _framework density 22.966166999999999
#
# number of rings (size 3 to 8) (size 9 to 14) (size 15 to 20)
#    0.000    2.500    0.000    4.125    0.000    7.000 
#    0.000    6.250    0.000   15.750    0.000    0.000 
#    0.000    0.000    0.000    0.000    0.000    0.000 
#
# Total GULP energy -89329.775183 kJ/mol
# GULP energy per Si atom -5583.110949 kJ/mol
# Density = 2.291390 g / cm^3
# Si number density = 22.966167 Si / 1000 Ang^3
#
#
#
# Elastic Constant Matrix: (Units=GPa)
#
#
# Indices 1 2 3 4 5 6 
#
# 1 56.0612 3.2559 1.6484 2.8897 2.2508 19.1657
# 2 3.2559 78.6079 11.0746 3.7328 -2.0465 9.2831
# 3 1.6484 11.0746 62.1006 -2.6418 4.1091 -4.5966
# 4 2.8897 3.7328 -2.6418 33.6337 1.6866 -0.5561
# 5 2.2508 -2.0465 4.1091 1.6866 25.3551 4.7430
# 6 19.1657 9.2831 -4.5966 -0.5561 4.7430 29.9353
#
#
#
# Elastic Compliance Matrix: (Units=1/GPa)
#
#
# Indices 1 2 3 4 5 6 
#
# 1 0.023391 0.001420 -0.002283 -0.002692 0.001593 -0.016069
# 2 0.001420 0.014043 -0.003288 -0.002186 0.002857 -0.006262
# 3 -0.002283 -0.003288 0.017555 0.002246 -0.004157 0.005877
# 4 -0.002692 -0.002186 0.002246 0.030598 -0.003047 0.003797
# 5 0.001593 0.002857 -0.004157 -0.003047 0.042141 -0.009278
# 6 -0.016069 -0.006262 0.005877 0.003797 -0.009278 0.048078
#
#
# Mechanical properties :
#
#
# Convention : Reuss Voigt Hill
#
# Bulk Modulus (GPa) = 21.41924 25.41417 23.41670
# Shear Modulus (GPa) = 25.04117 29.83754 27.43936
#
# Velocity S-wave (km/s) = 3.30563 3.60835 3.46030
# Velocity P-wave (km/s) = 4.89042 5.33387 5.11695
#
# Compressibility (1/GPa) = 0.04668700
#
# Stress axis : x y z
#
# Youngs Moduli (GPa) = 42.75218 71.20769 56.96249
#
# Poissons Ratio (x) = -0.10110 0.13007
# Poissons Ratio (y) = -0.06070 0.18727
# Poissons Ratio (z) = 0.09762 0.23411
#
# Static dielectric constant tensor:
#      x y z
#    x 1.901560 -0.014620 -0.006390 
#    y -0.014620 1.962960 -0.003280 
#    z -0.006390 -0.003280 1.870940 
# 
# From -- ./inp_files/192362.got.cif
#   From: 2010.05.17/outbox.cif.g08.bks.cpg/sg2_97_cif.got.tgz:192362.got - 2010.06.03 11:33:40.
