data_PCOD9093978
_publ_section_title
;
Structure prediction by ZEFSAII (Michael W. Deem and Ramdas Pophale) SiO2 
 PCOD9093978
Probable space group: P -1
;
_chemical_formula_sum "Si O2"
_cell_formula_units_Z 16
_cell_length_a 14.947900
_cell_length_b 23.345603
_cell_length_c 23.715045
_cell_angle_alpha 12.251550
_cell_angle_beta 28.068990
_cell_angle_gamma 27.728153
_cell_volume 804.346034
_symmetry_space_group_name_H-M "P -1"
_symmetry_group_IT_number 2
_symmetry_cell_setting 'triclinic'
loop_
_space_group_symop_operation_xyz
x,y,z
-x,-y,-z
loop_
_atom_site_type_symbol
_atom_site_label
_atom_site_fract_x
_atom_site_fract_y
_atom_site_fract_z
Si Si1 0.395617 0.504611 0.707743
Si Si2 0.494435 0.039387 0.354933
Si Si3 0.174231 0.058979 0.124514
Si Si4 0.490409 0.078233 0.836272
Si Si5 0.045740 0.414670 0.121858
Si Si6 0.916045 0.615951 0.698605
Si Si7 0.691525 0.189727 0.420358
Si Si8 0.350850 0.484085 0.149272
O O1 0.478987 0.177049 0.978528
O O2 0.391545 0.649258 0.631517
O O3 0.170649 0.557314 0.760792
O O4 0.511024 0.642740 0.464941
O O5 0.276958 0.205187 0.335229
O O6 0.467566 0.892376 0.452747
O O7 0.576408 0.802649 0.582716
O O8 0.630668 0.259672 0.068073
O O9 0.305774 0.085549 0.971379
O O10 0.063007 0.813448 0.417935
O O11 0.321901 0.992190 0.159027
O O12 0.016297 0.349009 0.935784
O O13 0.161754 0.098729 0.366780
O O14 0.184717 0.618639 0.865439
O O15 0.000000 0.500000 0.000000
O O16 0.848513 0.512200 0.776202
O O17 0.500000 0.500000 0.000000
#
# Coordination Sequence:
#
# PCOD9093978 Si02
#       8
#     2   2   2   2   2   2   2   2
#     4  11  21  37  56  76 111 157 182 230 280 316
#     4  11  22  35  57  87 121 142 179 229 275 344
#     4  11  24  39  55  85 107 147 198 237 269 332
#     4  11  24  39  56  78 116 146 194 242 274 301
#     4  10  20  34  49  76 114 147 190 224 253 326
#     4  11  21  37  61  80 112 148 185 222 291 337
#     4  11  22  35  53  86 112 149 191 216 272 349
#     4  10  20  38  55  84 115 147 177 228 284 343
#
# _framework density 19.891936999999999
#
# number of rings (size 3 to 8) (size 9 to 14) (size 15 to 20)
#    0.000    1.250    0.000    9.750    5.250    2.000 
#    0.000    0.000    0.000    0.000    0.000   17.500 
#    0.000    0.000    0.000    0.000    0.000    0.000 
#
# Total GULP energy -89464.672079 kJ/mol
# GULP energy per Si atom -5591.542005 kJ/mol
# Density = 1.984666 g / cm^3
# Si number density = 19.891937 Si / 1000 Ang^3
#
#
#
# Elastic Constant Matrix: (Units=GPa)
#
#
# Indices 1 2 3 4 5 6 
#
# 1 95.7300 24.3800 17.7777 1.1827 -28.8349 1.5021
# 2 24.3800 30.0539 20.4494 5.3459 -4.3031 2.8616
# 3 17.7777 20.4494 109.2288 3.7556 -23.9599 -5.1059
# 4 1.1827 5.3459 3.7556 23.5257 -4.6106 4.6436
# 5 -28.8349 -4.3031 -23.9599 -4.6106 36.9804 -4.3629
# 6 1.5021 2.8616 -5.1059 4.6436 -4.3629 19.2206
#
#
#
# Elastic Compliance Matrix: (Units=1/GPa)
#
#
# Indices 1 2 3 4 5 6 
#
# 1 0.018733 -0.016612 0.003661 0.004514 0.016146 0.004556
# 2 -0.016612 0.055128 -0.011397 -0.010941 -0.016592 -0.011060
# 3 0.003661 -0.011397 0.013464 0.001020 0.011239 0.007292
# 4 0.004514 -0.010941 0.001020 0.047769 0.007895 -0.008202
# 5 0.016146 -0.016592 0.011239 0.007895 0.047508 0.013071
# 6 0.004556 -0.011060 0.007292 -0.008202 0.013071 0.060204
#
#
# Mechanical properties :
#
#
# Convention : Reuss Voigt Hill
#
# Bulk Modulus (GPa) = 25.88824 40.02520 32.95672
# Shear Modulus (GPa) = 16.42683 27.43905 21.93294
#
# Velocity S-wave (km/s) = 2.87680 3.71806 3.32415
# Velocity P-wave (km/s) = 4.90686 6.21265 5.59796
#
# Compressibility (1/GPa) = 0.03862757
#
# Stress axis : x y z
#
# Youngs Moduli (GPa) = 53.38198 18.13958 74.27068
#
# Poissons Ratio (x) = 0.30133 -0.27187
# Poissons Ratio (y) = 0.88678 0.84649
# Poissons Ratio (z) = -0.19541 0.20674
#
# Static dielectric constant tensor:
#      x y z
#    x 1.751180 0.024690 -0.035130 
#    y 0.024690 1.711660 -0.001600 
#    z -0.035130 -0.001600 1.700050 
# 
# From -- ./inp_files/522717.got.cif
#   From: 2010.05.17/outbox.cif.g08.bks.cpg/sg2_262_cif.got.tgz:522717.got - 2010.06.03 11:33:40.
