data_PCOD9093033
_publ_section_title
;
Structure prediction by ZEFSAII (Michael W. Deem and Ramdas Pophale) SiO2 
 PCOD9093033
Probable space group: P -1
;
_chemical_formula_sum "Si O2"
_cell_formula_units_Z 16
_cell_length_a 8.821698
_cell_length_b 16.307319
_cell_length_c 11.184275
_cell_angle_alpha 146.148393
_cell_angle_beta 131.921786
_cell_angle_gamma 66.807794
_cell_volume 614.469780
_symmetry_space_group_name_H-M "P -1"
_symmetry_group_IT_number 2
_symmetry_cell_setting 'triclinic'
loop_
_space_group_symop_operation_xyz
x,y,z
-x,-y,-z
loop_
_atom_site_type_symbol
_atom_site_label
_atom_site_fract_x
_atom_site_fract_y
_atom_site_fract_z
Si Si1 0.561221 0.679731 0.790208
Si Si2 0.623983 0.426521 0.179124
Si Si3 0.774571 0.520997 0.004558
Si Si4 0.053884 0.725657 0.827234
Si Si5 0.005857 0.693709 0.096305
Si Si6 0.762049 0.164117 0.207700
Si Si7 0.877658 0.935524 0.728879
Si Si8 0.527836 0.167604 0.450875
O O1 0.500000 0.500000 0.500000
O O2 0.501303 0.671540 0.889218
O O3 0.404008 0.756593 0.739742
O O4 0.825092 0.742249 0.994678
O O5 0.422584 0.428657 0.995197
O O6 0.783608 0.346311 0.114126
O O7 0.803296 0.598098 0.528475
O O8 0.616081 0.344133 0.655699
O O9 0.936371 0.462856 0.099832
O O10 0.910921 0.632566 0.104748
O O11 0.142796 0.756627 0.774689
O O12 0.092089 0.896560 0.109376
O O13 0.240476 0.840034 0.399854
O O14 0.987320 0.159019 0.376602
O O15 0.605753 0.978698 0.880882
O O16 0.628675 0.843547 0.531390
O O17 0.000000 0.000000 0.000000
#
# Coordination Sequence:
#
# PCOD9093033 Si02
#       8
#     2   2   2   2   2   2   2   2
#     4  10  20  31  40  57  89 123 151 166 191 256
#     4   9  14  24  43  63  88 107 135 178 215 249
#     4   8  13  24  40  65  85 108 135 172 219 252
#     4   8  14  22  39  70  85 101 131 175 231 250
#     4   8  16  26  42  62  83 117 139 175 214 243
#     4   9  16  25  42  65  89 111 136 173 220 254
#     4   8  13  22  38  64  89 104 123 168 231 261
#     4   8  13  24  43  66  90 102 126 184 225 258
#
# _framework density 26.038709999999998
#
# number of rings (size 3 to 8) (size 9 to 14) (size 15 to 20)
#    0.750    3.000    0.000    2.250    0.000    0.500 
#    0.000    0.000    0.000    7.500    0.000    3.500 
#    0.000    0.000    0.000    0.000    0.000    0.000 
#
# Total GULP energy -89111.299034 kJ/mol
# GULP energy per Si atom -5569.456190 kJ/mol
# Density = 2.597945 g / cm^3
# Si number density = 26.038710 Si / 1000 Ang^3
#
#
#
# Elastic Constant Matrix: (Units=GPa)
#
#
# Indices 1 2 3 4 5 6 
#
# 1 89.8846 85.9492 48.9496 -4.2477 20.0785 -5.3089
# 2 85.9492 144.6472 37.7172 -16.0424 12.6195 -78.8782
# 3 48.9496 37.7172 88.0026 -27.4889 37.3886 -11.9127
# 4 -4.2477 -16.0424 -27.4889 39.0805 -18.7330 18.6588
# 5 20.0785 12.6195 37.3886 -18.7330 39.7446 -5.4515
# 6 -5.3089 -78.8782 -11.9127 18.6588 -5.4515 46.5167
#
#
#
# Elastic Compliance Matrix: (Units=1/GPa)
#
#
# Indices 1 2 3 4 5 6 
#
# 1 0.002262 0.014835 -0.007305 -0.013054 -0.001206 0.028638
# 2 0.014835 -0.014692 -0.003636 0.005376 -0.000492 -0.026365
# 3 -0.007305 -0.003636 0.026270 0.012323 -0.015016 -0.006974
# 4 -0.013054 0.005376 0.012323 0.043930 0.013276 -0.005283
# 5 -0.001206 -0.000492 -0.015016 0.013276 0.045652 -0.004792
# 6 0.028638 -0.026365 -0.006974 -0.005283 -0.004792 -0.020170
#
#
# Mechanical properties :
#
#
# Convention : Reuss Voigt Hill
#
# Bulk Modulus (GPa) = 46.23413 74.19626 60.21519
# Shear Modulus (GPa) = 60.48074 35.06289 47.77182
#
# Velocity S-wave (km/s) = 4.82469 3.67354 4.28792
# Velocity P-wave (km/s) = 6.98794 6.82273 6.90583
#
# Compressibility (1/GPa) = 0.02162905
#
# Stress axis : x y z
#
# Youngs Moduli (GPa) = 442.17707 -68.06421 38.06679
#
# Poissons Ratio (x) = 1.00976 0.27807
# Poissons Ratio (y) = -6.55986 0.13840
# Poissons Ratio (z) = 3.23001 -0.24746
#
# Static dielectric constant tensor:
#      x y z
#    x 2.056820 -0.032830 -0.088130 
#    y -0.032830 2.245180 -0.022350 
#    z -0.088130 -0.022350 2.217000 
# 
# From -- ./inp_files/596432.got.cif
#   From: 2010.05.17/outbox.cif.g08.bks.cpg/sg2_299_cif.got.tgz:596432.got - 2010.06.03 11:33:40.
