data_PCOD9093183
_publ_section_title
;
Structure prediction by ZEFSAII (Michael W. Deem and Ramdas Pophale) SiO2 
 PCOD9093183
Probable space group: P -1
;
_chemical_formula_sum "Si O2"
_cell_formula_units_Z 16
_cell_length_a 14.215275
_cell_length_b 16.689749
_cell_length_c 14.042632
_cell_angle_alpha 52.774427
_cell_angle_beta 68.317680
_cell_angle_gamma 23.968778
_cell_volume 887.889860
_symmetry_space_group_name_H-M "P -1"
_symmetry_group_IT_number 2
_symmetry_cell_setting 'triclinic'
loop_
_space_group_symop_operation_xyz
x,y,z
-x,-y,-z
loop_
_atom_site_type_symbol
_atom_site_label
_atom_site_fract_x
_atom_site_fract_y
_atom_site_fract_z
Si Si1 0.751740 0.808501 0.679434
Si Si2 0.331964 0.707347 0.063598
Si Si3 0.703026 0.694153 0.376180
Si Si4 0.026786 0.337239 0.686522
Si Si5 0.389998 0.214808 0.871788
Si Si6 0.221595 0.997101 0.001522
Si Si7 0.436471 0.420848 0.130083
Si Si8 0.484140 0.873537 0.636930
O O1 0.594054 0.847385 0.696324
O O2 0.066209 0.510346 0.812456
O O3 0.577831 0.040897 0.646491
O O4 0.738873 0.865490 0.536035
O O5 0.419894 0.670365 0.954014
O O6 0.390392 0.738699 0.097916
O O7 0.467435 0.470564 0.171474
O O8 0.000000 0.000000 0.000000
O O9 0.928468 0.425129 0.550379
O O10 0.628319 0.735779 0.267321
O O11 0.804940 0.715934 0.320999
O O12 0.750676 0.611580 0.655863
O O13 0.167242 0.108716 0.842916
O O14 0.500000 0.000000 0.000000
O O15 0.590277 0.104936 0.931418
O O16 0.908312 0.270328 0.968025
O O17 0.571598 0.187014 0.265310
#
# Coordination Sequence:
#
# PCOD9093183 Si02
#       8
#     2   2   2   2   2   2   2   2
#     4  10  21  32  50  79 109 143 183 209 254 321
#     4   9  19  34  53  82 103 130 177 227 269 318
#     4  10  20  32  50  70 107 145 181 217 248 301
#     4   9  17  34  50  73 101 142 182 220 251 297
#     4  12  22  35  46  75 117 146 175 216 262 319
#     4  10  20  33  53  76 108 142 173 215 269 319
#     4   9  18  34  56  79 105 132 175 228 273 304
#     4   9  17  33  54  78 106 139 179 225 258 305
#
# _framework density 18.020254000000001
#
# number of rings (size 3 to 8) (size 9 to 14) (size 15 to 20)
#    0.000    2.250    2.500    0.750    3.500    1.500 
#    0.000    0.000    0.000    0.750    0.000   43.750 
#    0.000    0.000    0.000    0.000    0.000    0.000 
#
# Total GULP energy -89076.705880 kJ/mol
# GULP energy per Si atom -5567.294117 kJ/mol
# Density = 1.797924 g / cm^3
# Si number density = 18.020254 Si / 1000 Ang^3
#
#
#
# Elastic Constant Matrix: (Units=GPa)
#
#
# Indices 1 2 3 4 5 6 
#
# 1 112.7281 24.3452 38.0340 -1.4670 3.0788 11.1045
# 2 24.3452 68.7463 24.3796 8.2331 3.5354 -2.1972
# 3 38.0340 24.3796 64.9006 -3.1214 7.5775 -0.4057
# 4 -1.4670 8.2331 -3.1214 26.1827 0.9785 0.6918
# 5 3.0788 3.5354 7.5775 0.9785 25.7488 3.6363
# 6 11.1045 -2.1972 -0.4057 0.6918 3.6363 25.6022
#
#
#
# Elastic Compliance Matrix: (Units=1/GPa)
#
#
# Indices 1 2 3 4 5 6 
#
# 1 0.012066 -0.002372 -0.006359 0.000759 0.001542 -0.005777
# 2 -0.002372 0.018332 -0.005716 -0.006627 -0.000693 0.002789
# 3 -0.006359 -0.005716 0.022159 0.004205 -0.005602 0.003301
# 4 0.000759 -0.006627 0.004205 0.040930 -0.001735 -0.001691
# 5 0.001542 -0.000693 -0.005602 -0.001735 0.041401 -0.006650
# 6 -0.005777 0.002789 0.003301 -0.001691 -0.006650 0.042847
#
#
# Mechanical properties :
#
#
# Convention : Reuss Voigt Hill
#
# Bulk Modulus (GPa) = 42.26413 46.65473 44.45943
# Shear Modulus (GPa) = 23.30803 26.14782 24.72792
#
# Velocity S-wave (km/s) = 3.60034 3.81336 3.70838
# Velocity P-wave (km/s) = 6.38654 6.73315 6.56213
#
# Compressibility (1/GPa) = 0.02366073
#
# Stress axis : x y z
#
# Youngs Moduli (GPa) = 82.87929 54.54950 45.12800
#
# Poissons Ratio (x) = 0.12942 0.28698
# Poissons Ratio (y) = 0.19663 0.25797
# Poissons Ratio (z) = 0.52706 0.31182
#
# Static dielectric constant tensor:
#      x y z
#    x 1.640820 0.004650 -0.026110 
#    y 0.004650 1.682850 0.008700 
#    z -0.026110 0.008700 1.619250 
# 
# From -- ./inp_files/520809.got.cif
#   From: 2010.05.17/outbox.cif.g08.bks.cpg/sg2_261_cif.got.tgz:520809.got - 2010.06.03 11:33:40.
