data_PCOD9093529
_publ_section_title
;
Structure prediction by ZEFSAII (Michael W. Deem and Ramdas Pophale) SiO2 
 PCOD9093529
Probable space group: P -1
;
_chemical_formula_sum "Si O2"
_cell_formula_units_Z 16
_cell_length_a 4.993263
_cell_length_b 5.244769
_cell_length_c 20.611839
_cell_angle_alpha 91.563291
_cell_angle_beta 88.918599
_cell_angle_gamma 96.763373
_cell_volume 535.770754
_symmetry_space_group_name_H-M "P -1"
_symmetry_group_IT_number 2
_symmetry_cell_setting 'triclinic'
loop_
_space_group_symop_operation_xyz
x,y,z
-x,-y,-z
loop_
_atom_site_type_symbol
_atom_site_label
_atom_site_fract_x
_atom_site_fract_y
_atom_site_fract_z
Si Si1 0.367287 0.241699 0.583707
Si Si2 0.254697 0.456332 0.708478
Si Si3 0.825791 0.682708 0.541838
Si Si4 0.277924 0.102421 0.335362
Si Si5 0.394742 0.878979 0.212121
Si Si6 0.204981 0.086366 0.056762
Si Si7 0.474816 0.615567 0.089158
Si Si8 0.156469 0.694101 0.836404
O O1 0.160644 0.333419 0.638937
O O2 0.561416 0.498043 0.564665
O O3 0.252214 0.133752 0.514985
O O4 0.550321 0.062591 0.619644
O O5 0.509685 0.665958 0.690922
O O6 0.383100 0.241634 0.747059
O O7 0.081947 0.590792 0.763318
O O8 0.931188 0.804286 0.610919
O O9 0.000000 0.500000 0.500000
O O10 0.190398 0.951403 0.268606
O O11 0.313177 0.662397 0.157344
O O12 0.561415 0.122094 0.177500
O O13 0.033199 0.125358 0.124123
O O14 0.334837 0.377358 0.048128
O O15 0.422203 0.882876 0.058914
O O16 0.000000 0.000000 0.000000
O O17 0.750992 0.522487 0.115291
#
# Coordination Sequence:
#
# PCOD9093529 Si02
#       8
#     2   2   2   2   2   2   2   2
#     4   9  18  35  54  76 117 158 203 259 324 377
#     4   8  17  34  62  86 117 163 213 262 331 381
#     4  10  20  33  52  82 115 157 208 258 317 386
#     4   9  17  34  60  82 117 164 202 270 323 385
#     4   9  18  40  68  92 123 172 218 271 334 388
#     4  12  28  45  69 105 140 178 227 270 330 409
#     4  11  24  46  68 100 135 180 221 276 336 391
#     4  10  22  43  71  95 138 174 225 278 334 395
#
# _framework density 29.863519
#
# number of rings (size 3 to 8) (size 9 to 14) (size 15 to 20)
#    0.000    2.250    1.250    0.750    3.500    1.500 
#    2.250    0.000    0.000    0.000    0.000    0.000 
#    0.000    0.000    0.000    0.000    0.000    0.000 
#
# Total GULP energy -89632.024292 kJ/mol
# GULP energy per Si atom -5602.001518 kJ/mol
# Density = 2.979555 g / cm^3
# Si number density = 29.863519 Si / 1000 Ang^3
#
#
#
# Elastic Constant Matrix: (Units=GPa)
#
#
# Indices 1 2 3 4 5 6 
#
# 1 100.7319 46.7498 53.4060 2.5603 -7.7557 -11.0214
# 2 46.7498 180.5160 74.9636 6.0878 8.9717 -27.9522
# 3 53.4060 74.9636 194.8693 44.5998 -23.7572 1.6530
# 4 2.5603 6.0878 44.5998 84.3115 -0.9464 4.5853
# 5 -7.7557 8.9717 -23.7572 -0.9464 57.4202 5.0785
# 6 -11.0214 -27.9522 1.6530 4.5853 5.0785 58.0889
#
#
#
# Elastic Compliance Matrix: (Units=1/GPa)
#
#
# Indices 1 2 3 4 5 6 
#
# 1 0.012525 -0.001893 -0.002915 0.001230 0.000678 0.001392
# 2 -0.001893 0.008089 -0.003228 0.000937 -0.003178 0.003829
# 3 -0.002915 -0.003228 0.008582 -0.004047 0.003804 -0.002363
# 4 0.001230 0.000937 -0.004047 0.013890 -0.001410 -0.000174
# 5 0.000678 -0.003178 0.003804 -0.001410 0.019831 -0.003131
# 6 0.001392 0.003829 -0.002363 -0.000174 -0.003131 0.019676
#
#
# Mechanical properties :
#
#
# Convention : Reuss Voigt Hill
#
# Bulk Modulus (GPa) = 76.18709 91.81733 84.00221
# Shear Modulus (GPa) = 48.52491 60.03062 54.27777
#
# Velocity S-wave (km/s) = 4.03536 4.48835 4.26787
# Velocity P-wave (km/s) = 6.87600 7.59426 7.24404
#
# Compressibility (1/GPa) = 0.01312558
#
# Stress axis : x y z
#
# Youngs Moduli (GPa) = 79.84333 123.61746 116.52066
#
# Poissons Ratio (x) = 0.23397 0.33966
# Poissons Ratio (y) = 0.15112 0.37608
# Poissons Ratio (z) = 0.23275 0.39898
#
# Static dielectric constant tensor:
#      x y z
#    x 2.285530 0.042310 -0.024460 
#    y 0.042310 2.399280 0.061660 
#    z -0.024460 0.061660 2.401340 
# 
# From -- ./inp_files/127852.got.cif
#   From: 2010.05.17/outbox.cif.g08.bks.cpg/sg2_64_cif.got.tgz:127852.got - 2010.06.03 11:33:40.
