data_PCOD9093118
_publ_section_title
;
Structure prediction by ZEFSAII (Michael W. Deem and Ramdas Pophale) SiO2 
 PCOD9093118
Probable space group: P -1
;
_chemical_formula_sum "Si O2"
_cell_formula_units_Z 14
_cell_length_a 19.379659
_cell_length_b 8.053773
_cell_length_c 4.949877
_cell_angle_alpha 88.957144
_cell_angle_beta 110.948516
_cell_angle_gamma 129.537002
_cell_volume 532.401868
_symmetry_space_group_name_H-M "P -1"
_symmetry_group_IT_number 2
_symmetry_cell_setting 'triclinic'
loop_
_space_group_symop_operation_xyz
x,y,z
-x,-y,-z
loop_
_atom_site_type_symbol
_atom_site_label
_atom_site_fract_x
_atom_site_fract_y
_atom_site_fract_z
Si Si1 0.246779 0.641028 0.381707
Si Si2 0.531398 0.737710 0.453792
Si Si3 0.917202 0.809038 0.090121
Si Si4 0.711353 0.816341 0.596612
Si Si5 0.844647 0.008309 0.281537
Si Si6 0.137897 0.604159 0.754540
Si Si7 0.575782 0.305981 0.219646
O O1 0.185024 0.380072 0.215006
O O2 0.232626 0.721890 0.084427
O O3 0.355024 0.749226 0.632961
O O4 0.179071 0.622226 0.517584
O O5 0.500000 0.500000 0.500000
O O6 0.639560 0.867871 0.471868
O O7 0.517612 0.824638 0.701541
O O8 0.459584 0.709467 0.130493
O O9 0.935472 0.653311 0.240764
O O10 0.897529 0.916511 0.286692
O O11 0.000000 0.000000 0.000000
O O12 0.808005 0.972190 0.536518
O O13 0.645940 0.565208 0.401612
O O14 0.746375 0.853239 0.953323
O O15 0.897239 0.261224 0.267865
#
# Coordination Sequence:
#
# PCOD9093118 Si02
#       7
#     2   2   2   2   2   2   2
#     4  10  21  42  63  92 130 170 211 260 321 381
#     4  10  20  31  55  96 133 163 217 278 302 372
#     4  10  25  45  69  99 127 163 216 265 321 390
#     4  11  20  36  58  94 129 165 221 255 319 376
#     4  12  23  40  68  92 129 175 207 264 319 384
#     4  10  23  42  63  96 128 171 211 261 320 382
#     4  11  18  34  61  90 129 174 214 261 327 364
#
# _framework density 26.295929000000001
#
# number of rings (size 3 to 8) (size 9 to 14) (size 15 to 20)
#    0.857    0.571    1.429    6.857    0.000    1.143 
#    0.000    0.714    0.000   17.143    0.000    0.000 
#    0.000    0.000    0.000    0.000    0.000    0.000 
#
# Total GULP energy -78389.473709 kJ/mol
# GULP energy per Si atom -5599.248122 kJ/mol
# Density = 2.623608 g / cm^3
# Si number density = 26.295929 Si / 1000 Ang^3
#
#
#
# Elastic Constant Matrix: (Units=GPa)
#
#
# Indices 1 2 3 4 5 6 
#
# 1 132.1923 45.9737 31.0292 -19.6281 7.9593 -19.3396
# 2 45.9737 114.4457 4.0466 10.7584 -10.3840 -24.7412
# 3 31.0292 4.0466 125.6908 -7.1925 1.2331 -10.4004
# 4 -19.6281 10.7584 -7.1925 35.4042 2.4857 -5.0464
# 5 7.9593 -10.3840 1.2331 2.4857 51.9264 -8.2827
# 6 -19.3396 -24.7412 -10.4004 -5.0464 -8.2827 41.0306
#
#
#
# Elastic Compliance Matrix: (Units=1/GPa)
#
#
# Indices 1 2 3 4 5 6 
#
# 1 0.011478 -0.005046 -0.001996 0.008010 -0.002739 0.002294
# 2 -0.005046 0.012982 0.000922 -0.006040 0.004572 0.005864
# 3 -0.001996 0.000922 0.008613 0.000606 0.000574 0.001989
# 4 0.008010 -0.006040 0.000606 0.035453 -0.003519 0.003937
# 5 -0.002739 0.004572 0.000574 -0.003519 0.021632 0.005546
# 6 0.002294 0.005864 0.001989 0.003937 0.005546 0.031097
#
#
# Mechanical properties :
#
#
# Convention : Reuss Voigt Hill
#
# Bulk Modulus (GPa) = 47.99791 59.38085 53.68938
# Shear Modulus (GPa) = 35.60284 45.09086 40.34685
#
# Velocity S-wave (km/s) = 3.68357 4.14544 3.92131
# Velocity P-wave (km/s) = 6.03193 6.74861 6.40031
#
# Compressibility (1/GPa) = 0.02083424
#
# Stress axis : x y z
#
# Youngs Moduli (GPa) = 87.12357 77.02736 116.10738
#
# Poissons Ratio (x) = 0.38866 0.23175
# Poissons Ratio (y) = 0.43961 -0.10710
# Poissons Ratio (z) = 0.17390 -0.07105
#
# Static dielectric constant tensor:
#      x y z
#    x 2.062590 0.014300 0.065860 
#    y 0.014300 2.227260 0.053390 
#    z 0.065860 0.053390 2.007910 
# 
# From -- ./inp_files/115570.got.cif
#   From: 2010.05.17/outbox.cif.g08.bks.cpg/sg2_58_cif.got.tgz:115570.got - 2010.06.03 11:33:40.
