data_PCOD9093003
_publ_section_title
;
Structure prediction by ZEFSAII (Michael W. Deem and Ramdas Pophale) SiO2 
 PCOD9093003
Probable space group: P -1
;
_chemical_formula_sum "Si O2"
_cell_formula_units_Z 16
_cell_length_a 14.164015
_cell_length_b 12.525756
_cell_length_c 5.492494
_cell_angle_alpha 114.528578
_cell_angle_beta 117.130353
_cell_angle_gamma 58.091730
_cell_volume 716.372564
_symmetry_space_group_name_H-M "P -1"
_symmetry_group_IT_number 2
_symmetry_cell_setting 'triclinic'
loop_
_space_group_symop_operation_xyz
x,y,z
-x,-y,-z
loop_
_atom_site_type_symbol
_atom_site_label
_atom_site_fract_x
_atom_site_fract_y
_atom_site_fract_z
Si Si1 0.647488 0.988600 0.387562
Si Si2 0.493875 0.342113 0.107283
Si Si3 0.638332 0.383546 0.943666
Si Si4 0.976515 0.581725 0.302757
Si Si5 0.374879 0.141517 0.273495
Si Si6 0.264565 0.368714 0.061505
Si Si7 0.263935 0.816367 0.483735
Si Si8 0.187646 0.635147 0.477161
O O1 0.669644 0.905719 0.583801
O O2 0.514945 0.094665 0.394451
O O3 0.738455 0.051027 0.491550
O O4 0.642581 0.922471 0.061161
O O5 0.435934 0.498035 0.203792
O O6 0.383498 0.312057 0.992531
O O7 0.603495 0.259001 0.324325
O O8 0.550911 0.327526 0.896493
O O9 0.740888 0.265693 0.830221
O O10 0.700788 0.427035 0.271057
O O11 0.000000 0.500000 0.500000
O O12 0.066121 0.648210 0.459716
O O13 0.837652 0.661702 0.202044
O O14 0.000000 0.500000 0.000000
O O15 0.302529 0.294056 0.291069
O O16 0.217980 0.523303 0.197864
O O17 0.186271 0.774027 0.535466
#
# Coordination Sequence:
#
# PCOD9093003 Si02
#       8
#     2   2   2   2   2   2   2   2
#     4  10  23  39  58  85 121 160 207 243 290 356
#     4  10  20  30  49  89 115 151 192 230 310 363
#     4  10  21  30  54  83 127 152 189 238 303 381
#     4  10  23  41  61  89 123 159 202 248 301 362
#     4  10  23  40  59  84 119 164 203 245 291 354
#     4  11  21  40  62  85 126 155 202 253 303 362
#     4  11  21  36  56  85 124 158 191 250 302 367
#     4  10  23  37  58  92 116 157 197 247 310 361
#
# _framework density 22.334744000000001
#
# number of rings (size 3 to 8) (size 9 to 14) (size 15 to 20)
#    0.000    1.750    2.500    1.125    8.750    4.000 
#    0.000    0.000    0.000    1.500    0.000    0.000 
#    0.000    0.000    0.000    0.000    0.000    0.000 
#
# Total GULP energy -89120.849023 kJ/mol
# GULP energy per Si atom -5570.053064 kJ/mol
# Density = 2.228391 g / cm^3
# Si number density = 22.334744 Si / 1000 Ang^3
#
#
#
# Elastic Constant Matrix: (Units=GPa)
#
#
# Indices 1 2 3 4 5 6 
#
# 1 154.4507 36.6503 48.3453 -16.8439 22.9840 47.9585
# 2 36.6503 79.2917 24.7827 -9.3933 1.1376 45.3134
# 3 48.3453 24.7827 66.0642 -7.0619 3.8145 18.9447
# 4 -16.8439 -9.3933 -7.0619 32.7438 0.6453 -2.9243
# 5 22.9840 1.1376 3.8145 0.6453 28.3362 -1.6520
# 6 47.9585 45.3134 18.9447 -2.9243 -1.6520 46.1333
#
#
#
# Elastic Compliance Matrix: (Units=1/GPa)
#
#
# Indices 1 2 3 4 5 6 
#
# 1 0.017025 0.009091 -0.007397 0.007952 -0.014737 -0.023615
# 2 0.009091 0.035321 -0.006396 0.009953 -0.010563 -0.041265
# 3 -0.007397 -0.006396 0.021114 -0.000678 0.003744 0.005392
# 4 0.007952 0.009953 -0.000678 0.036098 -0.008501 -0.015781
# 5 -0.014737 -0.010563 0.003744 -0.008501 0.048837 0.025368
# 6 -0.023615 -0.041265 0.005392 -0.015781 0.025368 0.084451
#
#
# Mechanical properties :
#
#
# Convention : Reuss Voigt Hill
#
# Bulk Modulus (GPa) = 15.61083 57.70700 36.65892
# Shear Modulus (GPa) = 18.27472 34.11120 26.19296
#
# Velocity S-wave (km/s) = 2.86356 3.91227 3.42825
# Velocity P-wave (km/s) = 4.23532 6.80450 5.66741
#
# Compressibility (1/GPa) = 0.06405808
#
# Stress axis : x y z
#
# Youngs Moduli (GPa) = 58.73567 28.31143 47.36195
#
# Poissons Ratio (x) = -0.25738 0.35032
# Poissons Ratio (y) = -0.53397 0.30292
# Poissons Ratio (z) = 0.43445 0.18107
#
# Static dielectric constant tensor:
#      x y z
#    x 1.976130 0.022060 -0.075650 
#    y 0.022060 1.885200 0.020810 
#    z -0.075650 0.020810 1.890130 
# 
# From -- ./inp_files/95410.got.cif
#   From: 2010.05.17/outbox.cif.g08.bks.cpg/sg2_48_cif.got.tgz:95410.got - 2010.06.03 11:33:40.
