data_PCOD9093946
_publ_section_title
;
Structure prediction by ZEFSAII (Michael W. Deem and Ramdas Pophale) SiO2 
 PCOD9093946
Probable space group: P -1
;
_chemical_formula_sum "Si O2"
_cell_formula_units_Z 16
_cell_length_a 13.338436
_cell_length_b 11.824087
_cell_length_c 7.068119
_cell_angle_alpha 70.676519
_cell_angle_beta 51.388778
_cell_angle_gamma 45.967737
_cell_volume 615.665740
_symmetry_space_group_name_H-M "P -1"
_symmetry_group_IT_number 2
_symmetry_cell_setting 'triclinic'
loop_
_space_group_symop_operation_xyz
x,y,z
-x,-y,-z
loop_
_atom_site_type_symbol
_atom_site_label
_atom_site_fract_x
_atom_site_fract_y
_atom_site_fract_z
Si Si1 0.119390 0.310086 0.298274
Si Si2 0.986324 0.029355 0.723920
Si Si3 0.625170 0.245563 0.564004
Si Si4 0.201270 0.606425 0.189344
Si Si5 0.634059 0.508978 0.570847
Si Si6 0.479930 0.131101 0.077919
Si Si7 0.197948 0.099466 0.976382
Si Si8 0.902944 0.431518 0.027796
O O1 0.158370 0.167911 0.202463
O O2 0.103953 0.427540 0.101846
O O3 0.954753 0.383685 0.573555
O O4 0.276722 0.254793 0.275755
O O5 0.182172 0.914774 0.623468
O O6 0.893276 0.966753 0.934101
O O7 0.000000 0.000000 0.500000
O O8 0.871806 0.215005 0.799622
O O9 0.635480 0.369046 0.584811
O O10 0.514791 0.331674 0.455681
O O11 0.543489 0.201277 0.832133
O O12 0.357215 0.488804 0.213913
O O13 0.222719 0.564275 0.968789
O O14 0.812704 0.456339 0.317953
O O15 0.598634 0.043953 0.171156
O O16 0.500000 0.000000 0.000000
O O17 0.094305 0.260659 0.888180
#
# Coordination Sequence:
#
# PCOD9093946 Si02
#       8
#     2   2   2   2   2   2   2   2
#     4  11  21  41  62  91 129 165 212 257 309 377
#     4  12  18  39  68  91 124 164 209 258 311 372
#     4  11  20  38  66  94 123 166 215 253 314 374
#     4  12  25  41  66  95 128 166 210 263 312 372
#     4  11  23  42  66  91 126 168 210 260 313 370
#     4  10  20  33  62  97 120 163 209 255 311 372
#     4  11  21  38  66  93 121 166 210 258 315 366
#     4  12  24  41  63  98 126 167 211 256 317 378
#
# _framework density 25.988126999999999
#
# number of rings (size 3 to 8) (size 9 to 14) (size 15 to 20)
#    0.000    0.750    7.500    1.500    0.000    0.500 
#    0.000    4.375    0.000    0.000    0.000    0.000 
#    0.000    0.000    0.000    0.000    0.000    0.000 
#
# Total GULP energy -89678.096027 kJ/mol
# GULP energy per Si atom -5604.881002 kJ/mol
# Density = 2.592898 g / cm^3
# Si number density = 25.988127 Si / 1000 Ang^3
#
#
#
# Elastic Constant Matrix: (Units=GPa)
#
#
# Indices 1 2 3 4 5 6 
#
# 1 119.0318 55.4417 42.7808 -5.8752 -1.7278 -30.9569
# 2 55.4417 121.7807 31.4506 -29.8761 -6.9979 -22.3491
# 3 42.7808 31.4506 77.5074 -9.7820 -17.0407 2.5525
# 4 -5.8752 -29.8761 -9.7820 31.5830 3.3694 -1.1013
# 5 -1.7278 -6.9979 -17.0407 3.3694 54.6624 -6.7541
# 6 -30.9569 -22.3491 2.5525 -1.1013 -6.7541 72.5896
#
#
#
# Elastic Compliance Matrix: (Units=1/GPa)
#
#
# Indices 1 2 3 4 5 6 
#
# 1 0.014046 -0.004814 -0.006744 -0.003712 -0.001484 0.004551
# 2 -0.004814 0.014324 -0.001533 0.012189 0.000782 0.002669
# 3 -0.006744 -0.001533 0.018738 0.002459 0.004846 -0.003519
# 4 -0.003712 0.012189 0.002459 0.043373 -0.000126 0.002729
# 5 -0.001484 0.000782 0.004846 -0.000126 0.020026 0.001299
# 6 0.004551 0.002669 -0.003519 0.002729 0.001299 0.016825
#
#
# Mechanical properties :
#
#
# Convention : Reuss Voigt Hill
#
# Bulk Modulus (GPa) = 47.78610 64.18512 55.98561
# Shear Modulus (GPa) = 31.15499 44.34345 37.74922
#
# Velocity S-wave (km/s) = 3.46615 4.13522 3.81538
# Velocity P-wave (km/s) = 5.86911 6.89576 6.40305
#
# Compressibility (1/GPa) = 0.02092659
#
# Stress axis : x y z
#
# Youngs Moduli (GPa) = 71.19583 69.81357 53.36730
#
# Poissons Ratio (x) = 0.33606 0.35991
# Poissons Ratio (y) = 0.34271 0.08181
# Poissons Ratio (z) = 0.48014 0.10702
#
# Static dielectric constant tensor:
#      x y z
#    x 2.087970 -0.052660 0.020570 
#    y -0.052660 2.093150 0.020240 
#    z 0.020570 0.020240 1.972740 
# 
# From -- ./inp_files/256698.got.cif
#   From: 2010.05.17/outbox.cif.g08.bks.cpg/sg2_129_cif.got.tgz:256698.got - 2010.06.03 11:33:40.
