data_PCOD9093206
_publ_section_title
;
Structure prediction by ZEFSAII (Michael W. Deem and Ramdas Pophale) SiO2 
 PCOD9093206
Probable space group: P -1
;
_chemical_formula_sum "Si O2"
_cell_formula_units_Z 16
_cell_length_a 9.720289
_cell_length_b 11.052422
_cell_length_c 17.094585
_cell_angle_alpha 45.758284
_cell_angle_beta 51.540660
_cell_angle_gamma 33.992578
_cell_volume 731.230331
_symmetry_space_group_name_H-M "P -1"
_symmetry_group_IT_number 2
_symmetry_cell_setting 'triclinic'
loop_
_space_group_symop_operation_xyz
x,y,z
-x,-y,-z
loop_
_atom_site_type_symbol
_atom_site_label
_atom_site_fract_x
_atom_site_fract_y
_atom_site_fract_z
Si Si1 0.254231 0.656927 0.303555
Si Si2 0.461292 0.015027 0.300448
Si Si3 0.530637 0.941792 0.135643
Si Si4 0.929996 0.216527 0.381220
Si Si5 0.999479 0.130075 0.221954
Si Si6 0.681840 0.760743 0.595967
Si Si7 0.759979 0.486788 0.467100
Si Si8 0.648449 0.637333 0.099716
O O1 0.256730 0.465037 0.357936
O O2 0.311536 0.595825 0.403082
O O3 0.444181 0.637165 0.194874
O O4 0.008879 0.941481 0.263326
O O5 0.177206 0.161836 0.315297
O O6 0.440067 0.168197 0.306540
O O7 0.593061 0.945576 0.201081
O O8 0.592290 0.765427 0.406659
O O9 0.712559 0.704171 0.125139
O O10 0.282148 0.995349 0.197521
O O11 0.462709 0.156394 0.015423
O O12 0.867504 0.212521 0.316229
O O13 0.742824 0.434963 0.407489
O O14 0.000000 0.000000 0.500000
O O15 0.877143 0.369155 0.112241
O O16 0.950189 0.668897 0.550068
O O17 0.500000 0.000000 0.500000
#
# Coordination Sequence:
#
# PCOD9093206 Si02
#       8
#     2   2   2   2   2   2   2   2
#     4  11  23  34  55  88 111 145 195 224 282 334
#     4  10  22  37  58  79 113 154 185 234 280 332
#     4   9  20  41  57  88 111 149 193 225 287 331
#     4  10  20  32  50  84 118 143 182 224 281 344
#     4  10  20  35  57  86 117 151 180 233 283 336
#     4  11  24  39  57  82 114 151 193 232 278 344
#     4  11  22  36  56  83 113 152 183 228 290 342
#     4  10  21  36  63  83 116 147 188 239 272 339
#
# _framework density 21.880931
#
# number of rings (size 3 to 8) (size 9 to 14) (size 15 to 20)
#    0.000    1.750    2.500    1.500    3.500    0.500 
#    0.000    0.625    0.000    1.500    0.000    0.000 
#    0.000    0.000    0.000    0.000    0.000    0.000 
#
# Total GULP energy -89314.672264 kJ/mol
# GULP energy per Si atom -5582.167017 kJ/mol
# Density = 2.183113 g / cm^3
# Si number density = 21.880931 Si / 1000 Ang^3
#
#
#
# Elastic Constant Matrix: (Units=GPa)
#
#
# Indices 1 2 3 4 5 6 
#
# 1 68.6157 35.3971 24.0310 -4.7088 -0.6846 16.2516
# 2 35.3971 114.0320 25.5625 -24.1412 -1.8253 35.4474
# 3 24.0310 25.5625 105.0326 -7.0410 -2.4467 17.4527
# 4 -4.7088 -24.1412 -7.0410 41.4895 2.4064 -8.0035
# 5 -0.6846 -1.8253 -2.4467 2.4064 19.4437 -2.2228
# 6 16.2516 35.4474 17.4527 -8.0035 -2.2228 33.5179
#
#
#
# Elastic Compliance Matrix: (Units=1/GPa)
#
#
# Indices 1 2 3 4 5 6 
#
# 1 0.018480 -0.004463 -0.002719 -0.001565 -0.000285 -0.003218
# 2 -0.004463 0.015390 -0.000248 0.006029 -0.000931 -0.012606
# 3 -0.002719 -0.000248 0.010910 0.000602 0.000733 -0.003908
# 4 -0.001565 0.006029 0.000602 0.027798 -0.002794 0.000522
# 5 -0.000285 -0.000931 0.000733 -0.002794 0.052175 0.003534
# 6 -0.003218 -0.012606 -0.003908 0.000522 0.003534 0.047120
#
#
# Mechanical properties :
#
#
# Convention : Reuss Voigt Hill
#
# Bulk Modulus (GPa) = 33.42000 50.85127 42.13564
# Shear Modulus (GPa) = 25.41869 32.40286 28.91078
#
# Velocity S-wave (km/s) = 3.41204 3.85238 3.63888
# Velocity P-wave (km/s) = 5.55243 6.56340 6.07897
#
# Compressibility (1/GPa) = 0.02992220
#
# Stress axis : x y z
#
# Youngs Moduli (GPa) = 54.11198 64.97668 91.65860
#
# Poissons Ratio (x) = 0.28997 0.24922
# Poissons Ratio (y) = 0.24148 0.02269
# Poissons Ratio (z) = 0.14713 0.01608
#
# Static dielectric constant tensor:
#      x y z
#    x 1.840020 0.018520 0.003640 
#    y 0.018520 1.914930 0.013390 
#    z 0.003640 0.013390 1.790860 
# 
# From -- ./inp_files/67175.got.cif
#   From: 2010.05.17/outbox.cif.g08.bks.cpg/sg2_34_cif.got.tgz:67175.got - 2010.06.03 11:33:40.
