data_PCOD9093131
_publ_section_title
;
Structure prediction by ZEFSAII (Michael W. Deem and Ramdas Pophale) SiO2 
 PCOD9093131
Probable space group: P -1
;
_chemical_formula_sum "Si O2"
_cell_formula_units_Z 16
_cell_length_a 9.905344
_cell_length_b 8.085855
_cell_length_c 13.140437
_cell_angle_alpha 55.539318
_cell_angle_beta 44.135475
_cell_angle_gamma 62.074392
_cell_volume 600.717618
_symmetry_space_group_name_H-M "P -1"
_symmetry_group_IT_number 2
_symmetry_cell_setting 'triclinic'
loop_
_space_group_symop_operation_xyz
x,y,z
-x,-y,-z
loop_
_atom_site_type_symbol
_atom_site_label
_atom_site_fract_x
_atom_site_fract_y
_atom_site_fract_z
Si Si1 0.577060 0.803117 0.091031
Si Si2 0.347889 0.802840 0.535546
Si Si3 0.005902 0.296209 0.745038
Si Si4 0.289679 0.039360 0.830204
Si Si5 0.975001 0.712531 0.659333
Si Si6 0.367036 0.461086 0.379799
Si Si7 0.981094 0.077243 0.650388
Si Si8 0.594817 0.424748 0.080075
O O1 0.397428 0.697766 0.276551
O O2 0.666935 0.609800 0.042932
O O3 0.709201 0.866929 0.090001
O O4 0.500000 0.000000 0.000000
O O5 0.199566 0.690314 0.586070
O O6 0.461016 0.648982 0.605340
O O7 0.509745 0.904605 0.349900
O O8 0.192694 0.970276 0.613286
O O9 0.900293 0.496052 0.784597
O O10 0.168261 0.395499 0.553563
O O11 0.889963 0.190903 0.758119
O O12 0.117816 0.147539 0.816519
O O13 0.291502 0.798279 0.914558
O O14 0.970461 0.795621 0.518596
O O15 0.880754 0.892806 0.719515
O O16 0.412241 0.384866 0.267994
O O17 0.500000 0.500000 0.000000
#
# Coordination Sequence:
#
# PCOD9093131 Si02
#       8
#     2   2   2   2   2   2   2   2
#     4  10  20  32  44  64 100 134 159 185 224 287
#     4   9  17  32  48  72 103 123 148 194 240 281
#     4  11  19  30  50  74  99 125 152 192 242 283
#     4  11  19  30  50  74  99 125 152 192 242 283
#     4   9  19  31  43  64 101 134 157 183 222 287
#     4   9  19  30  48  74  99 123 154 192 236 287
#     4   9  19  31  43  64 101 134 157 183 222 287
#     4  10  20  32  44  64 100 134 159 185 224 287
#
# _framework density 26.634809000000001
#
# number of rings (size 3 to 8) (size 9 to 14) (size 15 to 20)
#    1.500    0.750    1.250    3.375    0.000    4.000 
#    0.000    0.000    0.000    0.000    0.000    0.000 
#    0.000  140.000    0.000    0.000    0.000    0.000 
#
# Total GULP energy -89570.343889 kJ/mol
# GULP energy per Si atom -5598.146493 kJ/mol
# Density = 2.657419 g / cm^3
# Si number density = 26.634809 Si / 1000 Ang^3
#
#
#
# Elastic Constant Matrix: (Units=GPa)
#
#
# Indices 1 2 3 4 5 6 
#
# 1 127.6539 66.0704 64.7203 -12.7344 28.4157 12.4328
# 2 66.0704 229.4673 62.2592 -27.0060 31.0312 44.7140
# 3 64.7203 62.2592 146.2300 -42.7025 18.3648 17.9858
# 4 -12.7344 -27.0060 -42.7025 56.7710 -2.2289 1.7752
# 5 28.4157 31.0312 18.3648 -2.2289 46.4719 8.6136
# 6 12.4328 44.7140 17.9858 1.7752 8.6136 49.5491
#
#
#
# Elastic Compliance Matrix: (Units=1/GPa)
#
#
# Indices 1 2 3 4 5 6 
#
# 1 0.011879 -0.002091 -0.004563 -0.001979 -0.004419 0.001401
# 2 -0.002091 0.006584 -0.000266 0.002545 -0.001951 -0.005072
# 3 -0.004563 -0.000266 0.011681 0.007702 -0.000722 -0.003006
# 4 -0.001979 0.002545 0.007702 0.024283 -0.001400 -0.005222
# 5 -0.004419 -0.001951 -0.000722 -0.001400 0.025989 -0.001337
# 6 0.001401 -0.005072 -0.003006 -0.005222 -0.001337 0.025918
#
#
# Mechanical properties :
#
#
# Convention : Reuss Voigt Hill
#
# Bulk Modulus (GPa) = 61.33189 98.82787 80.07988
# Shear Modulus (GPa) = 39.80701 51.24516 45.52608
#
# Velocity S-wave (km/s) = 3.87013 4.39109 4.13882
# Velocity P-wave (km/s) = 6.56106 7.93059 7.27811
#
# Compressibility (1/GPa) = 0.01630473
#
# Stress axis : x y z
#
# Youngs Moduli (GPa) = 84.18360 151.89065 85.61242
#
# Poissons Ratio (x) = 0.31757 0.39063
# Poissons Ratio (y) = 0.17601 0.02274
# Poissons Ratio (z) = 0.38411 0.04035
#
# Static dielectric constant tensor:
#      x y z
#    x 2.012340 0.009940 -0.078390 
#    y 0.009940 2.205130 0.045860 
#    z -0.078390 0.045860 2.113060 
# 
# From -- ./inp_files/511537.got.cif
#   From: 2010.05.17/outbox.cif.g08.bks.cpg/sg2_256_cif.got.tgz:511537.got - 2010.06.03 11:33:40.
