data_PCOD9093478
_publ_section_title
;
Structure prediction by ZEFSAII (Michael W. Deem and Ramdas Pophale) SiO2 
 PCOD9093478
Probable space group: P -1
;
_chemical_formula_sum "Si O2"
_cell_formula_units_Z 14
_cell_length_a 4.953693
_cell_length_b 21.402248
_cell_length_c 12.010940
_cell_angle_alpha 34.710346
_cell_angle_beta 113.017902
_cell_angle_gamma 116.986732
_cell_volume 645.748322
_symmetry_space_group_name_H-M "P -1"
_symmetry_group_IT_number 2
_symmetry_cell_setting 'triclinic'
loop_
_space_group_symop_operation_xyz
x,y,z
-x,-y,-z
loop_
_atom_site_type_symbol
_atom_site_label
_atom_site_fract_x
_atom_site_fract_y
_atom_site_fract_z
Si Si1 0.574055 0.031075 0.701326
Si Si2 0.898278 0.610856 0.461782
Si Si3 0.875889 0.869685 0.633923
Si Si4 0.090080 0.191535 0.695611
Si Si5 0.753813 0.365162 0.741445
Si Si6 0.476714 0.825551 0.831290
Si Si7 0.333791 0.886951 0.075364
O O1 0.614388 0.951690 0.720601
O O2 0.377769 0.120381 0.510029
O O3 0.876855 0.104512 0.703598
O O4 0.365765 0.932695 0.889515
O O5 0.933457 0.482947 0.655436
O O6 0.545519 0.608012 0.398080
O O7 0.985157 0.687035 0.475634
O O8 0.053592 0.661081 0.294600
O O9 0.715598 0.802587 0.814937
O O10 0.169273 0.828138 0.711279
O O11 0.000000 0.000000 0.500000
O O12 0.992630 0.144781 0.873830
O O13 0.440132 0.192058 0.741382
O O14 0.630841 0.267404 0.954255
O O15 0.500000 0.000000 0.000000
#
# Coordination Sequence:
#
# PCOD9093478 Si02
#       7
#     2   2   2   2   2   2   2
#     4  10  20  33  51  73 105 135 167 213 258 305
#     4  10  20  36  55  82 105 135 174 209 266 317
#     4  10  22  35  50  74 103 138 179 213 252 306
#     4  11  21  33  52  78 108 135 168 210 262 319
#     4  10  21  36  57  77 107 138 171 219 257 309
#     4  11  21  35  53  75 102 137 178 214 256 303
#     4  10  21  32  48  77 108 138 165 200 259 323
#
# _framework density 21.680271000000001
#
# number of rings (size 3 to 8) (size 9 to 14) (size 15 to 20)
#    0.000    1.714    0.000    6.857    0.000   11.429 
#    0.000    0.000    0.000    1.714    0.000    0.000 
#    0.000    0.000    0.000    0.000    0.000    0.000 
#
# Total GULP energy -78047.906023 kJ/mol
# GULP energy per Si atom -5574.850430 kJ/mol
# Density = 2.163093 g / cm^3
# Si number density = 21.680271 Si / 1000 Ang^3
#
#
#
# Elastic Constant Matrix: (Units=GPa)
#
#
# Indices 1 2 3 4 5 6 
#
# 1 90.1075 12.2705 -1.0899 6.3076 -0.7086 1.7841
# 2 12.2705 70.5603 26.0745 -4.3788 13.2554 9.5811
# 3 -1.0899 26.0745 59.2331 -3.4335 -7.5391 2.2678
# 4 6.3076 -4.3788 -3.4335 20.4512 1.3533 -1.8827
# 5 -0.7086 13.2554 -7.5391 1.3533 33.4960 -1.6963
# 6 1.7841 9.5811 2.2678 -1.8827 -1.6963 17.3356
#
#
#
# Elastic Compliance Matrix: (Units=1/GPa)
#
#
# Indices 1 2 3 4 5 6 
#
# 1 0.011893 -0.003408 0.001743 -0.004232 0.002173 0.000185
# 2 -0.003408 0.023043 -0.011117 0.003862 -0.012443 -0.011728
# 3 0.001743 -0.011117 0.022937 0.000654 0.009775 0.003992
# 4 -0.004232 0.003862 0.000654 0.051685 -0.003382 0.003498
# 5 0.002173 -0.012443 0.009775 -0.003382 0.037601 0.008687
# 6 0.000185 -0.011728 0.003992 0.003498 0.008687 0.064855
#
#
# Mechanical properties :
#
#
# Convention : Reuss Voigt Hill
#
# Bulk Modulus (GPa) = 30.95104 32.71232 31.83168
# Shear Modulus (GPa) = 20.13309 26.43296 23.28302
#
# Velocity S-wave (km/s) = 3.05066 3.49552 3.28064
# Velocity P-wave (km/s) = 5.16874 5.60471 5.39113
#
# Compressibility (1/GPa) = 0.03230909
#
# Stress axis : x y z
#
# Youngs Moduli (GPa) = 84.08496 43.39738 43.59686
#
# Poissons Ratio (x) = 0.14791 -0.07601
# Poissons Ratio (y) = 0.28659 0.48467
# Poissons Ratio (z) = -0.14659 0.48245
#
# Static dielectric constant tensor:
#      x y z
#    x 1.853940 -0.018200 -0.042930 
#    y -0.018200 1.896580 -0.029960 
#    z -0.042930 -0.029960 1.913440 
# 
# From -- ./inp_files/371022.got.cif
#   From: 2010.05.17/outbox.cif.g08.bks.cpg/sg2_186_cif.got.tgz:371022.got - 2010.06.03 11:33:40.
