data_PCOD9093994
_publ_section_title
;
Structure prediction by ZEFSAII (Michael W. Deem and Ramdas Pophale) SiO2 
 PCOD9093994
Probable space group: P -1
;
_chemical_formula_sum "Si O2"
_cell_formula_units_Z 16
_cell_length_a 9.812369
_cell_length_b 10.017048
_cell_length_c 22.023155
_cell_angle_alpha 141.425135
_cell_angle_beta 52.729704
_cell_angle_gamma 137.556902
_cell_volume 908.778914
_symmetry_space_group_name_H-M "P -1"
_symmetry_group_IT_number 2
_symmetry_cell_setting 'triclinic'
loop_
_space_group_symop_operation_xyz
x,y,z
-x,-y,-z
loop_
_atom_site_type_symbol
_atom_site_label
_atom_site_fract_x
_atom_site_fract_y
_atom_site_fract_z
Si Si1 0.106757 0.144641 0.837868
Si Si2 0.272331 0.370623 0.539714
Si Si3 0.946728 0.904234 0.383021
Si Si4 0.260498 0.806042 0.503892
Si Si5 0.943374 0.328438 0.836359
Si Si6 0.792077 0.117997 0.999531
Si Si7 0.907386 0.349288 0.374952
Si Si8 0.375550 0.700370 0.002211
O O1 0.025769 0.224615 0.830069
O O2 0.941222 0.053653 0.903369
O O3 0.129559 0.916283 0.730904
O O4 0.296702 0.409109 0.905411
O O5 0.500000 0.500000 0.500000
O O6 0.229628 0.293942 0.594542
O O7 0.182250 0.543175 0.610162
O O8 0.130751 0.113301 0.448604
O O9 0.035082 0.786410 0.272079
O O10 0.853439 0.043156 0.421258
O O11 0.211487 0.694712 0.545262
O O12 0.141952 0.566056 0.404545
O O13 0.500000 0.000000 0.500000
O O14 0.729583 0.273521 0.900005
O O15 0.084731 0.631540 0.904610
O O16 0.706163 0.206448 0.998448
O O17 0.614037 0.886185 0.001176
#
# Coordination Sequence:
#
# PCOD9093994 Si02
#       8
#     2   2   2   2   2   2   2   2
#     4   9  16  29  47  73 106 131 157 207 257 296
#     4  10  22  38  53  71 102 140 177 212 253 306
#     4  10  20  36  54  74 102 136 174 214 252 302
#     4  10  20  34  51  77 104 129 168 217 262 302
#     4   9  16  29  48  73 103 130 163 208 250 296
#     4   8  15  27  44  72 103 131 163 196 250 305
#     4  10  20  34  52  76 104 133 170 214 258 304
#     4   8  15  27  44  70 105 134 159 198 246 308
#
# _framework density 17.606041999999999
#
# number of rings (size 3 to 8) (size 9 to 14) (size 15 to 20)
#    0.000    2.750    1.250    2.250    0.000    2.000 
#    4.500    0.000    0.000    3.000    0.000    5.250 
#    0.000    0.000    0.000    0.000    0.000    0.000 
#
# Total GULP energy -89116.896414 kJ/mol
# GULP energy per Si atom -5569.806026 kJ/mol
# Density = 1.756597 g / cm^3
# Si number density = 17.606042 Si / 1000 Ang^3
#
#
#
# Elastic Constant Matrix: (Units=GPa)
#
#
# Indices 1 2 3 4 5 6 
#
# 1 14.8816 19.4461 8.8694 1.5054 0.6016 7.9632
# 2 19.4461 119.2202 42.1572 0.4664 1.5976 29.5616
# 3 8.8694 42.1572 121.1832 1.2161 -4.7362 11.7888
# 4 1.5054 0.4664 1.2161 14.0490 -6.8536 -0.8731
# 5 0.6016 1.5976 -4.7362 -6.8536 7.8434 0.5779
# 6 7.9632 29.5616 11.7888 -0.8731 0.5779 33.4577
#
#
#
# Elastic Compliance Matrix: (Units=1/GPa)
#
#
# Indices 1 2 3 4 5 6 
#
# 1 0.092415 -0.010838 -0.002616 -0.022264 -0.025056 -0.011646
# 2 -0.010838 0.013377 -0.003250 -0.001906 -0.004927 -0.008059
# 3 -0.002616 -0.003250 0.009972 0.005022 0.011279 -0.000084
# 4 -0.022264 -0.001906 0.005022 0.132237 0.120192 0.006588
# 5 -0.025056 -0.004927 0.011279 0.120192 0.241865 0.005302
# 6 -0.011646 -0.008059 -0.000084 0.006588 0.005302 0.039890
#
#
# Mechanical properties :
#
#
# Convention : Reuss Voigt Hill
#
# Bulk Modulus (GPa) = 12.14243 44.02560 28.08401
# Shear Modulus (GPa) = 8.46572 23.39086 15.92829
#
# Velocity S-wave (km/s) = 2.19519 3.64891 3.01110
# Velocity P-wave (km/s) = 3.65197 6.54316 5.29858
#
# Compressibility (1/GPa) = 0.08235585
#
# Stress axis : x y z
#
# Youngs Moduli (GPa) = 10.82070 74.75781 100.27588
#
# Poissons Ratio (x) = 0.81024 0.26236
# Poissons Ratio (y) = 0.11728 0.32586
# Poissons Ratio (z) = 0.02831 0.24294
#
# Static dielectric constant tensor:
#      x y z
#    x 1.595990 0.008880 0.011740 
#    y 0.008880 1.610080 0.004570 
#    z 0.011740 0.004570 1.584540 
# 
# From -- ./inp_files/216862.got.cif
#   From: 2010.05.17/outbox.cif.g08.bks.cpg/sg2_109_cif.got.tgz:216862.got - 2010.06.03 11:33:40.
