data_PCOD9093212
_publ_section_title
;
Structure prediction by ZEFSAII (Michael W. Deem and Ramdas Pophale) SiO2 
 PCOD9093212
Probable space group: P -1
;
_chemical_formula_sum "Si O2"
_cell_formula_units_Z 14
_cell_length_a 6.478064
_cell_length_b 21.296383
_cell_length_c 9.055353
_cell_angle_alpha 35.844231
_cell_angle_beta 90.526427
_cell_angle_gamma 93.899655
_cell_volume 727.598457
_symmetry_space_group_name_H-M "P -1"
_symmetry_group_IT_number 2
_symmetry_cell_setting 'triclinic'
loop_
_space_group_symop_operation_xyz
x,y,z
-x,-y,-z
loop_
_atom_site_type_symbol
_atom_site_label
_atom_site_fract_x
_atom_site_fract_y
_atom_site_fract_z
Si Si1 0.702698 0.785663 0.222691
Si Si2 0.415518 0.331934 0.284788
Si Si3 0.203265 0.526268 0.049265
Si Si4 0.040739 0.116002 0.207038
Si Si5 0.093367 0.409694 0.547961
Si Si6 0.309723 0.728292 0.125852
Si Si7 0.317424 0.309099 0.993830
O O1 0.659928 0.774198 0.418279
O O2 0.841287 0.690892 0.356252
O O3 0.478842 0.755623 0.202954
O O4 0.829001 0.883742 0.947430
O O5 0.344753 0.431193 0.189910
O O6 0.313840 0.331744 0.123161
O O7 0.661805 0.362331 0.203291
O O8 0.144729 0.511620 0.249003
O O9 0.000000 0.500000 0.000000
O O10 0.181080 0.198643 0.157011
O O11 0.000000 0.000000 0.500000
O O12 0.828595 0.172323 0.080653
O O13 0.852840 0.375190 0.644374
O O14 0.226609 0.398905 0.718055
O O15 0.450279 0.705747 0.029565
#
# Coordination Sequence:
#
# PCOD9093212 Si02
#       7
#     2   2   2   2   2   2   2
#     4   8  16  30  50  68  94 128 156 194 239 285
#     4  10  20  34  47  72 101 125 163 201 239 282
#     4  10  20  32  51  70  95 134 169 199 232 280
#     4   9  18  33  54  76  93 120 162 198 234 290
#     4   8  16  31  47  70  94 125 168 198 231 277
#     4   8  15  31  51  69  93 126 157 192 240 286
#     4   9  19  32  50  71  99 128 154 202 247 279
#
# _framework density 19.241382999999999
#
# number of rings (size 3 to 8) (size 9 to 14) (size 15 to 20)
#    0.000    3.714    0.000    0.857    0.000    6.286 
#    0.000    2.143    0.000    1.714    0.000    0.000 
#    0.000    0.000    0.000    0.000    0.000    0.000 
#
# Total GULP energy -77934.549904 kJ/mol
# GULP energy per Si atom -5566.753565 kJ/mol
# Density = 1.919759 g / cm^3
# Si number density = 19.241383 Si / 1000 Ang^3
#
#
#
# Elastic Constant Matrix: (Units=GPa)
#
#
# Indices 1 2 3 4 5 6 
#
# 1 89.5575 6.8315 40.6105 -6.6002 -23.7298 1.9135
# 2 6.8315 39.4478 37.3821 15.7463 -7.5733 2.3421
# 3 40.6105 37.3821 160.7576 18.8613 -27.7680 -1.4349
# 4 -6.6002 15.7463 18.8613 32.9424 -6.2905 3.2327
# 5 -23.7298 -7.5733 -27.7680 -6.2905 14.9916 2.6854
# 6 1.9135 2.3421 -1.4349 3.2327 2.6854 14.4213
#
#
#
# Elastic Compliance Matrix: (Units=1/GPa)
#
#
# Indices 1 2 3 4 5 6 
#
# 1 0.026712 -0.000694 0.000381 0.017255 0.052944 -0.017120
# 2 -0.000694 0.037891 -0.007083 -0.013892 -0.000260 -0.003604
# 3 0.000381 -0.007083 0.010660 0.000788 0.017323 -0.001242
# 4 0.017255 -0.013892 0.000788 0.050888 0.046701 -0.020059
# 5 0.052944 -0.000260 0.017323 0.046701 0.211945 -0.055194
# 6 -0.017120 -0.003604 -0.001242 -0.020059 -0.055194 0.086849
#
#
# Mechanical properties :
#
#
# Convention : Reuss Voigt Hill
#
# Bulk Modulus (GPa) = 16.53668 51.04568 33.79118
# Shear Modulus (GPa) = 10.87205 26.13367 18.50286
#
# Velocity S-wave (km/s) = 2.37962 3.68938 3.10436
# Velocity P-wave (km/s) = 4.02034 6.68845 5.51808
#
# Compressibility (1/GPa) = 0.06047164
#
# Stress axis : x y z
#
# Youngs Moduli (GPa) = 37.43642 26.39123 93.80847
#
# Poissons Ratio (x) = 0.01832 -0.03576
# Poissons Ratio (y) = 0.02599 0.66444
# Poissons Ratio (z) = -0.01427 0.18693
#
# Static dielectric constant tensor:
#      x y z
#    x 1.702020 -0.009150 -0.033690 
#    y -0.009150 1.683160 0.026530 
#    z -0.033690 0.026530 1.742160 
# 
# From -- ./inp_files/38075.got.cif
#   From: 2010.05.17/outbox.cif.g08.bks.cpg/sg2_20_cif.got.tgz:38075.got - 2010.06.03 11:33:40.
