data_PCOD9093086
_publ_section_title
;
Structure prediction by ZEFSAII (Michael W. Deem and Ramdas Pophale) SiO2 
 PCOD9093086
Probable space group: P -1
;
_chemical_formula_sum "Si O2"
_cell_formula_units_Z 14
_cell_length_a 11.135284
_cell_length_b 6.966320
_cell_length_c 6.966328
_cell_angle_alpha 86.106557
_cell_angle_beta 115.335220
_cell_angle_gamma 81.071529
_cell_volume 477.007918
_symmetry_space_group_name_H-M "P -1"
_symmetry_group_IT_number 2
_symmetry_cell_setting 'triclinic'
loop_
_space_group_symop_operation_xyz
x,y,z
-x,-y,-z
loop_
_atom_site_type_symbol
_atom_site_label
_atom_site_fract_x
_atom_site_fract_y
_atom_site_fract_z
Si Si1 0.035197 0.267657 0.531630
Si Si2 0.831710 0.352723 0.926677
Si Si3 0.464799 0.503556 0.197145
Si Si4 0.107180 0.209580 0.016049
Si Si5 0.749999 0.305455 0.444554
Si Si6 0.392811 0.091115 0.183223
Si Si7 0.331709 0.094964 0.684419
O O1 0.076193 0.171998 0.774986
O O2 0.000000 0.500000 0.500000
O O3 0.878966 0.250317 0.388475
O O4 0.180896 0.216640 0.526820
O O5 0.680896 0.345932 0.897531
O O6 0.818907 0.322934 0.692926
O O7 0.979619 0.209758 0.067491
O O8 0.862617 0.568259 0.979535
O O9 0.621026 0.490486 0.370722
O O10 0.423798 0.301194 0.251789
O O11 0.500000 0.500000 0.000000
O O12 0.249993 0.071535 0.178447
O O13 0.681098 0.125977 0.358195
O O14 0.520376 0.912123 0.310618
O O15 0.362611 0.116900 0.930863
#
# Coordination Sequence:
#
# PCOD9093086 Si02
#       7
#     2   2   2   2   2   2   2
#     4  10  20  31  53  84 114 137 181 232 272 312
#     4   9  17  32  51  79 109 142 184 221 264 324
#     4  10  20  31  53  84 114 137 181 232 272 312
#     4   8  16  31  53  78 105 144 185 219 262 320
#     4  10  20  32  52  82 108 148 182 222 268 324
#     4   8  16  31  53  78 105 144 185 219 262 320
#     4   9  17  32  51  79 109 142 184 221 264 324
#
# _framework density 29.349616000000001
#
# number of rings (size 3 to 8) (size 9 to 14) (size 15 to 20)
#    0.000    2.857    0.000    0.857    6.000    0.000 
#    0.000    0.000    0.000    1.714   78.000    0.000 
#    0.000    0.000    0.000    0.000    0.000    0.000 
#
# Total GULP energy -78089.811364 kJ/mol
# GULP energy per Si atom -5577.843669 kJ/mol
# Density = 2.928282 g / cm^3
# Si number density = 29.349616 Si / 1000 Ang^3
#
#
#
# Elastic Constant Matrix: (Units=GPa)
#
#
# Indices 1 2 3 4 5 6 
#
# 1 374.5029 -11.9777 60.2041 -9.3370 41.0125 -66.8018
# 2 -11.9777 155.8702 19.3413 -47.8606 43.0901 -48.1734
# 3 60.2041 19.3413 72.9273 -16.0579 27.9392 -6.7435
# 4 -9.3370 -47.8606 -16.0579 46.8848 -39.8693 23.5594
# 5 41.0125 43.0901 27.9392 -39.8693 99.6363 -30.3244
# 6 -66.8018 -48.1734 -6.7435 23.5594 -30.3244 72.6269
#
#
#
# Elastic Compliance Matrix: (Units=1/GPa)
#
#
# Indices 1 2 3 4 5 6 
#
# 1 0.004300 0.002158 -0.003702 -0.001361 -0.000620 0.005226
# 2 0.002158 0.011375 -0.002477 0.007867 0.000102 0.006791
# 3 -0.003702 -0.002477 0.018822 0.003464 -0.003028 -0.005688
# 4 -0.001361 0.007867 0.003464 0.042675 0.011862 -0.004602
# 5 -0.000620 0.000102 -0.003028 0.011862 0.016535 0.002272
# 6 0.005226 0.006791 -0.005688 -0.004602 0.002272 0.024994
#
#
# Mechanical properties :
#
#
# Convention : Reuss Voigt Hill
#
# Bulk Modulus (GPa) = 37.79812 82.04843 59.92328
# Shear Modulus (GPa) = 36.88345 79.54510 58.21428
#
# Velocity S-wave (km/s) = 3.54883 5.21166 4.45846
# Velocity P-wave (km/s) = 5.44966 8.01445 6.85311
#
# Compressibility (1/GPa) = 0.02645634
#
# Stress axis : x y z
#
# Youngs Moduli (GPa) = 232.53222 87.91018 53.12944
#
# Poissons Ratio (x) = -0.18974 0.19667
# Poissons Ratio (y) = -0.50189 0.13162
# Poissons Ratio (z) = 0.86076 0.21779
#
# Static dielectric constant tensor:
#      x y z
#    x 2.912240 -0.051670 0.361440 
#    y -0.051670 2.359410 -0.104440 
#    z 0.361440 -0.104440 2.610300 
# 
# From -- ./inp_files/234870.got.cif
#   From: 2010.05.17/outbox.cif.g08.bks.cpg/sg2_118_cif.got.tgz:234870.got - 2010.06.03 11:33:40.
