data_PCOD9093242
_publ_section_title
;
Structure prediction by ZEFSAII (Michael W. Deem and Ramdas Pophale) SiO2 
 PCOD9093242
Probable space group: P -1
;
_chemical_formula_sum "Si O2"
_cell_formula_units_Z 16
_cell_length_a 8.226583
_cell_length_b 14.364561
_cell_length_c 9.295756
_cell_angle_alpha 57.794014
_cell_angle_beta 108.131236
_cell_angle_gamma 116.117267
_cell_volume 830.320197
_symmetry_space_group_name_H-M "P -1"
_symmetry_group_IT_number 2
_symmetry_cell_setting 'triclinic'
loop_
_space_group_symop_operation_xyz
x,y,z
-x,-y,-z
loop_
_atom_site_type_symbol
_atom_site_label
_atom_site_fract_x
_atom_site_fract_y
_atom_site_fract_z
Si Si1 0.088852 0.538283 0.837662
Si Si2 0.502869 0.705922 0.134481
Si Si3 0.634789 0.754014 0.677670
Si Si4 0.752354 0.498769 0.575670
Si Si5 0.375214 0.492351 0.790914
Si Si6 0.262227 0.247958 0.591379
Si Si7 0.981736 0.125807 0.407241
Si Si8 0.351310 0.798474 0.762263
O O1 0.220774 0.468778 0.887039
O O2 0.211753 0.673496 0.773477
O O3 0.947673 0.522585 0.681566
O O4 0.000000 0.500000 0.000000
O O5 0.369314 0.620779 0.283877
O O6 0.552104 0.614516 0.119829
O O7 0.678316 0.778729 0.214576
O O8 0.413406 0.779932 0.954726
O O9 0.530744 0.614665 0.771710
O O10 0.622874 0.781792 0.481326
O O11 0.855301 0.791872 0.720436
O O12 0.529474 0.818858 0.694175
O O13 0.716666 0.493267 0.399843
O O14 0.703350 0.612718 0.517264
O O15 0.057222 0.180049 0.540003
O O16 0.776915 0.122896 0.335084
O O17 0.000000 0.000000 0.500000
#
# Coordination Sequence:
#
# PCOD9093242 Si02
#       8
#     2   2   2   2   2   2   2   2
#     4  11  21  31  48  81 119 148 189 223 260 319
#     4  11  19  33  54  82 117 150 179 215 277 326
#     4   9  19  37  57  81 112 141 194 215 273 335
#     4  11  16  33  51  77 114 152 188 211 257 333
#     4  10  20  32  52  77 115 160 180 212 266 327
#     4   9  18  36  56  77 111 148 185 223 266 327
#     4  10  21  41  64  79 101 141 188 241 288 327
#     4  11  23  34  56  84 113 144 183 234 277 325
#
# _framework density 19.269673999999998
#
# number of rings (size 3 to 8) (size 9 to 14) (size 15 to 20)
#    0.750    1.000    5.000    1.125    0.000    4.500 
#    0.000    0.625    0.000    0.750    0.000    0.000 
#    0.000    0.000    0.000    0.000    0.000    0.000 
#
# Total GULP energy -89104.600341 kJ/mol
# GULP energy per Si atom -5569.037521 kJ/mol
# Density = 1.922582 g / cm^3
# Si number density = 19.269674 Si / 1000 Ang^3
#
#
#
# Elastic Constant Matrix: (Units=GPa)
#
#
# Indices 1 2 3 4 5 6 
#
# 1 91.3239 10.3592 41.8836 9.7453 7.0700 -15.2638
# 2 10.3592 29.5975 34.0864 6.2991 4.5693 -6.5970
# 3 41.8836 34.0864 81.0165 21.1717 21.0275 -6.2505
# 4 9.7453 6.2991 21.1717 14.1949 1.6433 3.1362
# 5 7.0700 4.5693 21.0275 1.6433 38.4120 5.0925
# 6 -15.2638 -6.5970 -6.2505 3.1362 5.0925 27.5342
#
#
#
# Elastic Compliance Matrix: (Units=1/GPa)
#
#
# Indices 1 2 3 4 5 6 
#
# 1 0.017119 0.011224 -0.013943 0.001974 0.001945 0.008430
# 2 0.011224 0.081546 -0.049945 0.027104 0.013237 0.008887
# 3 -0.013943 -0.049945 0.063430 -0.061416 -0.024412 0.006214
# 4 0.001974 0.027104 -0.061416 0.151844 0.027343 -0.028706
# 5 0.001945 0.013237 -0.024412 0.027343 0.037806 -0.011399
# 6 0.008430 0.008887 0.006214 -0.028706 -0.011399 0.049909
#
#
# Mechanical properties :
#
#
# Convention : Reuss Voigt Hill
#
# Bulk Modulus (GPa) = 17.61548 41.62180 29.61864
# Shear Modulus (GPa) = 9.50744 23.73547 16.62146
#
# Velocity S-wave (km/s) = 2.22365 3.51344 2.94014
# Velocity P-wave (km/s) = 3.96916 6.17297 5.18940
#
# Compressibility (1/GPa) = 0.05676826
#
# Stress axis : x y z
#
# Youngs Moduli (GPa) = 58.41434 12.26294 15.76548
#
# Poissons Ratio (x) = -0.13764 0.21982
# Poissons Ratio (y) = -0.65565 0.78740
# Poissons Ratio (z) = 0.81446 0.61247
#
# Static dielectric constant tensor:
#      x y z
#    x 1.761000 0.021760 0.007380 
#    y 0.021760 1.678540 0.023380 
#    z 0.007380 0.023380 1.701110 
# 
# From -- ./inp_files/200329.got.cif
#   From: 2010.05.17/outbox.cif.g08.bks.cpg/sg2_101_cif.got.tgz:200329.got - 2010.06.03 11:33:40.
