data_PCOD9093476
_publ_section_title
;
Structure prediction by ZEFSAII (Michael W. Deem and Ramdas Pophale) SiO2 
 PCOD9093476
Probable space group: P -1
;
_chemical_formula_sum "Si O2"
_cell_formula_units_Z 16
_cell_length_a 10.567492
_cell_length_b 7.322875
_cell_length_c 11.155870
_cell_angle_alpha 57.039466
_cell_angle_beta 123.011563
_cell_angle_gamma 122.778677
_cell_volume 569.393219
_symmetry_space_group_name_H-M "P -1"
_symmetry_group_IT_number 2
_symmetry_cell_setting 'triclinic'
loop_
_space_group_symop_operation_xyz
x,y,z
-x,-y,-z
loop_
_atom_site_type_symbol
_atom_site_label
_atom_site_fract_x
_atom_site_fract_y
_atom_site_fract_z
Si Si1 0.361406 0.163519 0.015797
Si Si2 0.155381 0.498201 0.811910
Si Si3 0.550414 0.576531 0.270866
Si Si4 0.966798 0.179114 0.013807
Si Si5 0.918905 0.853347 0.657442
Si Si6 0.259748 0.003308 0.653742
Si Si7 0.382133 0.078642 0.327332
Si Si8 0.166669 0.561981 0.426800
O O1 0.456835 0.277864 0.904435
O O2 0.430097 0.148024 0.188147
O O3 0.000000 0.000000 0.000000
O O4 0.221186 0.912241 0.016029
O O5 0.259225 0.336215 0.913404
O O6 0.023979 0.477456 0.647013
O O7 0.268956 0.761288 0.781684
O O8 0.048806 0.423543 0.904219
O O9 0.586250 0.774193 0.319966
O O10 0.402488 0.338096 0.293003
O O11 0.709256 0.495017 0.396146
O O12 0.060879 0.173099 0.184434
O O13 0.803255 0.996804 0.513359
O O14 0.843628 0.621467 0.621595
O O15 0.100370 0.995743 0.651504
O O16 0.500000 0.000000 0.500000
O O17 0.237640 0.832131 0.329410
#
# Coordination Sequence:
#
# PCOD9093476 Si02
#       8
#     2   2   2   2   2   2   2   2
#     4  11  21  36  53  84 116 144 189 241 283 336
#     4  10  21  34  53  86 120 142 180 230 306 335
#     4  10  20  36  59  82 113 151 196 234 267 335
#     4  10  20  33  50  83 121 149 178 231 294 339
#     4   9  17  33  55  80 121 146 186 237 279 344
#     4   9  18  34  55  84 111 154 187 228 288 339
#     4  10  21  38  57  79 110 154 199 235 271 336
#     4   9  19  35  57  88 112 146 190 231 287 341
#
# _framework density 28.100088
#
# number of rings (size 3 to 8) (size 9 to 14) (size 15 to 20)
#    0.000    2.250    2.500    1.125    0.000    3.500 
#    2.250    0.625    0.000    1.500    0.000   14.875 
#    0.000    0.000    0.000    0.000    0.000    0.000 
#
# Total GULP energy -89454.367446 kJ/mol
# GULP energy per Si atom -5590.897965 kJ/mol
# Density = 2.803613 g / cm^3
# Si number density = 28.100088 Si / 1000 Ang^3
#
#
#
# Elastic Constant Matrix: (Units=GPa)
#
#
# Indices 1 2 3 4 5 6 
#
# 1 57.2862 24.9668 17.6090 0.5443 6.5971 3.9402
# 2 24.9668 208.8404 31.1833 -6.4074 -15.1462 31.5000
# 3 17.6090 31.1833 228.6014 5.4229 -13.6073 1.5902
# 4 0.5443 -6.4074 5.4229 40.1394 -0.9976 3.0506
# 5 6.5971 -15.1462 -13.6073 -0.9976 27.3398 -2.0731
# 6 3.9402 31.5000 1.5902 3.0506 -2.0731 25.3464
#
#
#
# Elastic Compliance Matrix: (Units=1/GPa)
#
#
# Indices 1 2 3 4 5 6 
#
# 1 0.019936 -0.002651 -0.001580 -0.000641 -0.007105 -0.000210
# 2 -0.002651 0.006665 -0.000482 0.001844 0.003570 -0.007771
# 3 -0.001580 -0.000482 0.004722 -0.000695 0.002502 0.000837
# 4 -0.000641 0.001844 -0.000695 0.025735 0.001380 -0.005133
# 5 -0.007105 0.003570 0.002502 0.001380 0.041545 -0.000257
# 6 -0.000210 -0.007771 0.000837 -0.005133 -0.000257 0.049687
#
#
# Mechanical properties :
#
#
# Convention : Reuss Voigt Hill
#
# Bulk Modulus (GPa) = 45.67050 71.36069 58.51560
# Shear Modulus (GPa) = 30.30044 46.62972 38.46508
#
# Velocity S-wave (km/s) = 3.28732 4.07801 3.70382
# Velocity P-wave (km/s) = 5.54046 6.90101 6.25782
#
# Compressibility (1/GPa) = 0.02189597
#
# Stress axis : x y z
#
# Youngs Moduli (GPa) = 50.16067 150.04277 211.79551
#
# Poissons Ratio (x) = 0.39771 0.33471
# Poissons Ratio (y) = 0.13296 0.10212
# Poissons Ratio (z) = 0.07927 0.07234
#
# Static dielectric constant tensor:
#      x y z
#    x 2.291550 -0.028500 0.019050 
#    y -0.028500 2.177860 -0.001580 
#    z 0.019050 -0.001580 2.203230 
# 
# From -- ./inp_files/444227.got.cif
#   From: 2010.05.17/outbox.cif.g08.bks.cpg/sg2_223_cif.got.tgz:444227.got - 2010.06.03 11:33:40.
