data_PCOD9093074
_publ_section_title
;
Structure prediction by ZEFSAII (Michael W. Deem and Ramdas Pophale) SiO2 
 PCOD9093074
Probable space group: P -1
;
_chemical_formula_sum "Si O2"
_cell_formula_units_Z 12
_cell_length_a 16.117626
_cell_length_b 6.536209
_cell_length_c 11.931274
_cell_angle_alpha 84.086560
_cell_angle_beta 22.264031
_cell_angle_gamma 73.982908
_cell_volume 415.767285
_symmetry_space_group_name_H-M "P -1"
_symmetry_group_IT_number 2
_symmetry_cell_setting 'triclinic'
loop_
_space_group_symop_operation_xyz
x,y,z
-x,-y,-z
loop_
_atom_site_type_symbol
_atom_site_label
_atom_site_fract_x
_atom_site_fract_y
_atom_site_fract_z
Si Si1 0.986044 0.917184 0.400187
Si Si2 0.840001 0.524577 0.566226
Si Si3 0.192646 0.225858 0.800577
Si Si4 0.698450 0.602056 0.131897
Si Si5 0.914156 0.949738 0.258136
Si Si6 0.522886 0.450994 0.165194
O O1 0.872778 0.739971 0.556997
O O2 0.828474 0.066741 0.482793
O O3 0.279112 0.794616 0.013507
O O4 0.000000 0.000000 0.500000
O O5 0.118264 0.349368 0.182455
O O6 0.689280 0.481039 0.855986
O O7 0.685319 0.569930 0.642803
O O8 0.360061 0.248613 0.689671
O O9 0.047083 0.092318 0.037078
O O10 0.000000 0.500000 0.000000
O O11 0.270376 0.091942 0.591426
O O12 0.486750 0.610534 0.311420
O O13 0.875400 0.326887 0.965208
#
# Coordination Sequence:
#
# PCOD9093074 Si02
#       6
#     2   2   2   2   2   2
#     4  10  20  31  52  76 103 138 166 205 256 309
#     4   9  18  32  48  73 105 133 169 211 249 301
#     4   9  16  29  53  75  99 131 171 213 254 301
#     4   9  17  30  53  73  97 137 170 207 254 307
#     4   8  17  30  46  78 102 128 171 213 252 296
#     4   9  18  32  48  73 105 133 169 211 249 301
#
# _framework density 28.862300000000001
#
# number of rings (size 3 to 8) (size 9 to 14) (size 15 to 20)
#    0.000    3.333    0.000    2.000    4.667    0.667 
#    0.000    0.000    0.000   25.000    0.000   86.333 
#    0.000    0.000    0.000    0.000    0.000    0.000 
#
# Total GULP energy -66929.119843 kJ/mol
# GULP energy per Si atom -5577.426654 kJ/mol
# Density = 2.879661 g / cm^3
# Si number density = 28.862300 Si / 1000 Ang^3
#
#
#
# Elastic Constant Matrix: (Units=GPa)
#
#
# Indices 1 2 3 4 5 6 
#
# 1 371.5413 59.0246 44.5074 -0.5564 -39.7342 65.4847
# 2 59.0246 127.4327 28.5238 -14.7750 9.5009 31.7886
# 3 44.5074 28.5238 94.8356 -23.2722 -11.7879 2.0327
# 4 -0.5564 -14.7750 -23.2722 33.3192 -1.5299 13.5590
# 5 -39.7342 9.5009 -11.7879 -1.5299 61.6430 -5.3481
# 6 65.4847 31.7886 2.0327 13.5590 -5.3481 62.1047
#
#
#
# Elastic Compliance Matrix: (Units=1/GPa)
#
#
# Indices 1 2 3 4 5 6 
#
# 1 0.003776 -0.000722 -0.001105 0.000492 0.002042 -0.003507
# 2 -0.000722 0.011121 -0.001698 0.006241 -0.002912 -0.006489
# 3 -0.001105 -0.001698 0.014182 0.009353 0.002471 -0.000259
# 4 0.000492 0.006241 0.009353 0.044963 0.001067 -0.013744
# 5 0.002042 -0.002912 0.002471 0.001067 0.018540 0.000620
# 6 -0.003507 -0.006489 -0.000259 -0.013744 0.000620 0.026184
#
#
# Mechanical properties :
#
#
# Convention : Reuss Voigt Hill
#
# Bulk Modulus (GPa) = 45.39412 95.32459 70.35935
# Shear Modulus (GPa) = 37.54940 62.19695 49.87318
#
# Velocity S-wave (km/s) = 3.61083 4.64719 4.16140
# Velocity P-wave (km/s) = 5.75726 7.86729 6.89348
#
# Compressibility (1/GPa) = 0.02202929
#
# Stress axis : x y z
#
# Youngs Moduli (GPa) = 264.84501 89.92048 70.51331
#
# Poissons Ratio (x) = 0.06490 0.07793
# Poissons Ratio (y) = 0.19115 0.11970
# Poissons Ratio (z) = 0.29272 0.15265
#
# Static dielectric constant tensor:
#      x y z
#    x 2.337730 -0.039120 0.084460 
#    y -0.039120 2.548330 0.126340 
#    z 0.084460 0.126340 2.193560 
# 
# From -- ./inp_files/390107.got.cif
#   From: 2010.05.17/outbox.cif.g08.bks.cpg/sg2_196_cif.got.tgz:390107.got - 2010.06.03 11:33:40.
