data_PCOD9093289
_publ_section_title
;
Structure prediction by ZEFSAII (Michael W. Deem and Ramdas Pophale) SiO2 
 PCOD9093289
Probable space group: P -1
;
_chemical_formula_sum "Si O2"
_cell_formula_units_Z 16
_cell_length_a 15.859200
_cell_length_b 16.405518
_cell_length_c 16.921301
_cell_angle_alpha 163.047127
_cell_angle_beta 141.428875
_cell_angle_gamma 38.558687
_cell_volume 786.166640
_symmetry_space_group_name_H-M "P -1"
_symmetry_group_IT_number 2
_symmetry_cell_setting 'triclinic'
loop_
_space_group_symop_operation_xyz
x,y,z
-x,-y,-z
loop_
_atom_site_type_symbol
_atom_site_label
_atom_site_fract_x
_atom_site_fract_y
_atom_site_fract_z
Si Si1 0.044657 0.087958 0.795170
Si Si2 0.877648 0.862507 0.819391
Si Si3 0.999828 0.534587 0.315006
Si Si4 0.770881 0.082756 0.486859
Si Si5 0.313532 0.407607 0.828184
Si Si6 0.294585 0.538735 0.755236
Si Si7 0.420913 0.802140 0.397717
Si Si8 0.162700 0.376538 0.018202
O O1 0.914734 0.051975 0.611811
O O2 0.076110 0.796160 0.596464
O O3 0.001243 0.348226 0.064371
O O4 0.161857 0.172229 0.903078
O O5 0.931169 0.672928 0.758165
O O6 0.820183 0.654189 0.523532
O O7 0.760882 0.136220 0.007107
O O8 0.000000 0.000000 0.000000
O O9 0.841211 0.651241 0.330192
O O10 0.651804 0.144480 0.521482
O O11 0.767910 0.348578 0.672195
O O12 0.777029 0.802088 0.179627
O O13 0.328582 0.522476 0.858190
O O14 0.417660 0.112823 0.646195
O O15 0.335631 0.634739 0.120993
O O16 0.428196 0.387431 0.665509
O O17 0.000000 0.500000 0.000000
#
# Coordination Sequence:
#
# PCOD9093289 Si02
#       8
#     2   2   2   2   2   2   2   2
#     4  11  20  35  54  89 120 153 196 238 298 362
#     4  12  26  43  63  85 117 162 213 255 298 337
#     4  12  22  36  61  86 118 160 197 245 300 345
#     4  11  19  34  55  86 123 159 185 234 304 365
#     4  12  22  39  61  88 125 158 202 243 304 359
#     4  12  26  43  62  86 121 166 208 251 290 353
#     4  12  24  39  61  92 124 161 202 239 301 372
#     4  10  20  32  54  84 124 158 186 231 300 371
#
# _framework density 20.35192
#
# number of rings (size 3 to 8) (size 9 to 14) (size 15 to 20)
#    0.000    0.500    3.750    7.875    1.750    0.000 
#    0.000    0.000    0.000    0.000    0.000   17.500 
#    0.000    0.000    0.000    0.000    0.000    0.000 
#
# Total GULP energy -89524.696387 kJ/mol
# GULP energy per Si atom -5595.293524 kJ/mol
# Density = 2.030560 g / cm^3
# Si number density = 20.351920 Si / 1000 Ang^3
#
#
#
# Elastic Constant Matrix: (Units=GPa)
#
#
# Indices 1 2 3 4 5 6 
#
# 1 74.4883 36.9940 8.0415 12.6873 -0.9058 10.6942
# 2 36.9940 65.9702 17.0901 26.7586 4.2932 2.4139
# 3 8.0415 17.0901 86.0371 22.4679 -4.4832 0.7856
# 4 12.6873 26.7586 22.4679 33.3310 1.0693 3.8804
# 5 -0.9058 4.2932 -4.4832 1.0693 36.1081 13.0854
# 6 10.6942 2.4139 0.7856 3.8804 13.0854 21.4503
#
#
#
# Elastic Compliance Matrix: (Units=1/GPa)
#
#
# Indices 1 2 3 4 5 6 
#
# 1 0.021779 -0.013920 0.000136 0.004252 0.007369 -0.014562
# 2 -0.013920 0.031661 0.000058 -0.021305 -0.007825 0.012002
# 3 0.000136 0.000058 0.014259 -0.009765 0.002095 -0.000108
# 4 0.004252 -0.021305 -0.009765 0.053273 0.003995 -0.011439
# 5 0.007369 -0.007825 0.002095 0.003995 0.038840 -0.027287
# 6 -0.014562 0.012002 -0.000108 -0.011439 -0.027287 0.071248
#
#
# Mechanical properties :
#
#
# Convention : Reuss Voigt Hill
#
# Bulk Modulus (GPa) = 24.84624 38.97186 31.90905
# Shear Modulus (GPa) = 18.38730 29.13589 23.76160
#
# Velocity S-wave (km/s) = 3.00903 3.78776 3.42063
# Velocity P-wave (km/s) = 4.93023 6.19032 5.59586
#
# Compressibility (1/GPa) = 0.04024755
#
# Stress axis : x y z
#
# Youngs Moduli (GPa) = 45.91497 31.58499 70.13228
#
# Poissons Ratio (x) = 0.43966 -0.00954
# Poissons Ratio (y) = 0.63913 -0.00409
# Poissons Ratio (z) = -0.00624 -0.00184
#
# Static dielectric constant tensor:
#      x y z
#    x 1.744240 0.009490 0.023810 
#    y 0.009490 1.737380 0.008440 
#    z 0.023810 0.008440 1.736150 
# 
# From -- ./inp_files/439268.got.cif
#   From: 2010.05.17/outbox.cif.g08.bks.cpg/sg2_220_cif.got.tgz:439268.got - 2010.06.03 11:33:40.
