data_PCOD9093577
_publ_section_title
;
Structure prediction by ZEFSAII (Michael W. Deem and Ramdas Pophale) SiO2 
 PCOD9093577
Probable space group: P -1
;
_chemical_formula_sum "Si O2"
_cell_formula_units_Z 16
_cell_length_a 17.573645
_cell_length_b 9.101446
_cell_length_c 9.683535
_cell_angle_alpha 35.947610
_cell_angle_beta 55.174773
_cell_angle_gamma 50.013376
_cell_volume 692.187456
_symmetry_space_group_name_H-M "P -1"
_symmetry_group_IT_number 2
_symmetry_cell_setting 'triclinic'
loop_
_space_group_symop_operation_xyz
x,y,z
-x,-y,-z
loop_
_atom_site_type_symbol
_atom_site_label
_atom_site_fract_x
_atom_site_fract_y
_atom_site_fract_z
Si Si1 0.438714 0.167985 0.138075
Si Si2 0.584734 0.199096 0.141449
Si Si3 0.074260 0.900746 0.176601
Si Si4 0.885160 0.362462 0.960606
Si Si5 0.736940 0.292802 0.704747
Si Si6 0.709376 0.797763 0.515380
Si Si7 0.130170 0.117539 0.537198
Si Si8 0.571177 0.288126 0.692291
O O1 0.526755 0.020521 0.270205
O O2 0.341755 0.303724 0.229022
O O3 0.408059 0.992851 0.192507
O O4 0.497221 0.314964 0.877187
O O5 0.631336 0.084005 0.327036
O O6 0.500000 0.500000 0.000000
O O7 0.675113 0.192107 0.956618
O O8 0.126791 0.746319 0.099269
O O9 0.148241 0.874567 0.247019
O O10 0.988666 0.784710 0.391600
O O11 0.004715 0.209339 0.978380
O O12 0.853941 0.684505 0.746365
O O13 0.839517 0.209614 0.235363
O O14 0.724904 0.594370 0.528759
O O15 0.676140 0.298939 0.623519
O O16 0.809319 0.825006 0.442363
O O17 0.500000 0.500000 0.500000
#
# Coordination Sequence:
#
# PCOD9093577 Si02
#       8
#     2   2   2   2   2   2   2   2
#     4  10  23  40  57  83 116 155 205 238 313 357
#     4  11  23  36  55  90 123 153 195 264 304 368
#     4   9  19  31  53  82 125 156 193 246 301 376
#     4   9  18  31  52  79 131 161 185 248 304 370
#     4  11  22  36  61  91 118 157 207 244 315 353
#     4  12  23  33  63  90 120 157 198 256 309 375
#     4  10  20  33  53  86 127 156 197 239 315 361
#     4  10  23  42  61  79 116 164 201 256 292 368
#
# _framework density 23.115124999999999
#
# number of rings (size 3 to 8) (size 9 to 14) (size 15 to 20)
#    0.750    1.000    2.500    2.250    3.500    0.000 
#    0.000    0.000    0.000    0.750    0.000    1.750 
#    0.000    0.000    0.000    0.000    0.000    0.000 
#
# Total GULP energy -89071.772031 kJ/mol
# GULP energy per Si atom -5566.985752 kJ/mol
# Density = 2.306251 g / cm^3
# Si number density = 23.115125 Si / 1000 Ang^3
#
#
#
# Elastic Constant Matrix: (Units=GPa)
#
#
# Indices 1 2 3 4 5 6 
#
# 1 206.5906 35.5230 28.5464 -1.4456 -8.0085 -31.8478
# 2 35.5230 24.1203 14.4474 -5.2275 1.9554 -3.0661
# 3 28.5464 14.4474 111.9985 -20.0749 1.1678 -15.4398
# 4 -1.4456 -5.2275 -20.0749 21.3410 -9.6196 -0.7071
# 5 -8.0085 1.9554 1.1678 -9.6196 35.7942 1.9409
# 6 -31.8478 -3.0661 -15.4398 -0.7071 1.9409 26.7239
#
#
#
# Elastic Compliance Matrix: (Units=1/GPa)
#
#
# Indices 1 2 3 4 5 6 
#
# 1 0.008115 -0.011439 0.000411 -0.000794 0.001756 0.008448
# 2 -0.011439 0.062094 -0.004808 0.008220 -0.003106 -0.008842
# 3 0.000411 -0.004808 0.012623 0.012245 0.002835 0.007349
# 4 -0.000794 0.008220 0.012245 0.068203 0.016888 0.007649
# 5 0.001756 -0.003106 0.002835 0.016888 0.032868 0.001434
# 6 0.008448 -0.008842 0.007349 0.007649 0.001434 0.050817
#
#
# Mechanical properties :
#
#
# Convention : Reuss Voigt Hill
#
# Bulk Modulus (GPa) = 19.54600 55.52698 37.53649
# Shear Modulus (GPa) = 17.64018 34.38466 26.01242
#
# Velocity S-wave (km/s) = 2.76550 3.86105 3.35825
# Velocity P-wave (km/s) = 4.32107 6.62955 5.59565
#
# Compressibility (1/GPa) = 0.05116137
#
# Stress axis : x y z
#
# Youngs Moduli (GPa) = 123.22300 16.10469 79.22338
#
# Poissons Ratio (x) = 0.18421 -0.03256
# Poissons Ratio (y) = 1.40950 0.38087
# Poissons Ratio (z) = -0.05064 0.07742
#
# Static dielectric constant tensor:
#      x y z
#    x 1.956050 0.038010 0.019040 
#    y 0.038010 1.917060 -0.058290 
#    z 0.019040 -0.058290 1.961400 
# 
# From -- ./inp_files/463412.got.cif
#   From: 2010.05.17/outbox.cif.g08.bks.cpg/sg2_232_cif.got.tgz:463412.got - 2010.06.03 11:33:40.
