data_PCOD9093550
_publ_section_title
;
Structure prediction by ZEFSAII (Michael W. Deem and Ramdas Pophale) SiO2 
 PCOD9093550
Probable space group: P -1
;
_chemical_formula_sum "Si O2"
_cell_formula_units_Z 12
_cell_length_a 13.366855
_cell_length_b 17.593528
_cell_length_c 10.426919
_cell_angle_alpha 35.053933
_cell_angle_beta 38.787039
_cell_angle_gamma 20.252182
_cell_volume 486.693814
_symmetry_space_group_name_H-M "P -1"
_symmetry_group_IT_number 2
_symmetry_cell_setting 'triclinic'
loop_
_space_group_symop_operation_xyz
x,y,z
-x,-y,-z
loop_
_atom_site_type_symbol
_atom_site_label
_atom_site_fract_x
_atom_site_fract_y
_atom_site_fract_z
Si Si1 0.088477 0.246180 0.666452
Si Si2 0.063857 0.279021 0.124546
Si Si3 0.763890 0.575655 0.775002
Si Si4 0.587182 0.419633 0.874232
Si Si5 0.722150 0.274981 0.491191
Si Si6 0.494662 0.172624 0.968595
O O1 0.900330 0.267813 0.749862
O O2 0.227860 0.274132 0.416170
O O3 0.853876 0.480757 0.670650
O O4 0.320196 0.015230 0.842633
O O5 0.014000 0.160001 0.374765
O O6 0.386106 0.627446 0.680889
O O7 0.009264 0.340750 0.943649
O O8 0.651320 0.845475 0.939666
O O9 0.785446 0.550059 0.086971
O O10 0.472213 0.695231 0.929455
O O11 0.500000 0.500000 0.000000
O O12 0.500000 0.500000 0.500000
O O13 0.696452 0.139567 0.739855
#
# Coordination Sequence:
#
# PCOD9093550 Si02
#       6
#     2   2   2   2   2   2
#     4  10  20  33  53  79 104 136 177 217 260 312
#     4   9  19  36  52  72 106 140 172 215 263 309
#     4   9  19  36  52  72 106 140 172 215 263 309
#     4   9  18  35  55  74 103 141 174 213 263 311
#     4   9  18  35  55  74 103 141 174 213 263 311
#     4  10  20  33  53  79 104 136 177 217 260 312
#
# _framework density 24.656158999999999
#
# number of rings (size 3 to 8) (size 9 to 14) (size 15 to 20)
#    0.000    2.667    0.000    1.000    0.000    2.667 
#    0.000   15.000    0.000    0.000    0.000    0.000 
#    0.000    0.000    0.000    0.000    0.000    0.000 
#
# Total GULP energy -67025.688680 kJ/mol
# GULP energy per Si atom -5585.474057 kJ/mol
# Density = 2.460004 g / cm^3
# Si number density = 24.656159 Si / 1000 Ang^3
#
#
#
# Elastic Constant Matrix: (Units=GPa)
#
#
# Indices 1 2 3 4 5 6 
#
# 1 107.3267 36.1725 69.1865 22.2955 -32.1861 -34.2694
# 2 36.1725 66.7773 47.0866 -7.8611 -36.1950 3.3632
# 3 69.1865 47.0866 250.5190 18.9790 -60.0286 -45.7032
# 4 22.2955 -7.8611 18.9790 7.1492 -18.5272 7.2022
# 5 -32.1861 -36.1950 -60.0286 -18.5272 54.5380 32.4595
# 6 -34.2694 3.3632 -45.7032 7.2022 32.4595 49.2799
#
#
#
# Elastic Compliance Matrix: (Units=1/GPa)
#
#
# Indices 1 2 3 4 5 6 
#
# 1 0.009904 0.002990 -0.002050 0.008644 0.010552 -0.003431
# 2 0.002990 0.007854 -0.000599 -0.021361 -0.005567 0.007777
# 3 -0.002050 -0.000599 0.005881 0.000625 0.004459 0.001042
# 4 0.008644 -0.021361 0.000625 -0.006365 -0.026141 0.026197
# 5 0.010552 -0.005567 0.004459 -0.026141 0.012446 0.007475
# 6 -0.003431 0.007777 0.001042 0.026197 0.007475 0.009589
#
#
# Mechanical properties :
#
#
# Convention : Reuss Voigt Hill
#
# Bulk Modulus (GPa) = 41.11450 81.05713 61.08582
# Shear Modulus (GPa) = 106.98571 40.33860 73.66216
#
# Velocity S-wave (km/s) = 6.59434 4.04919 5.47180
# Velocity P-wave (km/s) = 8.64244 7.40322 8.04672
#
# Compressibility (1/GPa) = 0.02432232
#
# Stress axis : x y z
#
# Youngs Moduli (GPa) = 100.96800 127.32573 170.02654
#
# Poissons Ratio (x) = -0.38071 0.34849
# Poissons Ratio (y) = -0.30190 0.10184
# Poissons Ratio (z) = 0.20695 0.07626
#
# Static dielectric constant tensor:
#      x y z
#    x 0.397670 -0.329110 -0.102970 
#    y -0.329110 1.859170 0.047480 
#    z -0.102970 0.047480 1.956630 
# 
# From -- ./inp_files/74546.got.cif
#   From: 2010.05.17/outbox.cif.g08.bks.cpg/sg2_38_cif.got.tgz:74546.got - 2010.06.03 11:33:40.
