data_PCOD9093797
_publ_section_title
;
Structure prediction by ZEFSAII (Michael W. Deem and Ramdas Pophale) SiO2 
 PCOD9093797
Probable space group: P -1
;
_chemical_formula_sum "Si O2"
_cell_formula_units_Z 16
_cell_length_a 7.822820
_cell_length_b 6.799451
_cell_length_c 16.136522
_cell_angle_alpha 117.982596
_cell_angle_beta 93.048983
_cell_angle_gamma 117.914666
_cell_volume 627.499725
_symmetry_space_group_name_H-M "P -1"
_symmetry_group_IT_number 2
_symmetry_cell_setting 'triclinic'
loop_
_space_group_symop_operation_xyz
x,y,z
-x,-y,-z
loop_
_atom_site_type_symbol
_atom_site_label
_atom_site_fract_x
_atom_site_fract_y
_atom_site_fract_z
Si Si1 0.117862 0.751580 0.112331
Si Si2 0.135471 0.387855 0.668671
Si Si3 0.088712 0.054445 0.292449
Si Si4 0.159560 0.603082 0.448266
Si Si5 0.808383 0.314219 0.118574
Si Si6 0.500898 0.792979 0.160527
Si Si7 0.454860 0.800234 0.634986
Si Si8 0.395298 0.253618 0.027587
O O1 0.056903 0.955190 0.175637
O O2 0.356099 0.878593 0.134046
O O3 0.033162 0.577079 0.160427
O O4 0.000000 0.500000 0.000000
O O5 0.919808 0.269888 0.592294
O O6 0.204986 0.654949 0.777749
O O7 0.312488 0.519961 0.628460
O O8 0.089291 0.160111 0.690026
O O9 0.117706 0.336493 0.352806
O O10 0.310302 0.108767 0.333287
O O11 0.377954 0.762917 0.531395
O O12 0.000000 0.500000 0.500000
O O13 0.618492 0.322401 0.077272
O O14 0.778824 0.057211 0.021577
O O15 0.368181 0.472169 0.112124
O O16 0.577810 0.978106 0.279770
O O17 0.613809 0.768777 0.078129
#
# Coordination Sequence:
#
# PCOD9093797 Si02
#       8
#     2   2   2   2   2   2   2   2
#     4  10  20  36  57  86 122 157 192 246 303 359
#     4  10  22  41  63  92 125 160 207 258 304 370
#     4  10  23  41  65  92 124 165 206 252 314 368
#     4  10  23  42  66  93 123 162 211 258 309 365
#     4  10  20  36  57  84 121 156 200 243 301 367
#     4  10  20  36  56  84 113 154 199 241 295 361
#     4  10  21  41  64  87 126 160 207 257 309 362
#     4  10  20  33  58  82 113 156 196 238 296 359
#
# _framework density 25.498017999999998
#
# number of rings (size 3 to 8) (size 9 to 14) (size 15 to 20)
#    0.000    2.000    2.500    0.375    0.000    8.000 
#    0.000    8.750    0.000    0.000    0.000    0.000 
#    0.000    0.000    0.000    0.000    0.000    0.000 
#
# Total GULP energy -89111.370759 kJ/mol
# GULP energy per Si atom -5569.460672 kJ/mol
# Density = 2.543998 g / cm^3
# Si number density = 25.498018 Si / 1000 Ang^3
#
#
#
# Elastic Constant Matrix: (Units=GPa)
#
#
# Indices 1 2 3 4 5 6 
#
# 1 77.5131 1.3669 12.8557 0.0096 9.5846 16.6431
# 2 1.3669 45.0758 -11.4935 4.3254 -1.5105 15.1678
# 3 12.8557 -11.4935 98.0473 7.1905 -0.4642 -5.9560
# 4 0.0096 4.3254 7.1905 29.8887 -2.3929 4.2553
# 5 9.5846 -1.5105 -0.4642 -2.3929 40.2876 9.5953
# 6 16.6431 15.1678 -5.9560 4.2553 9.5953 25.6345
#
#
#
# Elastic Compliance Matrix: (Units=1/GPa)
#
#
# Indices 1 2 3 4 5 6 
#
# 1 0.016161 0.002989 -0.002711 0.002025 -0.000542 -0.013024
# 2 0.002989 0.029973 0.001975 -0.001397 0.005351 -0.020988
# 3 -0.002711 0.001975 0.011285 -0.003582 -0.000297 0.003920
# 4 0.002025 -0.001397 -0.003582 0.036044 0.003628 -0.008662
# 5 -0.000542 0.005351 -0.000297 0.003628 0.028757 -0.014250
# 6 -0.013024 -0.020988 0.003920 -0.008662 -0.014250 0.067567
#
#
# Mechanical properties :
#
#
# Convention : Reuss Voigt Hill
#
# Bulk Modulus (GPa) = 16.14854 25.12159 20.63507
# Shear Modulus (GPa) = 24.28065 33.68929 28.98497
#
# Velocity S-wave (km/s) = 3.08921 3.63885 3.37524
# Velocity P-wave (km/s) = 4.36707 5.24678 4.82701
#
# Compressibility (1/GPa) = 0.06192509
#
# Stress axis : x y z
#
# Youngs Moduli (GPa) = 61.87659 33.36286 88.60966
#
# Poissons Ratio (x) = -0.09972 0.24022
# Poissons Ratio (y) = -0.18494 -0.17497
# Poissons Ratio (z) = 0.16774 -0.06588
#
# Static dielectric constant tensor:
#      x y z
#    x 2.084930 -0.028520 0.027010 
#    y -0.028520 2.333980 -0.086260 
#    z 0.027010 -0.086260 2.147880 
# 
# From -- ./inp_files/556537.got.cif
#   From: 2010.05.17/outbox.cif.g08.bks.cpg/sg2_279_cif.got.tgz:556537.got - 2010.06.03 11:33:40.
