data_PCOD9093744
_publ_section_title
;
Structure prediction by ZEFSAII (Michael W. Deem and Ramdas Pophale) SiO2 
 PCOD9093744
Probable space group: P -1
;
_chemical_formula_sum "Si O2"
_cell_formula_units_Z 16
_cell_length_a 31.794588
_cell_length_b 15.517186
_cell_length_c 9.426917
_cell_angle_alpha 130.464615
_cell_angle_beta 40.649057
_cell_angle_gamma 162.204404
_cell_volume 860.655879
_symmetry_space_group_name_H-M "P -1"
_symmetry_group_IT_number 2
_symmetry_cell_setting 'triclinic'
loop_
_space_group_symop_operation_xyz
x,y,z
-x,-y,-z
loop_
_atom_site_type_symbol
_atom_site_label
_atom_site_fract_x
_atom_site_fract_y
_atom_site_fract_z
Si Si1 0.682495 0.856838 0.902124
Si Si2 0.559754 0.902019 0.186058
Si Si3 0.702898 0.407731 0.038946
Si Si4 0.193336 0.309964 0.653503
Si Si5 0.608077 0.255699 0.800259
Si Si6 0.005702 0.769853 0.553741
Si Si7 0.962167 0.305976 0.880658
Si Si8 0.159569 0.467612 0.740160
O O1 0.825615 0.028489 0.619427
O O2 0.767415 0.982219 0.975166
O O3 0.500000 0.500000 0.000000
O O4 0.657061 0.943728 0.012274
O O5 0.383230 0.613540 0.421079
O O6 0.498785 0.823615 0.097239
O O7 0.683594 0.206041 0.242608
O O8 0.674607 0.396335 0.935828
O O9 0.843810 0.535070 0.814780
O O10 0.774797 0.620357 0.186469
O O11 0.522244 0.062593 0.186906
O O12 0.104992 0.279595 0.785547
O O13 0.086349 0.024312 0.584645
O O14 0.761118 0.467533 0.530184
O O15 0.939707 0.593499 0.396472
O O16 0.016443 0.322742 0.896197
O O17 0.000000 0.500000 0.000000
#
# Coordination Sequence:
#
# PCOD9093744 Si02
#       8
#     2   2   2   2   2   2   2   2
#     4  10  20  37  58  81 111 151 191 239 282 332
#     4  11  18  36  60  86 108 146 200 240 275 325
#     4  11  20  36  53  84 120 153 182 223 299 348
#     4  11  21  34  60  82 118 152 182 242 286 342
#     4  10  20  33  57  82 116 146 187 243 274 334
#     4  10  22  36  54  85 112 155 185 230 289 347
#     4  10  20  35  59  83 110 147 189 244 274 332
#     4  11  18  36  57  89 110 140 201 238 279 322
#
# _framework density 18.590472999999999
#
# number of rings (size 3 to 8) (size 9 to 14) (size 15 to 20)
#    0.750    0.750    6.250    1.125    0.000    0.500 
#    2.250    0.625    0.000    0.750    0.000    0.000 
#    0.000    0.000    0.000    0.000    0.000    0.000 
#
# Total GULP energy -89107.151853 kJ/mol
# GULP energy per Si atom -5569.196991 kJ/mol
# Density = 1.854816 g / cm^3
# Si number density = 18.590473 Si / 1000 Ang^3
#
#
#
# Elastic Constant Matrix: (Units=GPa)
#
#
# Indices 1 2 3 4 5 6 
#
# 1 129.4356 25.2082 27.4014 11.5129 -16.4388 14.8523
# 2 25.2082 71.8818 14.9405 12.7837 0.0624 6.1202
# 3 27.4014 14.9405 43.8784 16.0033 0.9382 7.7678
# 4 11.5129 12.7837 16.0033 23.6148 3.5925 -10.6220
# 5 -16.4388 0.0624 0.9382 3.5925 31.6734 2.9202
# 6 14.8523 6.1202 7.7678 -10.6220 2.9202 28.8856
#
#
#
# Elastic Compliance Matrix: (Units=1/GPa)
#
#
# Indices 1 2 3 4 5 6 
#
# 1 0.011131 -0.001223 -0.002031 -0.008514 0.007618 -0.008819
# 2 -0.001223 0.017247 0.001465 -0.013900 0.001667 -0.008699
# 3 -0.002031 0.001465 0.043698 -0.042356 0.004951 -0.027093
# 4 -0.008514 -0.013900 -0.042356 0.114395 -0.021920 0.062995
# 5 0.007618 0.001667 0.004951 -0.021920 0.039490 -0.017654
# 6 -0.008819 -0.008699 -0.027093 0.062995 -0.017654 0.073232
#
#
# Mechanical properties :
#
#
# Convention : Reuss Voigt Hill
#
# Bulk Modulus (GPa) = 14.59894 42.25509 28.42702
# Shear Modulus (GPa) = 15.35603 28.67781 22.01692
#
# Velocity S-wave (km/s) = 2.87717 3.93187 3.44512
# Velocity P-wave (km/s) = 4.34827 6.58723 5.58117
#
# Compressibility (1/GPa) = 0.06849812
#
# Stress axis : x y z
#
# Youngs Moduli (GPa) = 89.84115 57.98000 22.88415
#
# Poissons Ratio (x) = 0.07090 0.04648
# Poissons Ratio (y) = 0.10987 -0.03352
# Poissons Ratio (z) = 0.18248 -0.08494
#
# Static dielectric constant tensor:
#      x y z
#    x 1.666200 0.039870 -0.006310 
#    y 0.039870 1.660780 0.009070 
#    z -0.006310 0.009070 1.666880 
# 
# From -- ./inp_files/304887.got.cif
#   From: 2010.05.17/outbox.cif.g08.bks.cpg/sg2_153_cif.got.tgz:304887.got - 2010.06.03 11:33:40.
