data_PCOD9093453
_publ_section_title
;
Structure prediction by ZEFSAII (Michael W. Deem and Ramdas Pophale) SiO2 
 PCOD9093453
Probable space group: P -1
;
_chemical_formula_sum "Si O2"
_cell_formula_units_Z 16
_cell_length_a 17.283461
_cell_length_b 13.694691
_cell_length_c 11.079415
_cell_angle_alpha 138.640626
_cell_angle_beta 26.095032
_cell_angle_gamma 135.952496
_cell_volume 753.140680
_symmetry_space_group_name_H-M "P -1"
_symmetry_group_IT_number 2
_symmetry_cell_setting 'triclinic'
loop_
_space_group_symop_operation_xyz
x,y,z
-x,-y,-z
loop_
_atom_site_type_symbol
_atom_site_label
_atom_site_fract_x
_atom_site_fract_y
_atom_site_fract_z
Si Si1 0.918532 0.784868 0.779410
Si Si2 0.981926 0.671157 0.824089
Si Si3 0.940719 0.409439 0.120100
Si Si4 0.783867 0.944656 0.430808
Si Si5 0.281622 0.355936 0.301150
Si Si6 0.601892 0.241704 0.638542
Si Si7 0.578331 0.917839 0.471964
Si Si8 0.892393 0.860037 0.451230
O O1 0.855665 0.716843 0.676479
O O2 0.924175 0.654208 0.749737
O O3 0.768447 0.885663 0.121845
O O4 0.106243 0.893767 0.607773
O O5 0.938364 0.562385 0.900027
O O6 0.193998 0.706487 0.569334
O O7 0.902056 0.821166 0.106749
O O8 0.762285 0.478876 0.462381
O O9 0.000000 0.500000 0.000000
O O10 0.964376 0.239960 0.896288
O O11 0.604024 0.910191 0.572537
O O12 0.781326 0.920956 0.555339
O O13 0.235169 0.251339 0.386002
O O14 0.475485 0.349700 0.971224
O O15 0.560212 0.197339 0.516088
O O16 0.545706 0.082298 0.635922
O O17 0.000000 0.000000 0.500000
#
# Coordination Sequence:
#
# PCOD9093453 Si02
#       8
#     2   2   2   2   2   2   2   2
#     4  10  16  29  53  79 107 128 178 221 251 297
#     4  10  18  31  55  79 100 140 173 211 265 300
#     4   9  21  37  52  74 107 135 174 216 252 306
#     4  10  16  30  52  79 105 129 181 221 253 291
#     4  10  21  34  48  79 112 139 168 212 261 305
#     4  10  18  28  50  76 113 137 166 208 265 318
#     4   9  17  28  46  80 112 135 160 221 263 293
#     4  10  19  33  58  78  95 137 181 216 251 303
#
# _framework density 21.244371999999998
#
# number of rings (size 3 to 8) (size 9 to 14) (size 15 to 20)
#    0.000    2.250    3.750    0.750    0.000    1.000 
#    0.000    0.625    0.000    0.000    0.000   23.625 
#    0.000    0.000    0.000    0.000    0.000    0.000 
#
# Total GULP energy -89148.839222 kJ/mol
# GULP energy per Si atom -5571.802451 kJ/mol
# Density = 2.119602 g / cm^3
# Si number density = 21.244372 Si / 1000 Ang^3
#
#
#
# Elastic Constant Matrix: (Units=GPa)
#
#
# Indices 1 2 3 4 5 6 
#
# 1 141.7327 30.3961 16.6262 1.4750 -6.6787 -39.7644
# 2 30.3961 62.4176 0.4743 16.5229 -1.6112 -29.4333
# 3 16.6262 0.4743 62.7393 18.8960 -1.0534 -1.7060
# 4 1.4750 16.5229 18.8960 25.8785 -0.0058 -3.2842
# 5 -6.6787 -1.6112 -1.0534 -0.0058 22.7672 0.8442
# 6 -39.7644 -29.4333 -1.7060 -3.2842 0.8442 33.8940
#
#
#
# Elastic Compliance Matrix: (Units=1/GPa)
#
#
# Indices 1 2 3 4 5 6 
#
# 1 0.011347 -0.000233 -0.003791 0.003950 0.002647 0.013237
# 2 -0.000233 0.037038 0.008464 -0.026039 0.001835 0.029748
# 3 -0.003791 0.008464 0.023625 -0.022193 0.000503 0.001929
# 4 0.003950 -0.026039 -0.022193 0.069685 -0.001237 -0.012312
# 5 0.002647 0.001835 0.000503 -0.001237 0.044723 0.003490
# 6 0.013237 0.029748 0.001929 -0.012312 0.003490 0.069683
#
#
# Mechanical properties :
#
#
# Convention : Reuss Voigt Hill
#
# Bulk Modulus (GPa) = 12.36218 40.20919 26.28569
# Shear Modulus (GPa) = 18.23591 31.13414 24.68502
#
# Velocity S-wave (km/s) = 2.93300 3.83237 3.41245
# Velocity P-wave (km/s) = 4.15953 6.20893 5.28453
#
# Compressibility (1/GPa) = 0.08089185
#
# Stress axis : x y z
#
# Youngs Moduli (GPa) = 88.12568 26.99902 42.32860
#
# Poissons Ratio (x) = 0.00628 0.16045
# Poissons Ratio (y) = 0.02050 -0.35827
# Poissons Ratio (z) = 0.33406 -0.22852
#
# Static dielectric constant tensor:
#      x y z
#    x 1.825330 -0.052060 0.050080 
#    y -0.052060 1.805120 -0.007760 
#    z 0.050080 -0.007760 1.781400 
# 
# From -- ./inp_files/464772.got.cif
#   From: 2010.05.17/outbox.cif.g08.bks.cpg/sg2_233_cif.got.tgz:464772.got - 2010.06.03 11:33:40.
