data_PCOD9093808
_publ_section_title
;
Structure prediction by ZEFSAII (Michael W. Deem and Ramdas Pophale) SiO2 
 PCOD9093808
Probable space group: P -1
;
_chemical_formula_sum "Si O2"
_cell_formula_units_Z 16
_cell_length_a 20.500209
_cell_length_b 16.909557
_cell_length_c 9.813867
_cell_angle_alpha 151.007395
_cell_angle_beta 129.856298
_cell_angle_gamma 29.099351
_cell_volume 683.222101
_symmetry_space_group_name_H-M "P -1"
_symmetry_group_IT_number 2
_symmetry_cell_setting 'triclinic'
loop_
_space_group_symop_operation_xyz
x,y,z
-x,-y,-z
loop_
_atom_site_type_symbol
_atom_site_label
_atom_site_fract_x
_atom_site_fract_y
_atom_site_fract_z
Si Si1 0.834736 0.341522 0.745793
Si Si2 0.245416 0.534261 0.877056
Si Si3 0.844018 0.681732 0.134543
Si Si4 0.625142 0.659295 0.505650
Si Si5 0.129129 0.179776 0.363045
Si Si6 0.421191 0.910829 0.834226
Si Si7 0.777158 0.809710 0.763272
Si Si8 0.895307 0.143115 0.248437
O O1 0.799792 0.298126 0.496855
O O2 0.727763 0.501155 0.978328
O O3 0.856553 0.490894 0.946462
O O4 0.000000 0.000000 0.500000
O O5 0.369289 0.404485 0.738691
O O6 0.236501 0.357242 0.555605
O O7 0.075227 0.889052 0.147703
O O8 0.796855 0.887248 0.496907
O O9 0.723691 0.850649 0.105837
O O10 0.000000 0.500000 0.000000
O O11 0.802989 0.406453 0.416362
O O12 0.555418 0.650266 0.511324
O O13 0.537907 0.973615 0.878590
O O14 0.226397 0.082654 0.216907
O O15 0.953218 0.543575 0.661524
O O16 0.105801 0.027155 0.083540
O O17 0.353684 0.933507 0.912531
#
# Coordination Sequence:
#
# PCOD9093808 Si02
#       8
#     2   2   2   2   2   2   2   2
#     4  10  21  36  56  90 120 145 190 247 290 333
#     4   9  18  33  58  82 111 147 187 242 281 335
#     4  12  22  37  59  90 116 151 194 238 287 346
#     4  10  20  37  56  83 115 151 193 234 287 343
#     4  10  20  33  58  85 113 149 188 239 287 341
#     4  10  21  36  57  82 115 154 190 236 284 346
#     4   9  17  34  54  81 114 146 188 229 287 343
#     4  10  20  35  59  85 114 146 196 239 288 338
#
# _framework density 23.418444999999998
#
# number of rings (size 3 to 8) (size 9 to 14) (size 15 to 20)
#    0.000    2.000    3.750    0.375    1.750    2.000 
#    0.000    3.125    0.000    0.000    0.000    0.000 
#    0.000    0.000    0.000    0.000    0.000    0.000 
#
# Total GULP energy -89223.781372 kJ/mol
# GULP energy per Si atom -5576.486336 kJ/mol
# Density = 2.336514 g / cm^3
# Si number density = 23.418445 Si / 1000 Ang^3
#
#
#
# Elastic Constant Matrix: (Units=GPa)
#
#
# Indices 1 2 3 4 5 6 
#
# 1 97.0876 22.7954 38.5666 -18.3275 -52.2003 19.6370
# 2 22.7954 56.4004 21.4784 -24.3351 -10.9737 14.9280
# 3 38.5666 21.4784 73.7368 -33.2268 -29.0121 14.4042
# 4 -18.3275 -24.3351 -33.2268 38.2836 14.9418 -12.6537
# 5 -52.2003 -10.9737 -29.0121 14.9418 47.8433 -18.9026
# 6 19.6370 14.9280 14.4042 -12.6537 -18.9026 29.1769
#
#
#
# Elastic Compliance Matrix: (Units=1/GPa)
#
#
# Indices 1 2 3 4 5 6 
#
# 1 0.027296 -0.006985 -0.003696 -0.004610 0.028847 0.003717
# 2 -0.006985 0.027516 0.000683 0.015365 -0.009273 -0.009059
# 3 -0.003696 0.000683 0.026415 0.019595 0.006818 0.002012
# 4 -0.004610 0.015365 0.019595 0.054429 -0.004029 0.006563
# 5 0.028847 -0.009273 0.006818 -0.004029 0.064278 0.021860
# 6 0.003717 -0.009059 0.002012 0.006563 0.021860 0.052422
#
#
# Mechanical properties :
#
#
# Convention : Reuss Voigt Hill
#
# Bulk Modulus (GPa) = 16.33159 43.65617 29.99388
# Shear Modulus (GPa) = 17.07874 32.68637 24.88255
#
# Velocity S-wave (km/s) = 2.70346 3.74003 3.26317
# Velocity P-wave (km/s) = 4.09071 6.11005 5.19935
#
# Compressibility (1/GPa) = 0.06123104
#
# Stress axis : x y z
#
# Youngs Moduli (GPa) = 36.63573 36.34214 37.85745
#
# Poissons Ratio (x) = 0.25386 0.13990
# Poissons Ratio (y) = 0.25591 -0.02585
# Poissons Ratio (z) = 0.13539 -0.02482
#
# Static dielectric constant tensor:
#      x y z
#    x 1.948710 -0.010190 -0.062030 
#    y -0.010190 2.037050 0.144670 
#    z -0.062030 0.144670 2.013680 
# 
# From -- ./inp_files/254543.got.cif
#   From: 2010.05.17/outbox.cif.g08.bks.cpg/sg2_128_cif.got.tgz:254543.got - 2010.06.03 11:33:40.
