data_PCOD9093573
_publ_section_title
;
Structure prediction by ZEFSAII (Michael W. Deem and Ramdas Pophale) SiO2 
 PCOD9093573
Probable space group: P -1
;
_chemical_formula_sum "Si O2"
_cell_formula_units_Z 16
_cell_length_a 11.895096
_cell_length_b 12.037577
_cell_length_c 12.868304
_cell_angle_alpha 33.156901
_cell_angle_beta 68.808618
_cell_angle_gamma 95.411986
_cell_volume 589.871726
_symmetry_space_group_name_H-M "P -1"
_symmetry_group_IT_number 2
_symmetry_cell_setting 'triclinic'
loop_
_space_group_symop_operation_xyz
x,y,z
-x,-y,-z
loop_
_atom_site_type_symbol
_atom_site_label
_atom_site_fract_x
_atom_site_fract_y
_atom_site_fract_z
Si Si1 0.428121 0.408016 0.256781
Si Si2 0.441982 0.155668 0.770984
Si Si3 0.721119 0.690209 0.406543
Si Si4 0.940178 0.644366 0.868309
Si Si5 0.748692 0.414099 0.311786
Si Si6 0.571086 0.262653 0.168051
Si Si7 0.905926 0.570792 0.531624
Si Si8 0.848558 0.110771 0.594851
O O1 0.296251 0.219141 0.548239
O O2 0.461889 0.256828 0.293881
O O3 0.358971 0.491944 0.136451
O O4 0.633983 0.750112 0.963005
O O5 0.533933 0.312613 0.729775
O O6 0.300948 0.155471 0.788083
O O7 0.629731 0.396372 0.444749
O O8 0.313178 0.787408 0.090898
O O9 0.887598 0.744099 0.328086
O O10 0.092765 0.907294 0.523322
O O11 0.888328 0.685367 0.962863
O O12 0.749533 0.391976 0.060467
O O13 0.000000 0.500000 0.000000
O O14 0.845202 0.352015 0.389259
O O15 0.578677 0.085401 0.560098
O O16 0.000000 0.500000 0.500000
O O17 0.018812 0.755657 0.455632
#
# Coordination Sequence:
#
# PCOD9093573 Si02
#       8
#     2   2   2   2   2   2   2   2
#     4  10  21  39  61  87 125 167 213 265 307 371
#     4  11  24  43  69  95 125 167 219 263 308 383
#     4  11  24  43  68  97 125 167 217 261 315 378
#     4  10  20  33  53  84 120 155 198 256 312 364
#     4  10  20  39  63  88 123 167 218 264 307 372
#     4  10  20  36  60  85 119 169 219 256 307 374
#     4  12  24  42  68  95 130 168 205 265 330 378
#     4  10  21  37  58  90 129 168 210 258 324 383
#
# _framework density 27.124541000000001
#
# number of rings (size 3 to 8) (size 9 to 14) (size 15 to 20)
#    0.000    1.500    0.000    6.000    0.000    2.000 
#    0.000    8.750    0.000    0.000    0.000    0.000 
#    0.000    0.000    0.000    0.000    0.000    0.000 
#
# Total GULP energy -89680.712706 kJ/mol
# GULP energy per Si atom -5605.044544 kJ/mol
# Density = 2.706280 g / cm^3
# Si number density = 27.124541 Si / 1000 Ang^3
#
#
#
# Elastic Constant Matrix: (Units=GPa)
#
#
# Indices 1 2 3 4 5 6 
#
# 1 209.3123 50.3557 25.8973 5.1882 -0.2967 27.9377
# 2 50.3557 148.6370 33.2456 10.0678 -8.6806 0.7674
# 3 25.8973 33.2456 63.2697 10.2040 -2.7727 -1.4094
# 4 5.1882 10.0678 10.2040 40.1550 -8.0421 -17.8222
# 5 -0.2967 -8.6806 -2.7727 -8.0421 28.3108 6.7466
# 6 27.9377 0.7674 -1.4094 -17.8222 6.7466 55.3293
#
#
#
# Elastic Compliance Matrix: (Units=1/GPa)
#
#
# Indices 1 2 3 4 5 6 
#
# 1 0.005820 -0.001544 -0.001402 -0.001569 -0.000177 -0.003437
# 2 -0.001544 0.008180 -0.003497 -0.000489 0.001968 0.000180
# 3 -0.001402 -0.003497 0.018810 -0.003759 -0.000328 0.000065
# 4 -0.001569 -0.000489 -0.003759 0.031956 0.006100 0.010253
# 5 -0.000177 0.001968 -0.000328 0.006100 0.038255 -0.002646
# 6 -0.003437 0.000180 0.000065 0.010253 -0.002646 0.023434
#
#
# Mechanical properties :
#
#
# Convention : Reuss Voigt Hill
#
# Bulk Modulus (GPa) = 50.19223 71.13512 60.66367
# Shear Modulus (GPa) = 34.25047 45.54038 39.89542
#
# Velocity S-wave (km/s) = 3.55732 4.10193 3.83929
# Velocity P-wave (km/s) = 5.95124 6.97974 6.48591
#
# Compressibility (1/GPa) = 0.01992340
#
# Stress axis : x y z
#
# Youngs Moduli (GPa) = 171.82318 122.24429 53.16296
#
# Poissons Ratio (x) = 0.18880 0.07453
# Poissons Ratio (y) = 0.26537 0.18592
# Poissons Ratio (z) = 0.24087 0.42751
#
# Static dielectric constant tensor:
#      x y z
#    x 2.100490 -0.057430 0.012980 
#    y -0.057430 2.040510 0.028770 
#    z 0.012980 0.028770 2.178100 
# 
# From -- ./inp_files/427372.got.cif
#   From: 2010.05.17/outbox.cif.g08.bks.cpg/sg2_214_cif.got.tgz:427372.got - 2010.06.03 11:33:40.
