data_PCOD9093219
_publ_section_title
;
Structure prediction by ZEFSAII (Michael W. Deem and Ramdas Pophale) SiO2 
 PCOD9093219
Probable space group: P -1
;
_chemical_formula_sum "Si O2"
_cell_formula_units_Z 14
_cell_length_a 13.040747
_cell_length_b 13.139948
_cell_length_c 14.010255
_cell_angle_alpha 128.316394
_cell_angle_beta 131.282393
_cell_angle_gamma 21.893088
_cell_volume 672.430359
_symmetry_space_group_name_H-M "P -1"
_symmetry_group_IT_number 2
_symmetry_cell_setting 'triclinic'
loop_
_space_group_symop_operation_xyz
x,y,z
-x,-y,-z
loop_
_atom_site_type_symbol
_atom_site_label
_atom_site_fract_x
_atom_site_fract_y
_atom_site_fract_z
Si Si1 0.857652 0.477990 0.513831
Si Si2 0.484650 0.230367 0.709790
Si Si3 0.976817 0.650974 0.767619
Si Si4 0.188194 0.749626 0.406842
Si Si5 0.895000 0.732144 0.170012
Si Si6 0.278761 0.162831 0.080875
Si Si7 0.742165 0.106865 0.616931
O O1 0.744085 0.625663 0.427080
O O2 0.986697 0.488030 0.658084
O O3 0.557909 0.683385 0.495336
O O4 0.047095 0.191298 0.445372
O O5 0.665870 0.177839 0.724101
O O6 0.282308 0.447116 0.797629
O O7 0.711048 0.934042 0.709864
O O8 0.888046 0.752019 0.880614
O O9 0.500000 0.500000 0.500000
O O10 0.177161 0.824163 0.338554
O O11 0.039045 0.735260 0.307570
O O12 0.000000 0.000000 0.500000
O O13 0.142328 0.418693 0.130290
O O14 0.618615 0.900217 0.150072
O O15 0.779032 0.862948 0.068498
#
# Coordination Sequence:
#
# PCOD9093219 Si02
#       7
#     2   2   2   2   2   2   2
#     4  10  20  32  51  78 121 153 186 235 300 349
#     4  10  20  33  51  81 120 154 188 241 298 352
#     4  12  20  31  57  85 112 152 202 239 287 360
#     4  12  26  40  63  93 116 161 203 246 297 362
#     4  10  23  44  61  85 125 155 199 250 304 350
#     4  10  23  40  64  89 116 162 198 251 297 347
#     4  10  22  36  51  79 122 154 186 236 306 343
#
# _framework density 20.819998999999999
#
# number of rings (size 3 to 8) (size 9 to 14) (size 15 to 20)
#    0.857    0.571    1.429    4.286    6.000    0.000 
#    0.000    0.000    0.000    1.714    0.000    0.000 
#    0.000    0.000    0.000    0.000    0.000    0.000 
#
# Total GULP energy -78057.809784 kJ/mol
# GULP energy per Si atom -5575.557842 kJ/mol
# Density = 2.077261 g / cm^3
# Si number density = 20.819999 Si / 1000 Ang^3
#
#
#
# Elastic Constant Matrix: (Units=GPa)
#
#
# Indices 1 2 3 4 5 6 
#
# 1 54.1373 9.6968 3.6921 0.0873 -19.4050 3.1580
# 2 9.6968 139.0834 22.2541 3.1554 0.5086 -9.7949
# 3 3.6921 22.2541 51.4160 -5.3560 -2.1964 -0.1925
# 4 0.0873 3.1554 -5.3560 18.7392 -4.0009 -7.5232
# 5 -19.4050 0.5086 -2.1964 -4.0009 28.6242 -0.2592
# 6 3.1580 -9.7949 -0.1925 -7.5232 -0.2592 24.9634
#
#
#
# Elastic Compliance Matrix: (Units=1/GPa)
#
#
# Indices 1 2 3 4 5 6 
#
# 1 0.025314 -0.002127 0.000137 0.002827 0.017577 -0.003001
# 2 -0.002127 0.008171 -0.003636 -0.001675 -0.002074 0.002921
# 3 0.000137 -0.003636 0.021977 0.007996 0.002972 0.001166
# 4 0.002827 -0.001675 0.007996 0.066146 0.011978 0.019105
# 5 0.017577 -0.002074 0.002972 0.011978 0.048801 0.001102
# 6 -0.003001 0.002921 0.001166 0.019105 0.001102 0.047362
#
#
# Mechanical properties :
#
#
# Convention : Reuss Voigt Hill
#
# Bulk Modulus (GPa) = 22.61887 35.10253 28.86070
# Shear Modulus (GPa) = 20.51194 28.39827 24.45511
#
# Velocity S-wave (km/s) = 3.14220 3.69723 3.43096
# Velocity P-wave (km/s) = 4.90430 5.92643 5.43943
#
# Compressibility (1/GPa) = 0.04421087
#
# Stress axis : x y z
#
# Youngs Moduli (GPa) = 39.50386 122.37969 45.50118
#
# Poissons Ratio (x) = 0.26025 -0.00623
# Poissons Ratio (y) = 0.08401 0.16545
# Poissons Ratio (z) = -0.00541 0.44500
#
# Static dielectric constant tensor:
#      x y z
#    x 1.947010 0.002960 -0.191070 
#    y 0.002960 1.746350 -0.009650 
#    z -0.191070 -0.009650 2.113700 
# 
# From -- ./inp_files/534442.got.cif
#   From: 2010.05.17/outbox.cif.g08.bks.cpg/sg2_268_cif.got.tgz:534442.got - 2010.06.03 11:33:40.
