data_PCOD9093712
_publ_section_title
;
Structure prediction by ZEFSAII (Michael W. Deem and Ramdas Pophale) SiO2 
 PCOD9093712
Probable space group: P -1
;
_chemical_formula_sum "Si O2"
_cell_formula_units_Z 16
_cell_length_a 15.838380
_cell_length_b 9.989543
_cell_length_c 15.224252
_cell_angle_alpha 44.861840
_cell_angle_beta 142.855489
_cell_angle_gamma 145.975510
_cell_volume 805.534535
_symmetry_space_group_name_H-M "P -1"
_symmetry_group_IT_number 2
_symmetry_cell_setting 'triclinic'
loop_
_space_group_symop_operation_xyz
x,y,z
-x,-y,-z
loop_
_atom_site_type_symbol
_atom_site_label
_atom_site_fract_x
_atom_site_fract_y
_atom_site_fract_z
Si Si1 0.824956 0.533123 0.943097
Si Si2 0.814090 0.970684 0.760384
Si Si3 0.522431 0.278990 0.519586
Si Si4 0.787541 0.174693 0.822041
Si Si5 0.299666 0.784786 0.844275
Si Si6 0.521359 0.295398 0.111169
Si Si7 0.474426 0.273571 0.678071
Si Si8 0.909950 0.542164 0.330110
O O1 0.816364 0.744597 0.871318
O O2 0.686820 0.419866 0.800395
O O3 0.744386 0.322714 0.046242
O O4 0.031757 0.652088 0.052664
O O5 0.627071 0.879490 0.604304
O O6 0.832121 0.079963 0.819510
O O7 0.973348 0.180770 0.732784
O O8 0.692835 0.285867 0.656139
O O9 0.432922 0.176158 0.589593
O O10 0.568335 0.541205 0.432369
O O11 0.639064 0.943549 0.863655
O O12 0.445070 0.766258 0.928557
O O13 0.128649 0.608413 0.721314
O O14 0.371050 0.055087 0.762322
O O15 0.712243 0.421910 0.255855
O O16 0.500000 0.500000 0.000000
O O17 0.000000 0.500000 0.500000
#
# Coordination Sequence:
#
# PCOD9093712 Si02
#       8
#     2   2   2   2   2   2   2   2
#     4  11  23  36  64  85 116 156 190 237 284 347
#     4  11  21  38  61  89 118 149 189 235 297 349
#     4  10  22  38  60  87 111 157 191 243 279 340
#     4  12  20  37  58  92 119 140 194 246 292 328
#     4  10  20  39  58  82 115 154 194 230 283 344
#     4  10  20  33  56  85 121 147 182 238 291 339
#     4  10  21  42  60  78 116 159 204 219 284 349
#     4  10  20  35  59  81 116 154 187 226 291 345
#
# _framework density 19.862587999999999
#
# number of rings (size 3 to 8) (size 9 to 14) (size 15 to 20)
#    0.750    0.750    2.500    4.125    0.000    0.500 
#    0.000    0.625    0.000    0.000    0.000    0.000 
#    0.000    0.000    0.000    0.000    0.000    0.000 
#
# Total GULP energy -89267.289415 kJ/mol
# GULP energy per Si atom -5579.205588 kJ/mol
# Density = 1.981738 g / cm^3
# Si number density = 19.862588 Si / 1000 Ang^3
#
#
#
# Elastic Constant Matrix: (Units=GPa)
#
#
# Indices 1 2 3 4 5 6 
#
# 1 25.4796 7.3775 -1.0366 -3.6784 3.4145 10.6180
# 2 7.3775 83.3509 28.1721 -19.0726 14.6500 15.4240
# 3 -1.0366 28.1721 107.5333 8.6333 19.1264 0.7916
# 4 -3.6784 -19.0726 8.6333 35.0747 -1.7937 -7.0874
# 5 3.4145 14.6500 19.1264 -1.7937 23.1153 6.6061
# 6 10.6180 15.4240 0.7916 -7.0874 6.6061 30.5823
#
#
#
# Elastic Compliance Matrix: (Units=1/GPa)
#
#
# Indices 1 2 3 4 5 6 
#
# 1 0.046264 -0.001112 0.001304 0.000802 -0.002941 -0.014714
# 2 -0.001112 0.017534 -0.004391 0.009205 -0.005144 -0.005099
# 3 0.001304 -0.004391 0.012422 -0.005332 -0.008697 0.002083
# 4 0.000802 0.009205 -0.005332 0.035616 0.000247 0.003417
# 5 -0.002941 -0.005144 -0.008697 0.000247 0.056548 -0.008318
# 6 -0.014714 -0.005099 0.002083 0.003417 -0.008318 0.042914
#
#
# Mechanical properties :
#
#
# Convention : Reuss Voigt Hill
#
# Bulk Modulus (GPa) = 14.74451 31.70996 23.22723
# Shear Modulus (GPa) = 20.63529 29.87786 25.25657
#
# Velocity S-wave (km/s) = 3.22670 3.88265 3.56977
# Velocity P-wave (km/s) = 4.61752 6.00826 5.35820
#
# Compressibility (1/GPa) = 0.06782187
#
# Stress axis : x y z
#
# Youngs Moduli (GPa) = 21.61513 57.03190 80.50156
#
# Poissons Ratio (x) = 0.06345 -0.10501
# Poissons Ratio (y) = 0.02405 0.35348
# Poissons Ratio (z) = -0.02820 0.25043
#
# Static dielectric constant tensor:
#      x y z
#    x 1.697620 -0.015360 -0.010800 
#    y -0.015360 1.705730 0.017490 
#    z -0.010800 0.017490 1.682020 
# 
# From -- ./inp_files/515633.got.cif
#   From: 2010.05.17/outbox.cif.g08.bks.cpg/sg2_258_cif.got.tgz:515633.got - 2010.06.03 11:33:40.
