data_PCOD9093798
_publ_section_title
;
Structure prediction by ZEFSAII (Michael W. Deem and Ramdas Pophale) SiO2 
 PCOD9093798
Probable space group: P -1
;
_chemical_formula_sum "Si O2"
_cell_formula_units_Z 16
_cell_length_a 14.821774
_cell_length_b 16.678525
_cell_length_c 7.952109
_cell_angle_alpha 125.559030
_cell_angle_beta 66.261555
_cell_angle_gamma 154.330687
_cell_volume 650.202380
_symmetry_space_group_name_H-M "P -1"
_symmetry_group_IT_number 2
_symmetry_cell_setting 'triclinic'
loop_
_space_group_symop_operation_xyz
x,y,z
-x,-y,-z
loop_
_atom_site_type_symbol
_atom_site_label
_atom_site_fract_x
_atom_site_fract_y
_atom_site_fract_z
Si Si1 0.243523 0.706943 0.145934
Si Si2 0.163832 0.895243 0.899407
Si Si3 0.283277 0.510682 0.422322
Si Si4 0.821554 0.715090 0.477778
Si Si5 0.501763 0.884664 0.864284
Si Si6 0.638713 0.714964 0.867521
Si Si7 0.689835 0.819528 0.320338
Si Si8 0.584158 0.941864 0.409404
O O1 0.331074 0.737751 0.292388
O O2 0.338243 0.903287 0.333377
O O3 0.366128 0.746883 0.970123
O O4 0.000000 0.500000 0.000000
O O5 0.901387 0.664822 0.794950
O O6 0.257348 0.909162 0.694730
O O7 0.254029 0.936598 0.059419
O O8 0.268646 0.095946 0.030725
O O9 0.174091 0.375989 0.513647
O O10 0.371113 0.700582 0.607578
O O11 0.496477 0.632689 0.373099
O O12 0.757756 0.744103 0.692224
O O13 0.624303 0.525789 0.263169
O O14 0.063896 0.953943 0.515241
O O15 0.500000 0.000000 0.000000
O O16 0.687658 0.749073 0.070965
O O17 0.626910 0.870947 0.355949
#
# Coordination Sequence:
#
# PCOD9093798 Si02
#       8
#     2   2   2   2   2   2   2   2
#     4  10  20  33  58  82 113 163 205 255 309 365
#     4  10  21  40  65  88 130 170 210 261 321 381
#     4  12  24  40  67  96 130 172 209 265 320 378
#     4  11  23  44  69  93 131 167 214 264 320 386
#     4  11  24  40  58  92 130 166 215 262 319 375
#     4  10  22  44  67  95 127 171 210 263 324 381
#     4  11  24  39  65  96 127 168 212 261 317 385
#     4   9  19  36  54  85 118 156 212 251 304 372
#
# _framework density 24.607724000000001
#
# number of rings (size 3 to 8) (size 9 to 14) (size 15 to 20)
#    0.000    1.500    3.750    1.875    0.000    3.000 
#    0.000    1.250    0.000    0.000    0.000    0.000 
#    0.000    0.000    0.000    0.000    0.000    0.000 
#
# Total GULP energy -89451.820000 kJ/mol
# GULP energy per Si atom -5590.738750 kJ/mol
# Density = 2.455172 g / cm^3
# Si number density = 24.607724 Si / 1000 Ang^3
#
#
#
# Elastic Constant Matrix: (Units=GPa)
#
#
# Indices 1 2 3 4 5 6 
#
# 1 77.0933 6.7483 28.8088 26.8489 -5.2070 5.3645
# 2 6.7483 97.3511 42.4519 32.0173 13.5100 27.3886
# 3 28.8088 42.4519 143.0207 36.8703 -8.2584 15.4164
# 4 26.8489 32.0173 36.8703 41.4273 14.5080 16.1963
# 5 -5.2070 13.5100 -8.2584 14.5080 40.3063 9.1532
# 6 5.3645 27.3886 15.4164 16.1963 9.1532 28.7286
#
#
#
# Elastic Compliance Matrix: (Units=1/GPa)
#
#
# Indices 1 2 3 4 5 6 
#
# 1 0.019527 0.003251 0.000229 -0.018565 0.007918 0.001075
# 2 0.003251 0.016958 -0.002209 -0.009158 -0.000057 -0.010407
# 3 0.000229 -0.002209 0.010614 -0.010212 0.006617 0.000016
# 4 -0.018565 -0.009158 -0.010212 0.064642 -0.022020 -0.011750
# 5 0.007918 -0.000057 0.006617 -0.022020 0.036053 -0.004048
# 6 0.001075 -0.010407 0.000016 -0.011750 -0.004048 0.052435
#
#
# Mechanical properties :
#
#
# Convention : Reuss Voigt Hill
#
# Bulk Modulus (GPa) = 20.14464 52.60924 36.37694
# Shear Modulus (GPa) = 23.33907 38.05617 30.69762
#
# Velocity S-wave (km/s) = 3.08302 3.93684 3.53580
# Velocity P-wave (km/s) = 4.56919 6.48772 5.61106
#
# Compressibility (1/GPa) = 0.04964100
#
# Stress axis : x y z
#
# Youngs Moduli (GPa) = 51.21244 58.96979 94.21225
#
# Poissons Ratio (x) = -0.19171 -0.02158
# Poissons Ratio (y) = -0.16649 0.20809
# Poissons Ratio (z) = -0.01173 0.13025
#
# Static dielectric constant tensor:
#      x y z
#    x 2.051430 -0.039820 0.084270 
#    y -0.039820 2.020640 -0.016650 
#    z 0.084270 -0.016650 1.971950 
# 
# From -- ./inp_files/337802.got.cif
#   From: 2010.05.17/outbox.cif.g08.bks.cpg/sg2_169_cif.got.tgz:337802.got - 2010.06.03 11:33:40.
