data_PCOD9093488
_publ_section_title
;
Structure prediction by ZEFSAII (Michael W. Deem and Ramdas Pophale) SiO2 
 PCOD9093488
Probable space group: P -1
;
_chemical_formula_sum "Si O2"
_cell_formula_units_Z 16
_cell_length_a 26.124873
_cell_length_b 8.285383
_cell_length_c 5.077215
_cell_angle_alpha 137.435520
_cell_angle_beta 55.992177
_cell_angle_gamma 124.772457
_cell_volume 591.136948
_symmetry_space_group_name_H-M "P -1"
_symmetry_group_IT_number 2
_symmetry_cell_setting 'triclinic'
loop_
_space_group_symop_operation_xyz
x,y,z
-x,-y,-z
loop_
_atom_site_type_symbol
_atom_site_label
_atom_site_fract_x
_atom_site_fract_y
_atom_site_fract_z
Si Si1 0.580818 0.862382 0.762521
Si Si2 0.701573 0.774656 0.458054
Si Si3 0.780971 0.198833 0.360128
Si Si4 0.895869 0.480360 0.121373
Si Si5 0.343224 0.722087 0.356926
Si Si6 0.540808 0.380231 0.937492
Si Si7 0.811333 0.662921 0.240192
Si Si8 0.942779 0.757463 0.820920
O O1 0.637792 0.859070 0.799298
O O2 0.563657 0.595442 0.347609
O O3 0.512750 0.857724 0.076157
O O4 0.611417 0.066560 0.704301
O O5 0.746803 0.742801 0.527584
O O6 0.748072 0.964168 0.352373
O O7 0.678569 0.519204 0.056995
O O8 0.850025 0.220705 0.050412
O O9 0.724822 0.218466 0.339279
O O10 0.796572 0.420407 0.801123
O O11 0.838141 0.606680 0.374901
O O12 0.932737 0.539946 0.810562
O O13 0.942855 0.630554 0.388094
O O14 0.391401 0.676259 0.391492
O O15 0.500000 0.500000 0.000000
O O16 0.876079 0.835578 0.127131
O O17 0.000000 0.000000 0.000000
#
# Coordination Sequence:
#
# PCOD9093488 Si02
#       8
#     2   2   2   2   2   2   2   2
#     4   9  19  35  53  73 107 139 178 230 278 340
#     4   9  17  34  55  76 106 142 184 231 287 337
#     4   9  17  34  53  76 109 145 186 234 285 337
#     4   9  18  32  56  83 115 150 191 234 284 335
#     4   9  18  34  53  75 108 140 183 229 281 340
#     4  10  20  33  51  77 103 143 183 225 281 335
#     4   8  18  31  52  81 106 142 182 230 280 335
#     4   9  17  32  58  87 113 153 193 230 282 341
#
# _framework density 27.066483999999999
#
# number of rings (size 3 to 8) (size 9 to 14) (size 15 to 20)
#    0.750    2.250    0.000    0.750    0.000    1.500 
#    0.000   15.000    0.000    3.750    0.000    0.000 
#    0.000    0.000    0.000    0.000    0.000    0.000 
#
# Total GULP energy -89408.126712 kJ/mol
# GULP energy per Si atom -5588.007920 kJ/mol
# Density = 2.700488 g / cm^3
# Si number density = 27.066484 Si / 1000 Ang^3
#
#
#
# Elastic Constant Matrix: (Units=GPa)
#
#
# Indices 1 2 3 4 5 6 
#
# 1 125.7270 49.2956 37.5655 2.2373 27.2790 26.7991
# 2 49.2956 147.2636 12.1203 4.3427 6.8926 35.4775
# 3 37.5655 12.1203 90.8631 -4.2663 -1.6207 6.1977
# 4 2.2373 4.3427 -4.2663 24.9414 -5.3313 13.6053
# 5 27.2790 6.8926 -1.6207 -5.3313 38.1611 -3.4993
# 6 26.7991 35.4775 6.1977 13.6053 -3.4993 47.7404
#
#
#
# Elastic Compliance Matrix: (Units=1/GPa)
#
#
# Indices 1 2 3 4 5 6 
#
# 1 0.014005 -0.002286 -0.005293 -0.000707 -0.010476 -0.006042
# 2 -0.002286 0.008921 0.000243 0.001875 -0.000249 -0.005930
# 3 -0.005293 0.000243 0.013387 0.003539 0.004839 0.000399
# 4 -0.000707 0.001875 0.003539 0.050035 0.005906 -0.015282
# 5 -0.010476 -0.000249 0.004839 0.005906 0.035351 0.006346
# 6 -0.006042 -0.005930 0.000399 -0.015282 0.006346 0.033514
#
#
# Mechanical properties :
#
#
# Convention : Reuss Voigt Hill
#
# Bulk Modulus (GPa) = 46.20799 62.42406 54.31602
# Shear Modulus (GPa) = 28.23308 39.82674 34.02991
#
# Velocity S-wave (km/s) = 3.23321 3.84010 3.54965
# Velocity P-wave (km/s) = 5.57201 6.54027 6.07546
#
# Compressibility (1/GPa) = 0.02164128
#
# Stress axis : x y z
#
# Youngs Moduli (GPa) = 71.40365 112.09903 74.70082
#
# Poissons Ratio (x) = 0.25621 0.39540
# Poissons Ratio (y) = 0.16320 -0.01816
# Poissons Ratio (z) = 0.37794 -0.02725
#
# Static dielectric constant tensor:
#      x y z
#    x 2.178160 -0.033480 -0.082870 
#    y -0.033480 2.123940 0.021410 
#    z -0.082870 0.021410 2.170770 
# 
# From -- ./inp_files/128192.got.cif
#   From: 2010.05.17/outbox.cif.g08.bks.cpg/sg2_65_cif.got.tgz:128192.got - 2010.06.03 11:33:40.
