data_PCOD9093595
_publ_section_title
;
Structure prediction by ZEFSAII (Michael W. Deem and Ramdas Pophale) SiO2 
 PCOD9093595
Probable space group: P -1
;
_chemical_formula_sum "Si O2"
_cell_formula_units_Z 14
_cell_length_a 11.819731
_cell_length_b 8.854885
_cell_length_c 18.418881
_cell_angle_alpha 148.819487
_cell_angle_beta 122.164175
_cell_angle_gamma 51.315910
_cell_volume 779.085934
_symmetry_space_group_name_H-M "P -1"
_symmetry_group_IT_number 2
_symmetry_cell_setting 'triclinic'
loop_
_space_group_symop_operation_xyz
x,y,z
-x,-y,-z
loop_
_atom_site_type_symbol
_atom_site_label
_atom_site_fract_x
_atom_site_fract_y
_atom_site_fract_z
Si Si1 0.475922 0.851200 0.263020
Si Si2 0.021980 0.060331 0.448856
Si Si3 0.294047 0.163398 0.542502
Si Si4 0.463708 0.920412 0.772186
Si Si5 0.378869 0.281394 0.030023
Si Si6 0.264546 0.540256 0.241090
Si Si7 0.290904 0.494107 0.528878
O O1 0.597675 0.844503 0.359920
O O2 0.437669 0.548211 0.137358
O O3 0.527904 0.875985 0.209802
O O4 0.339150 0.175363 0.366858
O O5 0.869034 0.264293 0.445606
O O6 0.133375 0.236766 0.548782
O O7 0.000000 0.000000 0.500000
O O8 0.109882 0.724286 0.301205
O O9 0.297713 0.390623 0.572487
O O10 0.332732 0.812165 0.377161
O O11 0.623200 0.742303 0.788951
O O12 0.403251 0.658704 0.619449
O O13 0.358073 0.124824 0.883981
O O14 0.257137 0.433805 0.112457
O O15 0.500000 0.000000 0.000000
#
# Coordination Sequence:
#
# PCOD9093595 Si02
#       7
#     2   2   2   2   2   2   2
#     4  12  20  35  58  84 113 139 183 234 271 315
#     4  10  20  34  53  84 114 139 178 231 277 318
#     4  10  20  33  54  80 111 139 182 222 272 314
#     4  11  22  34  56  86 110 146 182 224 275 321
#     4  10  21  37  55  78 112 149 182 221 271 331
#     4   9  19  37  53  78 114 142 180 221 272 318
#     4  12  20  34  58  85 109 147 181 225 274 326
#
# _framework density 17.969778000000002
#
# number of rings (size 3 to 8) (size 9 to 14) (size 15 to 20)
#    0.857    0.571    2.857    5.143    0.000    0.000 
#    0.000    0.714    0.000    3.429    0.000   14.000 
#    0.000    0.000    0.000    0.000    0.000    0.000 
#
# Total GULP energy -78046.374779 kJ/mol
# GULP energy per Si atom -5574.741056 kJ/mol
# Density = 1.792888 g / cm^3
# Si number density = 17.969778 Si / 1000 Ang^3
#
#
#
# Elastic Constant Matrix: (Units=GPa)
#
#
# Indices 1 2 3 4 5 6 
#
# 1 73.9277 31.1930 10.7060 5.4542 -22.2903 17.2408
# 2 31.1930 92.6208 19.4368 -2.3016 -23.2587 10.3338
# 3 10.7060 19.4368 67.7580 11.6569 -15.8525 9.6616
# 4 5.4542 -2.3016 11.6569 15.2674 6.2547 -1.6150
# 5 -22.2903 -23.2587 -15.8525 6.2547 34.0496 0.7013
# 6 17.2408 10.3338 9.6616 -1.6150 0.7013 38.9785
#
#
#
# Elastic Compliance Matrix: (Units=1/GPa)
#
#
# Indices 1 2 3 4 5 6 
#
# 1 0.027315 -0.003896 0.010287 -0.030439 0.025917 -0.015326
# 2 -0.003896 0.014244 -0.002520 0.003074 0.005470 -0.001399
# 3 0.010287 -0.002520 0.027903 -0.036977 0.025060 -0.012781
# 4 -0.030439 0.003074 -0.036977 0.132651 -0.059994 0.028389
# 5 0.025917 0.005470 0.025060 -0.059994 0.073231 -0.022928
# 6 -0.015326 -0.001399 -0.012781 0.028389 -0.022928 0.037562
#
#
# Mechanical properties :
#
#
# Convention : Reuss Voigt Hill
#
# Bulk Modulus (GPa) = 12.95282 39.66424 26.30853
# Shear Modulus (GPa) = 15.11037 29.19047 22.15042
#
# Velocity S-wave (km/s) = 2.90293 4.03478 3.51472
# Velocity P-wave (km/s) = 4.29649 6.62017 5.58061
#
# Compressibility (1/GPa) = 0.07720326
#
# Stress axis : x y z
#
# Youngs Moduli (GPa) = 36.60969 70.20568 35.83884
#
# Poissons Ratio (x) = 0.27355 -0.36868
# Poissons Ratio (y) = 0.14264 0.09031
# Poissons Ratio (z) = -0.37661 0.17692
#
# Static dielectric constant tensor:
#      x y z
#    x 1.613710 0.005980 -0.029550 
#    y 0.005980 1.594380 0.007210 
#    z -0.029550 0.007210 1.641320 
# 
# From -- ./inp_files/182386.got.cif
#   From: 2010.05.17/outbox.cif.g08.bks.cpg/sg2_92_cif.got.tgz:182386.got - 2010.06.03 11:33:40.
