data_PCOD9093783
_publ_section_title
;
Structure prediction by ZEFSAII (Michael W. Deem and Ramdas Pophale) SiO2 
 PCOD9093783
Probable space group: P -1
;
_chemical_formula_sum "Si O2"
_cell_formula_units_Z 14
_cell_length_a 14.824130
_cell_length_b 13.980638
_cell_length_c 11.852269
_cell_angle_alpha 120.916893
_cell_angle_beta 140.192929
_cell_angle_gamma 29.780637
_cell_volume 684.773825
_symmetry_space_group_name_H-M "P -1"
_symmetry_group_IT_number 2
_symmetry_cell_setting 'triclinic'
loop_
_space_group_symop_operation_xyz
x,y,z
-x,-y,-z
loop_
_atom_site_type_symbol
_atom_site_label
_atom_site_fract_x
_atom_site_fract_y
_atom_site_fract_z
Si Si1 0.144724 0.792387 0.960235
Si Si2 0.340180 0.985843 0.701256
Si Si3 0.765651 0.342973 0.276786
Si Si4 0.294143 0.273708 0.886114
Si Si5 0.703119 0.938785 0.732363
Si Si6 0.271194 0.391226 0.708934
Si Si7 0.180208 0.348924 0.192013
O O1 0.190300 0.770591 0.855361
O O2 0.940991 0.830367 0.819446
O O3 0.456694 0.551994 0.157154
O O4 0.000000 0.000000 0.000000
O O5 0.355419 0.110596 0.794395
O O6 0.025947 0.159008 0.498512
O O7 0.508857 0.833922 0.659079
O O8 0.505183 0.840170 0.884338
O O9 0.783826 0.451738 0.300607
O O10 0.328624 0.344435 0.868711
O O11 0.978089 0.483071 0.756103
O O12 0.821208 0.778485 0.847009
O O13 0.500000 0.000000 0.500000
O O14 0.521710 0.160826 0.745545
O O15 0.000000 0.500000 0.500000
O O16 0.000000 0.500000 0.000000
#
# Coordination Sequence:
#
# PCOD9093783 Si02
#       7
#     2   2   2   2   2   2   2
#     4  11  24  42  62  93 127 165 206 261 318 373
#     4  10  20  36  56  91 122 162 203 249 309 372
#     4  11  23  39  63  88 126 166 208 254 315 376
#     4  10  20  33  57  90 128 157 201 257 307 360
#     4  12  23  38  63  94 125 156 210 265 307 371
#     4  12  20  35  60  96 125 159 206 259 311 363
#     4  10  20  35  57  87 123 159 197 252 307 355
#
# _framework density 20.444706
#
# number of rings (size 3 to 8) (size 9 to 14) (size 15 to 20)
#    0.000    1.143    4.286    3.429    0.000    1.143 
#    0.000    0.000    0.000   16.286    0.000    0.000 
#    0.000    0.000    0.000    0.000    0.000    0.000 
#
# Total GULP energy -78191.532480 kJ/mol
# GULP energy per Si atom -5585.109463 kJ/mol
# Density = 2.039817 g / cm^3
# Si number density = 20.444706 Si / 1000 Ang^3
#
#
#
# Elastic Constant Matrix: (Units=GPa)
#
#
# Indices 1 2 3 4 5 6 
#
# 1 67.7163 25.2041 29.4303 -11.5801 5.6117 -14.8240
# 2 25.2041 121.0431 30.5270 -10.7666 -2.2344 -23.2753
# 3 29.4303 30.5270 105.4004 -24.4935 12.5711 -13.4774
# 4 -11.5801 -10.7666 -24.4935 30.6418 -5.5490 8.3964
# 5 5.6117 -2.2344 12.5711 -5.5490 34.4813 -9.3322
# 6 -14.8240 -23.2753 -13.4774 8.3964 -9.3322 37.1093
#
#
#
# Elastic Compliance Matrix: (Units=1/GPa)
#
#
# Indices 1 2 3 4 5 6 
#
# 1 0.018334 -0.001933 -0.003448 0.002265 -0.000334 0.004263
# 2 -0.001933 0.010380 -0.002060 0.000297 0.003346 0.005765
# 3 -0.003448 -0.002060 0.013255 0.008122 -0.003235 -0.000506
# 4 0.002265 0.000297 0.008122 0.041807 0.002093 -0.004892
# 5 -0.000334 0.003346 -0.003235 0.002093 0.033129 0.008648
# 6 0.004263 0.005765 -0.000506 -0.004892 0.008648 0.035364
#
#
# Mechanical properties :
#
#
# Convention : Reuss Voigt Hill
#
# Bulk Modulus (GPa) = 36.91728 51.60917 44.26322
# Shear Modulus (GPa) = 28.38003 34.37972 31.37987
#
# Velocity S-wave (km/s) = 3.72981 4.10517 3.92199
# Velocity P-wave (km/s) = 6.05351 6.91144 6.49665
#
# Compressibility (1/GPa) = 0.02708759
#
# Stress axis : x y z
#
# Youngs Moduli (GPa) = 54.54442 96.33839 75.44049
#
# Poissons Ratio (x) = 0.18621 0.26014
# Poissons Ratio (y) = 0.10543 0.15538
# Poissons Ratio (z) = 0.18808 0.19843
#
# Static dielectric constant tensor:
#      x y z
#    x 1.722240 -0.021060 -0.012410 
#    y -0.021060 1.775220 -0.007600 
#    z -0.012410 -0.007600 1.768980 
# 
# From -- ./inp_files/454773.got.cif
#   From: 2010.05.17/outbox.cif.g08.bks.cpg/sg2_228_cif.got.tgz:454773.got - 2010.06.03 11:33:40.
