data_PCOD9093435
_publ_section_title
;
Structure prediction by ZEFSAII (Michael W. Deem and Ramdas Pophale) SiO2 
 PCOD9093435
Probable space group: P -1
;
_chemical_formula_sum "Si O2"
_cell_formula_units_Z 12
_cell_length_a 9.711334
_cell_length_b 12.340809
_cell_length_c 7.774430
_cell_angle_alpha 125.774337
_cell_angle_beta 123.856708
_cell_angle_gamma 40.469316
_cell_volume 479.330349
_symmetry_space_group_name_H-M "P -1"
_symmetry_group_IT_number 2
_symmetry_cell_setting 'triclinic'
loop_
_space_group_symop_operation_xyz
x,y,z
-x,-y,-z
loop_
_atom_site_type_symbol
_atom_site_label
_atom_site_fract_x
_atom_site_fract_y
_atom_site_fract_z
Si Si1 0.455334 0.839969 0.181910
Si Si2 0.701529 0.874719 0.894731
Si Si3 0.289483 0.387827 0.162802
Si Si4 0.480726 0.403387 0.740888
Si Si5 0.247038 0.744182 0.716121
Si Si6 0.070331 0.771099 0.289967
O O1 0.658808 0.714718 0.076759
O O2 0.266381 0.837124 0.973696
O O3 0.359390 0.034546 0.249451
O O4 0.530845 0.737493 0.317287
O O5 0.883253 0.869624 0.110967
O O6 0.755953 0.691598 0.790110
O O7 0.500000 0.000000 0.000000
O O8 0.526550 0.334643 0.297175
O O9 0.115112 0.592027 0.198557
O O10 0.287300 0.572689 0.654360
O O11 0.709698 0.294102 0.704367
O O12 0.500000 0.500000 0.000000
O O13 0.056448 0.848092 0.539259
#
# Coordination Sequence:
#
# PCOD9093435 Si02
#       6
#     2   2   2   2   2   2
#     4   8  17  31  50  73 102 127 153 198 250 283
#     4  10  20  33  46  73 104 134 161 196 235 298
#     4   8  16  31  50  73  95 126 162 199 236 289
#     4   9  15  30  51  77  99 119 160 210 240 286
#     4   8  17  29  53  79  94 119 165 209 245 271
#     4  11  18  29  55  80  91 126 167 206 241 278
#
# _framework density 25.034925000000001
#
# number of rings (size 3 to 8) (size 9 to 14) (size 15 to 20)
#    1.000    2.000    1.667    2.500    0.000    1.333 
#    0.000    0.000    0.000    8.000   17.333    0.000 
#    0.000    0.000    0.000    0.000    0.000    0.000 
#
# Total GULP energy -66863.051748 kJ/mol
# GULP energy per Si atom -5571.920979 kJ/mol
# Density = 2.497794 g / cm^3
# Si number density = 25.034925 Si / 1000 Ang^3
#
#
#
# Elastic Constant Matrix: (Units=GPa)
#
#
# Indices 1 2 3 4 5 6 
#
# 1 59.0172 42.3622 13.0544 -16.3058 -5.0588 35.7305
# 2 42.3622 105.0932 17.9256 -6.9962 3.1255 55.6364
# 3 13.0544 17.9256 60.7766 -17.9230 -4.2388 9.4242
# 4 -16.3058 -6.9962 -17.9230 40.2095 5.3280 -3.3036
# 5 -5.0588 3.1255 -4.2388 5.3280 12.1397 -6.9116
# 6 35.7305 55.6364 9.4242 -3.3036 -6.9116 57.0238
#
#
#
# Elastic Compliance Matrix: (Units=1/GPa)
#
#
# Indices 1 2 3 4 5 6 
#
# 1 0.032461 -0.004141 -0.000023 0.011038 0.000888 -0.015548
# 2 -0.004141 0.026022 -0.003959 0.002352 -0.025100 -0.025046
# 3 -0.000023 -0.003959 0.020000 0.007612 0.005616 0.001693
# 4 0.011038 0.002352 0.007612 0.034186 -0.014162 -0.010205
# 5 0.000888 -0.025100 0.005616 -0.014162 0.118168 0.036506
# 6 -0.015548 -0.025046 0.001693 -0.010205 0.036506 0.055269
#
#
# Mechanical properties :
#
#
# Convention : Reuss Voigt Hill
#
# Bulk Modulus (GPa) = 16.06754 41.28570 28.67662
# Shear Modulus (GPa) = 15.47515 31.97759 23.72637
#
# Velocity S-wave (km/s) = 2.48894 3.57784 3.08186
# Velocity P-wave (km/s) = 3.83299 5.79611 4.91359
#
# Compressibility (1/GPa) = 0.06223728
#
# Stress axis : x y z
#
# Youngs Moduli (GPa) = 30.80632 38.42852 49.99980
#
# Poissons Ratio (x) = 0.15914 0.00116
# Poissons Ratio (y) = 0.12757 0.19794
# Poissons Ratio (z) = 0.00071 0.15213
#
# Static dielectric constant tensor:
#      x y z
#    x 1.962740 0.077560 0.005070 
#    y 0.077560 2.049990 0.024520 
#    z 0.005070 0.024520 2.137460 
# 
# From -- ./inp_files/180657.got.cif
#   From: 2010.05.17/outbox.cif.g08.bks.cpg/sg2_91_cif.got.tgz:180657.got - 2010.06.03 11:33:40.
