data_PCOD9093385
_publ_section_title
;
Structure prediction by ZEFSAII (Michael W. Deem and Ramdas Pophale) SiO2 
 PCOD9093385
Probable space group: P -1
;
_chemical_formula_sum "Si O2"
_cell_formula_units_Z 14
_cell_length_a 9.618615
_cell_length_b 15.750451
_cell_length_c 7.296951
_cell_angle_alpha 107.437247
_cell_angle_beta 30.411959
_cell_angle_gamma 96.849226
_cell_volume 511.239681
_symmetry_space_group_name_H-M "P -1"
_symmetry_group_IT_number 2
_symmetry_cell_setting 'triclinic'
loop_
_space_group_symop_operation_xyz
x,y,z
-x,-y,-z
loop_
_atom_site_type_symbol
_atom_site_label
_atom_site_fract_x
_atom_site_fract_y
_atom_site_fract_z
Si Si1 0.043489 0.720079 0.432440
Si Si2 0.829140 0.579206 0.385022
Si Si3 0.492678 0.660348 0.501918
Si Si4 0.896801 0.136787 0.013799
Si Si5 0.132281 0.590271 0.584348
Si Si6 0.601350 0.156082 0.754820
Si Si7 0.510935 0.026360 0.287397
O O1 0.973472 0.660383 0.305979
O O2 0.176274 0.645419 0.391867
O O3 0.224469 0.794671 0.277188
O O4 0.711616 0.776375 0.896638
O O5 0.539856 0.625451 0.634726
O O6 0.829568 0.520424 0.531215
O O7 0.000000 0.500000 0.000000
O O8 0.286120 0.763252 0.782085
O O9 0.364518 0.597589 0.475738
O O10 0.815211 0.646343 0.052428
O O11 0.800398 0.134487 0.333739
O O12 0.795508 0.058053 0.970681
O O13 0.237144 0.113388 0.610014
O O14 0.530805 0.061630 0.830183
O O15 0.500000 0.000000 0.500000
#
# Coordination Sequence:
#
# PCOD9093385 Si02
#       7
#     2   2   2   2   2   2   2
#     4  12  22  39  64  90 125 160 203 260 301 356
#     4  10  26  44  63  89 123 166 208 251 310 369
#     4  11  22  39  63  89 126 161 204 250 301 370
#     4  11  18  35  59  90 126 159 198 243 304 359
#     4  11  21  41  62  90 120 159 209 258 299 356
#     4  11  21  36  59  94 125 154 203 250 312 350
#     4  10  20  32  58  92 128 155 193 253 300 357
#
# _framework density 27.384414
#
# number of rings (size 3 to 8) (size 9 to 14) (size 15 to 20)
#    0.000    1.143    2.857    6.000    0.000    4.571 
#    0.000    5.000    0.000    5.143    0.000    0.000 
#    0.000    0.000    0.000    0.000    0.000    0.000 
#
# Total GULP energy -78488.271126 kJ/mol
# GULP energy per Si atom -5606.305080 kJ/mol
# Density = 2.732209 g / cm^3
# Si number density = 27.384414 Si / 1000 Ang^3
#
#
#
# Elastic Constant Matrix: (Units=GPa)
#
#
# Indices 1 2 3 4 5 6 
#
# 1 94.3919 31.4049 44.3275 -5.4207 -19.7017 11.4635
# 2 31.4049 122.5182 19.3849 4.3153 -10.3037 21.2812
# 3 44.3275 19.3849 93.2487 6.9036 -29.8596 8.1347
# 4 -5.4207 4.3153 6.9036 42.5561 0.9668 -11.5016
# 5 -19.7017 -10.3037 -29.8596 0.9668 55.8967 -2.0525
# 6 11.4635 21.2812 8.1347 -11.5016 -2.0525 61.7834
#
#
#
# Elastic Compliance Matrix: (Units=1/GPa)
#
#
# Indices 1 2 3 4 5 6 
#
# 1 0.014983 -0.002773 -0.006316 0.003083 0.001329 -0.000375
# 2 -0.002773 0.009559 -0.000006 -0.002192 0.000704 -0.003162
# 3 -0.006316 -0.000006 0.016218 -0.003984 0.006451 -0.001489
# 4 0.003083 -0.002192 -0.003984 0.026297 -0.001697 0.005547
# 5 0.001329 0.000704 0.006451 -0.001697 0.021929 -0.000926
# 6 -0.000375 -0.003162 -0.001489 0.005547 -0.000926 0.018542
#
#
# Mechanical properties :
#
#
# Convention : Reuss Voigt Hill
#
# Bulk Modulus (GPa) = 44.30406 55.59924 49.95165
# Shear Modulus (GPa) = 37.52590 46.38332 41.95461
#
# Velocity S-wave (km/s) = 3.70582 4.12003 3.91840
# Velocity P-wave (km/s) = 5.87576 6.55592 6.22514
#
# Compressibility (1/GPa) = 0.02257129
#
# Stress axis : x y z
#
# Youngs Moduli (GPa) = 66.74412 104.60950 61.66016
#
# Poissons Ratio (x) = 0.29006 0.38943
# Poissons Ratio (y) = 0.18507 0.00035
# Poissons Ratio (z) = 0.42154 0.00059
#
# Static dielectric constant tensor:
#      x y z
#    x 2.192720 -0.046870 0.143150 
#    y -0.046870 2.127730 -0.010420 
#    z 0.143150 -0.010420 2.216050 
# 
# From -- ./inp_files/74106.got.cif
#   From: 2010.05.17/outbox.cif.g08.bks.cpg/sg2_38_cif.got.tgz:74106.got - 2010.06.03 11:33:40.
