data_PCOD9093930
_publ_section_title
;
Structure prediction by ZEFSAII (Michael W. Deem and Ramdas Pophale) SiO2 
 PCOD9093930
Probable space group: P -1
;
_chemical_formula_sum "Si O2"
_cell_formula_units_Z 12
_cell_length_a 11.227569
_cell_length_b 12.410973
_cell_length_c 9.921656
_cell_angle_alpha 142.348643
_cell_angle_beta 88.930481
_cell_angle_gamma 120.772834
_cell_volume 491.036611
_symmetry_space_group_name_H-M "P -1"
_symmetry_group_IT_number 2
_symmetry_cell_setting 'triclinic'
loop_
_space_group_symop_operation_xyz
x,y,z
-x,-y,-z
loop_
_atom_site_type_symbol
_atom_site_label
_atom_site_fract_x
_atom_site_fract_y
_atom_site_fract_z
Si Si1 0.645863 0.913872 0.658437
Si Si2 0.324179 0.719452 0.626337
Si Si3 0.898871 0.065131 0.038383
Si Si4 0.088527 0.463127 0.857379
Si Si5 0.710027 0.969469 0.206157
Si Si6 0.554443 0.277400 0.794880
O O1 0.435335 0.689454 0.523691
O O2 0.564070 0.768653 0.367939
O O3 0.796014 0.975158 0.805739
O O4 0.764902 0.244979 0.957229
O O5 0.283569 0.813601 0.605732
O O6 0.103367 0.430300 0.410928
O O7 0.500000 0.000000 0.000000
O O8 0.729871 0.907498 0.998448
O O9 0.000000 0.000000 0.000000
O O10 0.909684 0.161895 0.476671
O O11 0.204143 0.453157 0.930554
O O12 0.000000 0.500000 0.000000
O O13 0.518097 0.725402 0.066033
O O14 0.500000 0.000000 0.500000
#
# Coordination Sequence:
#
# PCOD9093930 Si02
#       6
#     2   2   2   2   2   2
#     4  11  21  38  63  96 133 164 215 270 335 380
#     4  12  22  40  70 100 124 166 227 279 320 378
#     4  12  29  44  62  94 141 183 215 262 329 392
#     4  11  18  33  64 104 129 155 210 281 330 376
#     4  12  21  39  66  98 129 166 220 276 322 387
#     4  10  20  33  62 103 128 156 213 284 334 372
#
# _framework density 24.438095000000001
#
# number of rings (size 3 to 8) (size 9 to 14) (size 15 to 20)
#    0.000    0.667   10.000    1.500    0.000    0.667 
#    0.000    0.833    0.000    2.000    0.000    0.000 
#    0.000    0.000    0.000    0.000    0.000    0.000 
#
# Total GULP energy -67000.188117 kJ/mol
# GULP energy per Si atom -5583.349010 kJ/mol
# Density = 2.438247 g / cm^3
# Si number density = 24.438095 Si / 1000 Ang^3
#
#
#
# Elastic Constant Matrix: (Units=GPa)
#
#
# Indices 1 2 3 4 5 6 
#
# 1 130.1413 55.2525 26.1643 -8.3738 34.7880 -11.1460
# 2 55.2525 96.4878 28.7477 -30.9536 -3.8825 16.0042
# 3 26.1643 28.7477 41.1698 -10.3982 30.6450 -18.1033
# 4 -8.3738 -30.9536 -10.3982 29.8072 -17.4361 8.5781
# 5 34.7880 -3.8825 30.6450 -17.4361 34.9422 -9.5019
# 6 -11.1460 16.0042 -18.1033 8.5781 -9.5019 45.3193
#
#
#
# Elastic Compliance Matrix: (Units=1/GPa)
#
#
# Indices 1 2 3 4 5 6 
#
# 1 0.006380 0.004231 -0.013808 0.008006 0.008835 -0.005104
# 2 0.004231 -0.003443 0.017789 -0.012484 -0.024642 0.006559
# 3 -0.013808 0.017789 0.009333 0.032814 0.021851 -0.007580
# 4 0.008006 -0.012484 0.032814 0.014937 -0.027734 0.010843
# 5 0.008835 -0.024642 0.021851 -0.027734 -0.009714 0.022817
# 6 -0.005104 0.006559 -0.007580 0.010843 0.022817 0.018198
#
#
# Mechanical properties :
#
#
# Convention : Reuss Voigt Hill
#
# Bulk Modulus (GPa) = 34.84965 54.23644 44.54304
# Shear Modulus (GPa) = 173.42907 32.52269 102.97588
#
# Velocity S-wave (km/s) = 8.43331 3.65200 6.49838
# Velocity P-wave (km/s) = 10.44600 6.32648 8.63549
#
# Compressibility (1/GPa) = 0.02869469
#
# Stress axis : x y z
#
# Youngs Moduli (GPa) = 156.74294 -290.41283 107.14862
#
# Poissons Ratio (x) = 1.22876 1.47947
# Poissons Ratio (y) = -0.66319 -1.90610
# Poissons Ratio (z) = 2.16426 5.16624
#
# Static dielectric constant tensor:
#      x y z
#    x 1.976910 -0.009140 -0.001790 
#    y -0.009140 2.061240 0.060120 
#    z -0.001790 0.060120 2.086680 
# 
# From -- ./inp_files/263754.got.cif
#   From: 2010.05.17/outbox.cif.g08.bks.cpg/sg2_132_cif.got.tgz:263754.got - 2010.06.03 11:33:40.
