data_PCOD9093094
_publ_section_title
;
Structure prediction by ZEFSAII (Michael W. Deem and Ramdas Pophale) SiO2 
 PCOD9093094
Probable space group: P -1
;
_chemical_formula_sum "Si O2"
_cell_formula_units_Z 16
_cell_length_a 9.490979
_cell_length_b 14.816992
_cell_length_c 11.290692
_cell_angle_alpha 117.410112
_cell_angle_beta 66.462909
_cell_angle_gamma 143.942554
_cell_volume 828.521258
_symmetry_space_group_name_H-M "P -1"
_symmetry_group_IT_number 2
_symmetry_cell_setting 'triclinic'
loop_
_space_group_symop_operation_xyz
x,y,z
-x,-y,-z
loop_
_atom_site_type_symbol
_atom_site_label
_atom_site_fract_x
_atom_site_fract_y
_atom_site_fract_z
Si Si1 0.872839 0.862164 0.662809
Si Si2 0.449484 0.598685 0.486936
Si Si3 0.109423 0.714452 0.120307
Si Si4 0.881645 0.679797 0.411029
Si Si5 0.346770 0.637419 0.041519
Si Si6 0.023446 0.155002 0.871344
Si Si7 0.564339 0.409092 0.771456
Si Si8 0.810638 0.750097 0.875975
O O1 0.604623 0.731920 0.617524
O O2 0.992615 0.841268 0.520669
O O3 0.889428 0.819056 0.759826
O O4 0.969464 0.023762 0.741558
O O5 0.617924 0.584180 0.395958
O O6 0.197574 0.434996 0.525864
O O7 0.437876 0.642358 0.388753
O O8 0.028640 0.703884 0.273230
O O9 0.136347 0.832697 0.111518
O O10 0.322011 0.741379 0.073377
O O11 0.887420 0.541843 0.031599
O O12 0.362483 0.630180 0.173055
O O13 0.576055 0.699046 0.947374
O O14 0.302007 0.318054 0.842807
O O15 0.013208 0.136345 0.005019
O O16 0.737869 0.594839 0.818115
#
# Coordination Sequence:
#
# PCOD9093094 Si02
#       8
#     2   2   2   2   2   2   2   2
#     4  10  20  31  54  83 105 132 171 220 258 297
#     4   9  16  30  55  77 100 133 172 209 256 302
#     4  11  19  34  49  79 109 133 173 213 258 303
#     4   9  17  31  53  77 102 136 168 214 250 308
#     4  10  21  31  54  77 103 139 172 215 254 303
#     4  11  20  31  54  83 105 132 173 221 255 298
#     4  11  17  34  56  78 100 133 178 216 251 299
#     4  11  18  36  55  78 104 135 172 217 259 302
#
# _framework density 19.311513999999999
#
# number of rings (size 3 to 8) (size 9 to 14) (size 15 to 20)
#    0.750    1.000    5.000    1.875    0.000    2.000 
#    0.000    1.250    0.000    6.750    0.000    0.000 
#    0.000    0.000    0.000    0.000    0.000    0.000 
#
# Total GULP energy -89142.978540 kJ/mol
# GULP energy per Si atom -5571.436159 kJ/mol
# Density = 1.926756 g / cm^3
# Si number density = 19.311514 Si / 1000 Ang^3
#
#
#
# Elastic Constant Matrix: (Units=GPa)
#
#
# Indices 1 2 3 4 5 6 
#
# 1 79.2550 7.9384 16.4841 -3.2729 16.2240 -13.5900
# 2 7.9384 15.9229 3.7783 14.5514 -5.5604 -9.5807
# 3 16.4841 3.7783 76.4841 5.1868 32.9414 -2.5918
# 4 -3.2729 14.5514 5.1868 19.1566 -3.7013 -1.8605
# 5 16.2240 -5.5604 32.9414 -3.7013 11.0985 -4.2599
# 6 -13.5900 -9.5807 -2.5918 -1.8605 -4.2599 11.6561
#
#
#
# Elastic Compliance Matrix: (Units=1/GPa)
#
#
# Indices 1 2 3 4 5 6 
#
# 1 0.016787 0.009774 -0.003515 -0.000807 0.000894 0.027022
# 2 0.009774 0.283302 0.110301 -0.276273 -0.239184 0.137268
# 3 -0.003515 0.110301 0.027636 -0.089997 -0.025088 0.069174
# 4 -0.000807 -0.276273 -0.089997 0.308619 0.182051 -0.132239
# 5 0.000894 -0.239184 -0.025088 0.182051 0.044306 -0.155881
# 6 0.027022 0.137268 0.069174 -0.132239 -0.155881 0.167427
#
#
# Mechanical properties :
#
#
# Convention : Reuss Voigt Hill
#
# Bulk Modulus (GPa) = 1.78303 25.34040 13.56171
# Shear Modulus (GPa) = 6.23515 17.94633 12.09074
#
# Velocity S-wave (km/s) = 1.79881 3.05176 2.50489
# Velocity P-wave (km/s) = 2.28902 5.05649 3.92477
#
# Compressibility (1/GPa) = 0.56084357
#
# Stress axis : x y z
#
# Youngs Moduli (GPa) = 59.57076 3.52980 36.18492
#
# Poissons Ratio (x) = -0.03450 0.12721
# Poissons Ratio (y) = -0.58223 -3.99124
# Poissons Ratio (z) = 0.20942 -0.38934
#
# Static dielectric constant tensor:
#      x y z
#    x 1.690000 -0.012130 0.038060 
#    y -0.012130 1.709450 0.012350 
#    z 0.038060 0.012350 1.702350 
# 
# From -- ./inp_files/397550.got.cif
#   From: 2010.05.17/outbox.cif.g08.bks.cpg/sg2_199_cif.got.tgz:397550.got - 2010.06.03 11:33:40.
