data_PCOD9093663
_publ_section_title
;
Structure prediction by ZEFSAII (Michael W. Deem and Ramdas Pophale) SiO2 
 PCOD9093663
Probable space group: P -1
;
_chemical_formula_sum "Si O2"
_cell_formula_units_Z 16
_cell_length_a 9.257952
_cell_length_b 9.012648
_cell_length_c 14.190270
_cell_angle_alpha 53.575817
_cell_angle_beta 115.371207
_cell_angle_gamma 133.901176
_cell_volume 686.176860
_symmetry_space_group_name_H-M "P -1"
_symmetry_group_IT_number 2
_symmetry_cell_setting 'triclinic'
loop_
_space_group_symop_operation_xyz
x,y,z
-x,-y,-z
loop_
_atom_site_type_symbol
_atom_site_label
_atom_site_fract_x
_atom_site_fract_y
_atom_site_fract_z
Si Si1 0.609008 0.317443 0.060368
Si Si2 0.689091 0.571810 0.350645
Si Si3 0.807605 0.829424 0.945469
Si Si4 0.357511 0.643543 0.397535
Si Si5 0.024805 0.814806 0.616627
Si Si6 0.271461 0.663271 0.702025
Si Si7 0.693505 0.980256 0.213920
Si Si8 0.907787 0.210821 0.692042
O O1 0.385401 0.241939 0.019421
O O2 0.631516 0.287647 0.188844
O O3 0.652626 0.148317 0.089984
O O4 0.765649 0.592593 0.987113
O O5 0.591795 0.463814 0.464410
O O6 0.610364 0.363871 0.334629
O O7 0.679183 0.774251 0.234392
O O8 0.930742 0.702864 0.378771
O O9 0.825899 0.969456 0.805506
O O10 0.000000 0.000000 0.000000
O O11 0.183468 0.433034 0.364848
O O12 0.527221 0.831251 0.304789
O O13 0.261843 0.755432 0.381609
O O14 0.196207 0.818033 0.607140
O O15 0.000000 0.000000 0.500000
O O16 0.099890 0.867047 0.726119
O O17 0.061892 0.402345 0.741219
#
# Coordination Sequence:
#
# PCOD9093663 Si02
#       8
#     2   2   2   2   2   2   2   2
#     4  10  21  36  61  91 110 140 200 247 276 345
#     4  10  20  35  60  82 121 163 184 226 294 341
#     4  11  19  37  65  86 107 148 193 240 299 338
#     4  11  20  37  58  81 120 161 192 230 283 333
#     4  10  20  33  55  83 117 151 203 235 266 332
#     4   8  19  36  54  82 120 148 186 235 280 338
#     4  11  22  37  57  86 118 153 196 239 278 343
#     4   9  19  35  58  82 114 151 189 233 283 340
#
# _framework density 23.317603999999999
#
# number of rings (size 3 to 8) (size 9 to 14) (size 15 to 20)
#    0.750    1.250    3.750    0.750    0.000    0.000 
#    0.000    5.625    0.000    6.750    0.000    0.000 
#    0.000    0.000    0.000    0.000    0.000    0.000 
#
# Total GULP energy -89236.881817 kJ/mol
# GULP energy per Si atom -5577.305114 kJ/mol
# Density = 2.326453 g / cm^3
# Si number density = 23.317604 Si / 1000 Ang^3
#
#
#
# Elastic Constant Matrix: (Units=GPa)
#
#
# Indices 1 2 3 4 5 6 
#
# 1 57.3640 16.4411 15.5174 -11.5272 18.6204 -15.7022
# 2 16.4411 92.2839 34.6765 -15.7004 15.0848 -0.6741
# 3 15.5174 34.6765 83.6043 -35.7770 21.3636 -7.7123
# 4 -11.5272 -15.7004 -35.7770 40.2814 -7.6741 7.8585
# 5 18.6204 15.0848 21.3636 -7.6741 36.2188 -7.8797
# 6 -15.7022 -0.6741 -7.7123 7.8585 -7.8797 31.7192
#
#
#
# Elastic Compliance Matrix: (Units=1/GPa)
#
#
# Indices 1 2 3 4 5 6 
#
# 1 0.024010 -0.002587 0.001344 0.003525 -0.009363 0.008958
# 2 -0.002587 0.013428 -0.004574 0.000580 -0.002042 -0.002758
# 3 0.001344 -0.004574 0.023492 0.017834 -0.008943 -0.000360
# 4 0.003525 0.000580 0.017834 0.042052 -0.004867 -0.005534
# 5 -0.009363 -0.002042 -0.008943 -0.004867 0.038363 0.003883
# 6 0.008958 -0.002758 -0.000360 -0.005534 0.003883 0.038151
#
#
# Mechanical properties :
#
#
# Convention : Reuss Voigt Hill
#
# Bulk Modulus (GPa) = 20.28520 40.72472 30.50496
# Shear Modulus (GPa) = 24.08922 32.75170 28.42046
#
# Velocity S-wave (km/s) = 3.21766 3.75185 3.49498
# Velocity P-wave (km/s) = 4.74583 6.02260 5.42193
#
# Compressibility (1/GPa) = 0.04929702
#
# Stress axis : x y z
#
# Youngs Moduli (GPa) = 41.64888 74.47129 42.56731
#
# Poissons Ratio (x) = 0.19266 -0.05721
# Poissons Ratio (y) = 0.10774 0.19469
# Poissons Ratio (z) = -0.05597 0.34061
#
# Static dielectric constant tensor:
#      x y z
#    x 1.997680 -0.052760 0.056220 
#    y -0.052760 1.935970 -0.042520 
#    z 0.056220 -0.042520 1.872530 
# 
# From -- ./inp_files/556916.got.cif
#   From: 2010.05.17/outbox.cif.g08.bks.cpg/sg2_279_cif.got.tgz:556916.got - 2010.06.03 11:33:40.
