data_PCOD9093139
_publ_section_title
;
Structure prediction by ZEFSAII (Michael W. Deem and Ramdas Pophale) SiO2 
 PCOD9093139
Probable space group: P -1
;
_chemical_formula_sum "Si O2"
_cell_formula_units_Z 16
_cell_length_a 11.905721
_cell_length_b 22.713934
_cell_length_c 23.234172
_cell_angle_alpha 162.332632
_cell_angle_beta 28.625059
_cell_angle_gamma 142.047481
_cell_volume 862.639261
_symmetry_space_group_name_H-M "P -1"
_symmetry_group_IT_number 2
_symmetry_cell_setting 'triclinic'
loop_
_space_group_symop_operation_xyz
x,y,z
-x,-y,-z
loop_
_atom_site_type_symbol
_atom_site_label
_atom_site_fract_x
_atom_site_fract_y
_atom_site_fract_z
Si Si1 0.600893 0.193768 0.133561
Si Si2 0.574442 0.294555 0.430122
Si Si3 0.099040 0.575479 0.733121
Si Si4 0.802309 0.099063 0.829361
Si Si5 0.904651 0.469004 0.075992
Si Si6 0.739254 0.829862 0.912410
Si Si7 0.926273 0.634028 0.337388
Si Si8 0.011501 0.475444 0.386453
O O1 0.351165 0.385693 0.430967
O O2 0.803939 0.229649 0.119871
O O3 0.731007 0.188040 0.008046
O O4 0.500000 0.000000 0.000000
O O5 0.385853 0.389364 0.655467
O O6 0.372709 0.324593 0.497431
O O7 0.757374 0.421943 0.458876
O O8 0.736150 0.057051 0.140773
O O9 0.991692 0.515460 0.784625
O O10 0.929783 0.573633 0.752472
O O11 0.949438 0.857575 0.543188
O O12 0.925703 0.236889 0.866022
O O13 0.539403 0.128045 0.944658
O O14 0.027631 0.544552 0.145959
O O15 0.000000 0.500000 0.000000
O O16 0.934228 0.708092 0.661991
O O17 0.797680 0.677683 0.798733
#
# Coordination Sequence:
#
# PCOD9093139 Si02
#       8
#     2   2   2   2   2   2   2   2
#     4  11  19  27  47  69 102 137 158 189 251 293
#     4   9  18  34  47  70 102 126 166 205 234 292
#     4  11  19  28  44  73  99 133 164 191 239 301
#     4  11  18  34  49  71 104 126 164 203 239 302
#     4  10  20  34  52  73  96 125 160 214 267 288
#     4  10  20  32  46  70 104 141 162 193 234 287
#     4   9  19  31  48  70 100 124 159 205 251 292
#     4  11  20  30  48  71 107 140 164 187 230 296
#
# _framework density 18.547730999999999
#
# number of rings (size 3 to 8) (size 9 to 14) (size 15 to 20)
#    0.750    1.000    5.000    1.875    1.750    0.500 
#    0.000    0.000    0.000    0.000    0.000    1.750 
#    0.000    0.000    0.000    0.000    0.000    0.000 
#
# Total GULP energy -89095.620115 kJ/mol
# GULP energy per Si atom -5568.476257 kJ/mol
# Density = 1.850552 g / cm^3
# Si number density = 18.547731 Si / 1000 Ang^3
#
#
#
# Elastic Constant Matrix: (Units=GPa)
#
#
# Indices 1 2 3 4 5 6 
#
# 1 68.5627 10.9812 10.7490 -2.9495 10.6086 -27.3484
# 2 10.9812 86.9159 30.6587 3.0503 20.6318 -28.3640
# 3 10.7490 30.6587 66.2090 21.8521 18.9050 -2.2029
# 4 -2.9495 3.0503 21.8521 25.3555 -0.2691 10.5755
# 5 10.6086 20.6318 18.9050 -0.2691 21.7372 -4.8588
# 6 -27.3484 -28.3640 -2.2029 10.5755 -4.8588 27.4137
#
#
#
# Elastic Compliance Matrix: (Units=1/GPa)
#
#
# Indices 1 2 3 4 5 6 
#
# 1 0.051601 0.034873 0.004809 -0.043390 -0.041237 0.097377
# 2 0.034873 0.049836 0.001694 -0.043644 -0.045022 0.095347
# 3 0.004809 0.001694 0.035993 -0.038858 -0.031526 0.018845
# 4 -0.043390 -0.043644 -0.038858 0.127443 0.069260 -0.128454
# 5 -0.041237 -0.045022 -0.031526 0.069260 0.115569 -0.096489
# 6 0.097377 0.095347 0.018845 -0.128454 -0.096489 0.266240
#
#
# Mechanical properties :
#
#
# Convention : Reuss Voigt Hill
#
# Bulk Modulus (GPa) = 4.54169 36.27393 20.40781
# Shear Modulus (GPa) = 7.84529 26.18787 17.01658
#
# Velocity S-wave (km/s) = 2.05888 3.76163 3.03223
# Velocity P-wave (km/s) = 2.84709 6.20209 4.82555
#
# Compressibility (1/GPa) = 0.22018221
#
# Stress axis : x y z
#
# Youngs Moduli (GPa) = 19.37929 20.06581 27.78348
#
# Poissons Ratio (x) = -0.69976 -0.13362
# Poissons Ratio (y) = -0.67582 -0.04705
# Poissons Ratio (z) = -0.09320 -0.03398
#
# Static dielectric constant tensor:
#      x y z
#    x 1.713220 -0.023450 0.056690 
#    y -0.023450 1.655890 0.029960 
#    z 0.056690 0.029960 1.691460 
# 
# From -- ./inp_files/596162.got.cif
#   From: 2010.05.17/outbox.cif.g08.bks.cpg/sg2_299_cif.got.tgz:596162.got - 2010.06.03 11:33:40.
