data_PCOD9093655
_publ_section_title
;
Structure prediction by ZEFSAII (Michael W. Deem and Ramdas Pophale) SiO2 
 PCOD9093655
Probable space group: P -1
;
_chemical_formula_sum "Si O2"
_cell_formula_units_Z 16
_cell_length_a 11.652468
_cell_length_b 8.320284
_cell_length_c 23.576105
_cell_angle_alpha 137.165389
_cell_angle_beta 153.008959
_cell_angle_gamma 54.653814
_cell_volume 684.194048
_symmetry_space_group_name_H-M "P -1"
_symmetry_group_IT_number 2
_symmetry_cell_setting 'triclinic'
loop_
_space_group_symop_operation_xyz
x,y,z
-x,-y,-z
loop_
_atom_site_type_symbol
_atom_site_label
_atom_site_fract_x
_atom_site_fract_y
_atom_site_fract_z
Si Si1 0.526170 0.898567 0.395981
Si Si2 0.014807 0.419848 0.387671
Si Si3 0.914668 0.158676 0.386538
Si Si4 0.202570 0.563976 0.021710
Si Si5 0.450074 0.640307 0.415100
Si Si6 0.026869 0.162880 0.919211
Si Si7 0.005584 0.206139 0.103933
Si Si8 0.220363 0.213414 0.682225
O O1 0.646614 0.178257 0.538861
O O2 0.424461 0.742754 0.367298
O O3 0.273216 0.900193 0.248904
O O4 0.770606 0.801548 0.457473
O O5 0.154023 0.641351 0.549535
O O6 0.241852 0.326327 0.433391
O O7 0.865342 0.221766 0.316211
O O8 0.860964 0.538914 0.305034
O O9 0.784657 0.891620 0.283595
O O10 0.983277 0.648918 0.984882
O O11 0.486746 0.742970 0.200085
O O12 0.195896 0.302303 0.978097
O O13 0.131222 0.598156 0.934118
O O14 0.297507 0.363465 0.283667
O O15 0.102974 0.936070 0.923744
O O16 0.000000 0.000000 0.000000
O O17 0.000000 0.000000 0.500000
#
# Coordination Sequence:
#
# PCOD9093655 Si02
#       8
#     2   2   2   2   2   2   2   2
#     4  10  20  38  61  91 125 156 193 249 302 354
#     4   9  19  34  53  86 114 148 191 246 285 340
#     4   9  19  33  54  84 114 150 188 238 292 342
#     4  10  21  37  54  86 123 150 198 251 297 344
#     4  10  21  37  61  92 126 152 196 251 302 344
#     4  10  20  35  57  85 116 160 194 244 300 350
#     4  10  22  35  56  89 117 157 195 250 292 349
#     4  10  20  33  55  82 113 150 193 241 290 345
#
# _framework density 23.385180999999999
#
# number of rings (size 3 to 8) (size 9 to 14) (size 15 to 20)
#    0.000    2.250    1.250    1.500    8.750    1.500 
#    0.000    0.000    0.000    1.500    0.000    0.000 
#    0.000    0.000    0.000    0.000    0.000    0.000 
#
# Total GULP energy -89216.223997 kJ/mol
# GULP energy per Si atom -5576.014000 kJ/mol
# Density = 2.333196 g / cm^3
# Si number density = 23.385181 Si / 1000 Ang^3
#
#
#
# Elastic Constant Matrix: (Units=GPa)
#
#
# Indices 1 2 3 4 5 6 
#
# 1 40.9390 57.7899 17.7633 7.8355 17.3851 26.9909
# 2 57.7899 138.9439 14.9987 5.8569 12.5744 60.1917
# 3 17.7633 14.9987 54.4348 13.5879 14.5643 16.2438
# 4 7.8355 5.8569 13.5879 24.9781 6.7782 7.8298
# 5 17.3851 12.5744 14.5643 6.7782 21.5833 11.0200
# 6 26.9909 60.1917 16.2438 7.8298 11.0200 59.9915
#
#
#
# Elastic Compliance Matrix: (Units=1/GPa)
#
#
# Indices 1 2 3 4 5 6 
#
# 1 0.108640 -0.041621 -0.008824 -0.005649 -0.059029 0.006851
# 2 -0.041621 0.028744 0.003798 0.003383 0.021042 -0.015450
# 3 -0.008824 0.003798 0.025660 -0.008705 -0.007504 -0.004273
# 4 -0.005649 0.003383 -0.008705 0.048256 -0.004694 -0.003932
# 5 -0.059029 0.021042 -0.007504 -0.004694 0.092724 -0.008943
# 6 0.006851 -0.015450 -0.004273 -0.003932 -0.008943 0.032401
#
#
# Mechanical properties :
#
#
# Convention : Reuss Voigt Hill
#
# Bulk Modulus (GPa) = 14.33731 46.15795 30.24763
# Shear Modulus (GPa) = 11.03831 30.89497 20.96664
#
# Velocity S-wave (km/s) = 2.17496 3.63868 2.99754
# Velocity P-wave (km/s) = 3.52867 6.11836 4.99429
#
# Compressibility (1/GPa) = 0.06974808
#
# Stress axis : x y z
#
# Youngs Moduli (GPa) = 9.20475 34.78957 38.97172
#
# Poissons Ratio (x) = 1.44797 0.34390
# Poissons Ratio (y) = 0.38311 -0.14800
# Poissons Ratio (z) = 0.08123 -0.13212
#
# Static dielectric constant tensor:
#      x y z
#    x 1.898110 0.071430 -0.028000 
#    y 0.071430 1.938760 0.007200 
#    z -0.028000 0.007200 1.896210 
# 
# From -- ./inp_files/307197.got.cif
#   From: 2010.05.17/outbox.cif.g08.bks.cpg/sg2_154_cif.got.tgz:307197.got - 2010.06.03 11:33:40.
