data_PCOD9093224
_publ_section_title
;
Structure prediction by ZEFSAII (Michael W. Deem and Ramdas Pophale) SiO2 
 PCOD9093224
Probable space group: P -1
;
_chemical_formula_sum "Si O2"
_cell_formula_units_Z 14
_cell_length_a 6.038168
_cell_length_b 5.179270
_cell_length_c 22.946655
_cell_angle_alpha 90.860260
_cell_angle_beta 124.120170
_cell_angle_gamma 76.248398
_cell_volume 570.778145
_symmetry_space_group_name_H-M "P -1"
_symmetry_group_IT_number 2
_symmetry_cell_setting 'triclinic'
loop_
_space_group_symop_operation_xyz
x,y,z
-x,-y,-z
loop_
_atom_site_type_symbol
_atom_site_label
_atom_site_fract_x
_atom_site_fract_y
_atom_site_fract_z
Si Si1 0.721170 0.903057 0.082799
Si Si2 0.291797 0.244071 0.797567
Si Si3 0.970349 0.663820 0.840080
Si Si4 0.549690 0.432704 0.276912
Si Si5 0.745548 0.866191 0.456386
Si Si6 0.231900 0.799138 0.335739
Si Si7 0.075591 0.439051 0.410389
O O1 0.917285 0.097546 0.120142
O O2 0.915339 0.598181 0.102596
O O3 0.572349 0.905559 0.124373
O O4 0.500000 0.000000 0.000000
O O5 0.117031 0.531357 0.801294
O O6 0.450360 0.337655 0.769427
O O7 0.070333 0.099968 0.738258
O O8 0.641874 0.737160 0.779604
O O9 0.391604 0.589405 0.309771
O O10 0.866000 0.304606 0.344329
O O11 0.434052 0.984293 0.384134
O O12 0.877582 0.634913 0.428536
O O13 0.713475 0.755142 0.515649
O O14 0.000000 0.000000 0.500000
O O15 0.193930 0.621871 0.385217
#
# Coordination Sequence:
#
# PCOD9093224 Si02
#       7
#     2   2   2   2   2   2   2
#     4  10  20  39  62  86 121 154 189 237 292 345
#     4   8  19  35  58  81 112 150 192 239 290 343
#     4   9  20  37  60  86 115 154 190 237 288 342
#     4   9  17  38  56  82 109 148 196 237 286 344
#     4  10  20  32  51  80 108 145 190 234 284 340
#     4   9  17  35  56  74 115 144 189 233 290 339
#     4   9  19  35  53  76 110 146 184 239 284 340
#
# _framework density 24.527919000000001
#
# number of rings (size 3 to 8) (size 9 to 14) (size 15 to 20)
#    0.857    2.000    0.000    0.857    0.000    1.714 
#    2.571   11.429    0.000    0.000    0.000    0.000 
#    0.000    0.000    0.000    0.000    0.000    0.000 
#
# Total GULP energy -78131.760472 kJ/mol
# GULP energy per Si atom -5580.840034 kJ/mol
# Density = 2.447209 g / cm^3
# Si number density = 24.527919 Si / 1000 Ang^3
#
#
#
# Elastic Constant Matrix: (Units=GPa)
#
#
# Indices 1 2 3 4 5 6 
#
# 1 78.6368 22.0442 63.8832 -11.8588 4.1096 9.5199
# 2 22.0442 83.4307 41.0746 2.1116 -0.5638 13.6566
# 3 63.8832 41.0746 180.8898 -8.8058 -3.5830 32.5054
# 4 -11.8588 2.1116 -8.8058 37.8633 13.0142 2.5456
# 5 4.1096 -0.5638 -3.5830 13.0142 33.3445 0.2424
# 6 9.5199 13.6566 32.5054 2.5456 0.2424 31.2572
#
#
#
# Elastic Compliance Matrix: (Units=1/GPa)
#
#
# Indices 1 2 3 4 5 6 
#
# 1 0.019824 -0.002478 -0.006448 0.006767 -0.005828 0.001245
# 2 -0.002478 0.014149 -0.001814 -0.002181 0.001226 -0.003373
# 3 -0.006448 -0.001814 0.009557 0.000179 0.001773 -0.007211
# 4 0.006767 -0.002181 0.000179 0.033772 -0.014004 -0.003936
# 5 -0.005828 0.001226 0.001773 -0.014004 0.036383 0.000254
# 6 0.001245 -0.003373 -0.007211 -0.003936 0.000254 0.040905
#
#
# Mechanical properties :
#
#
# Convention : Reuss Voigt Hill
#
# Bulk Modulus (GPa) = 45.34911 66.32902 55.83907
# Shear Modulus (GPa) = 27.26000 34.89001 31.07500
#
# Velocity S-wave (km/s) = 3.33736 3.77564 3.56325
# Velocity P-wave (km/s) = 5.77751 6.79031 6.30428
#
# Compressibility (1/GPa) = 0.02205115
#
# Stress axis : x y z
#
# Youngs Moduli (GPa) = 50.44381 70.67552 104.63719
#
# Poissons Ratio (x) = 0.17512 0.67471
# Poissons Ratio (y) = 0.12499 0.18977
# Poissons Ratio (z) = 0.32527 0.12817
#
# Static dielectric constant tensor:
#      x y z
#    x 2.009430 -0.031100 0.028240 
#    y -0.031100 1.987870 0.004840 
#    z 0.028240 0.004840 1.920730 
# 
# From -- ./inp_files/105986.got.cif
#   From: 2010.05.17/outbox.cif.g08.bks.cpg/sg2_53_cif.got.tgz:105986.got - 2010.06.03 11:33:40.
