data_PCOD9093137
_publ_section_title
;
Structure prediction by ZEFSAII (Michael W. Deem and Ramdas Pophale) SiO2 
 PCOD9093137
Probable space group: P -1
;
_chemical_formula_sum "Si O2"
_cell_formula_units_Z 16
_cell_length_a 15.597947
_cell_length_b 12.362584
_cell_length_c 5.003528
_cell_angle_alpha 85.787459
_cell_angle_beta 102.419022
_cell_angle_gamma 99.805440
_cell_volume 927.813674
_symmetry_space_group_name_H-M "P -1"
_symmetry_group_IT_number 2
_symmetry_cell_setting 'triclinic'
loop_
_space_group_symop_operation_xyz
x,y,z
-x,-y,-z
loop_
_atom_site_type_symbol
_atom_site_label
_atom_site_fract_x
_atom_site_fract_y
_atom_site_fract_z
Si Si1 0.550341 0.768695 0.678578
Si Si2 0.993130 0.417821 0.756606
Si Si3 0.324089 0.703622 0.041747
Si Si4 0.419546 0.566531 0.434799
Si Si5 0.798229 0.363156 0.512588
Si Si6 0.494993 0.878210 0.127095
Si Si7 0.180403 0.388295 0.753380
Si Si8 0.289349 0.357666 0.364821
O O1 0.461453 0.677340 0.595251
O O2 0.548824 0.810914 0.970465
O O3 0.636742 0.716898 0.655645
O O4 0.535887 0.865418 0.448066
O O5 0.896263 0.344723 0.675389
O O6 0.000000 0.500000 0.500000
O O7 0.078650 0.357305 0.792598
O O8 0.000000 0.500000 0.000000
O O9 0.387933 0.608991 0.120335
O O10 0.255088 0.699985 0.756610
O O11 0.392994 0.816046 0.074235
O O12 0.500000 0.500000 0.500000
O O13 0.266098 0.669353 0.273845
O O14 0.342329 0.472091 0.497974
O O15 0.813607 0.489450 0.393161
O O16 0.500000 0.000000 0.000000
O O17 0.217791 0.317989 0.555880
O O18 0.240177 0.385595 0.057099
#
# Coordination Sequence:
#
# PCOD9093137 Si02
#       8
#     2   2   2   2   2   2   2   2
#     4  10  22  36  52  76 100 133 175 215 256 303
#     4  10  20  32  45  70 102 144 180 206 244 287
#     4  11  20  33  51  75  97 135 179 209 257 297
#     4   9  18  31  46  70 104 137 167 205 239 289
#     4  11  19  32  49  71 105 136 178 213 236 299
#     4  11  23  40  56  72 101 133 172 225 273 304
#     4  11  19  31  48  71 106 146 172 199 248 295
#     4  11  20  31  51  74 107 138 174 205 239 306
#
# _framework density 17.244841999999998
#
# number of rings (size 3 to 8) (size 9 to 14) (size 15 to 20)
#    0.000    1.500    2.500    5.625    0.000    0.000 
#    0.000    5.625    0.000    0.000    0.000    0.000 
#    0.000   20.000    0.000    0.000    0.000    0.000 
#
# Total GULP energy -89068.349762 kJ/mol
# GULP energy per Si atom -5566.771860 kJ/mol
# Density = 1.720559 g / cm^3
# Si number density = 17.244842 Si / 1000 Ang^3
#
#
#
# Elastic Constant Matrix: (Units=GPa)
#
#
# Indices 1 2 3 4 5 6 
#
# 1 139.6541 27.0766 45.1752 -5.3729 10.1980 -2.7431
# 2 27.0766 45.9229 -1.6626 -8.7770 5.4978 6.9859
# 3 45.1752 -1.6626 98.0031 -6.5370 -6.0003 1.1598
# 4 -5.3729 -8.7770 -6.5370 15.3484 -2.0939 -3.6949
# 5 10.1980 5.4978 -6.0003 -2.0939 34.2396 -0.7250
# 6 -2.7431 6.9859 1.1598 -3.6949 -0.7250 15.2941
#
#
#
# Elastic Compliance Matrix: (Units=1/GPa)
#
#
# Indices 1 2 3 4 5 6 
#
# 1 0.010511 -0.007155 -0.005330 -0.001887 -0.002926 0.004963
# 2 -0.007155 0.030912 0.004821 0.014040 -0.001392 -0.012443
# 3 -0.005330 0.004821 0.013420 0.006499 0.003511 -0.002439
# 4 -0.001887 0.014040 0.006499 0.078796 0.004519 0.012006
# 5 -0.002926 -0.001392 0.003511 0.004519 0.031244 0.002418
# 6 0.004963 -0.012443 -0.002439 0.012006 0.002418 0.075159
#
#
# Mechanical properties :
#
#
# Convention : Reuss Voigt Hill
#
# Bulk Modulus (GPa) = 25.30752 47.19539 36.25146
# Shear Modulus (GPa) = 18.61912 27.17581 22.89747
#
# Velocity S-wave (km/s) = 3.28943 3.97404 3.64783
# Velocity P-wave (km/s) = 5.39763 6.96309 6.22973
#
# Compressibility (1/GPa) = 0.03951394
#
# Stress axis : x y z
#
# Youngs Moduli (GPa) = 95.14208 32.34984 74.51692
#
# Poissons Ratio (x) = 0.23148 0.39718
# Poissons Ratio (y) = 0.68079 -0.35927
# Poissons Ratio (z) = 0.50711 -0.15597
#
# Static dielectric constant tensor:
#      x y z
#    x 1.563020 0.033710 -0.002910 
#    y 0.033710 1.552710 0.007350 
#    z -0.002910 0.007350 1.618550 
# 
# From -- ./inp_files/93802.got.cif
#   From: 2010.05.17/outbox.cif.g08.bks.cpg/sg2_47_cif.got.tgz:93802.got - 2010.06.03 11:33:40.
