data_PCOD9093214
_publ_section_title
;
Structure prediction by ZEFSAII (Michael W. Deem and Ramdas Pophale) SiO2 
 PCOD9093214
Probable space group: P -1
;
_chemical_formula_sum "Si O2"
_cell_formula_units_Z 16
_cell_length_a 7.914023
_cell_length_b 11.743348
_cell_length_c 12.706293
_cell_angle_alpha 86.191473
_cell_angle_beta 118.825787
_cell_angle_gamma 137.789879
_cell_volume 604.386901
_symmetry_space_group_name_H-M "P -1"
_symmetry_group_IT_number 2
_symmetry_cell_setting 'triclinic'
loop_
_space_group_symop_operation_xyz
x,y,z
-x,-y,-z
loop_
_atom_site_type_symbol
_atom_site_label
_atom_site_fract_x
_atom_site_fract_y
_atom_site_fract_z
Si Si1 0.991755 0.691074 0.923546
Si Si2 0.204140 0.022146 0.222164
Si Si3 0.762601 0.024193 0.322403
Si Si4 0.191407 0.431922 0.447383
Si Si5 0.627926 0.445020 0.272794
Si Si6 0.401642 0.107946 0.957331
Si Si7 0.408068 0.171981 0.508331
Si Si8 0.128815 0.368267 0.884202
O O1 0.642408 0.580732 0.796250
O O2 0.218852 0.915127 0.971787
O O3 0.208588 0.711137 0.914293
O O4 0.934589 0.604164 0.024148
O O5 0.439184 0.232231 0.229070
O O6 0.325585 0.075756 0.376987
O O7 0.836457 0.899144 0.099842
O O8 0.137602 0.861737 0.178320
O O9 0.870422 0.207048 0.337073
O O10 0.098901 0.111175 0.428396
O O11 0.617545 0.920860 0.173011
O O12 0.581029 0.902135 0.382131
O O13 0.500000 0.500000 0.500000
O O14 0.179457 0.447869 0.567568
O O15 0.277610 0.595307 0.416815
O O16 0.840804 0.564558 0.225798
O O17 0.500000 0.500000 0.000000
#
# Coordination Sequence:
#
# PCOD9093214 Si02
#       8
#     2   2   2   2   2   2   2   2
#     4   9  18  33  49  71 102 132 166 200 240 297
#     4   9  17  32  52  73  99 128 160 205 248 288
#     4   9  15  26  46  70  95 122 153 196 245 285
#     4   9  15  25  45  72  98 121 154 203 247 280
#     4   9  18  31  50  75 100 129 165 203 244 289
#     4   9  18  32  51  73 101 133 162 199 249 296
#     4   8  15  25  43  72  95 117 155 198 241 284
#     4  10  20  32  51  73  96 131 172 205 238 286
#
# _framework density 26.473109000000001
#
# number of rings (size 3 to 8) (size 9 to 14) (size 15 to 20)
#    0.000    3.000    0.000    3.000    0.000    5.500 
#    0.000    2.500    0.000   12.000    0.000    3.500 
#    0.000    0.000    0.000    1.125    0.000    0.000 
#
# Total GULP energy -89414.164555 kJ/mol
# GULP energy per Si atom -5588.385285 kJ/mol
# Density = 2.641285 g / cm^3
# Si number density = 26.473109 Si / 1000 Ang^3
#
#
#
# Elastic Constant Matrix: (Units=GPa)
#
#
# Indices 1 2 3 4 5 6 
#
# 1 59.0234 24.2415 44.6988 -10.6033 18.7081 11.1931
# 2 24.2415 106.5152 62.8677 -18.7430 -15.8642 20.0648
# 3 44.6988 62.8677 80.9663 -25.5276 -4.3155 4.5631
# 4 -10.6033 -18.7430 -25.5276 49.5161 4.9876 -7.4046
# 5 18.7081 -15.8642 -4.3155 4.9876 40.4611 -4.4284
# 6 11.1931 20.0648 4.5631 -7.4046 -4.4284 46.2721
#
#
#
# Elastic Compliance Matrix: (Units=1/GPa)
#
#
# Indices 1 2 3 4 5 6 
#
# 1 0.052031 0.008431 -0.037212 -0.004605 -0.025881 -0.015786
# 2 0.008431 0.022063 -0.022040 -0.002830 0.001686 -0.009724
# 3 -0.037212 -0.022040 0.053765 0.012426 0.014589 0.016641
# 4 -0.004605 -0.002830 0.012426 0.025336 -0.000214 0.005149
# 5 -0.025881 0.001686 0.014589 -0.000214 0.039786 0.007864
# 6 -0.015786 -0.009724 0.016641 0.005149 0.007864 0.029582
#
#
# Mechanical properties :
#
#
# Convention : Reuss Voigt Hill
#
# Bulk Modulus (GPa) = 38.14467 56.68009 47.41238
# Shear Modulus (GPa) = 15.01751 34.89632 24.95691
#
# Velocity S-wave (km/s) = 2.38434 3.63461 3.07372
# Velocity P-wave (km/s) = 4.69257 6.25066 5.52680
#
# Compressibility (1/GPa) = 0.02621598
#
# Stress axis : x y z
#
# Youngs Moduli (GPa) = 19.21948 45.32459 18.59935
#
# Poissons Ratio (x) = -0.38212 0.69213
# Poissons Ratio (y) = -0.16203 0.40993
# Poissons Ratio (z) = 0.71520 0.99895
#
# Static dielectric constant tensor:
#      x y z
#    x 2.135390 0.026390 0.074240 
#    y 0.026390 2.018630 0.028990 
#    z 0.074240 0.028990 2.077220 
# 
# From -- ./inp_files/306674.got.cif
#   From: 2010.05.17/outbox.cif.g08.bks.cpg/sg2_154_cif.got.tgz:306674.got - 2010.06.03 11:33:40.
