data_PCOD9093767
_publ_section_title
;
Structure prediction by ZEFSAII (Michael W. Deem and Ramdas Pophale) SiO2 
 PCOD9093767
Probable space group: P -1
;
_chemical_formula_sum "Si O2"
_cell_formula_units_Z 16
_cell_length_a 15.485939
_cell_length_b 24.346974
_cell_length_c 7.063825
_cell_angle_alpha 134.420693
_cell_angle_beta 47.557055
_cell_angle_gamma 157.979743
_cell_volume 709.829616
_symmetry_space_group_name_H-M "P -1"
_symmetry_group_IT_number 2
_symmetry_cell_setting 'triclinic'
loop_
_space_group_symop_operation_xyz
x,y,z
-x,-y,-z
loop_
_atom_site_type_symbol
_atom_site_label
_atom_site_fract_x
_atom_site_fract_y
_atom_site_fract_z
Si Si1 0.518589 0.565181 0.812042
Si Si2 0.999878 0.221261 0.394740
Si Si3 0.799150 0.361992 0.245283
Si Si4 0.048430 0.282960 0.922195
Si Si5 0.582641 0.961429 0.853891
Si Si6 0.014285 0.636839 0.485978
Si Si7 0.533597 0.874943 0.301187
Si Si8 0.697098 0.392723 0.865553
O O1 0.500000 0.500000 0.500000
O O2 0.316946 0.418441 0.893800
O O3 0.788359 0.714919 0.819325
O O4 0.425023 0.597086 0.980368
O O5 0.012735 0.251552 0.673294
O O6 0.044913 0.324613 0.462325
O O7 0.752554 0.041152 0.286290
O O8 0.591258 0.182912 0.099814
O O9 0.849258 0.469119 0.314424
O O10 0.748689 0.368769 0.545677
O O11 0.039550 0.452885 0.077719
O O12 0.000388 0.339579 0.218963
O O13 0.844197 0.117193 0.915196
O O14 0.591340 0.921051 0.547754
O O15 0.500000 0.000000 0.000000
O O16 0.282934 0.769469 0.376409
O O17 0.472516 0.749930 0.085383
#
# Coordination Sequence:
#
# PCOD9093767 Si02
#       8
#     2   2   2   2   2   2   2   2
#     4  10  20  36  56  83 116 159 197 238 284 353
#     4  10  23  35  56  91 117 155 201 230 295 361
#     4   9  18  30  58  91 114 147 195 247 298 342
#     4  10  20  36  59  82 113 156 194 243 284 339
#     4  10  16  29  56  89 109 147 193 234 293 347
#     4  11  19  37  62  86 121 150 192 250 294 348
#     4   9  19  33  56  89 115 149 192 248 292 344
#     4   9  16  32  56  85 112 150 200 239 289 347
#
# _framework density 22.540621000000002
#
# number of rings (size 3 to 8) (size 9 to 14) (size 15 to 20)
#    0.000    2.250    2.500    1.875    0.000    1.000 
#    0.000    0.000    5.500    9.750    0.000    0.000 
#    0.000    0.000    0.000    0.000    0.000    0.000 
#
# Total GULP energy -89179.651604 kJ/mol
# GULP energy per Si atom -5573.728225 kJ/mol
# Density = 2.248932 g / cm^3
# Si number density = 22.540621 Si / 1000 Ang^3
#
#
#
# Elastic Constant Matrix: (Units=GPa)
#
#
# Indices 1 2 3 4 5 6 
#
# 1 69.8183 62.9272 32.9206 -6.1248 -19.8163 -13.6152
# 2 62.9272 242.7454 56.8032 4.6186 -27.2637 -16.7868
# 3 32.9206 56.8032 76.4219 -4.0148 -13.2905 -0.2576
# 4 -6.1248 4.6186 -4.0148 32.2360 0.2147 -1.3035
# 5 -19.8163 -27.2637 -13.2905 0.2147 42.0930 -3.3493
# 6 -13.6152 -16.7868 -0.2576 -1.3035 -3.3493 30.9889
#
#
#
# Elastic Compliance Matrix: (Units=1/GPa)
#
#
# Indices 1 2 3 4 5 6 
#
# 1 0.025398 -0.003470 -0.006607 0.004862 0.008421 0.010339
# 2 -0.003470 0.006001 -0.002790 -0.001804 0.001525 0.001792
# 3 -0.006607 -0.002790 0.018138 0.001232 0.000472 -0.004160
# 4 0.004862 -0.001804 0.001232 0.032456 0.001559 0.002703
# 5 0.008421 0.001525 0.000472 0.001559 0.029469 0.007780
# 6 0.010339 0.001792 -0.004160 0.002703 0.007780 0.038703
#
#
# Mechanical properties :
#
#
# Convention : Reuss Voigt Hill
#
# Bulk Modulus (GPa) = 42.00883 77.14307 59.57595
# Shear Modulus (GPa) = 27.19854 36.81922 32.00888
#
# Velocity S-wave (km/s) = 3.47745 4.04599 3.77245
# Velocity P-wave (km/s) = 5.89923 7.49167 6.74263
#
# Compressibility (1/GPa) = 0.02380452
#
# Stress axis : x y z
#
# Youngs Moduli (GPa) = 39.37247 166.63175 55.13353
#
# Poissons Ratio (x) = 0.57815 0.36428
# Poissons Ratio (y) = 0.13661 0.15380
# Poissons Ratio (z) = 0.26014 0.46484
#
# Static dielectric constant tensor:
#      x y z
#    x 1.903570 -0.018740 0.061510 
#    y -0.018740 1.943840 0.042080 
#    z 0.061510 0.042080 1.876760 
# 
# From -- ./inp_files/338798.got.cif
#   From: 2010.05.17/outbox.cif.g08.bks.cpg/sg2_170_cif.got.tgz:338798.got - 2010.06.03 11:33:40.
