data_PCOD9093949
_publ_section_title
;
Structure prediction by ZEFSAII (Michael W. Deem and Ramdas Pophale) SiO2 
 PCOD9093949
Probable space group: P -1
;
_chemical_formula_sum "Si O2"
_cell_formula_units_Z 16
_cell_length_a 9.188209
_cell_length_b 5.411771
_cell_length_c 15.693449
_cell_angle_alpha 68.142254
_cell_angle_beta 86.004709
_cell_angle_gamma 67.669490
_cell_volume 667.591032
_symmetry_space_group_name_H-M "P -1"
_symmetry_group_IT_number 2
_symmetry_cell_setting 'triclinic'
loop_
_space_group_symop_operation_xyz
x,y,z
-x,-y,-z
loop_
_atom_site_type_symbol
_atom_site_label
_atom_site_fract_x
_atom_site_fract_y
_atom_site_fract_z
Si Si1 0.579775 0.024026 0.755585
Si Si2 0.658685 0.737552 0.624690
Si Si3 0.107041 0.910189 0.924234
Si Si4 0.246682 0.487666 0.676443
Si Si5 0.250730 0.359832 0.879700
Si Si6 0.802500 0.203325 0.809641
Si Si7 0.722242 0.939292 0.420852
Si Si8 0.534279 0.500983 0.899077
O O1 0.436277 0.324715 0.705675
O O2 0.717442 0.983420 0.822824
O O3 0.673159 0.940266 0.673718
O O4 0.493121 0.809347 0.814746
O O5 0.736219 0.427812 0.706181
O O6 0.467782 0.873229 0.603935
O O7 0.737239 0.764440 0.529934
O O8 0.986885 0.076492 0.831813
O O9 0.232353 0.056712 0.917947
O O10 0.169901 0.581055 0.931699
O O11 0.000000 0.000000 0.000000
O O12 0.180575 0.493120 0.773676
O O13 0.206463 0.814967 0.608289
O O14 0.217782 0.281547 0.632644
O O15 0.429861 0.339514 0.882453
O O16 0.714717 0.354202 0.880604
O O17 0.500000 0.500000 0.000000
#
# Coordination Sequence:
#
# PCOD9093949 Si02
#       8
#     2   2   2   2   2   2   2   2
#     4  10  20  36  63  95 135 167 223 273 333 384
#     4   9  20  34  58  96 135 170 207 280 334 387
#     4  12  29  46  69  95 136 180 224 270 328 403
#     4  11  20  39  63  95 128 171 213 272 323 396
#     4  12  25  47  67  96 134 177 220 271 340 393
#     4  11  23  41  66  95 134 174 224 278 329 392
#     4  10  20  33  63 101 131 163 220 270 334 391
#     4  11  24  40  68  97 130 173 225 285 330 394
#
# _framework density 23.966767999999998
#
# number of rings (size 3 to 8) (size 9 to 14) (size 15 to 20)
#    0.000    1.250    2.500    4.125    7.000    2.000 
#    0.000    0.000    0.000    4.500    0.000    0.000 
#    0.000    0.000    0.000    0.000    0.000    0.000 
#
# Total GULP energy -89282.924813 kJ/mol
# GULP energy per Si atom -5580.182801 kJ/mol
# Density = 2.391222 g / cm^3
# Si number density = 23.966768 Si / 1000 Ang^3
#
#
#
# Elastic Constant Matrix: (Units=GPa)
#
#
# Indices 1 2 3 4 5 6 
#
# 1 52.4242 33.5603 -0.6976 -9.8566 8.1062 10.7923
# 2 33.5603 112.6343 39.1205 18.2563 -0.1209 20.3712
# 3 -0.6976 39.1205 137.3187 10.0144 -1.9795 6.8032
# 4 -9.8566 18.2563 10.0144 42.4874 -3.9617 -1.0250
# 5 8.1062 -0.1209 -1.9795 -3.9617 20.5332 -3.4655
# 6 10.7923 20.3712 6.8032 -1.0250 -3.4655 29.2871
#
#
#
# Elastic Compliance Matrix: (Units=1/GPa)
#
#
# Indices 1 2 3 4 5 6 
#
# 1 0.030590 -0.010652 0.002577 0.009920 -0.010888 -0.005403
# 2 -0.010652 0.015838 -0.003614 -0.008464 0.001237 -0.006402
# 3 0.002577 -0.003614 0.008330 0.000152 -0.000273 -0.000398
# 4 0.009920 -0.008464 0.000152 0.029746 0.002382 0.003519
# 5 -0.010888 0.001237 -0.000273 0.002382 0.055098 0.009819
# 6 -0.005403 -0.006402 -0.000398 0.003519 0.009819 0.041966
#
#
# Mechanical properties :
#
#
# Convention : Reuss Voigt Hill
#
# Bulk Modulus (GPa) = 31.86725 49.59374 40.73049
# Shear Modulus (GPa) = 23.21207 33.82112 28.51660
#
# Velocity S-wave (km/s) = 3.11547 3.76063 3.45315
# Velocity P-wave (km/s) = 5.12512 6.29238 5.73850
#
# Compressibility (1/GPa) = 0.03138018
#
# Stress axis : x y z
#
# Youngs Moduli (GPa) = 32.69081 63.13747 120.05273
#
# Poissons Ratio (x) = 0.67254 -0.30941
# Poissons Ratio (y) = 0.34822 0.43387
# Poissons Ratio (z) = -0.08425 0.22818
#
# Static dielectric constant tensor:
#      x y z
#    x 1.961900 0.032010 0.010380 
#    y 0.032010 1.986620 0.020400 
#    z 0.010380 0.020400 1.940540 
# 
# From -- ./inp_files/138885.got.cif
#   From: 2010.05.17/outbox.cif.g08.bks.cpg/sg2_70_cif.got.tgz:138885.got - 2010.06.03 11:33:40.
