data_PCOD9093379
_publ_section_title
;
Structure prediction by ZEFSAII (Michael W. Deem and Ramdas Pophale) SiO2 
 PCOD9093379
Probable space group: P -1
;
_chemical_formula_sum "Si O2"
_cell_formula_units_Z 14
_cell_length_a 5.300321
_cell_length_b 9.028519
_cell_length_c 17.205006
_cell_angle_alpha 40.345277
_cell_angle_beta 92.590621
_cell_angle_gamma 84.428137
_cell_volume 521.341558
_symmetry_space_group_name_H-M "P -1"
_symmetry_group_IT_number 2
_symmetry_cell_setting 'triclinic'
loop_
_space_group_symop_operation_xyz
x,y,z
-x,-y,-z
loop_
_atom_site_type_symbol
_atom_site_label
_atom_site_fract_x
_atom_site_fract_y
_atom_site_fract_z
Si Si1 0.493953 0.267123 0.178491
Si Si2 0.547361 0.490885 0.334143
Si Si3 0.786329 0.388866 0.581793
Si Si4 0.756807 0.228778 0.895013
Si Si5 0.038638 0.558514 0.828457
Si Si6 0.748686 0.026582 0.610659
Si Si7 0.439048 0.017789 0.864237
O O1 0.202876 0.412811 0.126363
O O2 0.531032 0.133034 0.151663
O O3 0.952287 0.796538 0.681544
O O4 0.501852 0.069494 0.325639
O O5 0.463130 0.541726 0.223563
O O6 0.690030 0.237374 0.464851
O O7 0.681025 0.710780 0.268005
O O8 0.500000 0.500000 0.500000
O O9 0.840155 0.126573 0.653594
O O10 0.724485 0.451482 0.645013
O O11 0.000000 0.500000 0.500000
O O12 0.008853 0.336206 0.866383
O O13 0.698228 0.101501 0.023086
O O14 0.704610 0.059960 0.891719
O O15 0.293809 0.577890 0.869210
#
# Coordination Sequence:
#
# PCOD9093379 Si02
#       7
#     2   2   2   2   2   2   2
#     4  10  22  41  65  99 126 171 216 270 320 384
#     4   9  17  36  61  94 130 166 212 264 319 387
#     4  10  20  32  58  90 122 159 205 258 308 370
#     4   9  20  41  65  95 133 176 218 264 325 387
#     4  10  23  40  65  99 131 165 216 268 328 382
#     4   9  20  34  61  93 127 161 209 261 326 378
#     4   9  19  40  69  93 129 177 222 266 319 382
#
# _framework density 26.853795999999999
#
# number of rings (size 3 to 8) (size 9 to 14) (size 15 to 20)
#    1.714    0.857    1.429    0.000    4.000    1.714 
#    0.000    5.000    0.000    3.429    0.000    0.000 
#    0.000    0.000    0.000    0.000    0.000    0.000 
#
# Total GULP energy -78152.602028 kJ/mol
# GULP energy per Si atom -5582.328716 kJ/mol
# Density = 2.679268 g / cm^3
# Si number density = 26.853796 Si / 1000 Ang^3
#
#
#
# Elastic Constant Matrix: (Units=GPa)
#
#
# Indices 1 2 3 4 5 6 
#
# 1 130.1892 67.8669 42.4405 -9.1791 -25.5882 17.7614
# 2 67.8669 153.6333 35.0434 -22.9108 -20.8791 15.2506
# 3 42.4405 35.0434 170.3440 8.4404 5.4636 5.9460
# 4 -9.1791 -22.9108 8.4404 41.9461 3.1430 -19.6907
# 5 -25.5882 -20.8791 5.4636 3.1430 44.0149 -11.3751
# 6 17.7614 15.2506 5.9460 -19.6907 -11.3751 36.1937
#
#
#
# Elastic Compliance Matrix: (Units=1/GPa)
#
#
# Indices 1 2 3 4 5 6 
#
# 1 0.011587 -0.003870 -0.002103 -0.000764 0.004517 -0.002706
# 2 -0.003870 0.009484 -0.001390 0.005261 0.002506 0.001781
# 3 -0.002103 -0.001390 0.007043 -0.003557 -0.003138 -0.002460
# 4 -0.000764 0.005261 -0.003557 0.036317 0.005095 0.020101
# 5 0.004517 0.002506 -0.003138 0.005095 0.028912 0.009102
# 6 -0.002706 0.001781 -0.002460 0.020101 0.009102 0.042407
#
#
# Mechanical properties :
#
#
# Convention : Reuss Voigt Hill
#
# Bulk Modulus (GPa) = 74.69763 82.76311 78.73037
# Shear Modulus (GPa) = 32.27047 45.01867 38.64457
#
# Velocity S-wave (km/s) = 3.47033 4.09887 3.79763
# Velocity P-wave (km/s) = 6.62830 7.29985 6.97217
#
# Compressibility (1/GPa) = 0.01338731
#
# Stress axis : x y z
#
# Youngs Moduli (GPa) = 86.30008 105.43871 141.97995
#
# Poissons Ratio (x) = 0.40809 0.29863
# Poissons Ratio (y) = 0.33402 0.19736
# Poissons Ratio (z) = 0.18152 0.14657
#
# Static dielectric constant tensor:
#      x y z
#    x 2.142790 -0.008600 0.040610 
#    y -0.008600 2.196980 0.025130 
#    z 0.040610 0.025130 2.157180 
# 
# From -- ./inp_files/621909.got.cif
#   From: 2010.05.17/outbox.cif.g08.bks.cpg/sg2_311_cif.got.tgz:621909.got - 2010.06.03 11:33:40.
