data_PCOD9093491
_publ_section_title
;
Structure prediction by ZEFSAII (Michael W. Deem and Ramdas Pophale) SiO2 
 PCOD9093491
Probable space group: P -1
;
_chemical_formula_sum "Si O2"
_cell_formula_units_Z 16
_cell_length_a 12.233340
_cell_length_b 12.518238
_cell_length_c 5.725018
_cell_angle_alpha 106.275297
_cell_angle_beta 129.479370
_cell_angle_gamma 95.306489
_cell_volume 604.691520
_symmetry_space_group_name_H-M "P -1"
_symmetry_group_IT_number 2
_symmetry_cell_setting 'triclinic'
loop_
_space_group_symop_operation_xyz
x,y,z
-x,-y,-z
loop_
_atom_site_type_symbol
_atom_site_label
_atom_site_fract_x
_atom_site_fract_y
_atom_site_fract_z
Si Si1 0.682574 0.542490 0.565506
Si Si2 0.068699 0.302221 0.626380
Si Si3 0.458129 0.304519 0.363203
Si Si4 0.126363 0.580129 0.397546
Si Si5 0.301654 0.804533 0.444673
Si Si6 0.667016 0.996198 0.686851
Si Si7 0.155085 0.935863 0.597544
Si Si8 0.222227 0.156518 0.569220
O O1 0.558574 0.421110 0.422522
O O2 0.603157 0.638393 0.469682
O O3 0.769049 0.496972 0.454990
O O4 0.798928 0.605069 0.975306
O O5 0.127303 0.242958 0.454013
O O6 0.949869 0.369936 0.469582
O O7 0.978877 0.187518 0.600117
O O8 0.561082 0.226492 0.494478
O O9 0.323907 0.225926 0.966340
O O10 0.215990 0.690389 0.416705
O O11 0.000000 0.500000 0.000000
O O12 0.240655 0.865906 0.192856
O O13 0.304816 0.908886 0.694881
O O14 0.500000 0.000000 0.500000
O O15 0.664787 0.883294 0.461522
O O16 0.773508 0.988611 0.034606
O O17 0.112838 0.022946 0.419295
#
# Coordination Sequence:
#
# PCOD9093491 Si02
#       8
#     2   2   2   2   2   2   2   2
#     4   8  15  26  49  80  99 128 172 209 255 312
#     4   9  17  31  51  76 105 134 172 215 257 312
#     4   9  15  28  49  75 104 131 167 212 257 301
#     4   8  14  28  51  77 100 129 169 209 256 308
#     4   9  18  32  52  77 105 136 172 214 255 308
#     4  11  22  34  50  76 108 142 178 213 257 309
#     4  10  20  34  52  75 107 142 172 211 262 308
#     4  10  20  33  51  78 106 136 175 216 255 309
#
# _framework density 26.459771
#
# number of rings (size 3 to 8) (size 9 to 14) (size 15 to 20)
#    0.000    2.750    0.000    1.875    0.000    2.500 
#    0.000    0.000    0.000   12.000    0.000  221.375 
#    0.000    0.000    0.000    0.000    0.000    0.000 
#
# Total GULP energy -89106.739136 kJ/mol
# GULP energy per Si atom -5569.171196 kJ/mol
# Density = 2.639955 g / cm^3
# Si number density = 26.459771 Si / 1000 Ang^3
#
#
#
# Elastic Constant Matrix: (Units=GPa)
#
#
# Indices 1 2 3 4 5 6 
#
# 1 158.2041 68.2167 7.5718 14.8111 -5.5975 -69.1247
# 2 68.2167 143.6193 22.1463 26.4645 -6.0166 -48.5465
# 3 7.5718 22.1463 36.2988 19.3871 8.4263 1.3374
# 4 14.8111 26.4645 19.3871 26.5241 -2.0539 -6.5632
# 5 -5.5975 -6.0166 8.4263 -2.0539 23.0285 18.9755
# 6 -69.1247 -48.5465 1.3374 -6.5632 18.9755 71.1721
#
#
#
# Elastic Compliance Matrix: (Units=1/GPa)
#
#
# Indices 1 2 3 4 5 6 
#
# 1 0.012928 -0.001369 0.002760 -0.005243 -0.010033 0.013762
# 2 -0.001369 0.011456 -0.002324 -0.007554 -0.002523 0.006505
# 3 0.002760 -0.002324 0.057279 -0.042367 -0.027515 0.003448
# 4 -0.005243 -0.007554 -0.042367 0.078905 0.027017 -0.009375
# 5 -0.010033 -0.002523 -0.027515 0.027017 0.076601 -0.028880
# 6 0.013762 0.006505 0.003448 -0.009375 -0.028880 0.038624
#
#
# Mechanical properties :
#
#
# Convention : Reuss Voigt Hill
#
# Bulk Modulus (GPa) = 12.53143 59.33244 35.93194
# Shear Modulus (GPa) = 16.43343 40.15742 28.29542
#
# Velocity S-wave (km/s) = 2.49484 3.89997 3.27368
# Velocity P-wave (km/s) = 3.61182 6.53850 5.28191
#
# Compressibility (1/GPa) = 0.07979934
#
# Stress axis : x y z
#
# Youngs Moduli (GPa) = 77.35213 87.28908 17.45826
#
# Poissons Ratio (x) = 0.11946 -0.04819
# Poissons Ratio (y) = 0.10586 0.04057
# Poissons Ratio (z) = -0.21350 0.20284
#
# Static dielectric constant tensor:
#      x y z
#    x 2.340260 -0.001850 -0.035370 
#    y -0.001850 2.101630 -0.064680 
#    z -0.035370 -0.064680 2.017460 
# 
# From -- ./inp_files/78692.got.cif
#   From: 2010.05.17/outbox.cif.g08.bks.cpg/sg2_40_cif.got.tgz:78692.got - 2010.06.03 11:33:40.
