data_PCOD9093947
_publ_section_title
;
Structure prediction by ZEFSAII (Michael W. Deem and Ramdas Pophale) SiO2 
 PCOD9093947
Probable space group: P -1
;
_chemical_formula_sum "Si O2"
_cell_formula_units_Z 12
_cell_length_a 14.303162
_cell_length_b 17.251538
_cell_length_c 5.873011
_cell_angle_alpha 121.548441
_cell_angle_beta 132.294221
_cell_angle_gamma 33.414994
_cell_volume 587.683223
_symmetry_space_group_name_H-M "P -1"
_symmetry_group_IT_number 2
_symmetry_cell_setting 'triclinic'
loop_
_space_group_symop_operation_xyz
x,y,z
-x,-y,-z
loop_
_atom_site_type_symbol
_atom_site_label
_atom_site_fract_x
_atom_site_fract_y
_atom_site_fract_z
Si Si1 0.750620 0.634013 0.432650
Si Si2 0.087466 0.564556 0.000924
Si Si3 0.813937 0.867421 0.188970
Si Si4 0.523274 0.719770 0.575231
Si Si5 0.907163 0.027034 0.639117
Si Si6 0.397866 0.139669 0.819101
O O1 0.552013 0.708091 0.334737
O O2 0.696201 0.749747 0.364503
O O3 0.848433 0.498336 0.245540
O O4 0.915920 0.584101 0.792522
O O5 0.289993 0.439639 0.276114
O O6 0.984408 0.715959 0.116372
O O7 0.743418 0.855130 0.285240
O O8 0.881754 0.931907 0.446892
O O9 0.613781 0.979699 0.881510
O O10 0.312185 0.808933 0.456999
O O11 0.556936 0.805617 0.839086
O O12 0.000000 0.000000 0.500000
O O13 0.000000 0.000000 0.000000
#
# Coordination Sequence:
#
# PCOD9093947 Si02
#       6
#     2   2   2   2   2   2
#     4  10  20  33  62  98 141 168 193 254 339 422
#     4  10  21  34  59 101 134 165 203 255 344 396
#     4  10  21  41  61  94 131 163 220 278 318 390
#     4  10  21  41  64  92 137 163 210 262 333 396
#     4  11  28  50  70  89 124 182 235 276 319 375
#     4   9  20  36  59  97 129 168 205 265 336 387
#
# _framework density 20.419163000000001
#
# number of rings (size 3 to 8) (size 9 to 14) (size 15 to 20)
#    0.000    2.000    1.667    0.500   11.667    2.000 
#    0.000    1.667    0.000    0.000    0.000    0.000 
#    0.000    0.000    0.000    0.000    0.000    0.000 
#
# Total GULP energy -66855.006926 kJ/mol
# GULP energy per Si atom -5571.250577 kJ/mol
# Density = 2.037269 g / cm^3
# Si number density = 20.419163 Si / 1000 Ang^3
#
#
#
# Elastic Constant Matrix: (Units=GPa)
#
#
# Indices 1 2 3 4 5 6 
#
# 1 118.5715 59.5244 50.8179 -14.8549 -4.2461 -19.9031
# 2 59.5244 188.8150 50.0620 -6.5881 -4.4180 -14.6155
# 3 50.8179 50.0620 83.4493 -1.2323 -2.4546 3.1436
# 4 -14.8549 -6.5881 -1.2323 26.8685 6.7118 6.7799
# 5 -4.2461 -4.4180 -2.4546 6.7118 18.0878 -1.8070
# 6 -19.9031 -14.6155 3.1436 6.7799 -1.8070 31.2319
#
#
#
# Elastic Compliance Matrix: (Units=1/GPa)
#
#
# Indices 1 2 3 4 5 6 
#
# 1 0.014928 -0.001638 -0.008327 0.005080 0.000942 0.008536
# 2 -0.001638 0.006883 -0.003199 -0.000346 0.001255 0.002647
# 3 -0.008327 -0.003199 0.019246 -0.002420 -0.000048 -0.008218
# 4 0.005080 -0.000346 -0.002420 0.046027 -0.017065 -0.007660
# 5 0.000942 0.001255 -0.000048 -0.017065 0.062993 0.008541
# 6 0.008536 0.002647 -0.008218 -0.007660 0.008541 0.041681
#
#
# Mechanical properties :
#
#
# Convention : Reuss Voigt Hill
#
# Bulk Modulus (GPa) = 67.89760 79.07158 73.48459
# Shear Modulus (GPa) = 22.42197 30.59975 26.51086
#
# Velocity S-wave (km/s) = 3.31733 3.87535 3.60715
# Velocity P-wave (km/s) = 6.92799 7.67025 7.30855
#
# Compressibility (1/GPa) = 0.01472806
#
# Stress axis : x y z
#
# Youngs Moduli (GPa) = 66.98872 145.28229 51.95939
#
# Poissons Ratio (x) = 0.23802 0.43264
# Poissons Ratio (y) = 0.10975 0.16624
# Poissons Ratio (z) = 0.55779 0.46483
#
# Static dielectric constant tensor:
#      x y z
#    x 1.773440 -0.026220 -0.066360 
#    y -0.026220 1.762510 -0.024140 
#    z -0.066360 -0.024140 1.786780 
# 
# From -- ./inp_files/18285.got.cif
#   From: 2010.05.17/outbox.cif.g08.bks.cpg/sg2_10_cif.got.tgz:18285.got - 2010.06.03 11:33:40.
