data_PCOD9093192
_publ_section_title
;
Structure prediction by ZEFSAII (Michael W. Deem and Ramdas Pophale) SiO2 
 PCOD9093192
Probable space group: P -1
;
_chemical_formula_sum "Si O2"
_cell_formula_units_Z 16
_cell_length_a 6.146138
_cell_length_b 11.592078
_cell_length_c 20.530368
_cell_angle_alpha 36.736284
_cell_angle_beta 48.336229
_cell_angle_gamma 56.329273
_cell_volume 652.830855
_symmetry_space_group_name_H-M "P -1"
_symmetry_group_IT_number 2
_symmetry_cell_setting 'triclinic'
loop_
_space_group_symop_operation_xyz
x,y,z
-x,-y,-z
loop_
_atom_site_type_symbol
_atom_site_label
_atom_site_fract_x
_atom_site_fract_y
_atom_site_fract_z
Si Si1 0.361213 0.302836 0.896288
Si Si2 0.822812 0.608983 0.574229
Si Si3 0.659235 0.462696 0.086621
Si Si4 0.464629 0.964735 0.128688
Si Si5 0.683043 0.219510 0.076866
Si Si6 0.711856 0.152670 0.417967
Si Si7 0.761733 0.080572 0.592749
Si Si8 0.879993 0.778693 0.340574
O O1 0.431534 0.491844 0.841115
O O2 0.436279 0.231027 0.840383
O O3 0.015638 0.275453 0.979332
O O4 0.501240 0.134231 0.992214
O O5 0.477055 0.646400 0.640312
O O6 0.847555 0.682804 0.461428
O O7 0.025019 0.750427 0.508510
O O8 0.973927 0.397925 0.650057
O O9 0.611224 0.262765 0.148374
O O10 0.507487 0.624832 0.997537
O O11 0.000000 0.500000 0.000000
O O12 0.121533 0.939531 0.223246
O O13 0.628876 0.024979 0.134392
O O14 0.728675 0.091735 0.517096
O O15 0.500000 0.000000 0.500000
O O16 0.034783 0.111905 0.342623
O O17 0.438217 0.142381 0.654105
#
# Coordination Sequence:
#
# PCOD9093192 Si02
#       8
#     2   2   2   2   2   2   2   2
#     4   9  18  33  52  75 103 139 175 215 269 320
#     4   9  18  33  52  75 103 139 175 215 269 320
#     4   8  15  29  53  76  98 132 175 216 261 318
#     4  10  20  32  50  77 107 135 174 224 268 319
#     4   9  16  30  53  75  99 139 178 214 265 320
#     4   8  15  29  53  76  98 132 175 216 261 318
#     4   9  16  30  53  75  99 139 178 214 265 320
#     4  10  20  32  50  77 107 135 174 224 268 319
#
# _framework density 24.508648000000001
#
# number of rings (size 3 to 8) (size 9 to 14) (size 15 to 20)
#    0.000    3.000    0.000    0.750    0.000    1.000 
#    0.000    0.000    0.000   69.000    0.000    0.000 
#    0.000    0.000    0.000    0.000    0.000    0.000 
#
# Total GULP energy -89123.615894 kJ/mol
# GULP energy per Si atom -5570.225993 kJ/mol
# Density = 2.445286 g / cm^3
# Si number density = 24.508648 Si / 1000 Ang^3
#
#
#
# Elastic Constant Matrix: (Units=GPa)
#
#
# Indices 1 2 3 4 5 6 
#
# 1 139.1160 92.5275 16.4470 1.6842 -21.5251 16.8995
# 2 92.5275 189.3223 28.2180 -8.8421 -17.0948 8.0482
# 3 16.4470 28.2180 30.0259 4.6659 -5.1698 2.5622
# 4 1.6842 -8.8421 4.6659 20.6138 -2.7956 -7.3063
# 5 -21.5251 -17.0948 -5.1698 -2.7956 40.4910 6.9688
# 6 16.8995 8.0482 2.5622 -7.3063 6.9688 52.6521
#
#
#
# Elastic Compliance Matrix: (Units=1/GPa)
#
#
# Indices 1 2 3 4 5 6 
#
# 1 0.012152 -0.005618 0.000462 -0.004404 0.004580 -0.004281
# 2 -0.005618 0.009301 -0.006778 0.006581 0.000255 0.001591
# 3 0.000462 -0.006778 0.042199 -0.013351 0.002425 -0.003339
# 4 -0.004404 0.006581 -0.013351 0.058052 0.001200 0.008954
# 5 0.004580 0.000255 0.002425 0.001200 0.028533 -0.005237
# 6 -0.004281 0.001591 -0.003339 0.008954 -0.005237 0.022222
#
#
# Mechanical properties :
#
#
# Convention : Reuss Voigt Hill
#
# Bulk Modulus (GPa) = 25.13643 70.31659 47.72651
# Shear Modulus (GPa) = 23.85620 37.50281 30.67951
#
# Velocity S-wave (km/s) = 3.12329 3.91600 3.54189
# Velocity P-wave (km/s) = 4.82545 7.01424 6.02016
#
# Compressibility (1/GPa) = 0.03978290
#
# Stress axis : x y z
#
# Youngs Moduli (GPa) = 82.28781 107.51796 23.69743
#
# Poissons Ratio (x) = 0.60405 -0.01094
# Poissons Ratio (y) = 0.46231 0.16062
# Poissons Ratio (z) = -0.03798 0.72874
#
# Static dielectric constant tensor:
#      x y z
#    x 2.051440 0.055550 0.029200 
#    y 0.055550 2.110390 0.014440 
#    z 0.029200 0.014440 1.935460 
# 
# From -- ./inp_files/604302.got.cif
#   From: 2010.05.17/outbox.cif.g08.bks.cpg/sg2_303_cif.got.tgz:604302.got - 2010.06.03 11:33:40.
