data_PCOD9093416
_publ_section_title
;
Structure prediction by ZEFSAII (Michael W. Deem and Ramdas Pophale) SiO2 
 PCOD9093416
Probable space group: P -1
;
_chemical_formula_sum "Si O2"
_cell_formula_units_Z 16
_cell_length_a 9.408804
_cell_length_b 15.191613
_cell_length_c 11.876086
_cell_angle_alpha 91.208162
_cell_angle_beta 55.649584
_cell_angle_gamma 133.928608
_cell_volume 789.618003
_symmetry_space_group_name_H-M "P -1"
_symmetry_group_IT_number 2
_symmetry_cell_setting 'triclinic'
loop_
_space_group_symop_operation_xyz
x,y,z
-x,-y,-z
loop_
_atom_site_type_symbol
_atom_site_label
_atom_site_fract_x
_atom_site_fract_y
_atom_site_fract_z
Si Si1 0.697723 0.854940 0.403471
Si Si2 0.790166 0.216809 0.426205
Si Si3 0.255817 0.499210 0.911476
Si Si4 0.026707 0.235009 0.112435
Si Si5 0.797222 0.446587 0.693240
Si Si6 0.908370 0.828748 0.688861
Si Si7 0.897690 0.481997 0.229483
Si Si8 0.110076 0.138430 0.905355
O O1 0.513628 0.855567 0.417949
O O2 0.428377 0.688454 0.581337
O O3 0.866306 0.864088 0.238859
O O4 0.929674 0.008709 0.380247
O O5 0.784739 0.186244 0.295876
O O6 0.069049 0.401788 0.326664
O O7 0.873220 0.160055 0.446881
O O8 0.586259 0.684176 0.768904
O O9 0.139020 0.450308 0.834036
O O10 0.259134 0.405842 0.965787
O O11 0.033691 0.464379 0.086563
O O12 0.155542 0.224250 0.151740
O O13 0.917324 0.133902 0.051202
O O14 0.452061 0.300987 0.802899
O O15 0.000000 0.500000 0.500000
O O16 0.873442 0.416363 0.764653
O O17 0.000000 0.000000 0.000000
#
# Coordination Sequence:
#
# PCOD9093416 Si02
#       8
#     2   2   2   2   2   2   2   2
#     4  11  20  38  53  89 118 146 187 229 294 339
#     4   9  19  34  56  85 109 144 188 234 279 325
#     4  11  20  38  59  87 110 152 196 236 271 336
#     4  10  20  34  60  84 114 141 196 236 275 329
#     4  11  19  36  59  81 112 146 187 234 276 339
#     4  10  20  32  62  84 114 141 189 246 275 327
#     4  10  22  37  59  82 115 154 194 225 285 337
#     4  12  22  33  57  91 112 146 180 243 290 329
#
# _framework density 20.262961000000001
#
# number of rings (size 3 to 8) (size 9 to 14) (size 15 to 20)
#    0.750    0.750    6.250    2.250    0.000    0.500 
#    0.000    0.625    0.000    0.750    0.000    0.000 
#    0.000    0.000    0.000    0.000    0.000    0.000 
#
# Total GULP energy -89136.420644 kJ/mol
# GULP energy per Si atom -5571.026290 kJ/mol
# Density = 2.021684 g / cm^3
# Si number density = 20.262961 Si / 1000 Ang^3
#
#
#
# Elastic Constant Matrix: (Units=GPa)
#
#
# Indices 1 2 3 4 5 6 
#
# 1 23.8262 -3.2633 8.0363 7.9467 10.2845 7.8178
# 2 -3.2633 78.5504 8.7299 1.4295 -8.4307 -8.0927
# 3 8.0363 8.7299 55.1680 12.7015 -1.5092 -6.1598
# 4 7.9467 1.4295 12.7015 39.7632 1.0554 -4.3624
# 5 10.2845 -8.4307 -1.5092 1.0554 15.3013 7.3240
# 6 7.8178 -8.0927 -6.1598 -4.3624 7.3240 17.0793
#
#
#
# Elastic Compliance Matrix: (Units=1/GPa)
#
#
# Indices 1 2 3 4 5 6 
#
# 1 0.075825 -0.002301 -0.011674 -0.013163 -0.039907 -0.026258
# 2 -0.002301 0.013972 -0.001355 0.000685 0.006972 0.004370
# 3 -0.011674 -0.001355 0.022114 -0.003761 0.004948 0.009595
# 4 -0.013163 0.000685 -0.003761 0.030291 0.000845 0.012368
# 5 -0.039907 0.006972 0.004948 0.000845 0.107161 -0.022382
# 6 -0.026258 0.004370 0.009595 0.012368 -0.022382 0.088858
#
#
# Mechanical properties :
#
#
# Convention : Reuss Voigt Hill
#
# Bulk Modulus (GPa) = 12.30767 20.50561 16.40664
# Shear Modulus (GPa) = 12.62741 24.03155 18.32948
#
# Velocity S-wave (km/s) = 2.49906 3.44755 3.01089
# Velocity P-wave (km/s) = 3.79661 5.09796 4.49463
#
# Compressibility (1/GPa) = 0.08125017
#
# Stress axis : x y z
#
# Youngs Moduli (GPa) = 13.18832 71.57315 45.22047
#
# Poissons Ratio (x) = 0.16472 0.52791
# Poissons Ratio (y) = 0.03035 0.06126
# Poissons Ratio (z) = 0.15396 0.09696
#
# Static dielectric constant tensor:
#      x y z
#    x 1.745670 -0.010460 -0.015480 
#    y -0.010460 1.742780 0.000060 
#    z -0.015480 0.000060 1.772460 
# 
# From -- ./inp_files/435821.got.cif
#   From: 2010.05.17/outbox.cif.g08.bks.cpg/sg2_218_cif.got.tgz:435821.got - 2010.06.03 11:33:40.
