data_PCOD9093995
_publ_section_title
;
Structure prediction by ZEFSAII (Michael W. Deem and Ramdas Pophale) SiO2 
 PCOD9093995
Probable space group: P -1
;
_chemical_formula_sum "Si O2"
_cell_formula_units_Z 14
_cell_length_a 10.854875
_cell_length_b 5.306997
_cell_length_c 21.769351
_cell_angle_alpha 68.143707
_cell_angle_beta 28.670864
_cell_angle_gamma 66.194414
_cell_volume 550.010848
_symmetry_space_group_name_H-M "P -1"
_symmetry_group_IT_number 2
_symmetry_cell_setting 'triclinic'
loop_
_space_group_symop_operation_xyz
x,y,z
-x,-y,-z
loop_
_atom_site_type_symbol
_atom_site_label
_atom_site_fract_x
_atom_site_fract_y
_atom_site_fract_z
Si Si1 0.166437 0.953724 0.009691
Si Si2 0.022773 0.639620 0.842745
Si Si3 0.514277 0.677976 0.539393
Si Si4 0.699596 0.543345 0.645895
Si Si5 0.914921 0.594581 0.665703
Si Si6 0.656790 0.731961 0.889388
Si Si7 0.531067 0.031532 0.736978
O O1 0.442465 0.935234 0.927203
O O2 0.278212 0.980951 0.889579
O O3 0.052109 0.668386 0.092112
O O4 0.995070 0.208637 0.097236
O O5 0.280437 0.646063 0.689894
O O6 0.805400 0.816033 0.875675
O O7 0.500000 0.500000 0.500000
O O8 0.793463 0.553607 0.458735
O O9 0.500000 0.000000 0.500000
O O10 0.568807 0.862135 0.673144
O O11 0.000000 0.500000 0.500000
O O12 0.714822 0.470190 0.719777
O O13 0.532647 0.348812 0.704514
O O14 0.861329 0.596183 0.760714
O O15 0.811776 0.907316 0.658787
O O16 0.500000 0.500000 0.000000
#
# Coordination Sequence:
#
# PCOD9093995 Si02
#       7
#     2   2   2   2   2   2   2
#     4  10  20  34  51  77 104 141 180 227 269 317
#     4  11  21  34  49  73 106 148 188 215 257 323
#     4  12  25  37  52  74 115 157 194 219 257 324
#     4  10  20  36  59  88 112 136 178 229 293 337
#     4   9  22  36  54  81 113 149 184 224 273 319
#     4   9  18  32  51  75 108 139 180 222 268 315
#     4   9  20  35  60  81 115 132 177 230 292 319
#
# _framework density 25.454042999999999
#
# number of rings (size 3 to 8) (size 9 to 14) (size 15 to 20)
#    0.857    1.143    1.429    2.571    6.000    0.000 
#    0.000    0.000    0.000    0.000    0.000    6.000 
#    0.000    0.000    0.000    0.000    0.000    0.000 
#
# Total GULP energy -78190.183342 kJ/mol
# GULP energy per Si atom -5585.013096 kJ/mol
# Density = 2.539611 g / cm^3
# Si number density = 25.454043 Si / 1000 Ang^3
#
#
#
# Elastic Constant Matrix: (Units=GPa)
#
#
# Indices 1 2 3 4 5 6 
#
# 1 75.4488 20.2093 7.1787 1.2664 -8.5386 -1.3923
# 2 20.2093 173.5923 73.4587 7.8088 11.0686 37.6801
# 3 7.1787 73.4587 174.4292 11.3458 3.2243 15.0632
# 4 1.2664 7.8088 11.3458 41.1661 -0.3552 3.3615
# 5 -8.5386 11.0686 3.2243 -0.3552 40.6086 11.4815
# 6 -1.3923 37.6801 15.0632 3.3615 11.4815 33.3143
#
#
#
# Elastic Compliance Matrix: (Units=1/GPa)
#
#
# Indices 1 2 3 4 5 6 
#
# 1 0.014265 -0.002405 0.000192 -0.000190 0.003013 0.002211
# 2 -0.002405 0.009340 -0.003028 -0.000113 -0.000207 -0.009212
# 3 0.000192 -0.003028 0.007061 -0.001401 0.000205 0.000311
# 4 -0.000190 -0.000113 -0.001401 0.024882 0.000905 -0.002069
# 5 0.003013 -0.000207 0.000205 0.000905 0.027984 -0.009468
# 6 0.002211 -0.009212 0.000311 -0.002069 -0.009468 0.043861
#
#
# Mechanical properties :
#
#
# Convention : Reuss Voigt Hill
#
# Bulk Modulus (GPa) = 49.54663 69.46261 59.50462
# Shear Modulus (GPa) = 34.57760 44.52604 39.55182
#
# Velocity S-wave (km/s) = 3.68969 4.18697 3.94617
# Velocity P-wave (km/s) = 6.13670 7.12200 6.64763
#
# Compressibility (1/GPa) = 0.02018301
#
# Stress axis : x y z
#
# Youngs Moduli (GPa) = 70.10156 107.06881 141.62967
#
# Poissons Ratio (x) = 0.25752 -0.02714
# Poissons Ratio (y) = 0.16861 0.42880
# Poissons Ratio (z) = -0.01343 0.32416
#
# Static dielectric constant tensor:
#      x y z
#    x 2.136730 0.005770 -0.011920 
#    y 0.005770 2.123330 0.055340 
#    z -0.011920 0.055340 1.986910 
# 
# From -- ./inp_files/618985.got.cif
#   From: 2010.05.17/outbox.cif.g08.bks.cpg/sg2_310_cif.got.tgz:618985.got - 2010.06.03 11:33:40.
