data_PCOD9093608
_publ_section_title
;
Structure prediction by ZEFSAII (Michael W. Deem and Ramdas Pophale) SiO2 
 PCOD9093608
Probable space group: P -1
;
_chemical_formula_sum "Si O2"
_cell_formula_units_Z 15
_cell_length_a 21.416011
_cell_length_b 8.508427
_cell_length_c 6.527280
_cell_angle_alpha 130.899306
_cell_angle_beta 138.146245
_cell_angle_gamma 51.407821
_cell_volume 577.591559
_symmetry_space_group_name_H-M "P -1"
_symmetry_group_IT_number 2
_symmetry_cell_setting 'triclinic'
loop_
_space_group_symop_operation_xyz
x,y,z
-x,-y,-z
loop_
_atom_site_type_symbol
_atom_site_label
_atom_site_fract_x
_atom_site_fract_y
_atom_site_fract_z
Si Si1 0.131448 0.433701 0.912700
Si Si2 0.500000 0.500000 0.500000
Si Si3 0.149678 0.995197 0.830325
Si Si4 0.427784 0.294522 0.501880
Si Si5 0.583563 0.831700 0.184552
Si Si6 0.265329 0.143352 0.711164
Si Si7 0.280245 0.712580 0.621611
Si Si8 0.992209 0.854224 0.049750
O O1 0.169445 0.330442 0.696496
O O2 0.207315 0.565541 0.277213
O O3 0.029386 0.607752 0.853717
O O4 0.140079 0.223681 0.892302
O O5 0.506741 0.324435 0.559104
O O6 0.580008 0.600194 0.891926
O O7 0.112025 0.053197 0.017440
O O8 0.250773 0.828992 0.867535
O O9 0.070433 0.891314 0.438458
O O10 0.444915 0.165769 0.646138
O O11 0.347508 0.204780 0.109361
O O12 0.381750 0.546389 0.672249
O O13 0.688330 0.860999 0.404395
O O14 0.500000 0.000000 0.000000
O O15 0.262494 0.909833 0.585835
O O16 0.000000 0.000000 0.000000
#
# Coordination Sequence:
#
# PCOD9093608 Si02
#       8
#     2   1   2   2   2   2   2   2
#     4   9  18  36  56  77 111 145 180 226 269 318
#     4  10  22  38  58  82 108 142 184 228 276 324
#     4   9  19  36  55  78 110 143 178 225 271 316
#     4  10  21  37  58  83 109 143 185 228 276 330
#     4  11  23  37  56  83 114 145 180 225 278 335
#     4   9  20  37  56  79 107 144 184 225 275 326
#     4   9  18  37  58  76 106 144 183 226 270 319
#     4  10  20  33  54  82 109 142 181 221 271 326
#
# _framework density 25.969909000000001
#
# number of rings (size 3 to 8) (size 9 to 14) (size 15 to 20)
#    0.000    2.400    0.000    1.600    0.000    4.800 
#    0.000   12.000    0.000    0.000    0.000    0.000 
#    0.000    0.000    0.000    0.000    0.000    0.000 
#
# Total GULP energy -83609.283841 kJ/mol
# GULP energy per Si atom -5573.952256 kJ/mol
# Density = 2.591080 g / cm^3
# Si number density = 25.969909 Si / 1000 Ang^3
#
#
#
# Elastic Constant Matrix: (Units=GPa)
#
#
# Indices 1 2 3 4 5 6 
#
# 1 155.3026 53.6588 28.5631 16.5968 -19.4150 9.7673
# 2 53.6588 125.2551 28.0724 26.2022 -10.2980 -7.7562
# 3 28.5631 28.0724 89.3717 20.3435 -17.8071 -2.9819
# 4 16.5968 26.2022 20.3435 45.1819 -1.0633 -6.2085
# 5 -19.4150 -10.2980 -17.8071 -1.0633 51.2390 5.5933
# 6 9.7673 -7.7562 -2.9819 -6.2085 5.5933 43.2835
#
#
#
# Elastic Compliance Matrix: (Units=1/GPa)
#
#
# Indices 1 2 3 4 5 6 
#
# 1 0.008310 -0.003067 -0.001035 -0.001160 0.002474 -0.002982
# 2 -0.003067 0.010594 -0.001290 -0.004174 0.000228 0.001873
# 3 -0.001035 -0.001290 0.013886 -0.005069 0.004102 -0.000298
# 4 -0.001160 -0.004174 -0.005069 0.027676 -0.002848 0.003502
# 5 0.002474 0.000228 0.004102 -0.002848 0.022250 -0.003519
# 6 -0.002982 0.001873 -0.000298 0.003502 -0.003519 0.025049
#
#
# Mechanical properties :
#
#
# Convention : Reuss Voigt Hill
#
# Bulk Modulus (GPa) = 45.43881 65.61310 55.52596
# Shear Modulus (GPa) = 39.71929 45.24988 42.48458
#
# Velocity S-wave (km/s) = 3.91504 4.17873 4.04903
# Velocity P-wave (km/s) = 6.16210 6.97153 6.57928
#
# Compressibility (1/GPa) = 0.02200762
#
# Stress axis : x y z
#
# Youngs Moduli (GPa) = 120.34133 94.38983 72.01362
#
# Poissons Ratio (x) = 0.28945 0.07455
# Poissons Ratio (y) = 0.36903 0.09287
# Poissons Ratio (z) = 0.12457 0.12173
#
# Static dielectric constant tensor:
#      x y z
#    x 2.127200 -0.094740 -0.023950 
#    y -0.094740 2.024550 -0.062210 
#    z -0.023950 -0.062210 1.832590 
# 
# From -- ./inp_files/102764.got.cif
#   From: 2010.05.17/outbox.cif.g08.bks.cpg/sg2_52_cif.got.tgz:102764.got - 2010.06.03 11:33:40.
