data_PCOD9093817
_publ_section_title
;
Structure prediction by ZEFSAII (Michael W. Deem and Ramdas Pophale) SiO2 
 PCOD9093817
Probable space group: P -1
;
_chemical_formula_sum "Si O2"
_cell_formula_units_Z 16
_cell_length_a 10.821476
_cell_length_b 11.373699
_cell_length_c 8.296243
_cell_angle_alpha 118.079180
_cell_angle_beta 127.285490
_cell_angle_gamma 79.543439
_cell_volume 708.937640
_symmetry_space_group_name_H-M "P -1"
_symmetry_group_IT_number 2
_symmetry_cell_setting 'triclinic'
loop_
_space_group_symop_operation_xyz
x,y,z
-x,-y,-z
loop_
_atom_site_type_symbol
_atom_site_label
_atom_site_fract_x
_atom_site_fract_y
_atom_site_fract_z
Si Si1 0.638417 0.426958 0.723806
Si Si2 0.128339 0.325265 0.400504
Si Si3 0.158917 0.559381 0.797566
Si Si4 0.827935 0.973784 0.684910
Si Si5 0.677672 0.693060 0.755355
Si Si6 0.798906 0.992066 0.028552
Si Si7 0.866410 0.094038 0.475907
Si Si8 0.075468 0.604832 0.259774
O O1 0.650865 0.588488 0.813712
O O2 0.466561 0.350769 0.508498
O O3 0.740524 0.386126 0.626114
O O4 0.716551 0.398586 0.936604
O O5 0.213341 0.461477 0.642165
O O6 0.179295 0.188845 0.423687
O O7 0.173270 0.328379 0.249887
O O8 0.939077 0.322923 0.256631
O O9 0.015507 0.454913 0.694495
O O10 0.755833 0.017133 0.824222
O O11 0.765071 0.033903 0.510864
O O12 0.016437 0.024558 0.859890
O O13 0.702474 0.849516 0.915171
O O14 0.787648 0.090786 0.234528
O O15 0.951246 0.242479 0.679361
O O16 0.000000 0.000000 0.500000
O O17 0.000000 0.500000 0.000000
#
# Coordination Sequence:
#
# PCOD9093817 Si02
#       8
#     2   2   2   2   2   2   2   2
#     4  10  22  36  58  82 118 161 200 240 302 366
#     4  10  20  35  56  89 123 146 201 249 310 351
#     4  10  20  33  58  87 118 155 191 257 306 353
#     4   9  19  32  55  87 116 150 194 252 292 362
#     4  10  21  38  56  84 117 160 201 243 297 367
#     4   9  19  32  55  80 113 149 197 246 287 346
#     4  10  20  33  58  89 116 155 198 242 309 363
#     4  10  21  35  59  89 119 153 196 253 302 350
#
# _framework density 22.56898
#
# number of rings (size 3 to 8) (size 9 to 14) (size 15 to 20)
#    0.000    2.250    1.250    1.500    8.750    4.500 
#    0.000    0.625    0.000    6.750    0.000    0.000 
#    0.000    0.000    0.000    0.000    0.000    0.000 
#
# Total GULP energy -89173.000589 kJ/mol
# GULP energy per Si atom -5573.312537 kJ/mol
# Density = 2.251761 g / cm^3
# Si number density = 22.568980 Si / 1000 Ang^3
#
#
#
# Elastic Constant Matrix: (Units=GPa)
#
#
# Indices 1 2 3 4 5 6 
#
# 1 29.1695 13.4218 26.1026 1.3432 -15.8033 6.1985
# 2 13.4218 72.2185 22.7810 14.9034 -10.8543 11.1345
# 3 26.1026 22.7810 82.5828 0.7165 -19.7531 -0.9439
# 4 1.3432 14.9034 0.7165 37.8269 6.9529 -4.4810
# 5 -15.8033 -10.8543 -19.7531 6.9529 38.0658 -4.9617
# 6 6.1985 11.1345 -0.9439 -4.4810 -4.9617 22.8569
#
#
#
# Elastic Compliance Matrix: (Units=1/GPa)
#
#
# Indices 1 2 3 4 5 6 
#
# 1 0.060217 -0.000417 -0.015126 -0.006400 0.016315 -0.014464
# 2 -0.000417 0.019430 -0.004457 -0.009441 0.003391 -0.010651
# 3 -0.015126 -0.004457 0.018879 0.002372 0.002875 0.008142
# 4 -0.006400 -0.009441 0.002372 0.033256 -0.008752 0.011052
# 5 0.016315 0.003391 0.002875 -0.008752 0.037152 0.000392
# 6 -0.014464 -0.010651 0.008142 0.011052 0.000392 0.055450
#
#
# Mechanical properties :
#
#
# Convention : Reuss Voigt Hill
#
# Bulk Modulus (GPa) = 17.08595 34.28686 25.68641
# Shear Modulus (GPa) = 17.61227 27.86095 22.73661
#
# Velocity S-wave (km/s) = 2.79655 3.51733 3.17744
# Velocity P-wave (km/s) = 4.24436 5.63209 4.98673
#
# Compressibility (1/GPa) = 0.05852762
#
# Stress axis : x y z
#
# Youngs Moduli (GPa) = 16.60658 51.46575 52.96756
#
# Poissons Ratio (x) = 0.02147 0.80116
# Poissons Ratio (y) = 0.00693 0.23607
# Poissons Ratio (z) = 0.25118 0.22938
#
# Static dielectric constant tensor:
#      x y z
#    x 1.917660 -0.002800 -0.073370 
#    y -0.002800 1.948930 -0.039240 
#    z -0.073370 -0.039240 1.885740 
# 
# From -- ./inp_files/260400.got.cif
#   From: 2010.05.17/outbox.cif.g08.bks.cpg/sg2_131_cif.got.tgz:260400.got - 2010.06.03 11:33:40.
