data_PCOD9093377
_publ_section_title
;
Structure prediction by ZEFSAII (Michael W. Deem and Ramdas Pophale) SiO2 
 PCOD9093377
Probable space group: P -1
;
_chemical_formula_sum "Si O2"
_cell_formula_units_Z 16
_cell_length_a 10.880472
_cell_length_b 12.401524
_cell_length_c 12.397691
_cell_angle_alpha 139.404071
_cell_angle_beta 118.083543
_cell_angle_gamma 46.459887
_cell_volume 784.232286
_symmetry_space_group_name_H-M "P -1"
_symmetry_group_IT_number 2
_symmetry_cell_setting 'triclinic'
loop_
_space_group_symop_operation_xyz
x,y,z
-x,-y,-z
loop_
_atom_site_type_symbol
_atom_site_label
_atom_site_fract_x
_atom_site_fract_y
_atom_site_fract_z
Si Si1 0.399111 0.400579 0.906702
Si Si2 0.594237 0.532335 0.470127
Si Si3 0.292220 0.050423 0.312234
Si Si4 0.864239 0.526593 0.320628
Si Si5 0.392938 0.446187 0.190535
Si Si6 0.061826 0.821832 0.746430
Si Si7 0.732158 0.005901 0.992336
Si Si8 0.785962 0.619379 0.753174
O O1 0.238841 0.486534 0.828628
O O2 0.528731 0.160325 0.750575
O O3 0.500000 0.500000 0.000000
O O4 0.352170 0.444576 0.047457
O O5 0.500000 0.500000 0.500000
O O6 0.476771 0.570103 0.346608
O O7 0.918693 0.343952 0.286676
O O8 0.638622 0.679683 0.649330
O O9 0.252608 0.258465 0.502057
O O10 0.281032 0.046271 0.175297
O O11 0.128062 0.053655 0.283426
O O12 0.217514 0.674472 0.619452
O O13 0.030755 0.503319 0.323280
O O14 0.246373 0.487109 0.243517
O O15 0.556237 0.216577 0.107940
O O16 0.116446 0.963689 0.919991
O O17 0.763494 0.823432 0.938357
#
# Coordination Sequence:
#
# PCOD9093377 Si02
#       8
#     2   2   2   2   2   2   2   2
#     4  11  25  42  60  84 120 163 198 241 300 356
#     4   9  18  34  56  85 117 150 188 245 295 342
#     4  11  21  37  59  89 117 150 200 248 291 351
#     4  12  23  37  61  91 119 159 196 245 298 350
#     4   9  21  39  57  84 121 160 194 242 295 357
#     4  11  20  36  59  94 120 149 197 251 299 342
#     4  10  20  32  58  89 122 148 192 248 300 341
#     4  11  20  34  60  91 118 153 199 246 297 349
#
# _framework density 20.402118000000002
#
# number of rings (size 3 to 8) (size 9 to 14) (size 15 to 20)
#    0.000    1.500    2.500    4.500    1.750    0.500 
#    0.000    0.000    0.000    0.750    0.000    0.000 
#    0.000    0.000    0.000    0.000    0.000    0.000 
#
# Total GULP energy -89201.033550 kJ/mol
# GULP energy per Si atom -5575.064597 kJ/mol
# Density = 2.035568 g / cm^3
# Si number density = 20.402118 Si / 1000 Ang^3
#
#
#
# Elastic Constant Matrix: (Units=GPa)
#
#
# Indices 1 2 3 4 5 6 
#
# 1 121.7761 13.6365 31.6157 -7.9586 -2.8727 -14.3136
# 2 13.6365 38.2505 11.6435 -11.3004 -2.6617 -9.2669
# 3 31.6157 11.6435 98.1701 -12.4699 12.5203 3.3114
# 4 -7.9586 -11.3004 -12.4699 30.4991 -2.3547 4.8842
# 5 -2.8727 -2.6617 12.5203 -2.3547 39.2182 -1.6552
# 6 -14.3136 -9.2669 3.3114 4.8842 -1.6552 18.0725
#
#
#
# Elastic Compliance Matrix: (Units=1/GPa)
#
#
# Indices 1 2 3 4 5 6 
#
# 1 0.010375 -0.000191 -0.003964 -0.000263 0.002382 0.009135
# 2 -0.000191 0.034313 -0.004057 0.008774 0.004823 0.016257
# 3 -0.003964 -0.004057 0.013405 0.004035 -0.004992 -0.009224
# 4 -0.000263 0.008774 0.004035 0.038814 0.001331 -0.006817
# 5 0.002382 0.004823 -0.004992 0.001331 0.027989 0.007478
# 6 0.009135 0.016257 -0.009224 -0.006817 0.007478 0.075121
#
#
# Mechanical properties :
#
#
# Convention : Reuss Voigt Hill
#
# Bulk Modulus (GPa) = 23.99926 41.33201 32.66564
# Shear Modulus (GPa) = 21.70796 30.97802 26.34299
#
# Velocity S-wave (km/s) = 3.26545 3.90086 3.59721
# Velocity P-wave (km/s) = 5.09963 6.37115 5.77052
#
# Compressibility (1/GPa) = 0.04166794
#
# Stress axis : x y z
#
# Youngs Moduli (GPa) = 96.38524 29.14371 74.60173
#
# Poissons Ratio (x) = 0.00557 0.29572
# Poissons Ratio (y) = 0.01841 0.30267
# Poissons Ratio (z) = 0.38207 0.11824
#
# Static dielectric constant tensor:
#      x y z
#    x 1.747900 -0.005940 -0.002840 
#    y -0.005940 1.730850 0.002940 
#    z -0.002840 0.002940 1.840600 
# 
# From -- ./inp_files/318179.got.cif
#   From: 2010.05.17/outbox.cif.g08.bks.cpg/sg2_160_cif.got.tgz:318179.got - 2010.06.03 11:33:40.
