data_PCOD9093059
_publ_section_title
;
Structure prediction by ZEFSAII (Michael W. Deem and Ramdas Pophale) SiO2 
 PCOD9093059
Probable space group: P -1
;
_chemical_formula_sum "Si O2"
_cell_formula_units_Z 16
_cell_length_a 18.835156
_cell_length_b 10.855402
_cell_length_c 11.190651
_cell_angle_alpha 130.886743
_cell_angle_beta 153.803072
_cell_angle_gamma 50.434731
_cell_volume 755.142862
_symmetry_space_group_name_H-M "P -1"
_symmetry_group_IT_number 2
_symmetry_cell_setting 'triclinic'
loop_
_space_group_symop_operation_xyz
x,y,z
-x,-y,-z
loop_
_atom_site_type_symbol
_atom_site_label
_atom_site_fract_x
_atom_site_fract_y
_atom_site_fract_z
Si Si1 0.132802 0.221834 0.378950
Si Si2 0.062664 0.864033 0.607881
Si Si3 0.251111 0.801921 0.451305
Si Si4 0.921575 0.478225 0.677902
Si Si5 0.743895 0.560965 0.695313
Si Si6 0.500712 0.310074 0.414647
Si Si7 0.901604 0.997729 0.013493
Si Si8 0.280048 0.147828 0.795129
O O1 0.075453 0.401685 0.353729
O O2 0.261022 0.220138 0.678676
O O3 0.196463 0.097820 0.288062
O O4 0.985195 0.138243 0.160659
O O5 0.139915 0.692627 0.557318
O O6 0.899134 0.823463 0.399185
O O7 0.162212 0.933856 0.910664
O O8 0.000000 0.000000 0.500000
O O9 0.290034 0.627263 0.462764
O O10 0.320276 0.778009 0.405617
O O11 0.058498 0.860081 0.194737
O O12 0.321843 0.950465 0.717317
O O13 0.806329 0.576734 0.666405
O O14 0.100221 0.432608 0.978478
O O15 0.589923 0.683252 0.591058
O O16 0.500000 0.500000 0.500000
O O17 0.393409 0.229863 0.105451
#
# Coordination Sequence:
#
# PCOD9093059 Si02
#       8
#     2   2   2   2   2   2   2   2
#     4   9  19  32  52  74 113 140 168 213 268 329
#     4  10  20  31  50  78 113 136 169 220 266 317
#     4   9  17  33  55  72 107 133 177 218 262 298
#     4  11  19  32  52  75 114 139 167 219 268 316
#     4  10  20  31  50  82 100 139 178 215 268 306
#     4  10  20  35  53  78 105 137 182 227 254 300
#     4   9  18  33  50  80 106 140 174 212 267 322
#     4  10  20  34  52  83 105 140 178 213 267 322
#
# _framework density 21.188044000000001
#
# number of rings (size 3 to 8) (size 9 to 14) (size 15 to 20)
#    0.000    2.500    2.500    1.875    1.750    2.000 
#    0.000    0.000    0.000    6.000    0.000    7.000 
#    0.000    0.000    0.000    0.000    0.000    0.000 
#
# Total GULP energy -89201.468200 kJ/mol
# GULP energy per Si atom -5575.091763 kJ/mol
# Density = 2.113982 g / cm^3
# Si number density = 21.188044 Si / 1000 Ang^3
#
#
#
# Elastic Constant Matrix: (Units=GPa)
#
#
# Indices 1 2 3 4 5 6 
#
# 1 88.2419 21.4606 11.6416 9.0058 -21.0864 -8.7348
# 2 21.4606 71.8254 16.2024 19.1791 -19.8331 5.8388
# 3 11.6416 16.2024 37.6196 14.1109 -17.2482 -5.3228
# 4 9.0058 19.1791 14.1109 17.1201 -5.8994 -8.5428
# 5 -21.0864 -19.8331 -17.2482 -5.8994 30.1445 -2.4112
# 6 -8.7348 5.8388 -5.3228 -8.5428 -2.4112 39.1007
#
#
#
# Elastic Compliance Matrix: (Units=1/GPa)
#
#
# Indices 1 2 3 4 5 6 
#
# 1 0.014510 -0.001861 0.002252 -0.001883 0.010169 0.004042
# 2 -0.001861 0.026628 0.006383 -0.035139 0.012157 -0.010451
# 3 0.002252 0.006383 0.050770 -0.041485 0.026629 -0.000960
# 4 -0.001883 -0.035139 -0.041485 0.141079 -0.018253 0.028877
# 5 0.010169 0.012157 0.026629 -0.018253 0.060254 0.003809
# 6 0.004042 -0.010451 -0.000960 0.028877 0.003809 0.034452
#
#
# Mechanical properties :
#
#
# Convention : Reuss Voigt Hill
#
# Bulk Modulus (GPa) = 9.48270 32.92180 21.20225
# Shear Modulus (GPa) = 14.31441 27.16520 20.73981
#
# Velocity S-wave (km/s) = 2.60203 3.58453 3.13204
# Velocity P-wave (km/s) = 3.67595 5.71869 4.80708
#
# Compressibility (1/GPa) = 0.10545519
#
# Stress axis : x y z
#
# Youngs Moduli (GPa) = 68.91686 37.55402 19.69670
#
# Poissons Ratio (x) = 0.06990 -0.04435
# Poissons Ratio (y) = 0.12828 -0.12573
# Poissons Ratio (z) = -0.15518 -0.23971
#
# Static dielectric constant tensor:
#      x y z
#    x 1.852870 -0.015260 -0.004120 
#    y -0.015260 1.783150 0.010930 
#    z -0.004120 0.010930 1.815430 
# 
# From -- ./inp_files/470531.got.cif
#   From: 2010.05.17/outbox.cif.g08.bks.cpg/sg2_236_cif.got.tgz:470531.got - 2010.06.03 11:33:40.
