data_PCOD9093170
_publ_section_title
;
Structure prediction by ZEFSAII (Michael W. Deem and Ramdas Pophale) SiO2 
 PCOD9093170
Probable space group: P -1
;
_chemical_formula_sum "Si O2"
_cell_formula_units_Z 12
_cell_length_a 13.671830
_cell_length_b 6.513117
_cell_length_c 12.780383
_cell_angle_alpha 123.000210
_cell_angle_beta 139.926683
_cell_angle_gamma 44.272792
_cell_volume 511.421640
_symmetry_space_group_name_H-M "P -1"
_symmetry_group_IT_number 2
_symmetry_cell_setting 'triclinic'
loop_
_space_group_symop_operation_xyz
x,y,z
-x,-y,-z
loop_
_atom_site_type_symbol
_atom_site_label
_atom_site_fract_x
_atom_site_fract_y
_atom_site_fract_z
Si Si1 0.076772 0.863640 0.195995
Si Si2 0.438745 0.235726 0.307561
Si Si3 0.669237 0.816575 0.010203
Si Si4 0.245424 0.831873 0.115859
Si Si5 0.016750 0.838219 0.361586
Si Si6 0.420642 0.372348 0.553505
O O1 0.231100 0.518952 0.233853
O O2 0.153018 0.958948 0.189446
O O3 0.042194 0.983484 0.318163
O O4 0.886710 0.939349 0.014465
O O5 0.499640 0.158686 0.457215
O O6 0.553267 0.365080 0.391283
O O7 0.416752 0.075518 0.146837
O O8 0.838970 0.834527 0.188260
O O9 0.740944 0.471466 0.976007
O O10 0.500000 0.000000 0.000000
O O11 0.449764 0.742353 0.271052
O O12 0.207936 0.520182 0.439922
O O13 0.000000 0.000000 0.500000
#
# Coordination Sequence:
#
# PCOD9093170 Si02
#       6
#     2   2   2   2   2   2
#     4   8  17  32  55  77  98 133 166 203 252 301
#     4   8  15  30  52  73  98 130 165 201 244 298
#     4  10  20  32  49  74 103 135 171 207 247 297
#     4   9  17  34  56  76 102 131 164 205 255 301
#     4  11  20  32  51  74 102 135 174 208 242 296
#     4   8  15  28  50  74  93 125 166 203 241 291
#
# _framework density 23.464003999999999
#
# number of rings (size 3 to 8) (size 9 to 14) (size 15 to 20)
#    0.000    3.333    0.000    3.000    0.000    6.000 
#    0.000    4.167    0.000   35.000    0.000    0.000 
#    0.000    0.000    0.000    0.000    0.000    0.000 
#
# Total GULP energy -66860.714279 kJ/mol
# GULP energy per Si atom -5571.726190 kJ/mol
# Density = 2.341060 g / cm^3
# Si number density = 23.464004 Si / 1000 Ang^3
#
#
#
# Elastic Constant Matrix: (Units=GPa)
#
#
# Indices 1 2 3 4 5 6 
#
# 1 80.6895 35.0683 69.3773 16.0697 2.1581 -28.7602
# 2 35.0683 45.2754 50.4178 3.4112 6.9167 -29.0003
# 3 69.3773 50.4178 230.7790 -1.8047 -8.3714 -28.2428
# 4 16.0697 3.4112 -1.8047 50.1700 -5.5723 5.1132
# 5 2.1581 6.9167 -8.3714 -5.5723 60.5175 7.5565
# 6 -28.7602 -29.0003 -28.2428 5.1132 7.5565 34.5242
#
#
#
# Elastic Compliance Matrix: (Units=1/GPa)
#
#
# Indices 1 2 3 4 5 6 
#
# 1 0.027562 0.001875 -0.006250 -0.012143 -0.005994 0.022533
# 2 0.001875 0.078720 -0.010570 -0.015267 -0.020137 0.065709
# 3 -0.006250 -0.010570 0.007546 0.004407 0.004061 -0.009454
# 4 -0.012143 -0.015267 0.004407 0.028566 0.008595 -0.025447
# 5 -0.005994 -0.020137 0.004061 0.008595 0.023515 -0.025005
# 6 0.022533 0.065709 -0.009454 -0.025447 -0.025005 0.104440
#
#
# Mechanical properties :
#
#
# Convention : Reuss Voigt Hill
#
# Bulk Modulus (GPa) = 11.91349 74.05230 42.98289
# Shear Modulus (GPa) = 15.23378 42.50104 28.86741
#
# Velocity S-wave (km/s) = 2.55078 4.26059 3.51135
# Velocity P-wave (km/s) = 3.70995 7.47208 5.89897
#
# Compressibility (1/GPa) = 0.08393844
#
# Stress axis : x y z
#
# Youngs Moduli (GPa) = 36.28150 12.70329 132.51832
#
# Poissons Ratio (x) = -0.02382 0.82828
# Poissons Ratio (y) = -0.06804 1.40071
# Poissons Ratio (z) = 0.22677 0.13427
#
# Static dielectric constant tensor:
#      x y z
#    x 2.023890 0.113570 -0.005040 
#    y 0.113570 1.954980 -0.030340 
#    z -0.005040 -0.030340 1.938250 
# 
# From -- ./inp_files/445052.got.cif
#   From: 2010.05.17/outbox.cif.g08.bks.cpg/sg2_223_cif.got.tgz:445052.got - 2010.06.03 11:33:40.
