data_PCOD9093859
_publ_section_title
;
Structure prediction by ZEFSAII (Michael W. Deem and Ramdas Pophale) SiO2 
 PCOD9093859
Probable space group: P -1
;
_chemical_formula_sum "Si O2"
_cell_formula_units_Z 16
_cell_length_a 9.165776
_cell_length_b 18.753003
_cell_length_c 13.329818
_cell_angle_alpha 24.221595
_cell_angle_beta 111.097696
_cell_angle_gamma 126.149633
_cell_volume 640.152253
_symmetry_space_group_name_H-M "P -1"
_symmetry_group_IT_number 2
_symmetry_cell_setting 'triclinic'
loop_
_space_group_symop_operation_xyz
x,y,z
-x,-y,-z
loop_
_atom_site_type_symbol
_atom_site_label
_atom_site_fract_x
_atom_site_fract_y
_atom_site_fract_z
Si Si1 0.930303 0.862336 0.528953
Si Si2 0.083621 0.605774 0.246957
Si Si3 0.455998 0.193752 0.938988
Si Si4 0.752251 0.222396 0.263165
Si Si5 0.700238 0.643518 0.958778
Si Si6 0.625746 0.464924 0.824405
Si Si7 0.765843 0.321252 0.365060
Si Si8 0.266419 0.908243 0.075976
O O1 0.756309 0.730245 0.745739
O O2 0.818742 0.739317 0.552519
O O3 0.104150 0.841667 0.627029
O O4 0.070952 0.140973 0.210379
O O5 0.156672 0.831478 0.038062
O O6 0.979371 0.530773 0.208993
O O7 0.892265 0.353339 0.577528
O O8 0.302819 0.662899 0.221111
O O9 0.350715 0.944069 0.288265
O O10 0.310037 0.095066 0.928141
O O11 0.494857 0.367198 0.812879
O O12 0.813536 0.348700 0.224306
O O13 0.500000 0.000000 0.500000
O O14 0.734305 0.360076 0.000070
O O15 0.540595 0.632295 0.001638
O O16 0.628988 0.388590 0.270004
O O17 0.500000 0.000000 0.000000
#
# Coordination Sequence:
#
# PCOD9093859 Si02
#       8
#     2   2   2   2   2   2   2   2
#     4  11  24  39  56  77 109 163 207 242 289 335
#     4   9  18  33  56  88 114 142 184 237 284 342
#     4  10  20  33  59  86 112 148 192 234 289 339
#     4  12  22  38  58  80 116 154 203 247 284 335
#     4  11  25  38  53  79 118 157 203 241 290 337
#     4  12  23  39  56  81 118 157 195 244 289 337
#     4  11  22  34  55  83 115 151 197 237 287 335
#     4   8  16  34  57  87 118 139 175 238 290 339
#
# _framework density 24.994052
#
# number of rings (size 3 to 8) (size 9 to 14) (size 15 to 20)
#    0.000    1.500    3.750    1.500    1.750    2.000 
#    0.000    0.000    0.000    0.750    0.000   30.625 
#    0.000    0.000    0.000    0.000    0.000    0.000 
#
# Total GULP energy -89173.180903 kJ/mol
# GULP energy per Si atom -5573.323806 kJ/mol
# Density = 2.493716 g / cm^3
# Si number density = 24.994052 Si / 1000 Ang^3
#
#
#
# Elastic Constant Matrix: (Units=GPa)
#
#
# Indices 1 2 3 4 5 6 
#
# 1 105.2775 28.5733 14.4846 11.1020 -16.3680 -25.5625
# 2 28.5733 190.5023 11.2010 -62.8814 -1.6904 -21.1155
# 3 14.4846 11.2010 71.8579 -21.4988 -0.0211 -8.2303
# 4 11.1020 -62.8814 -21.4988 44.8881 -3.8334 2.2432
# 5 -16.3680 -1.6904 -0.0211 -3.8334 29.1486 -6.0940
# 6 -25.5625 -21.1155 -8.2303 2.2432 -6.0940 28.0948
#
#
#
# Elastic Compliance Matrix: (Units=1/GPa)
#
#
# Indices 1 2 3 4 5 6 
#
# 1 0.018826 -0.005816 -0.005789 -0.015348 0.011293 0.014738
# 2 -0.005816 0.014920 0.007283 0.025701 0.002346 0.006512
# 3 -0.005789 0.007283 0.020938 0.021507 0.001028 0.004846
# 4 -0.015348 0.025701 0.021507 0.072368 0.003806 0.006700
# 5 0.011293 0.002346 0.001028 0.003806 0.045883 0.021988
# 6 0.014738 0.006512 0.004846 0.006700 0.021988 0.059551
#
#
# Mechanical properties :
#
#
# Convention : Reuss Voigt Hill
#
# Bulk Modulus (GPa) = 21.72016 52.90618 37.31317
# Shear Modulus (GPa) = 19.49499 41.31822 30.40660
#
# Velocity S-wave (km/s) = 2.79585 4.07027 3.49170
# Velocity P-wave (km/s) = 4.37394 6.58050 5.58723
#
# Compressibility (1/GPa) = 0.04604018
#
# Stress axis : x y z
#
# Youngs Moduli (GPa) = 53.11726 67.02636 47.75997
#
# Poissons Ratio (x) = 0.38980 0.27647
# Poissons Ratio (y) = 0.30891 -0.34782
# Poissons Ratio (z) = 0.30749 -0.48813
#
# Static dielectric constant tensor:
#      x y z
#    x 2.021440 0.039080 0.020540 
#    y 0.039080 2.134280 -0.009370 
#    z 0.020540 -0.009370 2.107210 
# 
# From -- ./inp_files/506978.got.cif
#   From: 2010.05.17/outbox.cif.g08.bks.cpg/sg2_254_cif.got.tgz:506978.got - 2010.06.03 11:33:40.
