data_PCOD9093420
_publ_section_title
;
Structure prediction by ZEFSAII (Michael W. Deem and Ramdas Pophale) SiO2 
 PCOD9093420
Probable space group: P -1
;
_chemical_formula_sum "Si O2"
_cell_formula_units_Z 16
_cell_length_a 9.809536
_cell_length_b 12.289977
_cell_length_c 21.617736
_cell_angle_alpha 156.868974
_cell_angle_beta 37.290810
_cell_angle_gamma 131.746068
_cell_volume 596.123189
_symmetry_space_group_name_H-M "P -1"
_symmetry_group_IT_number 2
_symmetry_cell_setting 'triclinic'
loop_
_space_group_symop_operation_xyz
x,y,z
-x,-y,-z
loop_
_atom_site_type_symbol
_atom_site_label
_atom_site_fract_x
_atom_site_fract_y
_atom_site_fract_z
Si Si1 0.796726 0.854661 0.926272
Si Si2 0.478722 0.785239 0.279664
Si Si3 0.388071 0.675953 0.513961
Si Si4 0.835972 0.288579 0.942338
Si Si5 0.254035 0.749495 0.223659
Si Si6 0.269271 0.162689 0.326780
Si Si7 0.070120 0.603136 0.819288
Si Si8 0.401864 0.527449 0.290081
O O1 0.925514 0.683129 0.849810
O O2 0.752236 0.651282 0.781720
O O3 0.533397 0.030043 0.135557
O O4 0.931484 0.094884 0.990388
O O5 0.263760 0.832203 0.335622
O O6 0.396753 0.799470 0.388499
O O7 0.638879 0.985754 0.305424
O O8 0.249152 0.023257 0.326970
O O9 0.245680 0.502769 0.514857
O O10 0.356003 0.585992 0.408188
O O11 0.659813 0.558469 0.373518
O O12 0.643737 0.459156 0.050353
O O13 0.897307 0.963203 0.724909
O O14 0.672208 0.329501 0.083129
O O15 0.000000 0.500000 0.000000
O O16 0.050759 0.600208 0.205567
O O17 0.500000 0.500000 0.000000
#
# Coordination Sequence:
#
# PCOD9093420 Si02
#       8
#     2   2   2   2   2   2   2   2
#     4   9  17  38  57  91 117 148 196 251 290 336
#     4  10  22  39  60  84 120 159 194 244 301 351
#     4  11  24  38  59  89 120 160 196 242 298 351
#     4   9  19  36  61  89 112 150 203 236 290 359
#     4  12  19  38  61  86 119 157 192 251 298 341
#     4  10  21  37  58  86 123 149 197 247 297 340
#     4  10  20  32  62  91 116 147 203 243 287 353
#     4   9  19  39  61  82 123 156 191 244 300 346
#
# _framework density 26.840088999999999
#
# number of rings (size 3 to 8) (size 9 to 14) (size 15 to 20)
#    0.750    1.250    3.750    0.375    1.750    5.500 
#    0.000    0.625    0.000    0.000    0.000    0.000 
#    0.000    0.000    0.000    0.000    0.000    0.000 
#
# Total GULP energy -89484.063655 kJ/mol
# GULP energy per Si atom -5592.753978 kJ/mol
# Density = 2.677900 g / cm^3
# Si number density = 26.840089 Si / 1000 Ang^3
#
#
#
# Elastic Constant Matrix: (Units=GPa)
#
#
# Indices 1 2 3 4 5 6 
#
# 1 113.3913 36.0834 16.0105 1.7391 18.9462 10.6877
# 2 36.0834 176.8950 38.4811 51.5107 13.9312 15.1140
# 3 16.0105 38.4811 76.2820 41.0192 9.1271 13.8911
# 4 1.7391 51.5107 41.0192 54.4225 16.1696 2.9368
# 5 18.9462 13.9312 9.1271 16.1696 38.4386 6.6921
# 6 10.6877 15.1140 13.8911 2.9368 6.6921 51.7458
#
#
#
# Elastic Compliance Matrix: (Units=1/GPa)
#
#
# Indices 1 2 3 4 5 6 
#
# 1 0.011426 -0.003168 -0.004219 0.007825 -0.006797 0.000133
# 2 -0.003168 0.008899 0.001836 -0.010374 0.002645 -0.002191
# 3 -0.004219 0.001836 0.025343 -0.022084 0.005723 -0.005955
# 4 0.007825 -0.010374 -0.022084 0.049193 -0.016715 0.006712
# 5 -0.006797 0.002645 0.005723 -0.016715 0.034857 -0.004464
# 6 0.000133 -0.002191 -0.005955 0.006712 -0.004464 0.021733
#
#
# Mechanical properties :
#
#
# Convention : Reuss Voigt Hill
#
# Bulk Modulus (GPa) = 28.92846 60.85761 44.89303
# Shear Modulus (GPa) = 28.72342 47.32093 38.02217
#
# Velocity S-wave (km/s) = 3.27489 4.20345 3.76788
# Velocity P-wave (km/s) = 5.01013 6.80309 5.97425
#
# Compressibility (1/GPa) = 0.03456804
#
# Stress axis : x y z
#
# Youngs Moduli (GPa) = 87.52097 112.36674 39.45817
#
# Poissons Ratio (x) = 0.35593 0.16647
# Poissons Ratio (y) = 0.27723 -0.07246
# Poissons Ratio (z) = 0.36925 -0.20634
#
# Static dielectric constant tensor:
#      x y z
#    x 2.070150 0.000180 0.009990 
#    y 0.000180 2.145390 -0.051720 
#    z 0.009990 -0.051720 2.205390 
# 
# From -- ./inp_files/589201.got.cif
#   From: 2010.05.17/outbox.cif.g08.bks.cpg/sg2_295_cif.got.tgz:589201.got - 2010.06.03 11:33:40.
