data_PCOD9093340
_publ_section_title
;
Structure prediction by ZEFSAII (Michael W. Deem and Ramdas Pophale) SiO2 
 PCOD9093340
Probable space group: P -1
;
_chemical_formula_sum "Si O2"
_cell_formula_units_Z 15
_cell_length_a 10.892259
_cell_length_b 10.778634
_cell_length_c 9.660925
_cell_angle_alpha 84.882596
_cell_angle_beta 141.095383
_cell_angle_gamma 113.584189
_cell_volume 602.238336
_symmetry_space_group_name_H-M "P -1"
_symmetry_group_IT_number 2
_symmetry_cell_setting 'triclinic'
loop_
_space_group_symop_operation_xyz
x,y,z
-x,-y,-z
loop_
_atom_site_type_symbol
_atom_site_label
_atom_site_fract_x
_atom_site_fract_y
_atom_site_fract_z
Si Si1 0.630882 0.656524 0.323623
Si Si2 0.736749 0.950030 0.299673
Si Si3 0.138442 0.840501 0.386447
Si Si4 0.500000 0.500000 0.000000
Si Si5 0.629059 0.795906 0.946870
Si Si6 0.220643 0.986968 0.165181
Si Si7 0.950398 0.670223 0.835773
Si Si8 0.117387 0.464459 0.907795
O O1 0.636736 0.806129 0.322622
O O2 0.736671 0.638351 0.555921
O O3 0.736568 0.640199 0.277516
O O4 0.369726 0.529950 0.054378
O O5 0.625611 0.893679 0.059497
O O6 0.743519 0.077740 0.377707
O O7 0.000000 0.000000 0.500000
O O8 0.888809 0.826233 0.158306
O O9 0.077410 0.676010 0.327965
O O10 0.275349 0.943334 0.364959
O O11 0.526383 0.372116 0.128257
O O12 0.601415 0.863263 0.773103
O O13 0.124013 0.843245 0.996136
O O14 0.000000 0.000000 0.000000
O O15 0.069410 0.592453 0.875449
O O16 0.868477 0.594636 0.922040
#
# Coordination Sequence:
#
# PCOD9093340 Si02
#       8
#     2   2   2   1   2   2   2   2
#     4  11  20  37  60  84 115 158 199 243 295 353
#     4   9  18  31  57  83 113 154 197 238 297 354
#     4   9  16  32  54  82 113 151 190 244 296 346
#     4  10  20  32  56  86 116 152 200 246 284 350
#     4   9  16  30  52  81 113 151 192 241 289 346
#     4   9  17  31  57  84 110 150 197 236 294 355
#     4  10  21  37  60  88 120 155 194 243 307 355
#     4  10  21  37  60  87 123 152 194 249 298 358
#
# _framework density 24.907081999999999
#
# number of rings (size 3 to 8) (size 9 to 14) (size 15 to 20)
#    0.000    2.400    1.333    2.800    0.000    0.000 
#    2.400    0.667    2.933    8.800    0.000    0.000 
#    0.000    0.000    0.000    0.000    0.000    0.000 
#
# Total GULP energy -83620.115596 kJ/mol
# GULP energy per Si atom -5574.674373 kJ/mol
# Density = 2.485039 g / cm^3
# Si number density = 24.907082 Si / 1000 Ang^3
#
#
#
# Elastic Constant Matrix: (Units=GPa)
#
#
# Indices 1 2 3 4 5 6 
#
# 1 87.5529 56.7825 42.7859 0.6182 -7.9638 3.6033
# 2 56.7825 141.0334 61.2350 8.9637 -11.7712 9.4230
# 3 42.7859 61.2350 62.8961 16.9312 -11.7263 -15.9782
# 4 0.6182 8.9637 16.9312 46.9548 -10.2808 -12.6220
# 5 -7.9638 -11.7712 -11.7263 -10.2808 34.5171 5.6805
# 6 3.6033 9.4230 -15.9782 -12.6220 5.6805 34.6683
#
#
#
# Elastic Compliance Matrix: (Units=1/GPa)
#
#
# Indices 1 2 3 4 5 6 
#
# 1 0.019973 -0.000981 -0.015327 0.003678 0.001441 -0.007771
# 2 -0.000981 0.016499 -0.018547 0.000344 0.001346 -0.013026
# 3 -0.015327 -0.018547 0.053972 -0.007747 0.001485 0.028445
# 4 0.003678 0.000344 -0.007747 0.026425 0.005434 0.004684
# 5 0.001441 0.001346 0.001485 0.005434 0.032406 -0.003162
# 6 -0.007771 -0.013026 0.028445 0.004684 -0.003162 0.048526
#
#
# Mechanical properties :
#
#
# Convention : Reuss Voigt Hill
#
# Bulk Modulus (GPa) = 48.23143 68.12103 58.17623
# Shear Modulus (GPa) = 18.22007 31.94000 25.08003
#
# Velocity S-wave (km/s) = 2.70760 3.58490 3.17668
# Velocity P-wave (km/s) = 5.40198 6.67419 6.07150
#
# Compressibility (1/GPa) = 0.02073337
#
# Stress axis : x y z
#
# Youngs Moduli (GPa) = 50.06770 60.60986 18.52825
#
# Poissons Ratio (x) = 0.05944 0.28399
# Poissons Ratio (y) = 0.04911 0.34364
# Poissons Ratio (z) = 0.76741 1.12412
#
# Static dielectric constant tensor:
#      x y z
#    x 2.373430 -0.001740 -0.340830 
#    y -0.001740 2.000040 0.065100 
#    z -0.340830 0.065100 2.768160 
# 
# From -- ./inp_files/301046.got.cif
#   From: 2010.05.17/outbox.cif.g08.bks.cpg/sg2_151_cif.got.tgz:301046.got - 2010.06.03 11:33:40.
