data_PCOD9093591
_publ_section_title
;
Structure prediction by ZEFSAII (Michael W. Deem and Ramdas Pophale) SiO2 
 PCOD9093591
Probable space group: P -1
;
_chemical_formula_sum "Si O2"
_cell_formula_units_Z 16
_cell_length_a 14.027193
_cell_length_b 17.503114
_cell_length_c 14.075057
_cell_angle_alpha 49.135882
_cell_angle_beta 159.404138
_cell_angle_gamma 134.806175
_cell_volume 862.278421
_symmetry_space_group_name_H-M "P -1"
_symmetry_group_IT_number 2
_symmetry_cell_setting 'triclinic'
loop_
_space_group_symop_operation_xyz
x,y,z
-x,-y,-z
loop_
_atom_site_type_symbol
_atom_site_label
_atom_site_fract_x
_atom_site_fract_y
_atom_site_fract_z
Si Si1 0.261200 0.229492 0.606966
Si Si2 0.741770 0.957254 0.718584
Si Si3 0.808356 0.774899 0.667993
Si Si4 0.171325 0.964129 0.959030
Si Si5 0.661172 0.219933 0.625716
Si Si6 0.622429 0.525007 0.484570
Si Si7 0.953003 0.604707 0.044419
Si Si8 0.603339 0.088239 0.111440
O O1 0.322953 0.240167 0.544273
O O2 0.266945 0.348591 0.539521
O O3 0.948050 0.137566 0.401796
O O4 0.494678 0.187041 0.905821
O O5 0.543264 0.831885 0.613166
O O6 0.930204 0.996809 0.764961
O O7 0.500000 0.000000 0.500000
O O8 0.000000 0.000000 0.000000
O O9 0.559637 0.754519 0.529715
O O10 0.008636 0.896534 0.771781
O O11 0.989752 0.698461 0.923496
O O12 0.249479 0.879077 0.169501
O O13 0.456795 0.044418 0.112158
O O14 0.943041 0.327600 0.815333
O O15 0.500000 0.500000 0.500000
O O16 0.863788 0.470667 0.744510
O O17 0.375742 0.467884 0.223574
O O18 0.500000 0.000000 0.000000
#
# Coordination Sequence:
#
# PCOD9093591 Si02
#       8
#     2   2   2   2   2   2   2   2
#     4  12  25  36  51  80 112 150 214 243 264 322
#     4  11  22  37  59  89 119 146 178 235 297 353
#     4  10  20  33  54  79 109 153 197 232 272 333
#     4  10  22  36  59  79 120 157 188 230 279 329
#     4  10  20  37  57  85 114 150 186 223 286 360
#     4  12  23  34  54  73 112 150 199 253 294 313
#     4  11  21  35  53  77 106 155 191 231 300 338
#     4  12  25  38  56  78 114 161 209 229 265 329
#
# _framework density 18.555491
#
# number of rings (size 3 to 8) (size 9 to 14) (size 15 to 20)
#    0.000    1.000    5.000    2.250    7.000    0.000 
#    0.000    0.000    0.000    0.000    0.000    0.000 
#    0.000   20.000    0.000    0.000    0.000    0.000 
#
# Total GULP energy -89071.170945 kJ/mol
# GULP energy per Si atom -5566.948184 kJ/mol
# Density = 1.851326 g / cm^3
# Si number density = 18.555491 Si / 1000 Ang^3
#
#
#
# Elastic Constant Matrix: (Units=GPa)
#
#
# Indices 1 2 3 4 5 6 
#
# 1 54.2017 29.5870 15.8081 -4.4082 12.6583 -12.3297
# 2 29.5870 74.7436 12.5270 6.0723 -0.8240 -11.5549
# 3 15.8081 12.5270 96.2982 -0.5345 11.7500 -10.9001
# 4 -4.4082 6.0723 -0.5345 42.4676 -10.1575 -0.8797
# 5 12.6583 -0.8240 11.7500 -10.1575 29.9716 5.9268
# 6 -12.3297 -11.5549 -10.9001 -0.8797 5.9268 17.1200
#
#
#
# Elastic Compliance Matrix: (Units=1/GPa)
#
#
# Indices 1 2 3 4 5 6 
#
# 1 0.034073 -0.010024 0.000994 0.000772 -0.019797 0.025300
# 2 -0.010024 0.018245 -0.000800 -0.002762 0.003472 0.003242
# 3 0.000994 -0.000800 0.012509 -0.001296 -0.007925 0.010818
# 4 0.000772 -0.002762 -0.001296 0.026273 0.009839 -0.004190
# 5 -0.019797 0.003472 -0.007925 0.009839 0.055302 -0.035600
# 6 0.025300 0.003242 0.010818 -0.004190 -0.035600 0.097817
#
#
# Mechanical properties :
#
#
# Convention : Reuss Voigt Hill
#
# Bulk Modulus (GPa) = 22.13959 37.89861 30.01910
# Shear Modulus (GPa) = 17.92542 29.06660 23.49601
#
# Velocity S-wave (km/s) = 3.11150 3.96216 3.56231
# Velocity P-wave (km/s) = 4.98658 6.43431 5.75615
#
# Compressibility (1/GPa) = 0.04516795
#
# Stress axis : x y z
#
# Youngs Moduli (GPa) = 29.34902 54.80988 79.93965
#
# Poissons Ratio (x) = 0.54941 -0.07948
# Poissons Ratio (y) = 0.29419 0.06394
# Poissons Ratio (z) = -0.02918 0.04384
#
# Static dielectric constant tensor:
#      x y z
#    x 1.643130 -0.015420 0.001000 
#    y -0.015420 1.729510 0.047190 
#    z 0.001000 0.047190 1.716680 
# 
# From -- ./inp_files/535086.got.cif
#   From: 2010.05.17/outbox.cif.g08.bks.cpg/sg2_268_cif.got.tgz:535086.got - 2010.06.03 11:33:40.
