data_PCOD9093960
_publ_section_title
;
Structure prediction by ZEFSAII (Michael W. Deem and Ramdas Pophale) SiO2 
 PCOD9093960
Probable space group: P -1
;
_chemical_formula_sum "Si O2"
_cell_formula_units_Z 14
_cell_length_a 17.765016
_cell_length_b 4.972868
_cell_length_c 8.204888
_cell_angle_alpha 65.424858
_cell_angle_beta 69.191963
_cell_angle_gamma 95.234417
_cell_volume 591.344242
_symmetry_space_group_name_H-M "P -1"
_symmetry_group_IT_number 2
_symmetry_cell_setting 'triclinic'
loop_
_space_group_symop_operation_xyz
x,y,z
-x,-y,-z
loop_
_atom_site_type_symbol
_atom_site_label
_atom_site_fract_x
_atom_site_fract_y
_atom_site_fract_z
Si Si1 0.404033 0.417272 0.149304
Si Si2 0.289476 0.788368 0.477784
Si Si3 0.703644 0.195244 0.050337
Si Si4 0.595339 0.586111 0.460232
Si Si5 0.178667 0.191812 0.525391
Si Si6 0.997430 0.152367 0.637697
Si Si7 0.814108 0.826781 0.872386
O O1 0.404213 0.433261 0.340151
O O2 0.356403 0.637315 0.043289
O O3 0.349432 0.063987 0.253746
O O4 0.500000 0.500000 0.000000
O O5 0.227457 0.939546 0.586945
O O6 0.353488 0.654822 0.565705
O O7 0.232224 0.509807 0.484366
O O8 0.644533 0.911907 0.265810
O O9 0.766933 0.472448 0.031804
O O10 0.760848 0.043044 0.930490
O O11 0.500000 0.500000 0.500000
O O12 0.082524 0.139391 0.664575
O O13 0.179873 0.182076 0.328497
O O14 0.000000 0.500000 0.500000
O O15 0.000000 0.000000 0.500000
O O16 0.908694 0.968464 0.828954
#
# Coordination Sequence:
#
# PCOD9093960 Si02
#       7
#     2   2   2   2   2   2   2
#     4  12  29  49  75 108 144 192 244 305 371 432
#     4  12  24  45  72 100 144 192 239 293 368 432
#     4  12  28  45  77 103 151 193 243 301 362 442
#     4  12  30  51  74 109 147 193 250 309 367 433
#     4  11  21  40  71 106 144 190 241 295 358 433
#     4  10  20  33  64 108 150 183 237 303 352 425
#     4  11  22  41  67 109 147 189 240 296 362 427
#
# _framework density 23.674873000000002
#
# number of rings (size 3 to 8) (size 9 to 14) (size 15 to 20)
#    0.000    0.571    2.857    6.000    4.000    2.286 
#    0.000    0.000    0.000    5.143    0.000    0.000 
#    0.000    0.000    0.000    0.000    0.000    0.000 
#
# Total GULP energy -78351.327415 kJ/mol
# GULP energy per Si atom -5596.523387 kJ/mol
# Density = 2.362099 g / cm^3
# Si number density = 23.674873 Si / 1000 Ang^3
#
#
#
# Elastic Constant Matrix: (Units=GPa)
#
#
# Indices 1 2 3 4 5 6 
#
# 1 220.5605 101.8803 106.8152 -43.2907 -49.9306 -10.8908
# 2 101.8803 190.4576 56.4390 -22.0968 -32.2729 -32.2447
# 3 106.8152 56.4390 132.8939 -31.2432 -27.4402 -13.9542
# 4 -43.2907 -22.0968 -31.2432 38.6262 1.9088 3.1320
# 5 -49.9306 -32.2729 -27.4402 1.9088 53.6517 -13.7008
# 6 -10.8908 -32.2447 -13.9542 3.1320 -13.7008 39.0500
#
#
#
# Elastic Compliance Matrix: (Units=1/GPa)
#
#
# Indices 1 2 3 4 5 6 
#
# 1 0.010500 -0.002330 -0.004617 0.006325 0.006030 0.000963
# 2 -0.002330 0.009037 0.000660 0.002082 0.005809 0.008920
# 3 -0.004617 0.000660 0.013704 0.005658 0.004232 0.005186
# 4 0.006325 0.002082 0.005658 0.037747 0.010240 0.006070
# 5 0.006030 0.005809 0.004232 0.010240 0.034464 0.019261
# 6 0.000963 0.008920 0.005186 0.006070 0.019261 0.041366
#
#
# Mechanical properties :
#
#
# Convention : Reuss Voigt Hill
#
# Bulk Modulus (GPa) = 48.38393 119.35343 83.86868
# Shear Modulus (GPa) = 30.06960 44.85073 37.46016
#
# Velocity S-wave (km/s) = 3.56772 4.35724 3.98210
# Velocity P-wave (km/s) = 6.11986 8.70845 7.52628
#
# Compressibility (1/GPa) = 0.02066802
#
# Stress axis : x y z
#
# Youngs Moduli (GPa) = 95.23751 110.65291 72.97161
#
# Poissons Ratio (x) = 0.25782 0.33691
# Poissons Ratio (y) = 0.22191 -0.04819
# Poissons Ratio (z) = 0.43971 -0.07307
#
# Static dielectric constant tensor:
#      x y z
#    x 1.958140 0.023070 0.021860 
#    y 0.023070 1.929590 0.044610 
#    z 0.021860 0.044610 1.949420 
# 
# From -- ./inp_files/322451.got.cif
#   From: 2010.05.17/outbox.cif.g08.bks.cpg/sg2_162_cif.got.tgz:322451.got - 2010.06.03 11:33:40.
