data_PCOD9093941
_publ_section_title
;
Structure prediction by ZEFSAII (Michael W. Deem and Ramdas Pophale) SiO2 
 PCOD9093941
Probable space group: P -1
;
_chemical_formula_sum "Si O2"
_cell_formula_units_Z 16
_cell_length_a 8.496901
_cell_length_b 15.766567
_cell_length_c 14.668395
_cell_angle_alpha 136.350659
_cell_angle_beta 48.606055
_cell_angle_gamma 149.931652
_cell_volume 676.097283
_symmetry_space_group_name_H-M "P -1"
_symmetry_group_IT_number 2
_symmetry_cell_setting 'triclinic'
loop_
_space_group_symop_operation_xyz
x,y,z
-x,-y,-z
loop_
_atom_site_type_symbol
_atom_site_label
_atom_site_fract_x
_atom_site_fract_y
_atom_site_fract_z
Si Si1 0.074660 0.085149 0.937233
Si Si2 0.863620 0.805531 0.269972
Si Si3 0.468089 0.720645 0.777814
Si Si4 0.290617 0.396539 0.672694
Si Si5 0.134080 0.796318 0.984391
Si Si6 0.363092 0.806893 0.289913
Si Si7 0.532548 0.794012 0.601258
Si Si8 0.389081 0.812024 0.482094
O O1 0.798089 0.910903 0.841955
O O2 0.027028 0.212272 0.048948
O O3 0.403542 0.184320 0.843888
O O4 0.000000 0.000000 0.000000
O O5 0.951357 0.782901 0.124828
O O6 0.636449 0.611234 0.258309
O O7 0.697153 0.865276 0.379430
O O8 0.192138 0.983110 0.332795
O O9 0.472620 0.579737 0.690846
O O10 0.423687 0.740314 0.705044
O O11 0.174744 0.670226 0.892280
O O12 0.320936 0.277303 0.522304
O O13 0.938609 0.294544 0.733034
O O14 0.500000 0.000000 0.000000
O O15 0.214194 0.714472 0.376629
O O16 0.554540 0.018502 0.395864
O O17 0.308403 0.725902 0.547415
#
# Coordination Sequence:
#
# PCOD9093941 Si02
#       8
#     2   2   2   2   2   2   2   2
#     4  11  25  41  65  91 124 167 214 256 308 370
#     4  11  18  39  63  90 119 168 218 244 292 380
#     4  11  25  43  62  93 129 166 206 258 311 371
#     4  11  24  38  66  97 127 158 207 264 315 360
#     4  10  21  39  62  83 122 168 216 243 294 379
#     4  11  21  37  62  96 125 152 214 258 309 360
#     4  11  19  40  65  92 125 171 209 242 306 387
#     4  10  20  33  62  92 121 159 206 258 294 359
#
# _framework density 23.665234000000002
#
# number of rings (size 3 to 8) (size 9 to 14) (size 15 to 20)
#    0.000    1.250    6.250    1.125    7.000    0.500 
#    0.000    3.750    0.000    0.000    0.000    0.000 
#    0.000    0.000    0.000    0.000    0.000    0.000 
#
# Total GULP energy -89113.852553 kJ/mol
# GULP energy per Si atom -5569.615785 kJ/mol
# Density = 2.361137 g / cm^3
# Si number density = 23.665234 Si / 1000 Ang^3
#
#
#
# Elastic Constant Matrix: (Units=GPa)
#
#
# Indices 1 2 3 4 5 6 
#
# 1 69.4340 14.5123 27.5759 5.6742 -10.3021 -25.1747
# 2 14.5123 44.2458 10.1376 9.9583 9.4588 -23.0408
# 3 27.5759 10.1376 51.6419 -15.7542 4.3685 -15.3621
# 4 5.6742 9.9583 -15.7542 21.8433 -9.3051 -7.8090
# 5 -10.3021 9.4588 4.3685 -9.3051 27.6765 -7.6651
# 6 -25.1747 -23.0408 -15.3621 -7.8090 -7.6651 35.2517
#
#
#
# Elastic Compliance Matrix: (Units=1/GPa)
#
#
# Indices 1 2 3 4 5 6 
#
# 1 0.028388 -0.000321 -0.011713 -0.001969 0.016904 0.018198
# 2 -0.000321 0.044342 -0.015981 -0.038814 -0.023567 0.008066
# 3 -0.011713 -0.015981 0.055669 0.069403 0.022788 0.025779
# 4 -0.001969 -0.038814 0.069403 0.164819 0.072426 0.055729
# 5 0.016904 -0.023567 0.022788 0.072426 0.082469 0.040575
# 6 0.018198 0.008066 0.025779 0.055729 0.040575 0.079038
#
#
# Mechanical properties :
#
#
# Convention : Reuss Voigt Hill
#
# Bulk Modulus (GPa) = 13.81791 29.97479 21.89635
# Shear Modulus (GPa) = 9.34791 24.49402 16.92097
#
# Velocity S-wave (km/s) = 1.98963 3.22067 2.67687
# Velocity P-wave (km/s) = 3.33613 5.15014 4.33899
#
# Compressibility (1/GPa) = 0.07236983
#
# Stress axis : x y z
#
# Youngs Moduli (GPa) = 35.22583 22.55174 17.96328
#
# Poissons Ratio (x) = 0.00725 0.21040
# Poissons Ratio (y) = 0.01132 0.28707
# Poissons Ratio (z) = 0.41259 0.36040
#
# Static dielectric constant tensor:
#      x y z
#    x 1.966810 -0.064420 0.061550 
#    y -0.064420 1.988970 -0.015400 
#    z 0.061550 -0.015400 1.962810 
# 
# From -- ./inp_files/283378.got.cif
#   From: 2010.05.17/outbox.cif.g08.bks.cpg/sg2_142_cif.got.tgz:283378.got - 2010.06.03 11:33:40.
