data_PCOD9093462
_publ_section_title
;
Structure prediction by ZEFSAII (Michael W. Deem and Ramdas Pophale) SiO2 
 PCOD9093462
Probable space group: P -1
;
_chemical_formula_sum "Si O2"
_cell_formula_units_Z 14
_cell_length_a 21.024618
_cell_length_b 4.929491
_cell_length_c 5.590886
_cell_angle_alpha 80.971067
_cell_angle_beta 123.362529
_cell_angle_gamma 92.857246
_cell_volume 477.491768
_symmetry_space_group_name_H-M "P -1"
_symmetry_group_IT_number 2
_symmetry_cell_setting 'triclinic'
loop_
_space_group_symop_operation_xyz
x,y,z
-x,-y,-z
loop_
_atom_site_type_symbol
_atom_site_label
_atom_site_fract_x
_atom_site_fract_y
_atom_site_fract_z
Si Si1 0.022795 0.231972 0.327430
Si Si2 0.257158 0.966624 0.693307
Si Si3 0.116762 0.873618 0.181137
Si Si4 0.455531 0.185724 0.577514
Si Si5 0.597452 0.265768 0.097683
Si Si6 0.165433 0.330896 0.839882
Si Si7 0.306830 0.410068 0.360416
O O1 0.083273 0.431063 0.545120
O O2 0.070328 0.058907 0.251735
O O3 0.000000 0.000000 0.500000
O O4 0.942043 0.332776 0.029683
O O5 0.217119 0.163735 0.776060
O O6 0.278303 0.150008 0.483463
O O7 0.193763 0.765219 0.487419
O O8 0.338883 0.833919 0.950518
O O9 0.140094 0.093238 0.001001
O O10 0.373329 0.322051 0.321205
O O11 0.500000 0.000000 0.500000
O O12 0.430510 0.987804 0.768601
O O13 0.519669 0.380397 0.795532
O O14 0.645885 0.431977 0.364482
O O15 0.226440 0.525970 0.065568
#
# Coordination Sequence:
#
# PCOD9093462 Si02
#       7
#     2   2   2   2   2   2   2
#     4   8  13  23  43  72 100 129 164 200 240 284
#     4   9  18  32  48  70  99 129 163 201 241 288
#     4   8  14  25  44  71  99 128 165 202 237 283
#     4  10  21  36  53  73  97 126 162 201 242 292
#     4  10  21  35  51  72  98 127 161 201 244 291
#     4   9  16  28  47  71  98 128 164 202 241 288
#     4  10  20  33  50  73  99 127 161 201 244 290
#
# _framework density 29.319876000000001
#
# number of rings (size 3 to 8) (size 9 to 14) (size 15 to 20)
#    0.000    2.857    0.000    1.286    0.000    1.714 
#    0.000    0.000    0.000    0.857    0.000   90.000 
#    0.000    0.000    0.000    0.000    0.000    0.000 
#
# Total GULP energy -78407.331170 kJ/mol
# GULP energy per Si atom -5600.523655 kJ/mol
# Density = 2.925314 g / cm^3
# Si number density = 29.319876 Si / 1000 Ang^3
#
#
#
# Elastic Constant Matrix: (Units=GPa)
#
#
# Indices 1 2 3 4 5 6 
#
# 1 206.0934 37.7866 66.5896 15.6515 18.1795 11.7694
# 2 37.7866 90.0654 41.6946 5.3453 14.6768 2.1224
# 3 66.5896 41.6946 198.7091 24.5304 73.3809 1.2603
# 4 15.6515 5.3453 24.5304 63.5895 12.4473 3.9670
# 5 18.1795 14.6768 73.3809 12.4473 82.0837 19.3809
# 6 11.7694 2.1224 1.2603 3.9670 19.3809 39.1951
#
#
#
# Elastic Compliance Matrix: (Units=1/GPa)
#
#
# Indices 1 2 3 4 5 6 
#
# 1 0.005875 -0.001654 -0.002075 -0.000655 0.001487 -0.002277
# 2 -0.001654 0.012785 -0.002155 0.000170 0.000016 -0.000152
# 3 -0.002075 -0.002155 0.009503 -0.001602 -0.008547 0.004823
# 4 -0.000655 0.000170 -0.001602 0.016701 -0.000728 -0.001091
# 5 0.001487 0.000016 -0.008547 -0.000728 0.022219 -0.011085
# 6 -0.002277 -0.000152 0.004823 -0.001091 -0.011085 0.031642
#
#
# Mechanical properties :
#
#
# Convention : Reuss Voigt Hill
#
# Bulk Modulus (GPa) = 60.99112 87.44551 74.21831
# Shear Modulus (GPa) = 43.11914 60.22680 51.67297
#
# Velocity S-wave (km/s) = 3.83906 4.53717 4.20263
# Velocity P-wave (km/s) = 6.36383 7.57214 6.99412
#
# Compressibility (1/GPa) = 0.01639583
#
# Stress axis : x y z
#
# Youngs Moduli (GPa) = 170.22597 78.21627 105.22520
#
# Poissons Ratio (x) = 0.12934 0.21838
# Poissons Ratio (y) = 0.28149 0.22672
# Poissons Ratio (z) = 0.35329 0.16852
#
# Static dielectric constant tensor:
#      x y z
#    x 2.247290 0.006890 0.022340 
#    y 0.006890 2.226920 -0.007280 
#    z 0.022340 -0.007280 2.435810 
# 
# From -- ./inp_files/7420.got.cif
#   From: 2010.05.17/outbox.cif.g08.bks.cpg/sg2_4_cif.got.tgz:7420.got - 2010.06.03 11:33:40.
