data_PCOD9093589
_publ_section_title
;
Structure prediction by ZEFSAII (Michael W. Deem and Ramdas Pophale) SiO2 
 PCOD9093589
Probable space group: P -1
;
_chemical_formula_sum "Si O2"
_cell_formula_units_Z 16
_cell_length_a 21.836427
_cell_length_b 8.866301
_cell_length_c 20.334035
_cell_angle_alpha 143.957904
_cell_angle_beta 19.549218
_cell_angle_gamma 148.773284
_cell_volume 682.852203
_symmetry_space_group_name_H-M "P -1"
_symmetry_group_IT_number 2
_symmetry_cell_setting 'triclinic'
loop_
_space_group_symop_operation_xyz
x,y,z
-x,-y,-z
loop_
_atom_site_type_symbol
_atom_site_label
_atom_site_fract_x
_atom_site_fract_y
_atom_site_fract_z
Si Si1 0.731046 0.381331 0.128706
Si Si2 0.128836 0.366417 0.050370
Si Si3 0.274907 0.993474 0.170845
Si Si4 0.505495 0.275807 0.658131
Si Si5 0.694755 0.923530 0.393476
Si Si6 0.501542 0.840367 0.230977
Si Si7 0.389953 0.843114 0.210941
Si Si8 0.151509 0.087848 0.474605
O O1 0.912126 0.555599 0.954770
O O2 0.724051 0.126516 0.092294
O O3 0.544745 0.174276 0.195437
O O4 0.677345 0.608340 0.298994
O O5 0.293658 0.245797 0.833179
O O6 0.231702 0.660883 0.092513
O O7 0.923913 0.144062 0.215620
O O8 0.086596 0.990577 0.318273
O O9 0.234850 0.055791 0.307165
O O10 0.493840 0.187464 0.981629
O O11 0.543707 0.994269 0.523891
O O12 0.703109 0.568885 0.535848
O O13 0.491562 0.322161 0.768242
O O14 0.646106 0.021280 0.547155
O O15 0.404694 0.680218 0.203984
O O16 0.185138 0.862057 0.406587
#
# Coordination Sequence:
#
# PCOD9093589 Si02
#       8
#     2   2   2   2   2   2   2   2
#     4   9  18  35  58  76 108 148 179 216 269 308
#     4  11  20  36  55  82 106 141 184 225 259 315
#     4  10  20  33  61  80 106 134 186 221 270 311
#     4  10  20  33  54  78 109 140 181 214 270 310
#     4  10  20  35  56  76 114 144 175 227 258 313
#     4   8  19  36  55  75 116 141 178 213 271 316
#     4   9  19  36  54  80 107 142 175 222 259 324
#     4  11  19  36  59  82 101 144 180 221 271 321
#
# _framework density 23.431132000000002
#
# number of rings (size 3 to 8) (size 9 to 14) (size 15 to 20)
#    1.500    0.750    3.750    1.125    0.000    0.500 
#    2.250    1.250    0.000    2.250    0.000    0.000 
#    0.000    0.000    0.000    0.000    0.000    0.000 
#
# Total GULP energy -89085.759788 kJ/mol
# GULP energy per Si atom -5567.859987 kJ/mol
# Density = 2.337780 g / cm^3
# Si number density = 23.431132 Si / 1000 Ang^3
#
#
#
# Elastic Constant Matrix: (Units=GPa)
#
#
# Indices 1 2 3 4 5 6 
#
# 1 32.1208 -1.0582 1.8186 -5.6107 -2.3737 -15.4277
# 2 -1.0582 70.7120 3.7351 3.2809 -3.8180 -11.8907
# 3 1.8186 3.7351 73.6792 3.3513 0.6875 1.6832
# 4 -5.6107 3.2809 3.3513 32.9798 2.0187 9.1743
# 5 -2.3737 -3.8180 0.6875 2.0187 34.5232 9.8571
# 6 -15.4277 -11.8907 1.6832 9.1743 9.8571 26.2676
#
#
#
# Elastic Compliance Matrix: (Units=1/GPa)
#
#
# Indices 1 2 3 4 5 6 
#
# 1 0.046513 0.006062 -0.002095 -0.001227 -0.005334 0.032627
# 2 0.006062 0.016602 -0.001093 -0.004056 -0.001204 0.013014
# 3 -0.002095 -0.001093 0.013777 -0.001013 0.000183 -0.002323
# 4 -0.001227 -0.004056 -0.001013 0.034769 0.001829 -0.015322
# 5 -0.005334 -0.001204 0.000183 0.001829 0.033142 -0.016765
# 6 0.032627 0.013014 -0.002323 -0.015322 -0.016765 0.074915
#
#
# Mechanical properties :
#
#
# Convention : Reuss Voigt Hill
#
# Bulk Modulus (GPa) = 12.10062 20.61145 16.35604
# Shear Modulus (GPa) = 20.70241 30.22189 25.46215
#
# Velocity S-wave (km/s) = 2.97567 3.59530 3.30006
# Velocity P-wave (km/s) = 4.12088 5.10398 4.63855
#
# Compressibility (1/GPa) = 0.08264038
#
# Stress axis : x y z
#
# Youngs Moduli (GPa) = 21.49919 60.23403 72.58535
#
# Poissons Ratio (x) = -0.36515 0.15208
# Poissons Ratio (y) = -0.13033 0.07932
# Poissons Ratio (z) = 0.04504 0.06583
#
# Static dielectric constant tensor:
#      x y z
#    x 1.972250 -0.014560 0.061450 
#    y -0.014560 1.942340 0.026970 
#    z 0.061450 0.026970 1.888040 
# 
# From -- ./inp_files/601882.got.cif
#   From: 2010.05.17/outbox.cif.g08.bks.cpg/sg2_301_cif.got.tgz:601882.got - 2010.06.03 11:33:40.
