data_PCOD9093561
_publ_section_title
;
Structure prediction by ZEFSAII (Michael W. Deem and Ramdas Pophale) SiO2 
 PCOD9093561
Probable space group: P -1
;
_chemical_formula_sum "Si O2"
_cell_formula_units_Z 14
_cell_length_a 7.879647
_cell_length_b 15.972244
_cell_length_c 9.578167
_cell_angle_alpha 43.326174
_cell_angle_beta 113.214220
_cell_angle_gamma 141.683968
_cell_volume 466.547236
_symmetry_space_group_name_H-M "P -1"
_symmetry_group_IT_number 2
_symmetry_cell_setting 'triclinic'
loop_
_space_group_symop_operation_xyz
x,y,z
-x,-y,-z
loop_
_atom_site_type_symbol
_atom_site_label
_atom_site_fract_x
_atom_site_fract_y
_atom_site_fract_z
Si Si1 0.991277 0.720670 0.697501
Si Si2 0.289390 0.230252 0.259948
Si Si3 0.491125 0.725920 0.253685
Si Si4 0.450073 0.066624 0.238410
Si Si5 0.636737 0.997797 0.174870
Si Si6 0.875220 0.542982 0.242089
Si Si7 0.598469 0.616728 0.201012
O O1 0.199740 0.930607 0.438331
O O2 0.772888 0.676940 0.786659
O O3 0.226653 0.750234 0.804876
O O4 0.758866 0.547965 0.721660
O O5 0.620869 0.369755 0.259282
O O6 0.302791 0.257246 0.062442
O O7 0.000000 0.000000 0.500000
O O8 0.631082 0.859887 0.277676
O O9 0.130643 0.575660 0.320133
O O10 0.666231 0.700356 0.276647
O O11 0.591739 0.866374 0.984203
O O12 0.452736 0.931458 0.334222
O O13 0.500000 0.000000 0.000000
O O14 0.923445 0.233884 0.006729
O O15 0.696663 0.524772 0.331126
#
# Coordination Sequence:
#
# PCOD9093561 Si02
#       7
#     2   2   2   2   2   2   2
#     4  10  20  33  53  81 110 142 174 222 277 320
#     4  11  21  33  52  79 111 142 178 223 269 322
#     4  10  20  35  59  81 105 146 183 215 262 320
#     4   9  17  33  55  78 107 140 179 223 268 315
#     4   8  16  34  58  78 105 143 180 218 263 313
#     4   9  19  36  54  76 110 139 173 223 266 310
#     4  11  21  34  53  80 110 141 179 219 271 321
#
# _framework density 30.007683
#
# number of rings (size 3 to 8) (size 9 to 14) (size 15 to 20)
#    0.000    2.571    0.000    6.000    0.000    5.143 
#    0.000    0.714    0.000   47.143    0.000    1.000 
#    0.000    0.000    0.000    0.000    0.000    0.000 
#
# Total GULP energy -78123.331949 kJ/mol
# GULP energy per Si atom -5580.237996 kJ/mol
# Density = 2.993938 g / cm^3
# Si number density = 30.007683 Si / 1000 Ang^3
#
#
#
# Elastic Constant Matrix: (Units=GPa)
#
#
# Indices 1 2 3 4 5 6 
#
# 1 160.5694 59.7792 40.8405 -0.2787 -11.6559 -32.4537
# 2 59.7792 141.4815 30.5917 -5.0907 -17.3445 17.1442
# 3 40.8405 30.5917 93.9525 -14.2038 -17.8596 5.2216
# 4 -0.2787 -5.0907 -14.2038 46.3230 -5.1525 -15.6939
# 5 -11.6559 -17.3445 -17.8596 -5.1525 62.2565 6.1964
# 6 -32.4537 17.1442 5.2216 -15.6939 6.1964 62.9923
#
#
#
# Elastic Compliance Matrix: (Units=1/GPa)
#
#
# Indices 1 2 3 4 5 6 
#
# 1 0.010098 -0.004471 -0.003384 0.000794 -0.000956 0.006992
# 2 -0.004471 0.010006 -0.000701 -0.000712 0.002224 -0.005365
# 3 -0.003384 -0.000701 0.013725 0.003804 0.003632 -0.002100
# 4 0.000794 -0.000712 0.003804 0.025090 0.002491 0.006294
# 5 -0.000956 0.002224 0.003632 0.002491 0.018005 -0.002549
# 6 0.006992 -0.005365 -0.002100 0.006294 -0.002549 0.022930
#
#
# Mechanical properties :
#
#
# Convention : Reuss Voigt Hill
#
# Bulk Modulus (GPa) = 59.81963 73.15846 66.48904
# Shear Modulus (GPa) = 40.80332 51.96717 46.38524
#
# Velocity S-wave (km/s) = 3.69150 4.16600 3.93590
# Velocity P-wave (km/s) = 6.17637 6.89736 6.54680
#
# Compressibility (1/GPa) = 0.01671692
#
# Stress axis : x y z
#
# Youngs Moduli (GPa) = 99.02751 99.94130 72.85841
#
# Poissons Ratio (x) = 0.44682 0.24656
# Poissons Ratio (y) = 0.44274 0.05109
# Poissons Ratio (z) = 0.33512 0.07008
#
# Static dielectric constant tensor:
#      x y z
#    x 2.655640 -0.042380 0.163890 
#    y -0.042380 2.512780 0.334610 
#    z 0.163890 0.334610 3.630230 
# 
# From -- ./inp_files/403007.got.cif
#   From: 2010.05.17/outbox.cif.g08.bks.cpg/sg2_202_cif.got.tgz:403007.got - 2010.06.03 11:33:40.
