data_PCOD9093050
_publ_section_title
;
Structure prediction by ZEFSAII (Michael W. Deem and Ramdas Pophale) SiO2 
 PCOD9093050
Probable space group: P -1
;
_chemical_formula_sum "Si O2"
_cell_formula_units_Z 16
_cell_length_a 19.272215
_cell_length_b 5.264546
_cell_length_c 12.745712
_cell_angle_alpha 104.707765
_cell_angle_beta 141.908772
_cell_angle_gamma 95.201678
_cell_volume 674.031882
_symmetry_space_group_name_H-M "P -1"
_symmetry_group_IT_number 2
_symmetry_cell_setting 'triclinic'
loop_
_space_group_symop_operation_xyz
x,y,z
-x,-y,-z
loop_
_atom_site_type_symbol
_atom_site_label
_atom_site_fract_x
_atom_site_fract_y
_atom_site_fract_z
Si Si1 0.512090 0.095916 0.233430
Si Si2 0.843097 0.103655 0.333612
Si Si3 0.508174 0.480632 0.881887
Si Si4 0.709160 0.491463 0.678332
Si Si5 0.791256 0.135401 0.905163
Si Si6 0.146492 0.462568 0.776066
Si Si7 0.938309 0.559538 0.831145
Si Si8 0.731949 0.009951 0.411612
O O1 0.438565 0.228582 0.094341
O O2 0.578842 0.274098 0.437045
O O3 0.630859 0.136097 0.303977
O O4 0.438075 0.736617 0.115871
O O5 0.815803 0.342253 0.265494
O O6 0.760294 0.956092 0.323166
O O7 0.990115 0.300527 0.570097
O O8 0.831661 0.825122 0.222965
O O9 0.353714 0.282756 0.651116
O O10 0.500000 0.500000 0.000000
O O11 0.742217 0.288145 0.774890
O O12 0.827628 0.628801 0.748796
O O13 0.709198 0.774513 0.763562
O O14 0.796341 0.302688 0.036359
O O15 0.939731 0.213492 0.067745
O O16 0.860897 0.248416 0.644265
O O17 0.000000 0.500000 0.000000
#
# Coordination Sequence:
#
# PCOD9093050 Si02
#       8
#     2   2   2   2   2   2   2   2
#     4   9  20  33  52  77 104 134 161 201 256 309
#     4  10  20  35  47  68  96 138 181 214 251 283
#     4  10  20  35  54  76 107 134 163 207 258 311
#     4  10  20  31  49  70 102 133 170 203 244 305
#     4  11  19  33  46  69 100 138 174 207 245 280
#     4  10  21  33  48  67  98 137 183 219 240 283
#     4   9  18  32  45  73 100 143 168 204 234 306
#     4   9  20  33  53  73 105 139 171 208 252 298
#
# _framework density 23.737749999999998
#
# number of rings (size 3 to 8) (size 9 to 14) (size 15 to 20)
#    0.750    1.500    1.250    2.250    3.500    0.000 
#    2.250    0.000    0.000    0.000    0.000    0.000 
#    0.000   20.000    0.000    0.000    0.000    0.000 
#
# Total GULP energy -89285.654050 kJ/mol
# GULP energy per Si atom -5580.353378 kJ/mol
# Density = 2.368372 g / cm^3
# Si number density = 23.737750 Si / 1000 Ang^3
#
#
#
# Elastic Constant Matrix: (Units=GPa)
#
#
# Indices 1 2 3 4 5 6 
#
# 1 37.8425 -4.6085 3.8760 -0.7544 -1.9099 1.1596
# 2 -4.6085 131.6427 33.5185 11.0654 -0.6289 -10.9820
# 3 3.8760 33.5185 118.3476 13.7735 -9.8267 -21.2752
# 4 -0.7544 11.0654 13.7735 37.6252 -7.5700 -4.1657
# 5 -1.9099 -0.6289 -9.8267 -7.5700 32.8150 11.6068
# 6 1.1596 -10.9820 -21.2752 -4.1657 11.6068 21.6454
#
#
#
# Elastic Compliance Matrix: (Units=1/GPa)
#
#
# Indices 1 2 3 4 5 6 
#
# 1 0.027003 0.000996 -0.001765 0.001000 0.002679 -0.003920
# 2 0.000996 0.008500 -0.001821 -0.001841 -0.001848 0.003106
# 3 -0.001765 -0.001821 0.011056 -0.002633 -0.000994 0.010064
# 4 0.001000 -0.001841 -0.002633 0.029251 0.006486 -0.001424
# 5 0.002679 -0.001848 -0.000994 0.006486 0.039588 -0.022038
# 6 -0.003920 0.003106 0.010064 -0.001424 -0.022038 0.069420
#
#
# Mechanical properties :
#
#
# Convention : Reuss Voigt Hill
#
# Bulk Modulus (GPa) = 24.16632 39.26721 31.71676
# Shear Modulus (GPa) = 24.53509 35.42025 29.97767
#
# Velocity S-wave (km/s) = 3.21844 3.86702 3.55754
# Velocity P-wave (km/s) = 4.90038 6.04289 5.50138
#
# Compressibility (1/GPa) = 0.04137991
#
# Stress axis : x y z
#
# Youngs Moduli (GPa) = 37.03327 117.64940 90.44603
#
# Poissons Ratio (x) = -0.11723 0.15966
# Poissons Ratio (y) = -0.03690 0.16468
# Poissons Ratio (z) = 0.06537 0.21421
#
# Static dielectric constant tensor:
#      x y z
#    x 1.919130 0.005270 0.040190 
#    y 0.005270 1.930340 0.036750 
#    z 0.040190 0.036750 1.931100 
# 
# From -- ./inp_files/473305.got.cif
#   From: 2010.05.17/outbox.cif.g08.bks.cpg/sg2_237_cif.got.tgz:473305.got - 2010.06.03 11:33:40.
