data_PCOD9093078
_publ_section_title
;
Structure prediction by ZEFSAII (Michael W. Deem and Ramdas Pophale) SiO2 
 PCOD9093078
Probable space group: P -1
;
_chemical_formula_sum "Si O2"
_cell_formula_units_Z 16
_cell_length_a 11.349708
_cell_length_b 11.824683
_cell_length_c 14.442381
_cell_angle_alpha 31.263638
_cell_angle_beta 106.593809
_cell_angle_gamma 93.956032
_cell_volume 902.286076
_symmetry_space_group_name_H-M "P -1"
_symmetry_group_IT_number 2
_symmetry_cell_setting 'triclinic'
loop_
_space_group_symop_operation_xyz
x,y,z
-x,-y,-z
loop_
_atom_site_type_symbol
_atom_site_label
_atom_site_fract_x
_atom_site_fract_y
_atom_site_fract_z
Si Si1 0.720674 0.606410 0.618682
Si Si2 0.022539 0.691660 0.026479
Si Si3 0.989757 0.039984 0.626429
Si Si4 0.126740 0.052886 0.028539
Si Si5 0.341799 0.224859 0.718870
Si Si6 0.373247 0.785138 0.157150
Si Si7 0.112649 0.499445 0.597106
Si Si8 0.872425 0.816542 0.613961
O O1 0.701023 0.731497 0.427847
O O2 0.622454 0.464829 0.704010
O O3 0.738279 0.774050 0.586830
O O4 0.864323 0.403335 0.803786
O O5 0.898287 0.879267 0.916745
O O6 0.019027 0.444700 0.164120
O O7 0.063738 0.826031 0.860008
O O8 0.930436 0.266459 0.517721
O O9 0.081834 0.084517 0.536902
O O10 0.879887 0.970607 0.594587
O O11 0.261685 0.860136 0.159713
O O12 0.129117 0.288173 0.817720
O O13 0.000000 0.000000 0.000000
O O14 0.489040 0.220358 0.767451
O O15 0.244351 0.433411 0.612600
O O16 0.334532 0.985981 0.928587
O O17 0.000000 0.500000 0.500000
#
# Coordination Sequence:
#
# PCOD9093078 Si02
#       8
#     2   2   2   2   2   2   2   2
#     4  10  20  33  54  77 106 141 180 218 261 321
#     4  10  20  31  52  79 107 141 175 219 266 316
#     4  11  20  34  52  79 114 142 173 224 271 317
#     4  11  18  32  50  82 110 135 177 215 269 324
#     4  10  22  38  51  81 110 142 182 218 272 319
#     4  10  22  35  55  77 110 148 175 221 271 320
#     4  11  21  32  55  81 110 138 175 224 269 319
#     4   9  21  35  51  79 107 144 181 218 268 315
#
# _framework density 17.732733
#
# number of rings (size 3 to 8) (size 9 to 14) (size 15 to 20)
#    0.750    1.000    2.500    3.000    5.250    0.000 
#    0.000    0.000    0.000    0.750    0.000    2.625 
#    0.000    0.000    0.000    0.000    0.000    0.000 
#
# Total GULP energy -89086.595019 kJ/mol
# GULP energy per Si atom -5567.912189 kJ/mol
# Density = 1.769237 g / cm^3
# Si number density = 17.732733 Si / 1000 Ang^3
#
#
#
# Elastic Constant Matrix: (Units=GPa)
#
#
# Indices 1 2 3 4 5 6 
#
# 1 63.8533 20.7300 13.8914 -1.8239 0.9423 2.6982
# 2 20.7300 121.7017 30.6684 -11.8873 -0.7440 11.8672
# 3 13.8914 30.6684 75.9894 6.9504 -10.4809 3.3765
# 4 -1.8239 -11.8873 6.9504 19.3924 6.8950 -2.4573
# 5 0.9423 -0.7440 -10.4809 6.8950 19.5076 -4.2736
# 6 2.6982 11.8672 3.3765 -2.4573 -4.2736 16.6958
#
#
#
# Elastic Compliance Matrix: (Units=1/GPa)
#
#
# Indices 1 2 3 4 5 6 
#
# 1 0.017113 -0.001703 -0.003190 0.002930 -0.003969 -0.001494
# 2 -0.001703 0.011926 -0.006422 0.011582 -0.008630 -0.007407
# 3 -0.003190 -0.006422 0.020211 -0.017346 0.017541 0.002930
# 4 0.002930 0.011582 -0.017346 0.078010 -0.037308 -0.003266
# 5 -0.003969 -0.008630 0.017541 -0.037308 0.077590 0.017598
# 6 -0.001494 -0.007407 0.002930 -0.003266 0.017598 0.068833
#
#
# Mechanical properties :
#
#
# Convention : Reuss Voigt Hill
#
# Bulk Modulus (GPa) = 37.56790 43.56935 40.56862
# Shear Modulus (GPa) = 16.38338 24.20280 20.29309
#
# Velocity S-wave (km/s) = 3.04288 3.69842 3.38655
# Velocity P-wave (km/s) = 5.79458 6.54684 6.18216
#
# Compressibility (1/GPa) = 0.02661847
#
# Stress axis : x y z
#
# Youngs Moduli (GPa) = 58.43405 83.84910 49.47922
#
# Poissons Ratio (x) = 0.14283 0.15784
# Poissons Ratio (y) = 0.09954 0.31777
# Poissons Ratio (z) = 0.18640 0.53851
#
# Static dielectric constant tensor:
#      x y z
#    x 1.602810 0.027510 -0.012910 
#    y 0.027510 1.636870 -0.027170 
#    z -0.012910 -0.027170 1.646030 
# 
# From -- ./inp_files/518575.got.cif
#   From: 2010.05.17/outbox.cif.g08.bks.cpg/sg2_260_cif.got.tgz:518575.got - 2010.06.03 11:33:40.
