data_PCOD9093482
_publ_section_title
;
Structure prediction by ZEFSAII (Michael W. Deem and Ramdas Pophale) SiO2 
 PCOD9093482
Probable space group: P -1
;
_chemical_formula_sum "Si O2"
_cell_formula_units_Z 16
_cell_length_a 13.775551
_cell_length_b 10.414111
_cell_length_c 12.854634
_cell_angle_alpha 118.621840
_cell_angle_beta 80.397104
_cell_angle_gamma 147.886407
_cell_volume 739.196073
_symmetry_space_group_name_H-M "P -1"
_symmetry_group_IT_number 2
_symmetry_cell_setting 'triclinic'
loop_
_space_group_symop_operation_xyz
x,y,z
-x,-y,-z
loop_
_atom_site_type_symbol
_atom_site_label
_atom_site_fract_x
_atom_site_fract_y
_atom_site_fract_z
Si Si1 0.243675 0.244663 0.666497
Si Si2 0.575329 0.257468 0.042690
Si Si3 0.770163 0.759897 0.566360
Si Si4 0.872921 0.268724 0.101424
Si Si5 0.087382 0.742732 0.503983
Si Si6 0.039237 0.762515 0.143276
Si Si7 0.236051 0.672392 0.335620
Si Si8 0.332284 0.687006 0.551010
O O1 0.390033 0.562824 0.812473
O O2 0.286549 0.259272 0.544997
O O3 0.215533 0.047822 0.647893
O O4 0.011929 0.015700 0.620070
O O5 0.812861 0.540712 0.067731
O O6 0.500000 0.000000 0.000000
O O7 0.365377 0.027857 0.927618
O O8 0.631191 0.434224 0.483194
O O9 0.788806 0.902992 0.708168
O O10 0.978610 0.564525 0.166891
O O11 0.024120 0.376848 0.192575
O O12 0.871125 0.192895 0.958628
O O13 0.224198 0.826893 0.433863
O O14 0.000000 0.500000 0.500000
O O15 0.861803 0.515403 0.419797
O O16 0.257778 0.609083 0.413442
O O17 0.450407 0.937239 0.333602
#
# Coordination Sequence:
#
# PCOD9093482 Si02
#       8
#     2   2   2   2   2   2   2   2
#     4   9  17  31  55  84 106 136 180 217 267 327
#     4   9  19  34  51  75 111 144 171 214 265 316
#     4   9  17  32  55  79 106 134 172 227 274 312
#     4  10  20  33  51  74 104 141 179 211 257 325
#     4   9  18  34  56  79 107 138 172 223 272 313
#     4   9  19  34  50  76 106 135 172 217 265 318
#     4  10  20  35  53  77 104 140 185 220 263 324
#     4   9  20  35  53  76 105 137 175 228 273 310
#
# _framework density 21.645137999999999
#
# number of rings (size 3 to 8) (size 9 to 14) (size 15 to 20)
#    0.000    2.750    0.000    0.750    0.000    8.000 
#    0.000    2.500    0.000   12.000    0.000    0.000 
#    0.000    0.000    0.000    0.000    0.000    0.000 
#
# Total GULP energy -89088.660701 kJ/mol
# GULP energy per Si atom -5568.041294 kJ/mol
# Density = 2.159587 g / cm^3
# Si number density = 21.645138 Si / 1000 Ang^3
#
#
#
# Elastic Constant Matrix: (Units=GPa)
#
#
# Indices 1 2 3 4 5 6 
#
# 1 54.7333 11.8964 16.4108 3.2897 -3.7343 -8.2736
# 2 11.8964 47.4590 -2.7110 12.9550 8.3855 7.4138
# 3 16.4108 -2.7110 45.9995 9.3419 -11.4727 -17.1351
# 4 3.2897 12.9550 9.3419 16.5950 5.2853 0.5257
# 5 -3.7343 8.3855 -11.4727 5.2853 42.2189 8.4634
# 6 -8.2736 7.4138 -17.1351 0.5257 8.4634 28.6882
#
#
#
# Elastic Compliance Matrix: (Units=1/GPa)
#
#
# Indices 1 2 3 4 5 6 
#
# 1 0.022922 -0.008742 -0.008951 0.007299 -0.000278 0.003472
# 2 -0.008742 0.032291 0.008821 -0.028201 -0.000256 -0.005005
# 3 -0.008951 0.008821 0.040445 -0.031262 0.008904 0.017242
# 4 0.007299 -0.028201 -0.031262 0.103020 -0.013718 -0.007120
# 5 -0.000278 -0.000256 0.008904 -0.013718 0.028416 -0.002828
# 6 0.003472 -0.005005 0.017242 -0.007120 -0.002828 0.048416
#
#
# Mechanical properties :
#
#
# Convention : Reuss Voigt Hill
#
# Bulk Modulus (GPa) = 12.83485 22.15377 17.49431
# Shear Modulus (GPa) = 15.66287 25.67346 20.66816
#
# Velocity S-wave (km/s) = 2.69294 3.44773 3.09344
# Velocity P-wave (km/s) = 3.95117 5.10943 4.56717
#
# Compressibility (1/GPa) = 0.07791288
#
# Stress axis : x y z
#
# Youngs Moduli (GPa) = 43.62702 30.96796 24.72484
#
# Poissons Ratio (x) = 0.27074 0.22132
# Poissons Ratio (y) = 0.38141 -0.21810
# Poissons Ratio (z) = 0.39051 -0.27317
#
# Static dielectric constant tensor:
#      x y z
#    x 1.864070 0.017860 -0.012430 
#    y 0.017860 1.859820 0.017620 
#    z -0.012430 0.017620 1.802780 
# 
# From -- ./inp_files/531946.got.cif
#   From: 2010.05.17/outbox.cif.g08.bks.cpg/sg2_266_cif.got.tgz:531946.got - 2010.06.03 11:33:40.
