data_PCOD9093443
_publ_section_title
;
Structure prediction by ZEFSAII (Michael W. Deem and Ramdas Pophale) SiO2 
 PCOD9093443
Probable space group: P -1
;
_chemical_formula_sum "Si O2"
_cell_formula_units_Z 10
_cell_length_a 5.246797
_cell_length_b 18.287609
_cell_length_c 19.532620
_cell_angle_alpha 15.604249
_cell_angle_beta 86.828246
_cell_angle_gamma 95.617615
_cell_volume 416.050344
_symmetry_space_group_name_H-M "P -1"
_symmetry_group_IT_number 2
_symmetry_cell_setting 'triclinic'
loop_
_space_group_symop_operation_xyz
x,y,z
-x,-y,-z
loop_
_atom_site_type_symbol
_atom_site_label
_atom_site_fract_x
_atom_site_fract_y
_atom_site_fract_z
Si Si1 0.137949 0.224893 0.623263
Si Si2 0.382433 0.847723 0.550864
Si Si3 0.717856 0.531266 0.868545
Si Si4 0.710602 0.908870 0.039890
Si Si5 0.065625 0.552598 0.196335
O O1 0.870421 0.114882 0.782612
O O2 0.072653 0.362214 0.432942
O O3 0.474699 0.522271 0.376074
O O4 0.132501 0.901145 0.900608
O O5 0.503066 0.663015 0.756954
O O6 0.078780 0.802548 0.627507
O O7 0.257116 0.663906 0.644930
O O8 0.629054 0.225389 0.192150
O O9 0.699871 0.415501 0.894134
O O10 0.500000 0.000000 0.000000
O O11 0.000000 0.000000 0.000000
#
# Coordination Sequence:
#
# PCOD9093443 Si02
#       5
#     2   2   2   2   2
#     4  12  26  42  70  76  90 106 120 136 150 166
#     4  10  20  33  49  68 100 105 115 130 145 160
#     4  10  20  33  49  68 100 105 115 130 145 160
#     4  12  29  52  60  76  90 106 120 136 150 166
#     4  10  25  36  58  84  94  96 126 124 158 152
#
# _framework density 24.035551000000002
#
# number of rings (size 3 to 8) (size 9 to 14) (size 15 to 20)
#    1.200    0.000    0.000    6.000    8.400    3.200 
#    0.000    0.000    0.000    0.000    0.000    0.000 
#    0.000    0.000    0.000    0.000    0.000    0.000 
#
# Total GULP energy -56004.793550 kJ/mol
# GULP energy per Si atom -5600.479355 kJ/mol
# Density = 2.398084 g / cm^3
# Si number density = 24.035551 Si / 1000 Ang^3
#
#
#
# Elastic Constant Matrix: (Units=GPa)
#
#
# Indices 1 2 3 4 5 6 
#
# 1 161.8636 70.0719 34.2809 132.5581 12.4951 3.1210
# 2 70.0719 146.0261 57.7000 79.3338 0.5512 -2.8264
# 3 34.2809 57.7000 127.6713 68.4193 -2.8905 -4.4743
# 4 132.5581 79.3338 68.4193 402.1853 18.9326 31.3031
# 5 12.4951 0.5512 -2.8905 18.9326 50.4725 0.9314
# 6 3.1210 -2.8264 -4.4743 31.3031 0.9314 21.6008
#
#
#
# Elastic Compliance Matrix: (Units=1/GPa)
#
#
# Indices 1 2 3 4 5 6 
#
# 1 0.009877 -0.003336 0.000394 -0.002778 -0.001386 0.002304
# 2 -0.003336 0.010055 -0.003306 -0.000494 0.000679 0.001799
# 3 0.000394 -0.003306 0.010218 -0.001565 0.001040 0.003849
# 4 -0.002778 -0.000494 -0.001565 0.004287 -0.000891 -0.006162
# 5 -0.001386 0.000679 0.001040 -0.000891 0.020525 0.000910
# 6 0.002304 0.001799 0.003849 -0.006162 0.000910 0.055885
#
#
# Mechanical properties :
#
#
# Convention : Reuss Voigt Hill
#
# Bulk Modulus (GPa) = 56.64290 84.40742 70.52516
# Shear Modulus (GPa) = 38.69150 113.08559 75.88855
#
# Velocity S-wave (km/s) = 4.01654 6.86669 5.62512
# Velocity P-wave (km/s) = 6.71770 9.90265 8.46139
#
# Compressibility (1/GPa) = 0.01765446
#
# Stress axis : x y z
#
# Youngs Moduli (GPa) = 101.24914 99.44812 97.86877
#
# Poissons Ratio (x) = 0.33173 -0.03855
# Poissons Ratio (y) = 0.33774 0.32354
# Poissons Ratio (z) = -0.03988 0.32876
#
# Static dielectric constant tensor:
#      x y z
#    x 1.866760 -0.010230 -0.028920 
#    y -0.010230 1.978390 -0.004620 
#    z -0.028920 -0.004620 1.815510 
# 
# From -- ./inp_files/550388.got.cif
#   From: 2010.05.17/outbox.cif.g08.bks.cpg/sg2_276_cif.got.tgz:550388.got - 2010.06.03 11:33:40.
