data_PCOD9093266
_publ_section_title
;
Structure prediction by ZEFSAII (Michael W. Deem and Ramdas Pophale) SiO2 
 PCOD9093266
Probable space group: P -1
;
_chemical_formula_sum "Si O2"
_cell_formula_units_Z 16
_cell_length_a 9.533476
_cell_length_b 9.678843
_cell_length_c 11.354823
_cell_angle_alpha 81.613398
_cell_angle_beta 59.186507
_cell_angle_gamma 90.069311
_cell_volume 886.659936
_symmetry_space_group_name_H-M "P -1"
_symmetry_group_IT_number 2
_symmetry_cell_setting 'triclinic'
loop_
_space_group_symop_operation_xyz
x,y,z
-x,-y,-z
loop_
_atom_site_type_symbol
_atom_site_label
_atom_site_fract_x
_atom_site_fract_y
_atom_site_fract_z
Si Si1 0.890055 0.435153 0.666311
Si Si2 0.097297 0.210175 0.709492
Si Si3 0.666340 0.223734 0.469767
Si Si4 0.458600 0.585094 0.297690
Si Si5 0.167800 0.333446 0.898882
Si Si6 0.390325 0.273196 0.428547
Si Si7 0.835714 0.968311 0.501152
Si Si8 0.969159 0.394525 0.198148
O O1 0.700264 0.410560 0.717323
O O2 0.000000 0.500000 0.500000
O O3 0.954295 0.289509 0.701255
O O4 0.922841 0.540564 0.748032
O O5 0.103251 0.215297 0.846276
O O6 0.261983 0.304061 0.583234
O O7 0.114770 0.065619 0.651513
O O8 0.595418 0.339288 0.569722
O O9 0.525594 0.184391 0.439511
O O10 0.722610 0.095062 0.535984
O O11 0.826275 0.290908 0.326689
O O12 0.635707 0.655156 0.174427
O O13 0.471901 0.419486 0.330398
O O14 0.114374 0.476761 0.843745
O O15 0.076762 0.324048 0.063516
O O16 0.725722 0.823398 0.597646
O O17 0.000000 0.000000 0.500000
#
# Coordination Sequence:
#
# PCOD9093266 Si02
#       8
#     2   2   2   2   2   2   2   2
#     4  11  18  30  53  84 112 139 180 225 278 323
#     4   9  19  35  53  76 113 145 180 222 278 321
#     4  12  20  34  58  88 105 147 187 228 270 321
#     4  12  19  31  60  83 113 139 180 234 277 317
#     4  10  20  38  52  81 114 149 177 226 274 329
#     4  10  20  32  53  85 108 140 183 227 274 318
#     4  10  22  35  53  83 117 141 179 235 280 320
#     4  10  22  33  55  80 116 144 185 218 275 332
#
# _framework density 18.045249999999999
#
# number of rings (size 3 to 8) (size 9 to 14) (size 15 to 20)
#    0.750    0.750    5.000    2.250    1.750    0.500 
#    0.000    0.625    0.000    0.000    0.000    2.625 
#    0.000    0.000    0.000    0.000    0.000    0.000 
#
# Total GULP energy -89128.077192 kJ/mol
# GULP energy per Si atom -5570.504825 kJ/mol
# Density = 1.800418 g / cm^3
# Si number density = 18.045250 Si / 1000 Ang^3
#
#
#
# Elastic Constant Matrix: (Units=GPa)
#
#
# Indices 1 2 3 4 5 6 
#
# 1 137.1317 15.9164 21.1528 11.1242 -13.0191 6.1204
# 2 15.9164 51.9616 4.0216 4.1351 -3.0638 6.4754
# 3 21.1528 4.0216 78.0055 17.2946 -11.5267 12.8123
# 4 11.1242 4.1351 17.2946 10.8152 0.1501 6.3248
# 5 -13.0191 -3.0638 -11.5267 0.1501 20.0530 4.0486
# 6 6.1204 6.4754 12.8123 6.3248 4.0486 26.0836
#
#
#
# Elastic Compliance Matrix: (Units=1/GPa)
#
#
# Indices 1 2 3 4 5 6 
#
# 1 0.008715 -0.001537 0.000806 -0.009312 0.006108 -0.000749
# 2 -0.001537 0.021033 0.002563 -0.007708 0.004754 -0.004989
# 3 0.000806 0.002563 0.024081 -0.036896 0.016292 -0.006236
# 4 -0.009312 -0.007708 -0.036896 0.173563 -0.026552 -0.015743
# 5 0.006108 0.004754 0.016292 -0.026552 0.067068 -0.014587
# 6 -0.000749 -0.004989 -0.006236 -0.015743 -0.014587 0.048897
#
#
# Mechanical properties :
#
#
# Convention : Reuss Voigt Hill
#
# Bulk Modulus (GPa) = 17.39351 38.80893 28.10122
# Shear Modulus (GPa) = 13.93313 26.45757 20.19535
#
# Velocity S-wave (km/s) = 2.78172 3.83323 3.34900
# Velocity P-wave (km/s) = 4.46957 6.41441 5.52819
#
# Compressibility (1/GPa) = 0.05749270
#
# Stress axis : x y z
#
# Youngs Moduli (GPa) = 114.74444 47.54463 41.52691
#
# Poissons Ratio (x) = 0.07309 -0.03347
# Poissons Ratio (y) = 0.17640 -0.10645
# Poissons Ratio (z) = -0.09249 -0.12187
#
# Static dielectric constant tensor:
#      x y z
#    x 1.652070 0.000520 0.016330 
#    y 0.000520 1.652100 0.005890 
#    z 0.016330 0.005890 1.614440 
# 
# From -- ./inp_files/387257.got.cif
#   From: 2010.05.17/outbox.cif.g08.bks.cpg/sg2_194_cif.got.tgz:387257.got - 2010.06.03 11:33:40.
