data_PCOD9093619
_publ_section_title
;
Structure prediction by ZEFSAII (Michael W. Deem and Ramdas Pophale) SiO2 
 PCOD9093619
Probable space group: P -1
;
_chemical_formula_sum "Si O2"
_cell_formula_units_Z 16
_cell_length_a 11.272353
_cell_length_b 7.550620
_cell_length_c 12.486777
_cell_angle_alpha 117.457064
_cell_angle_beta 122.472085
_cell_angle_gamma 44.097710
_cell_volume 618.764860
_symmetry_space_group_name_H-M "P -1"
_symmetry_group_IT_number 2
_symmetry_cell_setting 'triclinic'
loop_
_space_group_symop_operation_xyz
x,y,z
-x,-y,-z
loop_
_atom_site_type_symbol
_atom_site_label
_atom_site_fract_x
_atom_site_fract_y
_atom_site_fract_z
Si Si1 0.714045 0.695509 0.591648
Si Si2 0.846194 0.895647 0.161318
Si Si3 0.887030 0.399886 0.109634
Si Si4 0.205147 0.902896 0.579603
Si Si5 0.269899 0.595569 0.315741
Si Si6 0.467603 0.734878 0.317307
Si Si7 0.734816 0.110236 0.934241
Si Si8 0.094502 0.409643 0.633007
O O1 0.651434 0.679624 0.674077
O O2 0.650630 0.625100 0.437597
O O3 0.927616 0.479125 0.644180
O O4 0.659938 0.969890 0.619989
O O5 0.833479 0.665841 0.111344
O O6 0.767103 0.094808 0.278312
O O7 0.062408 0.758014 0.219858
O O8 0.744431 0.040787 0.043016
O O9 0.860544 0.435862 0.236150
O O10 0.773974 0.310134 0.994343
O O11 0.093304 0.159148 0.110954
O O12 0.232555 0.108461 0.614393
O O13 0.287299 0.710394 0.465535
O O14 0.000000 0.000000 0.500000
O O15 0.388170 0.601341 0.287189
O O16 0.443781 0.769827 0.188785
O O17 0.000000 0.500000 0.500000
#
# Coordination Sequence:
#
# PCOD9093619 Si02
#       8
#     2   2   2   2   2   2   2   2
#     4  11  22  39  56  81 123 146 193 236 282 340
#     4  10  20  33  54  84 116 144 183 245 287 328
#     4  10  20  34  51  87 111 144 186 238 286 329
#     4   9  18  31  53  84 109 136 184 239 288 326
#     4  11  19  37  59  84 115 147 194 239 289 330
#     4  11  24  37  54  85 116 161 191 222 282 350
#     4  11  21  33  55  80 120 151 188 224 282 352
#     4  11  20  34  60  86 113 141 185 247 293 326
#
# _framework density 25.857963999999999
#
# number of rings (size 3 to 8) (size 9 to 14) (size 15 to 20)
#    0.000    1.500    5.000    3.000    3.500    1.000 
#    0.000    0.000    0.000    3.000    0.000    7.000 
#    0.000    0.000    0.000    0.000    0.000    0.000 
#
# Total GULP energy -89338.159151 kJ/mol
# GULP energy per Si atom -5583.634947 kJ/mol
# Density = 2.579911 g / cm^3
# Si number density = 25.857964 Si / 1000 Ang^3
#
#
#
# Elastic Constant Matrix: (Units=GPa)
#
#
# Indices 1 2 3 4 5 6 
#
# 1 59.8306 39.7925 30.7781 -10.4805 -4.1165 10.9716
# 2 39.7925 67.9339 34.3445 5.3724 0.6403 10.8223
# 3 30.7781 34.3445 178.8113 -21.9459 -19.8979 16.3831
# 4 -10.4805 5.3724 -21.9459 50.7886 7.3798 1.6921
# 5 -4.1165 0.6403 -19.8979 7.3798 33.6460 -2.2370
# 6 10.9716 10.8223 16.3831 1.6921 -2.2370 29.5251
#
#
#
# Elastic Compliance Matrix: (Units=1/GPa)
#
#
# Indices 1 2 3 4 5 6 
#
# 1 0.031403 -0.018111 -0.000230 0.008194 0.001906 -0.005228
# 2 -0.018111 0.027911 -0.003407 -0.007653 -0.003177 -0.001412
# 3 -0.000230 -0.003407 0.007290 0.003041 0.003507 -0.002619
# 4 0.008194 -0.007653 0.003041 0.023990 -0.002548 -0.003495
# 5 0.001906 -0.003177 0.003507 -0.002548 0.032723 0.001136
# 6 -0.005228 -0.001412 -0.002619 -0.003495 0.001136 0.038070
#
#
# Mechanical properties :
#
#
# Convention : Reuss Voigt Hill
#
# Bulk Modulus (GPa) = 43.27491 57.37846 50.32669
# Shear Modulus (GPa) = 23.51987 36.23597 29.87792
#
# Velocity S-wave (km/s) = 3.01920 3.74752 3.40290
# Velocity P-wave (km/s) = 5.37829 6.40025 5.91140
#
# Compressibility (1/GPa) = 0.02310808
#
# Stress axis : x y z
#
# Youngs Moduli (GPa) = 31.84433 35.82755 137.17696
#
# Poissons Ratio (x) = 0.64888 0.03153
# Poissons Ratio (y) = 0.57674 0.46737
# Poissons Ratio (z) = 0.00732 0.12207
#
# Static dielectric constant tensor:
#      x y z
#    x 2.133970 0.067090 -0.010070 
#    y 0.067090 2.143050 -0.009440 
#    z -0.010070 -0.009440 2.042580 
# 
# From -- ./inp_files/446339.got.cif
#   From: 2010.05.17/outbox.cif.g08.bks.cpg/sg2_224_cif.got.tgz:446339.got - 2010.06.03 11:33:40.
