data_PCOD9093172
_publ_section_title
;
Structure prediction by ZEFSAII (Michael W. Deem and Ramdas Pophale) SiO2 
 PCOD9093172
Probable space group: P -1
;
_chemical_formula_sum "Si O2"
_cell_formula_units_Z 16
_cell_length_a 19.437415
_cell_length_b 8.501164
_cell_length_c 5.715765
_cell_angle_alpha 87.431228
_cell_angle_beta 134.498031
_cell_angle_gamma 80.029159
_cell_volume 644.666085
_symmetry_space_group_name_H-M "P -1"
_symmetry_group_IT_number 2
_symmetry_cell_setting 'triclinic'
loop_
_space_group_symop_operation_xyz
x,y,z
-x,-y,-z
loop_
_atom_site_type_symbol
_atom_site_label
_atom_site_fract_x
_atom_site_fract_y
_atom_site_fract_z
Si Si1 0.705203 0.790578 0.556868
Si Si2 0.990642 0.364750 0.676091
Si Si3 0.155474 0.369499 0.464770
Si Si4 0.422238 0.691352 0.907851
Si Si5 0.441377 0.939153 0.572783
Si Si6 0.372832 0.474433 0.426123
Si Si7 0.866530 0.902334 0.203076
Si Si8 0.278189 0.818377 0.930964
O O1 0.735896 0.700844 0.389933
O O2 0.697122 0.645849 0.722159
O O3 0.599319 0.923724 0.333710
O O4 0.788293 0.880764 0.818404
O O5 0.025039 0.184536 0.652217
O O6 0.000000 0.500000 0.500000
O O7 0.881597 0.447043 0.527262
O O8 0.074128 0.372005 0.066813
O O9 0.143417 0.231181 0.621188
O O10 0.509386 0.631485 0.317735
O O11 0.319127 0.808254 0.764107
O O12 0.469354 0.771944 0.802253
O O13 0.386360 0.548500 0.708479
O O14 0.344734 0.921426 0.204548
O O15 0.500000 0.000000 0.500000
O O16 0.319922 0.631222 0.133307
O O17 0.830861 0.077671 0.238545
#
# Coordination Sequence:
#
# PCOD9093172 Si02
#       8
#     2   2   2   2   2   2   2   2
#     4  10  20  32  49  76 104 131 171 216 258 298
#     4   8  15  29  50  79 108 130 156 201 255 306
#     4   9  16  29  51  79 105 130 163 204 254 307
#     4  10  21  37  53  70  98 141 182 213 260 310
#     4  10  21  34  51  75 101 130 171 222 265 303
#     4  10  22  35  50  72 102 139 180 218 254 303
#     4   9  18  31  52  78 103 131 166 211 257 301
#     4  10  20  35  51  71 102 137 173 212 255 306
#
# _framework density 24.819051999999999
#
# number of rings (size 3 to 8) (size 9 to 14) (size 15 to 20)
#    0.000    2.500    0.000    1.875    0.000    8.000 
#    0.000    0.000    0.000    0.750    0.000   30.625 
#    0.000    0.000    0.000    0.000    0.000    0.000 
#
# Total GULP energy -89115.195092 kJ/mol
# GULP energy per Si atom -5569.699693 kJ/mol
# Density = 2.476256 g / cm^3
# Si number density = 24.819052 Si / 1000 Ang^3
#
#
#
# Elastic Constant Matrix: (Units=GPa)
#
#
# Indices 1 2 3 4 5 6 
#
# 1 131.1491 70.5094 26.9237 -21.4540 1.6912 -36.1057
# 2 70.5094 101.1036 18.1826 -32.5156 6.6849 -37.1968
# 3 26.9237 18.1826 74.3671 -22.8029 -3.2033 -3.5838
# 4 -21.4540 -32.5156 -22.8029 38.3836 7.1180 10.2637
# 5 1.6912 6.6849 -3.2033 7.1180 23.1530 -1.0250
# 6 -36.1057 -37.1968 -3.5838 10.2637 -1.0250 56.6203
#
#
#
# Elastic Compliance Matrix: (Units=1/GPa)
#
#
# Indices 1 2 3 4 5 6 
#
# 1 0.013319 -0.008665 -0.003436 -0.003197 0.002178 0.003203
# 2 -0.008665 0.024603 0.002361 0.017495 -0.011194 0.007413
# 3 -0.003436 0.002361 0.017378 0.011106 -0.001511 -0.001580
# 4 -0.003197 0.017495 0.011106 0.048805 -0.018242 0.000981
# 5 0.002178 -0.011194 -0.001511 -0.018242 0.051583 -0.001820
# 6 0.003203 0.007413 -0.001580 0.000981 -0.001820 0.024263
#
#
# Mechanical properties :
#
#
# Convention : Reuss Voigt Hill
#
# Bulk Modulus (GPa) = 27.91648 59.76125 43.83887
# Shear Modulus (GPa) = 23.65521 36.36499 30.01010
#
# Velocity S-wave (km/s) = 3.09059 3.83195 3.48106
# Velocity P-wave (km/s) = 4.89981 6.61132 5.81883
#
# Compressibility (1/GPa) = 0.03582113
#
# Stress axis : x y z
#
# Youngs Moduli (GPa) = 75.07884 40.64527 57.54536
#
# Poissons Ratio (x) = 0.35219 0.19771
# Poissons Ratio (y) = 0.65055 -0.13587
# Poissons Ratio (z) = 0.25794 -0.09597
#
# Static dielectric constant tensor:
#      x y z
#    x 2.092040 -0.130580 0.030200 
#    y -0.130580 2.050990 -0.037370 
#    z 0.030200 -0.037370 2.020800 
# 
# From -- ./inp_files/51857.got.cif
#   From: 2010.05.17/outbox.cif.g08.bks.cpg/sg2_26_cif.got.tgz:51857.got - 2010.06.03 11:33:40.
