data_PCOD9093770
_publ_section_title
;
Structure prediction by ZEFSAII (Michael W. Deem and Ramdas Pophale) SiO2 
 PCOD9093770
Probable space group: P -1
;
_chemical_formula_sum "Si O2"
_cell_formula_units_Z 12
_cell_length_a 9.459915
_cell_length_b 11.827364
_cell_length_c 5.268547
_cell_angle_alpha 120.358057
_cell_angle_beta 82.973423
_cell_angle_gamma 78.877502
_cell_volume 481.979933
_symmetry_space_group_name_H-M "P -1"
_symmetry_group_IT_number 2
_symmetry_cell_setting 'triclinic'
loop_
_space_group_symop_operation_xyz
x,y,z
-x,-y,-z
loop_
_atom_site_type_symbol
_atom_site_label
_atom_site_fract_x
_atom_site_fract_y
_atom_site_fract_z
Si Si1 0.756184 0.023873 0.988429
Si Si2 0.564373 0.320361 0.361011
Si Si3 0.327430 0.097167 0.632723
Si Si4 0.098928 0.749284 0.864078
Si Si5 0.929550 0.385706 0.782131
Si Si6 0.377613 0.390328 0.978624
O O1 0.742923 0.937173 0.649290
O O2 0.604719 0.154284 0.171270
O O3 0.882353 0.101318 0.020414
O O4 0.758040 0.943032 0.155230
O O5 0.724761 0.337742 0.281701
O O6 0.452656 0.379326 0.225039
O O7 0.497602 0.371709 0.706281
O O8 0.500000 0.000000 0.500000
O O9 0.321867 0.255081 0.820131
O O10 0.047435 0.726419 0.128807
O O11 0.023308 0.688331 0.583476
O O12 0.757709 0.475044 0.888640
O O13 0.000000 0.500000 0.000000
#
# Coordination Sequence:
#
# PCOD9093770 Si02
#       6
#     2   2   2   2   2   2
#     4  10  20  33  57  88 117 154 171 229 298 347
#     4  10  20  36  56  97 115 147 182 232 310 339
#     4  12  17  33  55  86 130 145 179 224 291 368
#     4  10  22  42  62  85 115 151 196 242 289 354
#     4  12  26  43  60  79 115 162 202 242 277 332
#     4  12  23  34  59  92 122 154 188 232 289 350
#
# _framework density 24.897299
#
# number of rings (size 3 to 8) (size 9 to 14) (size 15 to 20)
#    1.000    0.000    3.333    5.000    0.000    4.000 
#    0.000    0.000    0.000    6.000    0.000    0.000 
#    0.000    0.000    0.000    0.000    0.000    0.000 
#
# Total GULP energy -67230.413798 kJ/mol
# GULP energy per Si atom -5602.534483 kJ/mol
# Density = 2.484063 g / cm^3
# Si number density = 24.897299 Si / 1000 Ang^3
#
#
#
# Elastic Constant Matrix: (Units=GPa)
#
#
# Indices 1 2 3 4 5 6 
#
# 1 78.8108 15.5982 31.9576 -0.0594 8.4078 -18.8649
# 2 15.5982 141.0175 32.6614 -9.6947 5.9619 -12.7310
# 3 31.9576 32.6614 132.1604 -17.6307 33.5323 -13.9472
# 4 -0.0594 -9.6947 -17.6307 43.6287 1.9605 11.8178
# 5 8.4078 5.9619 33.5323 1.9605 44.3956 5.2324
# 6 -18.8649 -12.7310 -13.9472 11.8178 5.2324 36.8341
#
#
#
# Elastic Compliance Matrix: (Units=1/GPa)
#
#
# Indices 1 2 3 4 5 6 
#
# 1 0.016146 -0.000522 -0.002962 -0.003470 -0.001576 0.008305
# 2 -0.000522 0.007691 -0.001514 0.000662 -0.000009 0.001606
# 3 -0.002962 -0.001514 0.011578 0.004115 -0.008424 0.002220
# 4 -0.003470 0.000662 0.004115 0.027096 -0.002759 -0.008291
# 5 -0.001576 -0.000009 -0.008424 -0.002759 0.030181 -0.007402
# 6 0.008305 0.001606 0.002220 -0.008291 -0.007402 0.036509
#
#
# Mechanical properties :
#
#
# Convention : Reuss Voigt Hill
#
# Bulk Modulus (GPa) = 39.34252 56.93590 48.13921
# Shear Modulus (GPa) = 33.85919 43.08979 38.47449
#
# Velocity S-wave (km/s) = 3.69176 4.16468 3.93533
# Velocity P-wave (km/s) = 5.83166 6.78558 6.32663
#
# Compressibility (1/GPa) = 0.02541779
#
# Stress axis : x y z
#
# Youngs Moduli (GPa) = 61.93341 130.02733 86.37393
#
# Poissons Ratio (x) = 0.06789 0.25583
# Poissons Ratio (y) = 0.03234 0.13081
# Poissons Ratio (z) = 0.18344 0.19692
#
# Static dielectric constant tensor:
#      x y z
#    x 2.025210 0.012220 0.002970 
#    y 0.012220 1.935040 0.062480 
#    z 0.002970 0.062480 1.923380 
# 
# From -- ./inp_files/65262.got.cif
#   From: 2010.05.17/outbox.cif.g08.bks.cpg/sg2_33_cif.got.tgz:65262.got - 2010.06.03 11:33:40.
