data_PCOD9093602
_publ_section_title
;
Structure prediction by ZEFSAII (Michael W. Deem and Ramdas Pophale) SiO2 
 PCOD9093602
Probable space group: P -1
;
_chemical_formula_sum "Si O2"
_cell_formula_units_Z 14
_cell_length_a 6.918626
_cell_length_b 9.053797
_cell_length_c 11.276351
_cell_angle_alpha 121.217926
_cell_angle_beta 72.107636
_cell_angle_gamma 85.603972
_cell_volume 550.179303
_symmetry_space_group_name_H-M "P -1"
_symmetry_group_IT_number 2
_symmetry_cell_setting 'triclinic'
loop_
_space_group_symop_operation_xyz
x,y,z
-x,-y,-z
loop_
_atom_site_type_symbol
_atom_site_label
_atom_site_fract_x
_atom_site_fract_y
_atom_site_fract_z
Si Si1 0.080289 0.360033 0.325903
Si Si2 0.654222 0.752923 0.966665
Si Si3 0.423380 0.716547 0.599072
Si Si4 0.749962 0.520448 0.066720
Si Si5 0.714324 0.959018 0.714745
Si Si6 0.584666 0.161101 0.600203
Si Si7 0.122805 0.730664 0.867851
O O1 0.309302 0.321142 0.204571
O O2 0.094800 0.161834 0.293128
O O3 0.000000 0.500000 0.500000
O O4 0.923103 0.427821 0.272114
O O5 0.869379 0.820852 0.974823
O O6 0.668657 0.580629 0.975489
O O7 0.455062 0.911292 0.111125
O O8 0.500000 0.500000 0.500000
O O9 0.609927 0.809949 0.619659
O O10 0.336107 0.762664 0.500606
O O11 0.264705 0.792681 0.770807
O O12 0.610975 0.685253 0.241080
O O13 0.758453 0.339496 0.062303
O O14 0.000000 0.500000 0.000000
O O15 0.741008 0.079906 0.647707
O O16 0.500000 0.000000 0.500000
#
# Coordination Sequence:
#
# PCOD9093602 Si02
#       7
#     2   2   2   2   2   2   2
#     4  10  20  33  54  81 107 140 182 214 265 323
#     4   8  19  33  55  78 106 138 181 220 260 313
#     4  11  19  32  54  82 112 137 176 223 263 311
#     4   9  15  31  51  78 101 135 174 222 252 304
#     4  10  20  35  54  79 106 145 177 217 265 319
#     4   9  19  30  51  78 104 138 177 212 259 309
#     4   9  19  31  54  81 106 136 178 219 265 306
#
# _framework density 25.446251
#
# number of rings (size 3 to 8) (size 9 to 14) (size 15 to 20)
#    0.857    1.714    1.429    1.286    2.000    0.571 
#    0.000    0.714    0.000    0.857    0.000    0.000 
#    0.000    0.000    0.000    0.000    0.000    0.000 
#
# Total GULP energy -77953.308807 kJ/mol
# GULP energy per Si atom -5568.093486 kJ/mol
# Density = 2.538833 g / cm^3
# Si number density = 25.446251 Si / 1000 Ang^3
#
#
#
# Elastic Constant Matrix: (Units=GPa)
#
#
# Indices 1 2 3 4 5 6 
#
# 1 61.7950 31.7434 24.1535 -4.8871 -15.1948 -5.1319
# 2 31.7434 157.7933 83.2901 -32.0018 -14.0043 -28.1098
# 3 24.1535 83.2901 158.9662 -12.4972 -13.5160 -13.8418
# 4 -4.8871 -32.0018 -12.4972 54.6390 2.4532 6.7371
# 5 -15.1948 -14.0043 -13.5160 2.4532 34.3409 -7.7748
# 6 -5.1319 -28.1098 -13.8418 6.7371 -7.7748 36.5718
#
#
#
# Elastic Compliance Matrix: (Units=1/GPa)
#
#
# Indices 1 2 3 4 5 6 
#
# 1 0.019946 -0.002547 -0.000855 -0.000550 0.008015 0.002322
# 2 -0.002547 0.011608 -0.004498 0.004586 0.003016 0.006659
# 3 -0.000855 -0.004498 0.008851 -0.000774 0.001373 0.000207
# 4 -0.000550 0.004586 -0.000774 0.020871 -0.000341 -0.000763
# 5 0.008015 0.003016 0.001373 -0.000341 0.037161 0.011926
# 6 0.002322 0.006659 0.000207 -0.000763 0.011926 0.035542
#
#
# Mechanical properties :
#
#
# Convention : Reuss Voigt Hill
#
# Bulk Modulus (GPa) = 40.64549 72.99208 56.81878
# Shear Modulus (GPa) = 31.64919 41.06816 36.35867
#
# Velocity S-wave (km/s) = 3.53053 4.02172 3.78410
# Velocity P-wave (km/s) = 5.71203 7.09314 6.43972
#
# Compressibility (1/GPa) = 0.02460298
#
# Stress axis : x y z
#
# Youngs Moduli (GPa) = 50.13630 86.14614 112.97636
#
# Poissons Ratio (x) = 0.21945 0.09664
# Poissons Ratio (y) = 0.12772 0.50820
# Poissons Ratio (z) = 0.04289 0.38751
#
# Static dielectric constant tensor:
#      x y z
#    x 2.184060 -0.012510 0.006580 
#    y -0.012510 2.098000 -0.056670 
#    z 0.006580 -0.056670 1.979400 
# 
# From -- ./inp_files/249532.got.cif
#   From: 2010.05.17/outbox.cif.g08.bks.cpg/sg2_125_cif.got.tgz:249532.got - 2010.06.03 11:33:40.
