data_PCOD9093091
_publ_section_title
;
Structure prediction by ZEFSAII (Michael W. Deem and Ramdas Pophale) SiO2 
 PCOD9093091
Probable space group: P -1
;
_chemical_formula_sum "Si O2"
_cell_formula_units_Z 16
_cell_length_a 9.225172
_cell_length_b 8.124746
_cell_length_c 9.529014
_cell_angle_alpha 76.841890
_cell_angle_beta 70.159313
_cell_angle_gamma 97.177556
_cell_volume 638.045464
_symmetry_space_group_name_H-M "P -1"
_symmetry_group_IT_number 2
_symmetry_cell_setting 'triclinic'
loop_
_space_group_symop_operation_xyz
x,y,z
-x,-y,-z
loop_
_atom_site_type_symbol
_atom_site_label
_atom_site_fract_x
_atom_site_fract_y
_atom_site_fract_z
Si Si1 0.799401 0.346923 0.313411
Si Si2 0.208831 0.885353 0.369146
Si Si3 0.452666 0.149879 0.394382
Si Si4 0.663737 0.829671 0.059248
Si Si5 0.009433 0.981916 0.189397
Si Si6 0.338244 0.362269 0.609145
Si Si7 0.648649 0.223616 0.933297
Si Si8 0.090488 0.741343 0.967175
O O1 0.820682 0.216862 0.455705
O O2 0.625454 0.281637 0.307386
O O3 0.792149 0.525973 0.355888
O O4 0.930530 0.377238 0.143073
O O5 0.280341 0.779031 0.246214
O O6 0.349761 0.054640 0.318016
O O7 0.053646 0.926814 0.338774
O O8 0.330923 0.233377 0.507603
O O9 0.500000 0.000000 0.500000
O O10 0.651519 0.737149 0.230097
O O11 0.519005 0.728789 0.032972
O O12 0.836774 0.863067 0.928643
O O13 0.634322 0.025726 0.033949
O O14 0.870081 0.075160 0.175267
O O15 0.011408 0.825598 0.108995
O O16 0.500000 0.500000 0.500000
O O17 0.775178 0.325877 0.978078
#
# Coordination Sequence:
#
# PCOD9093091 Si02
#       8
#     2   2   2   2   2   2   2   2
#     4  10  20  31  54  78 113 143 175 212 276 327
#     4   9  18  31  54  83 103 138 175 233 263 312
#     4   9  18  28  53  80 105 132 178 220 265 307
#     4   9  17  30  55  76 103 141 172 219 266 307
#     4   9  20  34  55  79 112 133 187 229 263 305
#     4  10  20  34  49  84 118 139 168 224 276 323
#     4   9  18  30  57  81 110 128 182 227 269 305
#     4   9  19  34  52  83 105 145 176 225 268 317
#
# _framework density 25.076585999999999
#
# number of rings (size 3 to 8) (size 9 to 14) (size 15 to 20)
#    0.000    3.000    0.000    2.250   14.000    0.500 
#    0.000    1.250   11.000    0.750    0.000    0.000 
#    0.000    0.000    0.000    0.000    0.000    0.000 
#
# Total GULP energy -89118.744570 kJ/mol
# GULP energy per Si atom -5569.921536 kJ/mol
# Density = 2.501951 g / cm^3
# Si number density = 25.076586 Si / 1000 Ang^3
#
#
#
# Elastic Constant Matrix: (Units=GPa)
#
#
# Indices 1 2 3 4 5 6 
#
# 1 117.6528 19.4089 39.0866 -2.9290 25.6790 9.9540
# 2 19.4089 24.3738 32.0577 22.5115 -19.5079 -1.0916
# 3 39.0866 32.0577 165.3868 0.3081 14.1011 7.5705
# 4 -2.9290 22.5115 0.3081 45.2564 6.9611 -11.4163
# 5 25.6790 -19.5079 14.1011 6.9611 38.9738 0.5614
# 6 9.9540 -1.0916 7.5705 -11.4163 0.5614 24.6484
#
#
#
# Elastic Compliance Matrix: (Units=1/GPa)
#
#
# Indices 1 2 3 4 5 6 
#
# 1 0.006306 0.014960 -0.004727 -0.009274 0.006770 -0.004882
# 2 0.014960 -0.049233 0.009448 0.033522 -0.043984 0.005404
# 3 -0.004727 0.009448 0.004832 -0.006791 0.007344 -0.002469
# 4 -0.009274 0.033522 -0.006791 0.003145 0.024667 0.008210
# 5 0.006770 -0.043984 0.007344 0.024667 -0.007948 0.004668
# 6 -0.004882 0.005404 -0.002469 0.008210 0.004668 0.047236
#
#
# Mechanical properties :
#
#
# Convention : Reuss Voigt Hill
#
# Bulk Modulus (GPa) = 788.74508 54.27999 421.51253
# Shear Modulus (GPa) = -144.50042 36.23307 -54.13368
#
# Velocity S-wave (km/s) = -7.59926 3.80530 -4.65126
# Velocity P-wave (km/s) = 15.43434 6.40311 11.81564
#
# Compressibility (1/GPa) = 0.00126784
#
# Stress axis : x y z
#
# Youngs Moduli (GPa) = 158.56749 -20.31151 206.96330
#
# Poissons Ratio (x) = 0.30387 0.97826
# Poissons Ratio (y) = -2.37223 -1.95534
# Poissons Ratio (z) = 0.74951 0.19190
#
# Static dielectric constant tensor:
#      x y z
#    x 2.232890 0.100730 -0.090460 
#    y 0.100730 2.094960 0.032160 
#    z -0.090460 0.032160 1.997650 
# 
# From -- ./inp_files/234171.got.cif
#   From: 2010.05.17/outbox.cif.g08.bks.cpg/sg2_118_cif.got.tgz:234171.got - 2010.06.03 11:33:40.
