data_PCOD9093331
_publ_section_title
;
Structure prediction by ZEFSAII (Michael W. Deem and Ramdas Pophale) SiO2 
 PCOD9093331
Probable space group: P -1
;
_chemical_formula_sum "Si O2"
_cell_formula_units_Z 14
_cell_length_a 9.964577
_cell_length_b 6.743767
_cell_length_c 11.868804
_cell_angle_alpha 75.842577
_cell_angle_beta 119.801430
_cell_angle_gamma 105.062499
_cell_volume 661.943221
_symmetry_space_group_name_H-M "P -1"
_symmetry_group_IT_number 2
_symmetry_cell_setting 'triclinic'
loop_
_space_group_symop_operation_xyz
x,y,z
-x,-y,-z
loop_
_atom_site_type_symbol
_atom_site_label
_atom_site_fract_x
_atom_site_fract_y
_atom_site_fract_z
Si Si1 0.882358 0.665251 0.457364
Si Si2 0.129767 0.532360 0.861378
Si Si3 0.685954 0.321227 0.311766
Si Si4 0.398685 0.311005 0.050786
Si Si5 0.140965 0.988854 0.434266
Si Si6 0.813466 0.061743 0.025049
Si Si7 0.881414 0.154072 0.794928
O O1 0.718898 0.525004 0.376419
O O2 0.867835 0.782253 0.553841
O O3 0.000000 0.500000 0.500000
O O4 0.962516 0.859637 0.387398
O O5 0.212283 0.600813 0.767781
O O6 0.960829 0.395702 0.787070
O O7 0.236487 0.393334 0.995264
O O8 0.143120 0.737272 0.910342
O O9 0.507271 0.267659 0.205006
O O10 0.754485 0.129984 0.422267
O O11 0.338498 0.104705 0.981901
O O12 0.500000 0.500000 0.000000
O O13 0.196318 0.945185 0.337964
O O14 0.786865 0.116830 0.876055
O O15 0.967716 0.957969 0.112566
#
# Coordination Sequence:
#
# PCOD9093331 Si02
#       7
#     2   2   2   2   2   2   2
#     4   9  19  32  49  83 110 140 176 223 275 327
#     4  10  20  35  59  81 112 145 182 233 276 322
#     4  10  20  33  54  83 112 138 182 228 278 325
#     4   9  21  38  53  80 113 144 189 230 268 328
#     4  10  20  32  56  80 111 143 175 230 282 321
#     4  10  22  36  57  80 109 151 186 226 274 328
#     4  10  21  37  54  83 113 143 187 226 276 333
#
# _framework density 21.149849
#
# number of rings (size 3 to 8) (size 9 to 14) (size 15 to 20)
#    0.000    2.286    1.429    0.429    6.000    3.429 
#    0.000    0.714    0.000    1.714    0.000    0.000 
#    0.000    0.000    0.000    0.000    0.000    0.000 
#
# Total GULP energy -77966.604686 kJ/mol
# GULP energy per Si atom -5569.043192 kJ/mol
# Density = 2.110171 g / cm^3
# Si number density = 21.149849 Si / 1000 Ang^3
#
#
#
# Elastic Constant Matrix: (Units=GPa)
#
#
# Indices 1 2 3 4 5 6 
#
# 1 14.8248 33.0767 15.6553 8.5697 -2.5142 3.3800
# 2 33.0767 143.8102 47.7549 30.1572 -6.5373 -26.9249
# 3 15.6553 47.7549 99.8116 8.6687 -2.3512 -5.7446
# 4 8.5697 30.1572 8.6687 36.8547 -5.9607 -10.0405
# 5 -2.5142 -6.5373 -2.3512 -5.9607 33.7805 2.1705
# 6 3.3800 -26.9249 -5.7446 -10.0405 2.1705 10.0967
#
#
#
# Elastic Compliance Matrix: (Units=1/GPa)
#
#
# Indices 1 2 3 4 5 6 
#
# 1 -0.067918 0.039219 -0.001609 0.024983 -0.002927 0.151881
# 2 0.039219 -0.006227 -0.004543 -0.015889 0.001709 -0.048486
# 3 -0.001609 -0.004543 0.012180 -0.000033 0.000146 -0.004710
# 4 0.024983 -0.015889 -0.000033 0.028886 0.005369 -0.023182
# 5 -0.002927 0.001709 0.000146 0.005369 0.030389 0.004428
# 6 0.151881 -0.048486 -0.004710 -0.023182 0.004428 -0.107784
#
#
# Mechanical properties :
#
#
# Convention : Reuss Voigt Hill
#
# Bulk Modulus (GPa) = 239.77744 50.15784 144.96764
# Shear Modulus (GPa) = -28.53581 26.94369 -0.79606
#
# Velocity S-wave (km/s) = -3.67716 3.57311 -0.61417
# Velocity P-wave (km/s) = 9.77692 6.38668 8.25766
#
# Compressibility (1/GPa) = 0.00417053
#
# Stress axis : x y z
#
# Youngs Moduli (GPa) = -14.72361 -160.59935 82.10210
#
# Poissons Ratio (x) = 6.29862 0.13210
# Poissons Ratio (y) = 0.57745 0.37297
# Poissons Ratio (z) = -0.02369 -0.72956
#
# Static dielectric constant tensor:
#      x y z
#    x 1.787990 0.019750 0.022900 
#    y 0.019750 1.841710 0.005570 
#    z 0.022900 0.005570 1.891900 
# 
# From -- ./inp_files/66376.got.cif
#   From: 2010.05.17/outbox.cif.g08.bks.cpg/sg2_34_cif.got.tgz:66376.got - 2010.06.03 11:33:40.
