data_PCOD9093969
_publ_section_title
;
Structure prediction by ZEFSAII (Michael W. Deem and Ramdas Pophale) SiO2 
 PCOD9093969
Probable space group: P -1
;
_chemical_formula_sum "Si O2"
_cell_formula_units_Z 16
_cell_length_a 23.923968
_cell_length_b 14.477631
_cell_length_c 24.908348
_cell_angle_alpha 148.907659
_cell_angle_beta 168.551540
_cell_angle_gamma 30.921412
_cell_volume 869.676951
_symmetry_space_group_name_H-M "P -1"
_symmetry_group_IT_number 2
_symmetry_cell_setting 'triclinic'
loop_
_space_group_symop_operation_xyz
x,y,z
-x,-y,-z
loop_
_atom_site_type_symbol
_atom_site_label
_atom_site_fract_x
_atom_site_fract_y
_atom_site_fract_z
Si Si1 0.966771 0.946798 0.140093
Si Si2 0.536094 0.819657 0.267899
Si Si3 0.247625 0.812605 0.700108
Si Si4 0.577778 0.089588 0.315333
Si Si5 0.357176 0.320304 0.817530
Si Si6 0.222294 0.633996 0.283189
Si Si7 0.742926 0.469524 0.340678
Si Si8 0.637035 0.074573 0.246213
O O1 0.180682 0.751934 0.247405
O O2 0.716986 0.916415 0.932730
O O3 0.182780 0.086322 0.424020
O O4 0.756731 0.031991 0.936365
O O5 0.536957 0.701090 0.154714
O O6 0.574812 0.675525 0.280642
O O7 0.244886 0.630742 0.640671
O O8 0.351491 0.788367 0.724124
O O9 0.947793 0.950966 0.484641
O O10 0.448275 0.929469 0.977736
O O11 0.776600 0.203976 0.591595
O O12 0.530925 0.160138 0.245856
O O13 0.719422 0.877561 0.340101
O O14 0.066959 0.463262 0.622908
O O15 0.591990 0.355636 0.098789
O O16 0.500000 0.500000 0.500000
O O17 0.000000 0.500000 0.000000
#
# Coordination Sequence:
#
# PCOD9093969 Si02
#       8
#     2   2   2   2   2   2   2   2
#     4  11  21  36  51  74 103 136 165 203 259 310
#     4  11  22  31  47  72 102 141 177 206 237 290
#     4  10  20  34  47  74  98 141 184 220 232 285
#     4  11  21  34  56  72 107 139 171 208 260 307
#     4  11  20  30  47  69 101 143 172 206 235 292
#     4  12  23  37  56  77 101 130 165 214 266 324
#     4  12  20  32  47  70 105 139 185 209 232 275
#     4  10  21  32  52  69 101 139 181 210 258 281
#
# _framework density 18.397635999999999
#
# number of rings (size 3 to 8) (size 9 to 14) (size 15 to 20)
#    0.000    1.000    6.250    3.000    1.750    0.000 
#    0.000    0.000    0.000    0.000    0.000    0.000 
#    0.000    6.000    0.000    0.250    0.000    0.000 
#
# Total GULP energy -89097.928837 kJ/mol
# GULP energy per Si atom -5568.620552 kJ/mol
# Density = 1.835576 g / cm^3
# Si number density = 18.397636 Si / 1000 Ang^3
#
#
#
# Elastic Constant Matrix: (Units=GPa)
#
#
# Indices 1 2 3 4 5 6 
#
# 1 49.2310 22.0074 11.0312 9.7448 -6.2287 28.7352
# 2 22.0074 104.1213 31.6106 -7.5547 -3.7129 36.7838
# 3 11.0312 31.6106 143.9058 -3.5886 -10.5803 8.1888
# 4 9.7448 -7.5547 -3.5886 37.2399 1.6218 -3.6071
# 5 -6.2287 -3.7129 -10.5803 1.6218 15.1140 -2.6805
# 6 28.7352 36.7838 8.1888 -3.6071 -2.6805 28.1339
#
#
#
# Elastic Compliance Matrix: (Units=1/GPa)
#
#
# Indices 1 2 3 4 5 6 
#
# 1 0.101991 0.028490 -0.005111 -0.036233 0.024107 -0.142281
# 2 0.028490 0.026951 -0.004331 -0.008795 0.004971 -0.063729
# 3 -0.005111 -0.004331 0.008109 0.001956 0.003918 0.009147
# 4 -0.036233 -0.008795 0.001956 0.040253 -0.010808 0.052068
# 5 0.024107 0.004971 0.003918 -0.010808 0.076548 -0.026354
# 6 -0.142281 -0.063729 0.009147 0.052068 -0.026354 0.265692
#
#
# Mechanical properties :
#
#
# Convention : Reuss Voigt Hill
#
# Bulk Modulus (GPa) = 5.70953 47.39514 26.55234
# Shear Modulus (GPa) = 9.26218 31.60481 20.43349
#
# Velocity S-wave (km/s) = 2.24619 4.14922 3.33627
# Velocity P-wave (km/s) = 3.13645 6.98371 5.41338
#
# Compressibility (1/GPa) = 0.17514563
#
# Stress axis : x y z
#
# Youngs Moduli (GPa) = 9.80481 37.10469 123.32655
#
# Poissons Ratio (x) = -1.05713 0.63035
# Poissons Ratio (y) = -0.27934 0.53417
# Poissons Ratio (z) = 0.05011 0.16071
#
# Static dielectric constant tensor:
#      x y z
#    x 1.666180 0.048720 0.019840 
#    y 0.048720 1.717920 -0.043520 
#    z 0.019840 -0.043520 1.669030 
# 
# From -- ./inp_files/619514.got.cif
#   From: 2010.05.17/outbox.cif.g08.bks.cpg/sg2_310_cif.got.tgz:619514.got - 2010.06.03 11:33:40.
