data_PCOD9093273
_publ_section_title
;
Structure prediction by ZEFSAII (Michael W. Deem and Ramdas Pophale) SiO2 
 PCOD9093273
Probable space group: P -1
;
_chemical_formula_sum "Si O2"
_cell_formula_units_Z 14
_cell_length_a 10.417367
_cell_length_b 10.304070
_cell_length_c 8.192015
_cell_angle_alpha 60.801878
_cell_angle_beta 122.713819
_cell_angle_gamma 139.571980
_cell_volume 475.062905
_symmetry_space_group_name_H-M "P -1"
_symmetry_group_IT_number 2
_symmetry_cell_setting 'triclinic'
loop_
_space_group_symop_operation_xyz
x,y,z
-x,-y,-z
loop_
_atom_site_type_symbol
_atom_site_label
_atom_site_fract_x
_atom_site_fract_y
_atom_site_fract_z
Si Si1 0.343640 0.937394 0.076142
Si Si2 0.044238 0.134459 0.796536
Si Si3 0.264485 0.820582 0.509765
Si Si4 0.272312 0.097328 0.538292
Si Si5 0.304418 0.607150 0.463352
Si Si6 0.464472 0.321631 0.879775
Si Si7 0.089030 0.389913 0.140922
O O1 0.114565 0.828862 0.921871
O O2 0.437640 0.154536 0.073030
O O3 0.314026 0.767388 0.263373
O O4 0.292825 0.497125 0.103744
O O5 0.905110 0.189632 0.692794
O O6 0.291830 0.322043 0.829721
O O7 0.938311 0.999318 0.639332
O O8 0.000000 0.000000 0.000000
O O9 0.222179 0.620596 0.566967
O O10 0.500000 0.000000 0.500000
O O11 0.263726 0.910238 0.624668
O O12 0.456979 0.281655 0.433481
O O13 0.361942 0.212134 0.699872
O O14 0.167831 0.416690 0.365757
O O15 0.500000 0.000000 0.000000
O O16 0.000000 0.500000 0.000000
#
# Coordination Sequence:
#
# PCOD9093273 Si02
#       7
#     2   2   2   2   2   2   2
#     4  11  18  30  56  89 113 145 192 236 284 343
#     4  10  20  32  53  89 118 151 199 236 286 345
#     4   8  16  30  51  80 107 153 193 226 279 342
#     4   8  17  30  51  81 108 151 193 222 287 337
#     4   9  15  31  52  80 111 147 191 236 275 332
#     4  11  19  34  58  84 116 155 188 238 290 337
#     4   9  18  31  51  88 115 146 191 237 283 343
#
# _framework density 29.469781999999999
#
# number of rings (size 3 to 8) (size 9 to 14) (size 15 to 20)
#    0.857    1.714    4.286    1.286    0.000    0.000 
#    0.000    0.000    0.000   16.286   11.143    0.000 
#    0.000    0.000    0.000    0.000    0.000    0.000 
#
# Total GULP energy -78177.642158 kJ/mol
# GULP energy per Si atom -5584.117297 kJ/mol
# Density = 2.940271 g / cm^3
# Si number density = 29.469782 Si / 1000 Ang^3
#
#
#
# Elastic Constant Matrix: (Units=GPa)
#
#
# Indices 1 2 3 4 5 6 
#
# 1 172.8497 55.1334 33.0913 2.4965 34.1164 48.2401
# 2 55.1334 129.4893 45.3180 10.5885 -7.0909 65.2997
# 3 33.0913 45.3180 107.2363 12.0415 12.5105 1.8311
# 4 2.4965 10.5885 12.0415 38.5256 -4.9711 7.2731
# 5 34.1164 -7.0909 12.5105 -4.9711 51.9834 17.1272
# 6 48.2401 65.2997 1.8311 7.2731 17.1272 68.5206
#
#
#
# Elastic Compliance Matrix: (Units=1/GPa)
#
#
# Indices 1 2 3 4 5 6 
#
# 1 0.008315 -0.001871 -0.001252 0.000362 -0.004396 -0.002977
# 2 -0.001871 0.032492 -0.015688 0.005523 0.021563 -0.035204
# 3 -0.001252 -0.015688 0.018228 -0.006564 -0.012661 0.019207
# 4 0.000362 0.005523 -0.006564 0.029549 0.008407 -0.010580
# 5 -0.004396 0.021563 -0.012661 0.008407 0.037975 -0.027500
# 6 -0.002977 -0.035204 0.019207 -0.010580 -0.027500 0.057723
#
#
# Mechanical properties :
#
#
# Convention : Reuss Voigt Hill
#
# Bulk Modulus (GPa) = 46.70389 75.18452 60.94421
# Shear Modulus (GPa) = 21.83012 50.20810 36.01911
#
# Velocity S-wave (km/s) = 2.72465 4.13209 3.49985
# Velocity P-wave (km/s) = 5.07747 6.95222 6.08745
#
# Compressibility (1/GPa) = 0.02141149
#
# Stress axis : x y z
#
# Youngs Moduli (GPa) = 120.26230 30.77699 54.86206
#
# Poissons Ratio (x) = 0.05759 0.06869
# Poissons Ratio (y) = 0.22503 0.86069
# Poissons Ratio (z) = 0.15058 0.48284
#
# Static dielectric constant tensor:
#      x y z
#    x 2.475950 -0.179030 -0.076480 
#    y -0.179030 2.469860 0.047130 
#    z -0.076480 0.047130 2.467780 
# 
# From -- ./inp_files/219738.got.cif
#   From: 2010.05.17/outbox.cif.g08.bks.cpg/sg2_110_cif.got.tgz:219738.got - 2010.06.03 11:33:40.
