data_PCOD9093309
_publ_section_title
;
Structure prediction by ZEFSAII (Michael W. Deem and Ramdas Pophale) SiO2 
 PCOD9093309
Probable space group: P -1
;
_chemical_formula_sum "Si O2"
_cell_formula_units_Z 16
_cell_length_a 23.991364
_cell_length_b 12.424840
_cell_length_c 14.585442
_cell_angle_alpha 134.463126
_cell_angle_beta 148.815790
_cell_angle_gamma 23.290380
_cell_volume 809.089984
_symmetry_space_group_name_H-M "P -1"
_symmetry_group_IT_number 2
_symmetry_cell_setting 'triclinic'
loop_
_space_group_symop_operation_xyz
x,y,z
-x,-y,-z
loop_
_atom_site_type_symbol
_atom_site_label
_atom_site_fract_x
_atom_site_fract_y
_atom_site_fract_z
Si Si1 0.034788 0.098971 0.041267
Si Si2 0.995460 0.767100 0.473642
Si Si3 0.545166 0.302078 0.513271
Si Si4 0.418664 0.233832 0.150067
Si Si5 0.581213 0.615848 0.141188
Si Si6 0.899635 0.180450 0.703479
Si Si7 0.571273 0.120404 0.104737
Si Si8 0.160895 0.997677 0.812057
O O1 0.824289 0.455189 0.972397
O O2 0.036139 0.039599 0.903721
O O3 0.246882 0.922596 0.268334
O O4 0.000000 0.000000 0.000000
O O5 0.825545 0.843183 0.305621
O O6 0.252675 0.447753 0.651638
O O7 0.936705 0.975343 0.583900
O O8 0.939525 0.872163 0.352203
O O9 0.500000 0.500000 0.500000
O O10 0.561499 0.139589 0.371945
O O11 0.342808 0.523047 0.426314
O O12 0.458286 0.275566 0.135725
O O13 0.465389 0.004940 0.056529
O O14 0.708614 0.317609 0.181902
O O15 0.345006 0.902424 0.024125
O O16 0.527522 0.658637 0.983342
O O17 0.978871 0.208373 0.758458
#
# Coordination Sequence:
#
# PCOD9093309 Si02
#       8
#     2   2   2   2   2   2   2   2
#     4  11  23  35  55  80 108 148 187 232 268 325
#     4  10  20  33  57  86 116 144 183 230 289 330
#     4  11  21  36  55  78 108 145 187 232 273 324
#     4  10  23  39  53  81 117 146 195 223 275 331
#     4   9  18  32  53  79 113 144 180 221 284 324
#     4  10  20  32  55  83 114 143 178 231 284 323
#     4  10  22  36  56  81 114 156 179 230 273 342
#     4   9  19  33  52  88 116 139 182 240 278 333
#
# _framework density 19.775303999999998
#
# number of rings (size 3 to 8) (size 9 to 14) (size 15 to 20)
#    0.000    2.000    2.500    2.250    3.500    5.000 
#    0.000    2.500    0.000   12.000    0.000   24.500 
#    0.000    0.000    0.000    0.000    0.000    0.000 
#
# Total GULP energy -89203.419257 kJ/mol
# GULP energy per Si atom -5575.213704 kJ/mol
# Density = 1.973029 g / cm^3
# Si number density = 19.775304 Si / 1000 Ang^3
#
#
#
# Elastic Constant Matrix: (Units=GPa)
#
#
# Indices 1 2 3 4 5 6 
#
# 1 109.3926 18.8738 53.9550 0.6109 2.3053 -35.6019
# 2 18.8738 24.5967 20.0412 9.5284 -2.9939 -13.2048
# 3 53.9550 20.0412 177.0205 -1.2666 12.9032 -19.5576
# 4 0.6109 9.5284 -1.2666 28.3408 -6.6285 -0.7540
# 5 2.3053 -2.9939 12.9032 -6.6285 38.0073 -2.4556
# 6 -35.6019 -13.2048 -19.5576 -0.7540 -2.4556 22.4714
#
#
#
# Elastic Compliance Matrix: (Units=1/GPa)
#
#
# Indices 1 2 3 4 5 6 
#
# 1 0.020618 0.005378 -0.003414 -0.000988 0.002296 0.033072
# 2 0.005378 0.077369 -0.005643 -0.023496 0.006753 0.049023
# 3 -0.003414 -0.005643 0.007235 0.001619 -0.002583 -0.002655
# 4 -0.000988 -0.023496 0.001619 0.044026 0.004563 -0.011987
# 5 0.002296 0.006753 -0.002583 0.004563 0.028936 0.008674
# 6 0.033072 0.049023 -0.002655 -0.011987 0.008674 0.123940
#
#
# Mechanical properties :
#
#
# Convention : Reuss Voigt Hill
#
# Bulk Modulus (GPa) = 10.21818 55.19443 32.70631
# Shear Modulus (GPa) = 14.61550 32.30655 23.46102
#
# Velocity S-wave (km/s) = 2.72155 4.04627 3.44812
# Velocity P-wave (km/s) = 3.87997 7.05699 5.69452
#
# Compressibility (1/GPa) = 0.09786477
#
# Stress axis : x y z
#
# Youngs Moduli (GPa) = 48.50218 12.92506 138.22019
#
# Poissons Ratio (x) = -0.06951 0.47183
# Poissons Ratio (y) = -0.26084 0.77992
# Poissons Ratio (z) = 0.16557 0.07293
#
# Static dielectric constant tensor:
#      x y z
#    x 1.746850 0.011110 0.043490 
#    y 0.011110 1.704760 -0.014160 
#    z 0.043490 -0.014160 1.718570 
# 
# From -- ./inp_files/471054.got.cif
#   From: 2010.05.17/outbox.cif.g08.bks.cpg/sg2_236_cif.got.tgz:471054.got - 2010.06.03 11:33:40.
