data_PCOD9093729
_publ_section_title
;
Structure prediction by ZEFSAII (Michael W. Deem and Ramdas Pophale) SiO2 
 PCOD9093729
Probable space group: P -1
;
_chemical_formula_sum "Si O2"
_cell_formula_units_Z 13
_cell_length_a 5.979624
_cell_length_b 12.341212
_cell_length_c 7.122734
_cell_angle_alpha 65.255508
_cell_angle_beta 106.804651
_cell_angle_gamma 85.269466
_cell_volume 444.288286
_symmetry_space_group_name_H-M "P -1"
_symmetry_group_IT_number 2
_symmetry_cell_setting 'triclinic'
loop_
_space_group_symop_operation_xyz
x,y,z
-x,-y,-z
loop_
_atom_site_type_symbol
_atom_site_label
_atom_site_fract_x
_atom_site_fract_y
_atom_site_fract_z
Si Si1 0.103668 0.642862 0.029118
Si Si2 0.000000 0.500000 0.500000
Si Si3 0.882779 0.913790 0.665838
Si Si4 0.900847 0.291647 0.591726
Si Si5 0.603936 0.858715 0.076234
Si Si6 0.392662 0.367540 0.972736
Si Si7 0.426603 0.856103 0.404412
O O1 0.143014 0.622034 0.287769
O O2 0.350014 0.596427 0.006518
O O3 0.842205 0.611146 0.961643
O O4 0.047200 0.790595 0.875360
O O5 0.009665 0.384878 0.432279
O O6 0.735294 0.572159 0.292850
O O7 0.675694 0.874141 0.525510
O O8 0.749969 0.009642 0.720105
O O9 0.000000 0.000000 0.500000
O O10 0.698622 0.245079 0.466898
O O11 0.113079 0.177752 0.783025
O O12 0.564296 0.782673 0.939590
O O13 0.458143 0.805123 0.239954
O O14 0.500000 0.000000 0.000000
#
# Coordination Sequence:
#
# PCOD9093729 Si02
#       7
#     2   1   2   2   2   2   2
#     4  10  22  39  60  92 124 163 207 254 315 367
#     4   8  20  40  62  98 122 154 206 266 318 360
#     4  11  26  38  57  85 132 172 206 249 307 379
#     4  10  21  38  63  91 120 159 207 261 310 370
#     4  10  20  33  56  89 124 152 199 255 316 368
#     4  10  21  38  64  93 123 162 201 263 313 372
#     4  11  22  37  56  89 116 173 203 252 306 370
#
# _framework density 29.260279000000001
#
# number of rings (size 3 to 8) (size 9 to 14) (size 15 to 20)
#    0.000    2.154    1.538    2.769    8.615    3.692 
#    0.000    0.000    0.000    4.615    0.000    0.000 
#    0.000    0.000    0.000    0.000    0.000    0.000 
#
# Total GULP energy -72407.630261 kJ/mol
# GULP energy per Si atom -5569.817712 kJ/mol
# Density = 2.919368 g / cm^3
# Si number density = 29.260279 Si / 1000 Ang^3
#
#
#
# Elastic Constant Matrix: (Units=GPa)
#
#
# Indices 1 2 3 4 5 6 
#
# 1 240.7075 85.9676 56.6970 18.0108 28.8216 11.0559
# 2 85.9676 111.2877 28.8588 -13.1151 16.2938 21.6399
# 3 56.6970 28.8588 91.5267 -13.1303 -8.7353 4.9669
# 4 18.0108 -13.1151 -13.1303 47.2550 0.5753 3.0735
# 5 28.8216 16.2938 -8.7353 0.5753 40.1523 15.1141
# 6 11.0559 21.6399 4.9669 3.0735 15.1141 85.3862
#
#
#
# Elastic Compliance Matrix: (Units=1/GPa)
#
#
# Indices 1 2 3 4 5 6 
#
# 1 0.008230 -0.005355 -0.004881 -0.006028 -0.005366 0.001742
# 2 -0.005355 0.014713 -0.000373 0.006232 -0.001155 -0.003034
# 3 -0.004881 -0.000373 0.015779 0.006163 0.007666 -0.001770
# 4 -0.006028 0.006232 0.006163 0.027037 0.003807 -0.002805
# 5 -0.005366 -0.001155 0.007666 0.003807 0.032877 -0.005415
# 6 0.001742 -0.003034 -0.001770 -0.002805 -0.005415 0.013417
#
#
# Mechanical properties :
#
#
# Convention : Reuss Voigt Hill
#
# Bulk Modulus (GPa) = 57.13384 87.39654 72.26519
# Shear Modulus (GPa) = 35.94354 52.69192 44.31773
#
# Velocity S-wave (km/s) = 3.50867 4.24819 3.89601
# Velocity P-wave (km/s) = 5.99857 7.34822 6.70742
#
# Compressibility (1/GPa) = 0.01750276
#
# Stress axis : x y z
#
# Youngs Moduli (GPa) = 121.50237 67.96759 63.37595
#
# Poissons Ratio (x) = 0.36400 0.30934
# Poissons Ratio (y) = 0.65070 0.02364
# Poissons Ratio (z) = 0.59306 0.02536
#
# Static dielectric constant tensor:
#      x y z
#    x 0.562190 -0.662390 1.340890 
#    y -0.662390 2.036620 0.445890 
#    z 1.340890 0.445890 1.213430 
# 
# From -- ./inp_files/133985.got.cif
#   From: 2010.05.17/outbox.cif.g08.bks.cpg/sg2_67_cif.got.tgz:133985.got - 2010.06.03 11:33:40.
