data_PCOD9093237
_publ_section_title
;
Structure prediction by ZEFSAII (Michael W. Deem and Ramdas Pophale) SiO2 
 PCOD9093237
Probable space group: P -1
;
_chemical_formula_sum "Si O2"
_cell_formula_units_Z 16
_cell_length_a 19.922930
_cell_length_b 13.205297
_cell_length_c 10.619786
_cell_angle_alpha 21.980046
_cell_angle_beta 130.160194
_cell_angle_gamma 130.071341
_cell_volume 788.928764
_symmetry_space_group_name_H-M "P -1"
_symmetry_group_IT_number 2
_symmetry_cell_setting 'triclinic'
loop_
_space_group_symop_operation_xyz
x,y,z
-x,-y,-z
loop_
_atom_site_type_symbol
_atom_site_label
_atom_site_fract_x
_atom_site_fract_y
_atom_site_fract_z
Si Si1 0.718470 0.734446 0.263590
Si Si2 0.021908 0.191208 0.181285
Si Si3 0.674055 0.969351 0.400934
Si Si4 0.131425 0.771356 0.713499
Si Si5 0.167563 0.722840 0.112410
Si Si6 0.452074 0.104561 0.199647
Si Si7 0.473844 0.350705 0.272672
Si Si8 0.394158 0.472386 0.387866
O O1 0.776247 0.523104 0.517140
O O2 0.657353 0.593156 0.466214
O O3 0.647965 0.848096 0.956080
O O4 0.780549 0.992922 0.100910
O O5 0.058963 0.977424 0.380463
O O6 0.094551 0.462661 0.979630
O O7 0.000000 0.000000 0.500000
O O8 0.930246 0.303585 0.914213
O O9 0.778395 0.076603 0.415363
O O10 0.625188 0.803985 0.650533
O O11 0.647835 0.768984 0.480849
O O12 0.630288 0.239202 0.017840
O O13 0.154713 0.740901 0.924921
O O14 0.500000 0.000000 0.500000
O O15 0.461094 0.873795 0.373634
O O16 0.507652 0.399704 0.896620
O O17 0.500000 0.500000 0.000000
O O18 0.500000 0.500000 0.500000
#
# Coordination Sequence:
#
# PCOD9093237 Si02
#       8
#     2   2   2   2   2   2   2   2
#     4  12  20  34  52  78 110 146 189 231 265 331
#     4  10  20  32  52  72 108 155 187 222 276 325
#     4  12  22  35  53  79 110 147 191 231 268 332
#     4  11  19  34  49  76 112 148 190 226 269 334
#     4  11  20  33  50  77 110 146 192 223 270 333
#     4  10  22  39  57  76 106 143 186 238 281 320
#     4  10  21  39  57  76 105 142 187 238 278 320
#     4  12  23  34  49  75 114 151 184 223 279 325
#
# _framework density 20.280664999999999
#
# number of rings (size 3 to 8) (size 9 to 14) (size 15 to 20)
#    0.000    1.000    2.500    7.875    0.000    0.000 
#    0.000    0.000    0.000    0.000    0.000    0.000 
#    0.000   80.000    0.000    0.000    0.000    0.000 
#
# Total GULP energy -89277.859265 kJ/mol
# GULP energy per Si atom -5579.866204 kJ/mol
# Density = 2.023450 g / cm^3
# Si number density = 20.280665 Si / 1000 Ang^3
#
#
#
# Elastic Constant Matrix: (Units=GPa)
#
#
# Indices 1 2 3 4 5 6 
#
# 1 77.5216 18.6463 51.9365 2.9555 11.8700 17.7913
# 2 18.6463 62.8032 43.8496 -19.8854 -7.5259 17.4566
# 3 51.9365 43.8496 111.5906 -29.7017 34.2349 6.1719
# 4 2.9555 -19.8854 -29.7017 44.4674 0.9928 4.6579
# 5 11.8700 -7.5259 34.2349 0.9928 41.1480 -1.2770
# 6 17.7913 17.4566 6.1719 4.6579 -1.2770 33.2495
#
#
#
# Elastic Compliance Matrix: (Units=1/GPa)
#
#
# Indices 1 2 3 4 5 6 
#
# 1 0.027259 0.008839 -0.022272 -0.011646 0.012161 -0.012994
# 2 0.008839 0.041964 -0.027442 0.001420 0.027277 -0.020819
# 3 -0.022272 -0.027442 0.045663 0.019084 -0.036619 0.013769
# 4 -0.011646 0.001420 0.019084 0.037339 -0.013277 -0.003797
# 5 0.012161 0.027277 -0.036619 -0.013277 0.056259 -0.010010
# 6 -0.012994 -0.020819 0.013769 -0.003797 -0.010010 0.045550
#
#
# Mechanical properties :
#
#
# Convention : Reuss Voigt Hill
#
# Bulk Modulus (GPa) = 30.17999 53.42003 41.80001
# Shear Modulus (GPa) = 14.41623 32.93852 23.67738
#
# Velocity S-wave (km/s) = 2.66904 4.03443 3.42056
# Velocity P-wave (km/s) = 4.94084 6.93539 6.02128
#
# Compressibility (1/GPa) = 0.03313454
#
# Stress axis : x y z
#
# Youngs Moduli (GPa) = 36.68503 23.82982 21.89957
#
# Poissons Ratio (x) = -0.21063 0.48775
# Poissons Ratio (y) = -0.32425 0.60098
# Poissons Ratio (z) = 0.81706 0.65395
#
# Static dielectric constant tensor:
#      x y z
#    x 2.340640 -0.452170 0.022880 
#    y -0.452170 2.119110 0.004610 
#    z 0.022880 0.004610 1.757900 
# 
# From -- ./inp_files/465717.got.cif
#   From: 2010.05.17/outbox.cif.g08.bks.cpg/sg2_233_cif.got.tgz:465717.got - 2010.06.03 11:33:40.
