data_PCOD9093654
_publ_section_title
;
Structure prediction by ZEFSAII (Michael W. Deem and Ramdas Pophale) SiO2 
 PCOD9093654
Probable space group: P -1
;
_chemical_formula_sum "Si O2"
_cell_formula_units_Z 16
_cell_length_a 4.945257
_cell_length_b 27.501970
_cell_length_c 16.943843
_cell_angle_alpha 24.989121
_cell_angle_beta 74.174888
_cell_angle_gamma 63.646086
_cell_volume 819.557737
_symmetry_space_group_name_H-M "P -1"
_symmetry_group_IT_number 2
_symmetry_cell_setting 'triclinic'
loop_
_space_group_symop_operation_xyz
x,y,z
-x,-y,-z
loop_
_atom_site_type_symbol
_atom_site_label
_atom_site_fract_x
_atom_site_fract_y
_atom_site_fract_z
Si Si1 0.567296 0.621065 0.411267
Si Si2 0.800239 0.447559 0.143579
Si Si3 0.751550 0.990851 0.425865
Si Si4 0.119181 0.698398 0.794463
Si Si5 0.081304 0.678602 0.231100
Si Si6 0.594846 0.459186 0.309587
Si Si7 0.844447 0.861061 0.833318
Si Si8 0.887080 0.630521 0.056769
O O1 0.359107 0.673386 0.271734
O O2 0.775437 0.462116 0.618272
O O3 0.360631 0.639916 0.478161
O O4 0.808790 0.679237 0.308334
O O5 0.864373 0.322090 0.270308
O O6 0.837459 0.413430 0.283112
O O7 0.448345 0.573834 0.979089
O O8 0.000000 0.500000 0.000000
O O9 0.526366 0.028029 0.311293
O O10 0.910584 0.084344 0.288733
O O11 0.500000 0.000000 0.500000
O O12 0.042097 0.842919 0.612374
O O13 0.867517 0.674230 0.902609
O O14 0.941130 0.794941 0.008325
O O15 0.236035 0.511695 0.227485
O O16 0.631561 0.580843 0.163277
O O17 0.856488 0.749888 0.936439
#
# Coordination Sequence:
#
# PCOD9093654 Si02
#       8
#     2   2   2   2   2   2   2   2
#     4  10  20  33  55  82 113 149 191 245 284 356
#     4  10  21  39  61  83 120 155 191 251 292 340
#     4  12  26  38  59  87 121 162 202 234 279 357
#     4  10  23  38  56  86 117 158 199 237 288 342
#     4  10  21  35  53  80 115 154 191 233 297 344
#     4  11  21  34  57  88 113 155 189 238 299 342
#     4  12  24  38  55  84 120 167 191 233 288 348
#     4  11  21  33  56  80 123 152 193 228 281 348
#
# _framework density 19.522722999999999
#
# number of rings (size 3 to 8) (size 9 to 14) (size 15 to 20)
#    0.000    1.250    3.750    2.625    5.250    0.000 
#    0.000    0.000    0.000    0.000    0.000    5.250 
#    0.000    0.000    0.000    0.000    0.000    0.000 
#
# Total GULP energy -89223.962124 kJ/mol
# GULP energy per Si atom -5576.497633 kJ/mol
# Density = 1.947829 g / cm^3
# Si number density = 19.522723 Si / 1000 Ang^3
#
#
#
# Elastic Constant Matrix: (Units=GPa)
#
#
# Indices 1 2 3 4 5 6 
#
# 1 72.8592 7.6143 12.5717 2.1496 -13.9090 -0.7962
# 2 7.6143 92.0716 36.3694 11.6872 -11.4644 -1.3307
# 3 12.5717 36.3694 60.5798 10.6877 -2.0953 3.0944
# 4 2.1496 11.6872 10.6877 29.2170 -0.2430 -1.5608
# 5 -13.9090 -11.4644 -2.0953 -0.2430 27.4573 6.7910
# 6 -0.7962 -1.3307 3.0944 -1.5608 6.7910 22.1142
#
#
#
# Elastic Compliance Matrix: (Units=1/GPa)
#
#
# Indices 1 2 3 4 5 6 
#
# 1 0.015859 0.001197 -0.003571 -0.000349 0.008637 -0.001534
# 2 0.001197 0.015382 -0.008738 -0.002990 0.006326 0.000038
# 3 -0.003571 -0.008738 0.023456 -0.005028 -0.002868 -0.003411
# 4 -0.000349 -0.002990 -0.005028 0.037476 -0.002444 0.003907
# 5 0.008637 0.006326 -0.002868 -0.002444 0.046500 -0.013359
# 6 -0.001534 0.000038 -0.003411 0.003907 -0.013359 0.050022
#
#
# Mechanical properties :
#
#
# Convention : Reuss Voigt Hill
#
# Bulk Modulus (GPa) = 30.79612 37.62460 34.21036
# Shear Modulus (GPa) = 22.54851 27.02139 24.78495
#
# Velocity S-wave (km/s) = 3.40220 3.72438 3.56693
# Velocity P-wave (km/s) = 5.58946 6.14888 5.87583
#
# Compressibility (1/GPa) = 0.03247162
#
# Stress axis : x y z
#
# Youngs Moduli (GPa) = 63.05760 65.01236 42.63225
#
# Poissons Ratio (x) = -0.07779 0.15222
# Poissons Ratio (y) = -0.07545 0.37254
# Poissons Ratio (z) = 0.22515 0.56811
#
# Static dielectric constant tensor:
#      x y z
#    x 1.746310 0.002330 -0.001830 
#    y 0.002330 1.780520 0.018990 
#    z -0.001830 0.018990 1.718180 
# 
# From -- ./inp_files/551502.got.cif
#   From: 2010.05.17/outbox.cif.g08.bks.cpg/sg2_276_cif.got.tgz:551502.got - 2010.06.03 11:33:40.
