data_PCOD9093105
_publ_section_title
;
Structure prediction by ZEFSAII (Michael W. Deem and Ramdas Pophale) SiO2 
 PCOD9093105
Probable space group: P -1
;
_chemical_formula_sum "Si O2"
_cell_formula_units_Z 16
_cell_length_a 22.114056
_cell_length_b 7.774896
_cell_length_c 6.893505
_cell_angle_alpha 87.979198
_cell_angle_beta 49.504714
_cell_angle_gamma 53.192062
_cell_volume 587.295962
_symmetry_space_group_name_H-M "P -1"
_symmetry_group_IT_number 2
_symmetry_cell_setting 'triclinic'
loop_
_space_group_symop_operation_xyz
x,y,z
-x,-y,-z
loop_
_atom_site_type_symbol
_atom_site_label
_atom_site_fract_x
_atom_site_fract_y
_atom_site_fract_z
Si Si1 0.136024 0.627407 0.349389
Si Si2 0.629752 0.944957 0.035316
Si Si3 0.553588 0.039400 0.646411
Si Si4 0.527126 0.465232 0.213222
Si Si5 0.729829 0.227919 0.386555
Si Si6 0.200871 0.489711 0.770355
Si Si7 0.952014 0.745083 0.195731
Si Si8 0.114360 0.052170 0.276319
O O1 0.995926 0.802765 0.649912
O O2 0.140497 0.827269 0.339691
O O3 0.164936 0.532476 0.069948
O O4 0.241446 0.359739 0.256903
O O5 0.594139 0.983205 0.337092
O O6 0.625284 0.153791 0.989640
O O7 0.521200 0.012733 0.162636
O O8 0.462451 0.348877 0.855459
O O9 0.684549 0.825822 0.490392
O O10 0.500000 0.500000 0.500000
O O11 0.408895 0.600705 0.332364
O O12 0.745702 0.406924 0.357567
O O13 0.826289 0.004323 0.349532
O O14 0.774296 0.087547 0.087106
O O15 0.068787 0.682395 0.940027
O O16 0.924129 0.758228 0.481091
O O17 0.000000 0.500000 0.000000
#
# Coordination Sequence:
#
# PCOD9093105 Si02
#       8
#     2   2   2   2   2   2   2   2
#     4   8  16  32  58  86 121 157 206 254 307 366
#     4   9  16  29  52  83 118 165 201 248 310 361
#     4   9  16  28  50  81 124 152 201 260 296 356
#     4  10  20  31  54  95 122 156 215 256 298 377
#     4  11  21  38  64  90 120 161 213 252 310 377
#     4   9  17  33  56  86 118 157 202 252 306 363
#     4  11  23  38  58  90 126 162 202 256 313 371
#     4   9  20  37  60  91 121 159 204 258 311 369
#
# _framework density 27.243504999999999
#
# number of rings (size 3 to 8) (size 9 to 14) (size 15 to 20)
#    0.000    2.500    1.250    1.875    5.250    1.500 
#    0.000    0.000    0.000    1.500    0.000    0.000 
#    0.000    0.000    0.000    0.000    0.000    0.000 
#
# Total GULP energy -89660.135371 kJ/mol
# GULP energy per Si atom -5603.758461 kJ/mol
# Density = 2.718150 g / cm^3
# Si number density = 27.243505 Si / 1000 Ang^3
#
#
#
# Elastic Constant Matrix: (Units=GPa)
#
#
# Indices 1 2 3 4 5 6 
#
# 1 115.5455 37.4944 36.1557 10.0592 -7.8968 -18.8067
# 2 37.4944 97.2832 41.4946 28.7321 -11.9380 -12.5439
# 3 36.1557 41.4946 129.7792 6.4808 -12.5722 0.6383
# 4 10.0592 28.7321 6.4808 50.1597 -9.3567 -2.4077
# 5 -7.8968 -11.9380 -12.5722 -9.3567 51.9332 3.9273
# 6 -18.8067 -12.5439 0.6383 -2.4077 3.9273 42.5098
#
#
#
# Elastic Compliance Matrix: (Units=1/GPa)
#
#
# Indices 1 2 3 4 5 6 
#
# 1 0.010886 -0.002689 -0.002168 -0.000135 0.000183 0.004031
# 2 -0.002689 0.015688 -0.003834 -0.007685 0.000658 0.003001
# 3 -0.002168 -0.003834 0.009621 0.001572 0.001574 -0.002292
# 4 -0.000135 -0.007685 0.001572 0.024688 0.003135 -0.001243
# 5 0.000183 0.000658 0.001574 0.003135 0.020491 -0.001464
# 6 0.004031 0.003001 -0.002292 -0.001243 -0.001464 0.026292
#
#
# Mechanical properties :
#
#
# Convention : Reuss Voigt Hill
#
# Bulk Modulus (GPa) = 53.15637 63.65525 58.40581
# Shear Modulus (GPa) = 38.07500 44.08477 41.07989
#
# Velocity S-wave (km/s) = 3.74248 4.02702 3.88735
# Velocity P-wave (km/s) = 6.18294 6.71108 6.45242
#
# Compressibility (1/GPa) = 0.01881242
#
# Stress axis : x y z
#
# Youngs Moduli (GPa) = 91.86194 63.74113 103.94167
#
# Poissons Ratio (x) = 0.17137 0.22539
# Poissons Ratio (y) = 0.24697 0.39855
# Poissons Ratio (z) = 0.19920 0.24441
#
# Static dielectric constant tensor:
#      x y z
#    x 2.132650 -0.036020 0.080550 
#    y -0.036020 2.121900 -0.019020 
#    z 0.080550 -0.019020 2.173860 
# 
# From -- ./inp_files/352247.got.cif
#   From: 2010.05.17/outbox.cif.g08.bks.cpg/sg2_177_cif.got.tgz:352247.got - 2010.06.03 11:33:40.
