data_PCOD9093445
_publ_section_title
;
Structure prediction by ZEFSAII (Michael W. Deem and Ramdas Pophale) SiO2 
 PCOD9093445
Probable space group: P -1
;
_chemical_formula_sum "Si O2"
_cell_formula_units_Z 16
_cell_length_a 21.243413
_cell_length_b 10.481661
_cell_length_c 16.992592
_cell_angle_alpha 117.845545
_cell_angle_beta 162.102597
_cell_angle_gamma 52.289031
_cell_volume 810.482672
_symmetry_space_group_name_H-M "P -1"
_symmetry_group_IT_number 2
_symmetry_cell_setting 'triclinic'
loop_
_space_group_symop_operation_xyz
x,y,z
-x,-y,-z
loop_
_atom_site_type_symbol
_atom_site_label
_atom_site_fract_x
_atom_site_fract_y
_atom_site_fract_z
Si Si1 0.360203 0.290615 0.507922
Si Si2 0.548385 0.616500 0.196951
Si Si3 0.132819 0.032065 0.781386
Si Si4 0.009623 0.785041 0.012465
Si Si5 0.206284 0.142896 0.058566
Si Si6 0.321058 0.958816 0.816391
Si Si7 0.256645 0.463482 0.761312
Si Si8 0.423138 0.782199 0.420296
O O1 0.336879 0.407273 0.587261
O O2 0.102614 0.311312 0.187774
O O3 0.456016 0.317945 0.547965
O O4 0.581599 0.074712 0.731023
O O5 0.744790 0.508933 0.326639
O O6 0.389613 0.829812 0.049236
O O7 0.342274 0.575180 0.936189
O O8 0.180810 0.072916 0.762660
O O9 0.898720 0.018734 0.492634
O O10 0.098954 0.156891 0.848573
O O11 0.999960 0.774003 0.091908
O O12 0.795620 0.001653 0.798925
O O13 0.278410 0.721591 0.278410
O O14 0.359922 0.226151 0.274762
O O15 0.509136 0.747088 0.003312
O O16 0.500000 0.000000 0.000000
O O17 0.000000 0.500000 0.500000
#
# Coordination Sequence:
#
# PCOD9093445 Si02
#       8
#     2   2   2   2   2   2   2   2
#     4   8  14  24  38  60  89 118 148 181 221 270
#     4   9  18  32  49  69  94 124 157 192 231 276
#     4   9  18  32  49  69  94 124 157 192 231 276
#     4   8  13  21  35  58  89 119 144 177 222 268
#     4   8  14  24  38  60  89 118 148 181 221 270
#     4  10  20  33  49  69  94 123 156 194 234 276
#     4  10  20  33  49  69  94 123 156 194 234 276
#     4   8  13  21  35  58  89 119 144 177 222 268
#
# _framework density 19.741323000000001
#
# number of rings (size 3 to 8) (size 9 to 14) (size 15 to 20)
#    0.000    3.250    0.000    2.250    0.000    3.000 
#    0.000    7.500    0.000    0.000    0.000    3.500 
#    0.000   10.000    0.000    0.000    0.000    0.000 
#
# Total GULP energy -89202.240377 kJ/mol
# GULP energy per Si atom -5575.140024 kJ/mol
# Density = 1.969639 g / cm^3
# Si number density = 19.741323 Si / 1000 Ang^3
#
#
#
# Elastic Constant Matrix: (Units=GPa)
#
#
# Indices 1 2 3 4 5 6 
#
# 1 150.1281 49.1508 93.5940 55.1153 10.1809 -35.0600
# 2 49.1508 48.1143 25.6365 10.5805 -7.6775 -13.1279
# 3 93.5940 25.6365 80.8468 34.6949 13.6974 -15.7843
# 4 55.1153 10.5805 34.6949 39.9127 8.3460 -17.7106
# 5 10.1809 -7.6775 13.6974 8.3460 36.0708 15.6713
# 6 -35.0600 -13.1279 -15.7843 -17.7106 15.6713 23.8957
#
#
#
# Elastic Compliance Matrix: (Units=1/GPa)
#
#
# Indices 1 2 3 4 5 6 
#
# 1 0.059643 -0.026056 -0.040135 -0.002368 -0.036515 0.068875
# 2 -0.026056 0.039707 0.007718 0.004507 0.021393 -0.022007
# 3 -0.040135 0.007718 0.052007 -0.007962 0.009013 -0.032106
# 4 -0.002368 0.004507 -0.007962 0.091943 -0.060847 0.101792
# 5 -0.036515 0.021393 0.009013 -0.060847 0.123646 -0.162056
# 6 0.068875 -0.022007 -0.032106 0.101792 -0.162056 0.291330
#
#
# Mechanical properties :
#
#
# Convention : Reuss Voigt Hill
#
# Bulk Modulus (GPa) = 29.06097 68.42799 48.74448
# Shear Modulus (GPa) = 6.35573 27.35638 16.85605
#
# Velocity S-wave (km/s) = 1.79624 3.72659 2.92523
# Velocity P-wave (km/s) = 4.36518 7.29755 6.01286
#
# Compressibility (1/GPa) = 0.03441041
#
# Stress axis : x y z
#
# Youngs Moduli (GPa) = 16.76638 25.18449 19.22835
#
# Poissons Ratio (x) = 0.65622 0.77173
# Poissons Ratio (y) = 0.43687 -0.14841
# Poissons Ratio (z) = 0.67292 -0.19438
#
# Static dielectric constant tensor:
#      x y z
#    x 1.705420 0.008290 -0.016350 
#    y 0.008290 1.734770 -0.050370 
#    z -0.016350 -0.050370 1.685360 
# 
# From -- ./inp_files/304398.got.cif
#   From: 2010.05.17/outbox.cif.g08.bks.cpg/sg2_153_cif.got.tgz:304398.got - 2010.06.03 11:33:40.
