data_PCOD9093153
_publ_section_title
;
Structure prediction by ZEFSAII (Michael W. Deem and Ramdas Pophale) SiO2 
 PCOD9093153
Probable space group: P -1
;
_chemical_formula_sum "Si O2"
_cell_formula_units_Z 16
_cell_length_a 5.233801
_cell_length_b 12.897699
_cell_length_c 23.269566
_cell_angle_alpha 144.102829
_cell_angle_beta 115.824917
_cell_angle_gamma 72.155542
_cell_volume 825.805764
_symmetry_space_group_name_H-M "P -1"
_symmetry_group_IT_number 2
_symmetry_cell_setting 'triclinic'
loop_
_space_group_symop_operation_xyz
x,y,z
-x,-y,-z
loop_
_atom_site_type_symbol
_atom_site_label
_atom_site_fract_x
_atom_site_fract_y
_atom_site_fract_z
Si Si1 0.559163 0.811212 0.739961
Si Si2 0.109619 0.080453 0.610050
Si Si3 0.225393 0.931091 0.865803
Si Si4 0.269993 0.567666 0.387229
Si Si5 0.409319 0.067955 0.458034
Si Si6 0.050088 0.488981 0.782032
Si Si7 0.427911 0.288816 0.107415
Si Si8 0.774606 0.390256 0.470259
O O1 0.412334 0.924671 0.823853
O O2 0.562262 0.607782 0.671444
O O3 0.358822 0.788634 0.654004
O O4 0.894296 0.871769 0.793380
O O5 0.440298 0.052413 0.626741
O O6 0.927128 0.966763 0.587914
O O7 0.057909 0.283582 0.706949
O O8 0.000000 0.000000 0.500000
O O9 0.374190 0.800711 0.866094
O O10 0.256915 0.123658 0.984693
O O11 0.019652 0.526503 0.299335
O O12 0.139965 0.613919 0.456718
O O13 0.468570 0.733662 0.455946
O O14 0.500000 0.000000 0.500000
O O15 0.796127 0.586677 0.830338
O O16 0.354188 0.601487 0.865094
O O17 0.500000 0.500000 0.500000
O O18 0.000000 0.500000 0.500000
#
# Coordination Sequence:
#
# PCOD9093153 Si02
#       8
#     2   2   2   2   2   2   2   2
#     4  11  21  36  55  74 104 151 179 226 266 297
#     4  10  20  32  47  74 107 142 169 211 249 329
#     4  11  21  36  53  72 106 133 188 237 262 299
#     4  11  21  34  55  78 111 153 174 213 265 329
#     4  10  20  32  48  74 110 141 174 208 259 318
#     4  12  21  33  54  74 112 146 174 203 274 327
#     4  11  23  34  50  80 100 143 187 218 264 335
#     4  10  23  37  52  79 108 140 197 220 252 320
#
# _framework density 19.375015999999999
#
# number of rings (size 3 to 8) (size 9 to 14) (size 15 to 20)
#    0.000    1.250    5.000    3.000    1.750    5.000 
#    0.000    0.000    0.000    0.000    0.000    0.000 
#    0.000   20.000    0.000    0.000    0.000    0.000 
#
# Total GULP energy -89203.700750 kJ/mol
# GULP energy per Si atom -5575.231297 kJ/mol
# Density = 1.933092 g / cm^3
# Si number density = 19.375016 Si / 1000 Ang^3
#
#
#
# Elastic Constant Matrix: (Units=GPa)
#
#
# Indices 1 2 3 4 5 6 
#
# 1 160.9350 25.9616 43.5323 12.6401 -0.9815 11.6949
# 2 25.9616 33.6641 25.4310 16.4302 -3.2501 6.1090
# 3 43.5323 25.4310 99.5588 15.8218 -3.9000 -0.1854
# 4 12.6401 16.4302 15.8218 34.6504 -0.4528 -1.2385
# 5 -0.9815 -3.2501 -3.9000 -0.4528 29.9790 6.6393
# 6 11.6949 6.1090 -0.1854 -1.2385 6.6393 24.7485
#
#
#
# Elastic Compliance Matrix: (Units=1/GPa)
#
#
# Indices 1 2 3 4 5 6 
#
# 1 0.007649 -0.003459 -0.002437 -0.000136 0.000184 -0.002835
# 2 -0.003459 0.051519 -0.008243 -0.019812 0.007217 -0.014072
# 3 -0.002437 -0.008243 0.013416 -0.001213 0.000042 0.003215
# 4 -0.000136 -0.019812 -0.001213 0.039092 -0.003453 0.007829
# 5 0.000184 0.007217 0.000042 -0.003453 0.036733 -0.011895
# 6 -0.002835 -0.014072 0.003215 0.007829 -0.011895 0.048827
#
#
# Mechanical properties :
#
#
# Convention : Reuss Voigt Hill
#
# Bulk Modulus (GPa) = 22.56991 53.77864 38.17427
# Shear Modulus (GPa) = 20.80885 31.15776 25.98331
#
# Velocity S-wave (km/s) = 3.28076 4.01451 3.66604
# Velocity P-wave (km/s) = 5.10151 7.02178 6.13721
#
# Compressibility (1/GPa) = 0.04430678
#
# Stress axis : x y z
#
# Youngs Moduli (GPa) = 130.73961 19.41017 74.53850
#
# Poissons Ratio (x) = 0.06713 0.18168
# Poissons Ratio (y) = 0.45219 0.61439
# Poissons Ratio (z) = 0.31866 0.15999
#
# Static dielectric constant tensor:
#      x y z
#    x 1.599010 0.145760 -0.043930 
#    y 0.145760 1.576570 0.070340 
#    z -0.043930 0.070340 1.670740 
# 
# From -- ./inp_files/604638.got.cif
#   From: 2010.05.17/outbox.cif.g08.bks.cpg/sg2_303_cif.got.tgz:604638.got - 2010.06.03 11:33:40.
