data_PCOD9093395
_publ_section_title
;
Structure prediction by ZEFSAII (Michael W. Deem and Ramdas Pophale) SiO2 
 PCOD9093395
Probable space group: P -1
;
_chemical_formula_sum "Si O2"
_cell_formula_units_Z 15
_cell_length_a 8.026015
_cell_length_b 11.816912
_cell_length_c 8.754804
_cell_angle_alpha 127.170342
_cell_angle_beta 78.682916
_cell_angle_gamma 90.712172
_cell_volume 642.763818
_symmetry_space_group_name_H-M "P -1"
_symmetry_group_IT_number 2
_symmetry_cell_setting 'triclinic'
loop_
_space_group_symop_operation_xyz
x,y,z
-x,-y,-z
loop_
_atom_site_type_symbol
_atom_site_label
_atom_site_fract_x
_atom_site_fract_y
_atom_site_fract_z
Si Si1 0.040482 0.270882 0.041879
Si Si2 0.872772 0.693949 0.453292
Si Si3 0.000000 0.500000 0.000000
Si Si4 0.793978 0.294557 0.394047
Si Si5 0.193174 0.999508 0.407666
Si Si6 0.292791 0.992174 0.715189
Si Si7 0.328660 0.389368 0.283448
Si Si8 0.439370 0.887319 0.042571
O O1 0.995547 0.336337 0.937823
O O2 0.195892 0.356732 0.146810
O O3 0.894709 0.295316 0.216864
O O4 0.125825 0.105418 0.880487
O O5 0.759721 0.654407 0.581939
O O6 0.903711 0.566936 0.224731
O O7 0.055991 0.716537 0.513063
O O8 0.786008 0.838505 0.508882
O O9 0.706704 0.152487 0.307214
O O10 0.668685 0.441176 0.568468
O O11 0.294735 0.953164 0.505876
O O12 0.250550 0.915305 0.172096
O O13 0.000000 0.000000 0.500000
O O14 0.447264 0.074792 0.803007
O O15 0.500104 0.277761 0.143967
O O16 0.500000 0.000000 0.000000
#
# Coordination Sequence:
#
# PCOD9093395 Si02
#       8
#     2   2   1   2   2   2   2   2
#     4  10  20  32  59  95 136 171 224 266 328 391
#     4  11  20  36  64  96 136 173 220 272 329 390
#     4  12  18  32  58 100 132 170 224 274 322 384
#     4  11  20  38  61  98 135 173 220 268 330 400
#     4  12  24  42  70 100 131 170 226 279 323 392
#     4  11  24  39  64  99 136 173 215 279 334 391
#     4  10  20  40  64  89 130 184 215 266 327 403
#     4  11  25  46  68  94 134 181 223 267 339 400
#
# _framework density 23.336722000000002
#
# number of rings (size 3 to 8) (size 9 to 14) (size 15 to 20)
#    0.000    1.067    6.667    1.600    0.000    1.067 
#    0.000    1.333    2.933    0.000    0.000    0.000 
#    0.000    0.000    0.000    0.000    0.000    0.000 
#
# Total GULP energy -83650.490637 kJ/mol
# GULP energy per Si atom -5576.699376 kJ/mol
# Density = 2.328361 g / cm^3
# Si number density = 23.336722 Si / 1000 Ang^3
#
#
#
# Elastic Constant Matrix: (Units=GPa)
#
#
# Indices 1 2 3 4 5 6 
#
# 1 50.4749 6.7149 22.6338 2.9760 -15.8898 3.9190
# 2 6.7149 122.9893 21.2607 22.6245 -13.6802 0.1378
# 3 22.6338 21.2607 129.4617 22.3796 -37.3103 9.0215
# 4 2.9760 22.6245 22.3796 52.9760 -2.5732 0.1236
# 5 -15.8898 -13.6802 -37.3103 -2.5732 32.8487 1.7441
# 6 3.9190 0.1378 9.0215 0.1236 1.7441 15.8984
#
#
#
# Elastic Compliance Matrix: (Units=1/GPa)
#
#
# Indices 1 2 3 4 5 6 
#
# 1 0.024219 0.000182 -0.000216 -0.000754 0.011866 -0.007145
# 2 0.000182 0.009231 0.000349 -0.003901 0.004062 -0.000738
# 3 -0.000216 0.000349 0.013830 -0.005187 0.015847 -0.009496
# 4 -0.000754 -0.003901 -0.005187 0.022461 -0.006317 0.003682
# 5 0.011866 0.004062 0.015847 -0.006317 0.056339 -0.018084
# 6 -0.007145 -0.000738 -0.009496 0.003682 -0.018084 0.072011
#
#
# Mechanical properties :
#
#
# Convention : Reuss Voigt Hill
#
# Bulk Modulus (GPa) = 20.87313 44.90497 32.88905
# Shear Modulus (GPa) = 23.42658 37.16572 30.29615
#
# Velocity S-wave (km/s) = 3.17180 3.99505 3.60699
# Velocity P-wave (km/s) = 4.73048 6.36903 5.60990
#
# Compressibility (1/GPa) = 0.04790849
#
# Stress axis : x y z
#
# Youngs Moduli (GPa) = 41.28945 108.33335 72.30411
#
# Poissons Ratio (x) = -0.01967 0.01563
# Poissons Ratio (y) = -0.00750 -0.02521
# Poissons Ratio (z) = 0.00893 -0.03777
#
# Static dielectric constant tensor:
#      x y z
#    x 1.991200 -0.043090 0.003840 
#    y -0.043090 1.837620 0.000810 
#    z 0.003840 0.000810 1.909970 
# 
# From -- ./inp_files/190678.got.cif
#   From: 2010.05.17/outbox.cif.g08.bks.cpg/sg2_96_cif.got.tgz:190678.got - 2010.06.03 11:33:40.
