data_PCOD9093499
_publ_section_title
;
Structure prediction by ZEFSAII (Michael W. Deem and Ramdas Pophale) SiO2 
 PCOD9093499
Probable space group: P -1
;
_chemical_formula_sum "Si O2"
_cell_formula_units_Z 16
_cell_length_a 9.292675
_cell_length_b 12.585984
_cell_length_c 11.340467
_cell_angle_alpha 39.534890
_cell_angle_beta 105.195406
_cell_angle_gamma 92.476686
_cell_volume 787.024777
_symmetry_space_group_name_H-M "P -1"
_symmetry_group_IT_number 2
_symmetry_cell_setting 'triclinic'
loop_
_space_group_symop_operation_xyz
x,y,z
-x,-y,-z
loop_
_atom_site_type_symbol
_atom_site_label
_atom_site_fract_x
_atom_site_fract_y
_atom_site_fract_z
Si Si1 0.357728 0.417233 0.045354
Si Si2 0.740513 0.012964 0.482072
Si Si3 0.986123 0.888481 0.267175
Si Si4 0.563135 0.973829 0.697562
Si Si5 0.131446 0.487147 0.139622
Si Si6 0.908900 0.468736 0.297575
Si Si7 0.818194 0.869181 0.019362
Si Si8 0.074678 0.854592 0.765042
O O1 0.288153 0.417275 0.161405
O O2 0.225402 0.512919 0.843809
O O3 0.500000 0.500000 0.000000
O O4 0.406537 0.220771 0.179679
O O5 0.654694 0.061728 0.546917
O O6 0.901132 0.873401 0.664634
O O7 0.619436 0.956412 0.418646
O O8 0.805034 0.155268 0.306286
O O9 0.083017 0.690264 0.476469
O O10 0.932365 0.975069 0.307163
O O11 0.848738 0.889668 0.145852
O O12 0.082506 0.016271 0.124417
O O13 0.646514 0.948832 0.862519
O O14 0.125169 0.685749 0.998002
O O15 0.070536 0.417634 0.303300
O O16 0.000000 0.500000 0.000000
O O17 0.876679 0.663772 0.176614
#
# Coordination Sequence:
#
# PCOD9093499 Si02
#       8
#     2   2   2   2   2   2   2   2
#     4  10  21  32  52  82 118 152 178 225 292 346
#     4  10  21  31  57  80 117 142 182 228 291 337
#     4  11  22  35  63  81 112 151 196 237 278 331
#     4  10  20  37  53  82 117 149 183 237 278 346
#     4  10  20  33  51  80 121 145 176 233 281 335
#     4  10  21  36  57  84 111 146 194 234 280 330
#     4  10  21  41  55  86 112 149 195 241 276 331
#     4  11  21  35  54  90 113 144 190 232 276 348
#
# _framework density 20.329729
#
# number of rings (size 3 to 8) (size 9 to 14) (size 15 to 20)
#    0.000    1.750    2.500    2.625   10.500    0.000 
#    0.000    0.625    0.000    0.000    0.000    3.500 
#    0.000    0.000    0.000    0.000    0.000    0.000 
#
# Total GULP energy -89231.167321 kJ/mol
# GULP energy per Si atom -5576.947958 kJ/mol
# Density = 2.028346 g / cm^3
# Si number density = 20.329729 Si / 1000 Ang^3
#
#
#
# Elastic Constant Matrix: (Units=GPa)
#
#
# Indices 1 2 3 4 5 6 
#
# 1 109.1143 29.4336 20.6002 4.2266 5.7087 12.8328
# 2 29.4336 89.0807 42.2148 2.5189 11.4039 15.8059
# 3 20.6002 42.2148 102.4664 -4.6361 8.3937 10.7398
# 4 4.2266 2.5189 -4.6361 33.5830 15.6828 1.3890
# 5 5.7087 11.4039 8.3937 15.6828 25.7381 5.1684
# 6 12.8328 15.8059 10.7398 1.3890 5.1684 15.0032
#
#
#
# Elastic Compliance Matrix: (Units=1/GPa)
#
#
# Indices 1 2 3 4 5 6 
#
# 1 0.010647 -0.002087 -0.000743 -0.001501 0.001045 -0.006598
# 2 -0.002087 0.016662 -0.005003 0.000293 -0.003238 -0.011099
# 3 -0.000743 -0.005003 0.012703 0.004090 -0.003800 -0.002256
# 4 -0.001501 0.000293 0.004090 0.043661 -0.028502 0.003823
# 5 0.001045 -0.003238 -0.003800 -0.028502 0.061323 -0.013248
# 6 -0.006598 -0.011099 -0.002256 0.003823 -0.013248 0.089813
#
#
# Mechanical properties :
#
#
# Convention : Reuss Voigt Hill
#
# Bulk Modulus (GPa) = 41.07349 53.90650 47.49000
# Shear Modulus (GPa) = 19.33572 28.75903 24.04738
#
# Velocity S-wave (km/s) = 3.08735 3.76524 3.44302
# Velocity P-wave (km/s) = 5.74077 6.74361 6.26230
#
# Compressibility (1/GPa) = 0.02434660
#
# Stress axis : x y z
#
# Youngs Moduli (GPa) = 93.92089 60.01802 78.72317
#
# Poissons Ratio (x) = 0.12523 0.05848
# Poissons Ratio (y) = 0.19597 0.39386
# Poissons Ratio (z) = 0.06977 0.30027
#
# Static dielectric constant tensor:
#      x y z
#    x 1.764920 0.006150 -0.001330 
#    y 0.006150 1.737860 -0.042790 
#    z -0.001330 -0.042790 1.789050 
# 
# From -- ./inp_files/396962.got.cif
#   From: 2010.05.17/outbox.cif.g08.bks.cpg/sg2_199_cif.got.tgz:396962.got - 2010.06.03 11:33:40.
