data_PCOD9093169
_publ_section_title
;
Structure prediction by ZEFSAII (Michael W. Deem and Ramdas Pophale) SiO2 
 PCOD9093169
Probable space group: P -1
;
_chemical_formula_sum "Si O2"
_cell_formula_units_Z 16
_cell_length_a 7.375792
_cell_length_b 7.798434
_cell_length_c 12.644300
_cell_angle_alpha 98.848265
_cell_angle_beta 126.563631
_cell_angle_gamma 88.534374
_cell_volume 575.205886
_symmetry_space_group_name_H-M "P -1"
_symmetry_group_IT_number 2
_symmetry_cell_setting 'triclinic'
loop_
_space_group_symop_operation_xyz
x,y,z
-x,-y,-z
loop_
_atom_site_type_symbol
_atom_site_label
_atom_site_fract_x
_atom_site_fract_y
_atom_site_fract_z
Si Si1 0.534519 0.036674 0.173193
Si Si2 0.993361 0.493677 0.823513
Si Si3 0.328405 0.397221 0.087926
Si Si4 0.580750 0.296504 0.579054
Si Si5 0.746369 0.930731 0.666181
Si Si6 0.831826 0.126330 0.087812
Si Si7 0.735584 0.565823 0.339782
Si Si8 0.062371 0.801295 0.576359
O O1 0.415425 0.214334 0.131494
O O2 0.697927 0.026904 0.127330
O O3 0.709275 0.069034 0.333609
O O4 0.327676 0.891955 0.071796
O O5 0.125585 0.671785 0.850850
O O6 0.834450 0.544107 0.870325
O O7 0.819601 0.409385 0.669541
O O8 0.178921 0.380711 0.929054
O O9 0.548446 0.535952 0.180323
O O10 0.446315 0.230662 0.421127
O O11 0.412575 0.397636 0.603479
O O12 0.641929 0.114214 0.635702
O O13 0.915913 0.934283 0.824422
O O14 0.896827 0.885667 0.611081
O O15 0.854223 0.385644 0.375391
O O16 0.914367 0.735620 0.417429
#
# Coordination Sequence:
#
# PCOD9093169 Si02
#       8
#     2   2   2   2   2   2   2   2
#     4   9  18  33  50  70  98 131 167 206 252 300
#     4  10  20  32  49  74 101 131 169 210 249 295
#     4   9  18  33  50  70  98 131 167 206 252 300
#     4   9  17  30  49  73 101 131 162 202 253 302
#     4   9  17  30  49  73 101 131 162 202 253 302
#     4  10  20  32  49  74 101 131 169 210 249 295
#     4   8  14  27  49  72  93 124 164 202 243 293
#     4   8  14  27  49  72  93 124 164 202 243 293
#
# _framework density 27.816127000000002
#
# number of rings (size 3 to 8) (size 9 to 14) (size 15 to 20)
#    0.000    3.000    0.000    0.750    0.000    1.500 
#    0.000    0.000    0.000    0.750    0.000    0.000 
#    0.000    0.000    0.000    0.000    0.000    0.000 
#
# Total GULP energy -89472.453149 kJ/mol
# GULP energy per Si atom -5592.028322 kJ/mol
# Density = 2.775282 g / cm^3
# Si number density = 27.816127 Si / 1000 Ang^3
#
#
#
# Elastic Constant Matrix: (Units=GPa)
#
#
# Indices 1 2 3 4 5 6 
#
# 1 115.4035 27.8307 50.4647 7.6627 -24.9849 -32.7024
# 2 27.8307 138.3639 48.6748 -7.7573 15.4952 -19.7454
# 3 50.4647 48.6748 190.3324 45.6774 73.6682 17.2526
# 4 7.6627 -7.7573 45.6774 47.3723 0.8764 13.2167
# 5 -24.9849 15.4952 73.6682 0.8764 12.5924 5.9197
# 6 -32.7024 -19.7454 17.2526 13.2167 5.9197 29.5692
#
#
#
# Elastic Compliance Matrix: (Units=1/GPa)
#
#
# Indices 1 2 3 4 5 6 
#
# 1 0.008140 -0.000176 0.004240 -0.008849 -0.014012 0.013172
# 2 -0.000176 0.009529 -0.002070 0.001593 -0.003542 0.007373
# 3 0.004240 -0.002070 -0.000608 -0.001072 0.013958 0.001346
# 4 -0.008849 0.001593 -0.001072 0.029564 -0.005833 -0.020144
# 5 -0.014012 -0.003542 0.013958 -0.005833 -0.015767 -0.020242
# 6 0.013172 0.007373 0.001346 -0.020144 -0.020242 0.065581
#
#
# Mechanical properties :
#
#
# Convention : Reuss Voigt Hill
#
# Bulk Modulus (GPa) = 47.50846 77.56003 62.53425
# Shear Modulus (GPa) = 50.26694 39.04874 44.65784
#
# Velocity S-wave (km/s) = 4.25563 3.75082 4.01117
# Velocity P-wave (km/s) = 6.42368 6.83387 6.63195
#
# Compressibility (1/GPa) = 0.02104888
#
# Stress axis : x y z
#
# Youngs Moduli (GPa) = 122.84461 104.94120 -1644.70725
#
# Poissons Ratio (x) = 0.01848 6.97325
# Poissons Ratio (y) = 0.02163 -3.40462
# Poissons Ratio (z) = -0.52084 0.21723
#
# Static dielectric constant tensor:
#      x y z
#    x 2.135750 0.004090 0.043120 
#    y 0.004090 2.093980 0.010010 
#    z 0.043120 0.010010 2.255220 
# 
# From -- ./inp_files/254261.got.cif
#   From: 2010.05.17/outbox.cif.g08.bks.cpg/sg2_128_cif.got.tgz:254261.got - 2010.06.03 11:33:40.
