data_PCOD9093912
_publ_section_title
;
Structure prediction by ZEFSAII (Michael W. Deem and Ramdas Pophale) SiO2 
 PCOD9093912
Probable space group: P -1
;
_chemical_formula_sum "Si O2"
_cell_formula_units_Z 14
_cell_length_a 12.432977
_cell_length_b 5.521686
_cell_length_c 12.035333
_cell_angle_alpha 87.772673
_cell_angle_beta 45.263254
_cell_angle_gamma 77.018121
_cell_volume 563.364273
_symmetry_space_group_name_H-M "P -1"
_symmetry_group_IT_number 2
_symmetry_cell_setting 'triclinic'
loop_
_space_group_symop_operation_xyz
x,y,z
-x,-y,-z
loop_
_atom_site_type_symbol
_atom_site_label
_atom_site_fract_x
_atom_site_fract_y
_atom_site_fract_z
Si Si1 0.380351 0.257879 0.046871
Si Si2 0.192848 0.437773 0.563237
Si Si3 0.544432 0.610171 0.793760
Si Si4 0.974632 0.981352 0.386573
Si Si5 0.180230 0.876166 0.028962
Si Si6 0.794021 0.649467 0.046755
Si Si7 0.591100 0.711902 0.401458
O O1 0.329977 0.358532 0.204347
O O2 0.492516 0.387408 0.894054
O O3 0.243640 0.290434 0.058435
O O4 0.500000 0.000000 0.000000
O O5 0.362183 0.415647 0.385445
O O6 0.124783 0.219606 0.564265
O O7 0.239508 0.371648 0.657898
O O8 0.100386 0.728888 0.604135
O O9 0.372551 0.805485 0.895350
O O10 0.000000 0.000000 0.500000
O O11 0.123044 0.880222 0.197932
O O12 0.136033 0.648213 0.002558
O O13 0.120100 0.135508 0.000459
O O14 0.640103 0.704054 0.236423
O O15 0.500000 0.500000 0.500000
O O16 0.500000 0.000000 0.500000
#
# Coordination Sequence:
#
# PCOD9093912 Si02
#       7
#     2   2   2   2   2   2   2
#     4  10  20  33  61 100 141 166 233 296 372 414
#     4  12  28  48  76 108 152 199 247 306 384 437
#     4  10  23  37  68 104 134 180 244 301 362 438
#     4  12  30  50  72 108 159 200 243 304 387 456
#     4  11  24  46  68 105 143 189 244 303 364 442
#     4  11  23  40  69 100 139 188 240 299 361 435
#     4  12  25  47  75 114 154 190 250 318 374 435
#
# _framework density 24.850707
#
# number of rings (size 3 to 8) (size 9 to 14) (size 15 to 20)
#    0.000    0.857    1.429    5.571   10.000    0.000 
#    0.000    4.286    0.000    0.000    0.000    0.000 
#    0.000    0.000    0.000    0.000    0.000    0.000 
#
# Total GULP energy -78075.443812 kJ/mol
# GULP energy per Si atom -5576.817415 kJ/mol
# Density = 2.479415 g / cm^3
# Si number density = 24.850707 Si / 1000 Ang^3
#
#
#
# Elastic Constant Matrix: (Units=GPa)
#
#
# Indices 1 2 3 4 5 6 
#
# 1 95.3834 50.1550 10.3241 3.7255 17.6017 -8.2027
# 2 50.1550 196.6387 22.5552 -1.3323 10.6417 20.5252
# 3 10.3241 22.5552 142.6237 5.7666 1.2502 7.0736
# 4 3.7255 -1.3323 5.7666 38.1284 0.9602 -2.7791
# 5 17.6017 10.6417 1.2502 0.9602 28.4044 -2.0633
# 6 -8.2027 20.5252 7.0736 -2.7791 -2.0633 37.6051
#
#
#
# Elastic Compliance Matrix: (Units=1/GPa)
#
#
# Indices 1 2 3 4 5 6 
#
# 1 0.014229 -0.003686 -0.000586 -0.000906 -0.007034 0.004773
# 2 -0.003686 0.006566 -0.000570 0.000376 -0.000474 -0.004279
# 3 -0.000586 -0.000570 0.007251 -0.001156 0.000205 -0.001255
# 4 -0.000906 0.000376 -0.001156 0.026640 -0.000301 0.001767
# 5 -0.007034 -0.000474 0.000205 -0.000301 0.039805 0.000848
# 6 0.004773 -0.004279 -0.001255 0.001767 0.000848 0.030382
#
#
# Mechanical properties :
#
#
# Convention : Reuss Voigt Hill
#
# Bulk Modulus (GPa) = 54.45820 66.74607 60.60214
# Shear Modulus (GPa) = 35.54234 44.26834 39.90534
#
# Velocity S-wave (km/s) = 3.78595 4.22521 4.01159
# Velocity P-wave (km/s) = 6.40882 7.12182 6.77470
#
# Compressibility (1/GPa) = 0.01836271
#
# Stress axis : x y z
#
# Youngs Moduli (GPa) = 70.27766 152.30372 137.90808
#
# Poissons Ratio (x) = 0.56137 0.08075
# Poissons Ratio (y) = 0.25903 0.07866
# Poissons Ratio (z) = 0.04115 0.08687
#
# Static dielectric constant tensor:
#      x y z
#    x 2.171280 0.024210 0.054380 
#    y 0.024210 2.036130 0.111120 
#    z 0.054380 0.111120 1.965020 
# 
# From -- ./inp_files/441800.got.cif
#   From: 2010.05.17/outbox.cif.g08.bks.cpg/sg2_221_cif.got.tgz:441800.got - 2010.06.03 11:33:40.
