data_PCOD9093136
_publ_section_title
;
Structure prediction by ZEFSAII (Michael W. Deem and Ramdas Pophale) SiO2 
 PCOD9093136
Probable space group: P -1
;
_chemical_formula_sum "Si O2"
_cell_formula_units_Z 16
_cell_length_a 14.064317
_cell_length_b 21.224503
_cell_length_c 13.191344
_cell_angle_alpha 36.561761
_cell_angle_beta 21.419957
_cell_angle_gamma 35.713662
_cell_volume 818.475139
_symmetry_space_group_name_H-M "P -1"
_symmetry_group_IT_number 2
_symmetry_cell_setting 'triclinic'
loop_
_space_group_symop_operation_xyz
x,y,z
-x,-y,-z
loop_
_atom_site_type_symbol
_atom_site_label
_atom_site_fract_x
_atom_site_fract_y
_atom_site_fract_z
Si Si1 0.979360 0.966878 0.946734
Si Si2 0.351259 0.110165 0.070902
Si Si3 0.875306 0.059862 0.730572
Si Si4 0.544232 0.333402 0.065096
Si Si5 0.521140 0.685589 0.602778
Si Si6 0.922769 0.803657 0.966452
Si Si7 0.960020 0.464956 0.468390
Si Si8 0.533966 0.889452 0.542494
O O1 0.840611 0.062950 0.882476
O O2 0.290720 0.921540 0.661570
O O3 0.826759 0.873320 0.223493
O O4 0.000000 0.000000 0.000000
O O5 0.139369 0.087014 0.391108
O O6 0.175584 0.196073 0.052736
O O7 0.604462 0.132004 0.849553
O O8 0.500000 0.000000 0.000000
O O9 0.917116 0.929847 0.832468
O O10 0.523206 0.329594 0.213772
O O11 0.516383 0.213718 0.216522
O O12 0.272187 0.422559 0.177232
O O13 0.815112 0.367653 0.731232
O O14 0.225331 0.725077 0.792880
O O15 0.739519 0.569697 0.502645
O O16 0.690747 0.771126 0.301749
O O17 0.000000 0.500000 0.500000
O O18 0.500000 0.000000 0.500000
#
# Coordination Sequence:
#
# PCOD9093136 Si02
#       8
#     2   2   2   2   2   2   2   2
#     4  10  20  33  49  72  99 130 165 205 246 294
#     4  10  20  32  45  66  94 128 170 211 242 290
#     4  11  19  32  48  66  95 134 170 201 247 299
#     4  11  19  32  48  66  95 134 170 201 247 299
#     4  11  19  29  45  66  92 126 168 207 238 281
#     4  11  19  29  45  66  92 126 168 207 238 281
#     4  10  20  32  45  66  94 128 170 211 242 290
#     4  10  20  33  49  72  99 130 165 205 246 294
#
# _framework density 19.548548
#
# number of rings (size 3 to 8) (size 9 to 14) (size 15 to 20)
#    0.000    1.500    0.000   10.500    0.000    0.000 
#    0.000    0.000    0.000    0.000    0.000    0.000 
#    0.000    0.000    0.000  315.000    0.000   35.000 
#
# Total GULP energy -89151.936583 kJ/mol
# GULP energy per Si atom -5571.996036 kJ/mol
# Density = 1.950405 g / cm^3
# Si number density = 19.548548 Si / 1000 Ang^3
#
#
#
# Elastic Constant Matrix: (Units=GPa)
#
#
# Indices 1 2 3 4 5 6 
#
# 1 82.5789 30.7015 19.4486 15.9170 -4.9787 -20.3671
# 2 30.7015 72.5736 9.2352 14.0448 -15.6738 -22.1617
# 3 19.4486 9.2352 120.6010 15.8061 -25.5205 -6.8443
# 4 15.9170 14.0448 15.8061 28.1707 -11.4422 -16.1525
# 5 -4.9787 -15.6738 -25.5205 -11.4422 28.3907 5.4098
# 6 -20.3671 -22.1617 -6.8443 -16.1525 5.4098 28.7886
#
#
#
# Elastic Compliance Matrix: (Units=1/GPa)
#
#
# Indices 1 2 3 4 5 6 
#
# 1 0.016523 -0.005195 -0.002445 -0.004071 -0.004904 0.005746
# 2 -0.005195 0.021588 0.001949 0.003280 0.011591 0.013069
# 3 -0.002445 0.001949 0.010818 -0.002122 0.009642 -0.000660
# 4 -0.004071 0.003280 -0.002122 0.062492 0.018521 0.030723
# 5 -0.004904 0.011591 0.009642 0.018521 0.055423 0.007723
# 6 0.005746 0.013069 -0.000660 0.030723 0.007723 0.064492
#
#
# Mechanical properties :
#
#
# Convention : Reuss Voigt Hill
#
# Bulk Modulus (GPa) = 26.63280 43.83601 35.23441
# Shear Modulus (GPa) = 19.58984 31.49453 25.54218
#
# Velocity S-wave (km/s) = 3.16905 4.01820 3.61862
# Velocity P-wave (km/s) = 5.20039 6.63330 5.96006
#
# Compressibility (1/GPa) = 0.03754768
#
# Stress axis : x y z
#
# Youngs Moduli (GPa) = 60.52060 46.32112 92.43965
#
# Poissons Ratio (x) = 0.24066 0.22600
# Poissons Ratio (y) = 0.31443 -0.18019
# Poissons Ratio (z) = 0.14796 -0.09029
#
# Static dielectric constant tensor:
#      x y z
#    x 1.815970 0.084760 0.058890 
#    y 0.084760 1.895540 0.110570 
#    z 0.058890 0.110570 1.817730 
# 
# From -- ./inp_files/533548.got.cif
#   From: 2010.05.17/outbox.cif.g08.bks.cpg/sg2_267_cif.got.tgz:533548.got - 2010.06.03 11:33:40.
