data_PCOD9093123
_publ_section_title
;
Structure prediction by ZEFSAII (Michael W. Deem and Ramdas Pophale) SiO2 
 PCOD9093123
Probable space group: P -1
;
_chemical_formula_sum "Si O2"
_cell_formula_units_Z 14
_cell_length_a 10.446543
_cell_length_b 5.581220
_cell_length_c 11.774556
_cell_angle_alpha 98.761164
_cell_angle_beta 106.979099
_cell_angle_gamma 57.390502
_cell_volume 553.072109
_symmetry_space_group_name_H-M "P -1"
_symmetry_group_IT_number 2
_symmetry_cell_setting 'triclinic'
loop_
_space_group_symop_operation_xyz
x,y,z
-x,-y,-z
loop_
_atom_site_type_symbol
_atom_site_label
_atom_site_fract_x
_atom_site_fract_y
_atom_site_fract_z
Si Si1 0.519356 0.669804 0.281924
Si Si2 0.191298 0.954012 0.108182
Si Si3 0.011777 0.788024 0.650165
Si Si4 0.197647 0.439657 0.085856
Si Si5 0.458819 0.245596 0.333140
Si Si6 0.163574 0.562119 0.433581
Si Si7 0.733882 0.409845 0.107052
O O1 0.553015 0.404107 0.348888
O O2 0.593344 0.555278 0.169513
O O3 0.558508 0.906117 0.346923
O O4 0.329809 0.850591 0.228554
O O5 0.266878 0.817586 0.994991
O O6 0.108452 0.779319 0.101268
O O7 0.110188 0.287065 0.096442
O O8 0.913959 0.629838 0.624139
O O9 0.128925 0.639211 0.562928
O O10 0.114669 0.725624 0.783903
O O11 0.915602 0.125798 0.623949
O O12 0.352743 0.313460 0.196265
O O13 0.256494 0.382991 0.967563
O O14 0.337213 0.384474 0.414153
#
# Coordination Sequence:
#
# PCOD9093123 Si02
#       7
#     2   2   2   2   2   2   2
#     4  10  20  31  57  84 116 149 169 216 275 332
#     4   8  17  29  48  76 114 146 172 207 256 327
#     4  10  23  39  65  78 101 143 191 237 266 313
#     4   8  18  29  51  77 110 147 172 213 262 318
#     4  10  20  36  56  79 113 150 179 213 274 335
#     4  10  22  44  59  78 102 147 192 228 272 318
#     4  10  21  33  56  87 114 137 188 221 269 319
#
# _framework density 25.313158000000001
#
# number of rings (size 3 to 8) (size 9 to 14) (size 15 to 20)
#    0.857    1.714    0.000    1.286    4.000    1.143 
#    0.000    2.857    0.000    0.000    0.000    0.000 
#    0.000    0.000    0.000    0.000    0.000    0.000 
#
# Total GULP energy -78227.270866 kJ/mol
# GULP energy per Si atom -5587.662205 kJ/mol
# Density = 2.525554 g / cm^3
# Si number density = 25.313158 Si / 1000 Ang^3
#
#
#
# Elastic Constant Matrix: (Units=GPa)
#
#
# Indices 1 2 3 4 5 6 
#
# 1 106.8976 63.8529 28.3198 7.2695 -22.3718 29.9266
# 2 63.8529 191.2836 30.1564 1.2112 -13.0256 58.0069
# 3 28.3198 30.1564 121.5495 -2.0560 -24.5085 -0.6643
# 4 7.2695 1.2112 -2.0560 27.8887 -10.2216 -10.4775
# 5 -22.3718 -13.0256 -24.5085 -10.2216 46.3008 7.2617
# 6 29.9266 58.0069 -0.6643 -10.4775 7.2617 53.8620
#
#
#
# Elastic Compliance Matrix: (Units=1/GPa)
#
#
# Indices 1 2 3 4 5 6 
#
# 1 0.014693 -0.001739 -0.001952 -0.004797 0.005777 -0.008027
# 2 -0.001739 0.009159 -0.001626 -0.003097 0.001722 -0.009752
# 3 -0.001952 -0.001626 0.010043 0.004096 0.004322 0.003173
# 4 -0.004797 -0.003097 0.004096 0.045269 0.006787 0.013942
# 5 0.005777 0.001722 0.004322 0.006787 0.029870 -0.007717
# 6 -0.008027 -0.009752 0.003173 0.013942 -0.007717 0.037320
#
#
# Mechanical properties :
#
#
# Convention : Reuss Voigt Hill
#
# Bulk Modulus (GPa) = 42.98941 73.82099 58.40520
# Shear Modulus (GPa) = 30.35067 45.43709 37.89388
#
# Velocity S-wave (km/s) = 3.46643 4.24134 3.87331
# Velocity P-wave (km/s) = 5.74816 7.29463 6.56708
#
# Compressibility (1/GPa) = 0.02326154
#
# Stress axis : x y z
#
# Youngs Moduli (GPa) = 68.05957 109.18496 99.56780
#
# Poissons Ratio (x) = 0.18989 0.19436
# Poissons Ratio (y) = 0.11836 0.16186
# Poissons Ratio (z) = 0.13286 0.17750
#
# Static dielectric constant tensor:
#      x y z
#    x 1.986400 0.016880 0.038080 
#    y 0.016880 2.017420 -0.010250 
#    z 0.038080 -0.010250 1.999480 
# 
# From -- ./inp_files/93345.got.cif
#   From: 2010.05.17/outbox.cif.g08.bks.cpg/sg2_47_cif.got.tgz:93345.got - 2010.06.03 11:33:40.
