data_PCOD9093914
_publ_section_title
;
Structure prediction by ZEFSAII (Michael W. Deem and Ramdas Pophale) SiO2 
 PCOD9093914
Probable space group: P -1
;
_chemical_formula_sum "Si O2"
_cell_formula_units_Z 16
_cell_length_a 13.983124
_cell_length_b 14.411623
_cell_length_c 7.562660
_cell_angle_alpha 88.026265
_cell_angle_beta 73.252602
_cell_angle_gamma 30.045432
_cell_volume 653.111986
_symmetry_space_group_name_H-M "P -1"
_symmetry_group_IT_number 2
_symmetry_cell_setting 'triclinic'
loop_
_space_group_symop_operation_xyz
x,y,z
-x,-y,-z
loop_
_atom_site_type_symbol
_atom_site_label
_atom_site_fract_x
_atom_site_fract_y
_atom_site_fract_z
Si Si1 0.095036 0.470369 0.619614
Si Si2 0.159596 0.998649 0.299286
Si Si3 0.321635 0.153703 0.747398
Si Si4 0.404219 0.269858 0.896849
Si Si5 0.720790 0.290248 0.642972
Si Si6 0.446786 0.852032 0.773857
Si Si7 0.102122 0.642738 0.784477
Si Si8 0.438435 0.670229 0.625487
O O1 0.104048 0.382487 0.765877
O O2 0.345677 0.294993 0.455793
O O3 0.989742 0.653038 0.728464
O O4 0.000000 0.500000 0.500000
O O5 0.357484 0.891352 0.291702
O O6 0.259525 0.812684 0.229662
O O7 0.948188 0.159713 0.529405
O O8 0.068807 0.129518 0.167641
O O9 0.389891 0.173848 0.854538
O O10 0.500000 0.000000 0.500000
O O11 0.298210 0.068541 0.832212
O O12 0.212386 0.495614 0.901141
O O13 0.437231 0.254592 0.089616
O O14 0.509111 0.533556 0.740397
O O15 0.707484 0.254083 0.455854
O O16 0.351602 0.835703 0.749611
O O17 0.326315 0.498352 0.582847
#
# Coordination Sequence:
#
# PCOD9093914 Si02
#       8
#     2   2   2   2   2   2   2   2
#     4   9  19  35  55  82 107 144 193 233 264 327
#     4  10  20  33  61  86 106 150 189 233 284 326
#     4   9  20  36  58  82 108 151 193 221 273 335
#     4  11  21  38  55  84 125 146 180 235 285 340
#     4   9  18  34  61  87 104 142 203 239 269 328
#     4  10  21  36  57  83 114 156 180 225 299 328
#     4   9  19  34  56  80 109 145 189 227 276 330
#     4   9  17  36  60  81 111 145 191 241 273 329
#
# _framework density 24.498096
#
# number of rings (size 3 to 8) (size 9 to 14) (size 15 to 20)
#    0.000    2.500    1.250    1.125    3.500    0.000 
#    2.250    2.500    0.000    0.000    0.000    0.000 
#    0.000    0.000    0.000    0.000    0.000    0.000 
#
# Total GULP energy -89285.893829 kJ/mol
# GULP energy per Si atom -5580.368364 kJ/mol
# Density = 2.444234 g / cm^3
# Si number density = 24.498096 Si / 1000 Ang^3
#
#
#
# Elastic Constant Matrix: (Units=GPa)
#
#
# Indices 1 2 3 4 5 6 
#
# 1 126.3532 58.9871 21.7094 -5.8574 6.7238 21.8587
# 2 58.9871 158.8410 30.6606 -22.0449 -1.5920 33.1752
# 3 21.7094 30.6606 58.1609 -1.3648 13.9926 16.8318
# 4 -5.8574 -22.0449 -1.3648 33.5212 5.8940 -9.1807
# 5 6.7238 -1.5920 13.9926 5.8940 20.8996 -4.4876
# 6 21.8587 33.1752 16.8318 -9.1807 -4.4876 49.1314
#
#
#
# Elastic Compliance Matrix: (Units=1/GPa)
#
#
# Indices 1 2 3 4 5 6 
#
# 1 0.010119 -0.003227 -0.000472 -0.000443 -0.003613 -0.002574
# 2 -0.003227 0.009327 -0.003358 0.004305 0.002201 -0.002706
# 3 -0.000472 -0.003358 0.026205 -0.000082 -0.019405 -0.008288
# 4 -0.000443 0.004305 -0.000082 0.034944 -0.008673 0.003056
# 5 -0.003613 0.002201 -0.019405 -0.008673 0.067036 0.011271
# 6 -0.002574 -0.002706 -0.008288 0.003056 0.011271 0.027766
#
#
# Mechanical properties :
#
#
# Convention : Reuss Voigt Hill
#
# Bulk Modulus (GPa) = 31.70828 62.89659 47.30243
# Shear Modulus (GPa) = 24.99716 36.17698 30.58707
#
# Velocity S-wave (km/s) = 3.19779 3.84699 3.53731
# Velocity P-wave (km/s) = 5.15808 6.74257 6.00283
#
# Compressibility (1/GPa) = 0.03153750
#
# Stress axis : x y z
#
# Youngs Moduli (GPa) = 98.82570 107.21862 38.16030
#
# Poissons Ratio (x) = 0.34595 0.01802
# Poissons Ratio (y) = 0.31887 0.12813
# Poissons Ratio (z) = 0.04667 0.36002
#
# Static dielectric constant tensor:
#      x y z
#    x 1.975040 0.034800 -0.052870 
#    y 0.034800 2.018210 0.017780 
#    z -0.052870 0.017780 2.011930 
# 
# From -- ./inp_files/311485.got.cif
#   From: 2010.05.17/outbox.cif.g08.bks.cpg/sg2_156_cif.got.tgz:311485.got - 2010.06.03 11:33:40.
