data_PCOD9093972
_publ_section_title
;
Structure prediction by ZEFSAII (Michael W. Deem and Ramdas Pophale) SiO2 
 PCOD9093972
Probable space group: P -1
;
_chemical_formula_sum "Si O2"
_cell_formula_units_Z 14
_cell_length_a 23.471968
_cell_length_b 15.113890
_cell_length_c 5.470087
_cell_angle_alpha 130.897277
_cell_angle_beta 120.505517
_cell_angle_gamma 22.893044
_cell_volume 539.667245
_symmetry_space_group_name_H-M "P -1"
_symmetry_group_IT_number 2
_symmetry_cell_setting 'triclinic'
loop_
_space_group_symop_operation_xyz
x,y,z
-x,-y,-z
loop_
_atom_site_type_symbol
_atom_site_label
_atom_site_fract_x
_atom_site_fract_y
_atom_site_fract_z
Si Si1 0.775434 0.657081 0.813669
Si Si2 0.361757 0.816433 0.742549
Si Si3 0.885219 0.573992 0.402530
Si Si4 0.823654 0.280969 0.714963
Si Si5 0.542382 0.290654 0.741676
Si Si6 0.911585 0.897392 0.300279
Si Si7 0.326729 0.413459 0.562480
O O1 0.802472 0.689162 0.688530
O O2 0.638159 0.782892 0.706622
O O3 0.779321 0.719993 0.194263
O O4 0.939986 0.322412 0.602466
O O5 0.500000 0.500000 0.500000
O O6 0.416623 0.808310 0.625454
O O7 0.197758 0.025825 0.684045
O O8 0.337240 0.898811 0.114678
O O9 0.000000 0.500000 0.500000
O O10 0.009026 0.268982 0.080049
O O11 0.796795 0.186348 0.521344
O O12 0.731503 0.481523 0.652809
O O13 0.786006 0.395196 0.101103
O O14 0.000000 0.000000 0.500000
O O15 0.428674 0.368949 0.726437
O O16 0.500000 0.500000 0.000000
#
# Coordination Sequence:
#
# PCOD9093972 Si02
#       7
#     2   2   2   2   2   2   2
#     4  10  22  36  57  87 111 144 189 225 294 339
#     4  10  20  34  48  74 108 150 186 219 253 316
#     4  10  22  40  59  84 112 138 184 243 298 337
#     4  12  21  31  49  79 117 151 180 211 275 339
#     4  10  20  34  49  70 107 156 192 212 248 307
#     4  10  23  33  58  80 117 144 193 226 275 335
#     4  12  22  36  52  80 120 157 183 225 266 337
#
# _framework density 25.94191
#
# number of rings (size 3 to 8) (size 9 to 14) (size 15 to 20)
#    0.857    0.571    1.429    6.857    4.000    0.000 
#    0.000    0.000    0.000    0.000    0.000    6.000 
#    0.000    0.000    0.000    0.000    0.000    0.000 
#
# Total GULP energy -78040.982224 kJ/mol
# GULP energy per Si atom -5574.355873 kJ/mol
# Density = 2.588287 g / cm^3
# Si number density = 25.941910 Si / 1000 Ang^3
#
#
#
# Elastic Constant Matrix: (Units=GPa)
#
#
# Indices 1 2 3 4 5 6 
#
# 1 150.0301 34.6205 52.7021 -23.3014 -18.6501 -8.1636
# 2 34.6205 61.9523 19.5364 -6.7200 -6.1837 -16.2629
# 3 52.7021 19.5364 179.2275 -7.6097 -28.6364 -1.9190
# 4 -23.3014 -6.7200 -7.6097 29.9382 -5.3591 -0.4068
# 5 -18.6501 -6.1837 -28.6364 -5.3591 54.7607 -7.6607
# 6 -8.1636 -16.2629 -1.9190 -0.4068 -7.6607 50.8493
#
#
#
# Elastic Compliance Matrix: (Units=1/GPa)
#
#
# Indices 1 2 3 4 5 6 
#
# 1 0.009494 -0.003580 -0.001677 0.006655 0.002712 0.000778
# 2 -0.003580 0.020396 -0.000738 0.002004 0.001762 0.006202
# 3 -0.001677 -0.000738 0.006654 0.000747 0.002925 0.000193
# 4 0.006655 0.002004 0.000747 0.040571 0.007296 0.003161
# 5 0.002712 0.001762 0.002925 0.007296 0.022260 0.004521
# 6 0.000778 0.006202 0.000193 0.003161 0.004521 0.022488
#
#
# Mechanical properties :
#
#
# Convention : Reuss Voigt Hill
#
# Bulk Modulus (GPa) = 40.72497 67.21422 53.96960
# Shear Modulus (GPa) = 35.20222 46.06635 40.63429
#
# Velocity S-wave (km/s) = 3.68769 4.21854 3.96202
# Velocity P-wave (km/s) = 5.81934 7.04938 6.46369
#
# Compressibility (1/GPa) = 0.02455496
#
# Stress axis : x y z
#
# Youngs Moduli (GPa) = 105.33397 49.02978 150.28025
#
# Poissons Ratio (x) = 0.17550 0.25205
# Poissons Ratio (y) = 0.37705 0.11085
# Poissons Ratio (z) = 0.17666 0.03616
#
# Static dielectric constant tensor:
#      x y z
#    x 2.162790 -0.018390 0.191340 
#    y -0.018390 2.099290 0.077510 
#    z 0.191340 0.077510 2.164610 
# 
# From -- ./inp_files/83824.got.cif
#   From: 2010.05.17/outbox.cif.g08.bks.cpg/sg2_42_cif.got.tgz:83824.got - 2010.06.03 11:33:40.
