data_PCOD9093728
_publ_section_title
;
Structure prediction by ZEFSAII (Michael W. Deem and Ramdas Pophale) SiO2 
 PCOD9093728
Probable space group: P -1
;
_chemical_formula_sum "Si O2"
_cell_formula_units_Z 16
_cell_length_a 16.142410
_cell_length_b 8.587889
_cell_length_c 11.623553
_cell_angle_alpha 73.112079
_cell_angle_beta 64.130292
_cell_angle_gamma 125.597326
_cell_volume 787.500580
_symmetry_space_group_name_H-M "P -1"
_symmetry_group_IT_number 2
_symmetry_cell_setting 'triclinic'
loop_
_space_group_symop_operation_xyz
x,y,z
-x,-y,-z
loop_
_atom_site_type_symbol
_atom_site_label
_atom_site_fract_x
_atom_site_fract_y
_atom_site_fract_z
Si Si1 0.065736 0.430464 0.033542
Si Si2 0.375920 0.709296 0.212530
Si Si3 0.102105 0.135657 0.793367
Si Si4 0.449549 0.756574 0.422567
Si Si5 0.060220 0.666459 0.655832
Si Si6 0.838227 0.873512 0.637643
Si Si7 0.031871 0.309251 0.612023
Si Si8 0.684907 0.145988 0.377631
O O1 0.209731 0.586635 0.829129
O O2 0.000000 0.500000 0.000000
O O3 0.093859 0.515626 0.130950
O O4 0.943299 0.102993 0.182128
O O5 0.452658 0.772986 0.278117
O O6 0.314277 0.461127 0.230513
O O7 0.201605 0.541434 0.386946
O O8 0.500000 0.000000 0.000000
O O9 0.294062 0.426534 0.623501
O O10 0.058033 0.224865 0.720749
O O11 0.000000 0.000000 0.000000
O O12 0.418815 0.894024 0.464128
O O13 0.594232 0.909052 0.385467
O O14 0.014548 0.467606 0.631474
O O15 0.194909 0.778892 0.630786
O O16 0.139580 0.943916 0.500181
O O17 0.000000 0.000000 0.500000
O O18 0.871646 0.007990 0.710725
#
# Coordination Sequence:
#
# PCOD9093728 Si02
#       8
#     2   2   2   2   2   2   2   2
#     4  10  20  33  56  89 120 157 201 245 300 356
#     4  10  21  40  61  86 120 162 206 251 299 365
#     4  11  18  36  60  90 122 159 203 250 301 361
#     4  10  20  37  60  89 123 156 204 238 307 364
#     4  11  19  38  61  89 128 154 201 265 303 359
#     4  10  22  39  61  87 112 160 208 253 308 360
#     4  10  21  38  60  88 121 157 205 253 310 351
#     4  10  20  36  59  91 122 163 192 245 306 365
#
# _framework density 20.317447000000001
#
# number of rings (size 3 to 8) (size 9 to 14) (size 15 to 20)
#    0.000    1.750    3.750    3.375    0.000    3.000 
#    0.000    6.250    0.000    4.500    0.000    0.000 
#    0.000    0.000    0.000    0.000    0.000    0.000 
#
# Total GULP energy -89070.322796 kJ/mol
# GULP energy per Si atom -5566.895175 kJ/mol
# Density = 2.027120 g / cm^3
# Si number density = 20.317447 Si / 1000 Ang^3
#
#
#
# Elastic Constant Matrix: (Units=GPa)
#
#
# Indices 1 2 3 4 5 6 
#
# 1 35.1258 33.1000 17.7577 -4.7314 9.6715 1.1091
# 2 33.1000 162.2971 59.9922 -15.4428 12.8345 10.4818
# 3 17.7577 59.9922 111.0734 -9.4898 26.3315 2.2723
# 4 -4.7314 -15.4428 -9.4898 31.3673 -5.1448 1.0804
# 5 9.6715 12.8345 26.3315 -5.1448 16.0965 -5.6381
# 6 1.1091 10.4818 2.2723 1.0804 -5.6381 38.0942
#
#
#
# Elastic Compliance Matrix: (Units=1/GPa)
#
#
# Indices 1 2 3 4 5 6 
#
# 1 0.040801 -0.007479 0.003651 -0.000547 -0.025803 -0.003151
# 2 -0.007479 0.009444 -0.004927 0.002980 0.005499 -0.001358
# 3 0.003651 -0.004927 0.018120 -0.001126 -0.029738 -0.004201
# 4 -0.000547 0.002980 -0.001126 0.034707 0.010847 -0.000116
# 5 -0.025803 0.005499 -0.029738 0.010847 0.132472 0.020311
# 6 -0.003151 -0.001358 -0.004201 -0.000116 0.020311 0.029976
#
#
# Mechanical properties :
#
#
# Convention : Reuss Voigt Hill
#
# Bulk Modulus (GPa) = 19.66311 58.91066 39.28688
# Shear Modulus (GPa) = 16.66769 30.28804 23.47786
#
# Velocity S-wave (km/s) = 2.86731 3.86520 3.40303
# Velocity P-wave (km/s) = 4.54542 6.99841 5.90079
#
# Compressibility (1/GPa) = 0.05085666
#
# Stress axis : x y z
#
# Youngs Moduli (GPa) = 24.50907 105.88451 55.18783
#
# Poissons Ratio (x) = 0.79190 -0.20150
# Poissons Ratio (y) = 0.18330 0.27189
# Poissons Ratio (z) = -0.08949 0.52166
#
# Static dielectric constant tensor:
#      x y z
#    x 1.824210 -0.085160 -0.063780 
#    y -0.085160 2.105340 0.056800 
#    z -0.063780 0.056800 1.751940 
# 
# From -- ./inp_files/328720.got.cif
#   From: 2010.05.17/outbox.cif.g08.bks.cpg/sg2_165_cif.got.tgz:328720.got - 2010.06.03 11:33:40.
