data_PCOD9093472
_publ_section_title
;
Structure prediction by ZEFSAII (Michael W. Deem and Ramdas Pophale) SiO2 
 PCOD9093472
Probable space group: P -1
;
_chemical_formula_sum "Si O2"
_cell_formula_units_Z 16
_cell_length_a 24.125569
_cell_length_b 22.571141
_cell_length_c 13.130864
_cell_angle_alpha 164.997118
_cell_angle_beta 158.561035
_cell_angle_gamma 17.901459
_cell_volume 562.816986
_symmetry_space_group_name_H-M "P -1"
_symmetry_group_IT_number 2
_symmetry_cell_setting 'triclinic'
loop_
_space_group_symop_operation_xyz
x,y,z
-x,-y,-z
loop_
_atom_site_type_symbol
_atom_site_label
_atom_site_fract_x
_atom_site_fract_y
_atom_site_fract_z
Si Si1 0.391278 0.781330 0.913867
Si Si2 0.711555 0.636082 0.521571
Si Si3 0.747930 0.473618 0.898979
Si Si4 0.651110 0.006286 0.402050
Si Si5 0.978766 0.271469 0.528208
Si Si6 0.528722 0.621529 0.472003
Si Si7 0.912436 0.593159 0.617600
Si Si8 0.849906 0.010476 0.451359
O O1 0.589810 0.698790 0.077077
O O2 0.350091 0.582806 0.450991
O O3 0.383412 0.692246 0.866982
O O4 0.239069 0.084794 0.124048
O O5 0.495458 0.867787 0.547061
O O6 0.794604 0.509647 0.342926
O O7 0.791722 0.417219 0.388041
O O8 0.820075 0.785377 0.978104
O O9 0.869769 0.183787 0.686947
O O10 0.894814 0.524023 0.189650
O O11 0.552731 0.272882 0.602655
O O12 0.862745 0.885338 0.545863
O O13 0.634185 0.767121 0.923499
O O14 0.012108 0.091174 0.386744
O O15 0.000000 0.500000 0.000000
O O16 0.349753 0.780475 0.499115
O O17 0.000000 0.500000 0.500000
#
# Coordination Sequence:
#
# PCOD9093472 Si02
#       8
#     2   2   2   2   2   2   2   2
#     4  10  21  37  64  89 113 151 197 252 306 348
#     4  10  20  33  50  79 114 152 196 230 288 353
#     4  10  21  38  62  88 113 148 196 257 303 347
#     4   9  17  30  49  83 126 143 170 242 297 355
#     4   9  17  27  51  84 115 147 175 230 304 350
#     4   8  15  28  52  86 116 140 175 227 307 354
#     4  12  27  41  55  82 122 166 206 242 288 353
#     4   8  15  31  52  86 113 133 181 242 300 347
#
# _framework density 28.428422999999999
#
# number of rings (size 3 to 8) (size 9 to 14) (size 15 to 20)
#    0.000    2.500    1.250    2.625    3.500    2.500 
#    0.000    0.000    0.000    3.000    0.000    5.250 
#    0.000    0.000    0.000    0.000    0.000    0.000 
#
# Total GULP energy -89433.324707 kJ/mol
# GULP energy per Si atom -5589.582794 kJ/mol
# Density = 2.836372 g / cm^3
# Si number density = 28.428423 Si / 1000 Ang^3
#
#
#
# Elastic Constant Matrix: (Units=GPa)
#
#
# Indices 1 2 3 4 5 6 
#
# 1 130.2103 59.3566 7.6127 12.5305 6.4371 -9.3007
# 2 59.3566 161.4044 25.6307 14.2265 -3.0675 -33.3304
# 3 7.6127 25.6307 64.3518 1.6291 -12.4313 -0.1371
# 4 12.5305 14.2265 1.6291 36.9850 8.0575 2.8964
# 5 6.4371 -3.0675 -12.4313 8.0575 36.5774 12.3166
# 6 -9.3007 -33.3304 -0.1371 2.8964 12.3166 64.5165
#
#
#
# Elastic Compliance Matrix: (Units=1/GPa)
#
#
# Indices 1 2 3 4 5 6 
#
# 1 0.009443 -0.003357 -0.000054 -0.001553 -0.001622 0.000006
# 2 -0.003357 0.009066 -0.003285 -0.002393 -0.000733 0.004440
# 3 -0.000054 -0.003285 0.018246 -0.000840 0.007127 -0.002989
# 4 -0.001553 -0.002393 -0.000840 0.030017 -0.006283 -0.001610
# 5 -0.001622 -0.000733 0.007127 -0.006283 0.033638 -0.006737
# 6 0.000006 0.004440 -0.002989 -0.001610 -0.006737 0.019147
#
#
# Mechanical properties :
#
#
# Convention : Reuss Voigt Hill
#
# Bulk Modulus (GPa) = 42.80338 60.12961 51.46650
# Shear Modulus (GPa) = 35.52739 45.17354 40.35046
#
# Velocity S-wave (km/s) = 3.53896 3.99058 3.77154
# Velocity P-wave (km/s) = 5.63811 6.51384 6.09173
#
# Compressibility (1/GPa) = 0.02336264
#
# Stress axis : x y z
#
# Youngs Moduli (GPa) = 105.89467 110.30635 54.80621
#
# Poissons Ratio (x) = 0.37028 0.00297
# Poissons Ratio (y) = 0.35547 0.18005
# Poissons Ratio (z) = 0.00573 0.36239
#
# Static dielectric constant tensor:
#      x y z
#    x 2.302790 0.068460 -0.033260 
#    y 0.068460 2.181720 -0.084780 
#    z -0.033260 -0.084780 2.379220 
# 
# From -- ./inp_files/543318.got.cif
#   From: 2010.05.17/outbox.cif.g08.bks.cpg/sg2_272_cif.got.tgz:543318.got - 2010.06.03 11:33:40.
