data_PCOD9093403
_publ_section_title
;
Structure prediction by ZEFSAII (Michael W. Deem and Ramdas Pophale) SiO2 
 PCOD9093403
Probable space group: P -1
;
_chemical_formula_sum "Si O2"
_cell_formula_units_Z 14
_cell_length_a 9.818016
_cell_length_b 15.441118
_cell_length_c 14.687423
_cell_angle_alpha 152.711270
_cell_angle_beta 136.634496
_cell_angle_gamma 37.455899
_cell_volume 618.982069
_symmetry_space_group_name_H-M "P -1"
_symmetry_group_IT_number 2
_symmetry_cell_setting 'triclinic'
loop_
_space_group_symop_operation_xyz
x,y,z
-x,-y,-z
loop_
_atom_site_type_symbol
_atom_site_label
_atom_site_fract_x
_atom_site_fract_y
_atom_site_fract_z
Si Si1 0.801848 0.672969 0.124898
Si Si2 0.167647 0.365913 0.536198
Si Si3 0.069824 0.531238 0.297230
Si Si4 0.533555 0.206870 0.243456
Si Si5 0.575721 0.929988 0.765421
Si Si6 0.069391 0.087697 0.934990
Si Si7 0.401941 0.622219 0.972627
O O1 0.922920 0.681903 0.285526
O O2 0.667492 0.871981 0.179583
O O3 0.601985 0.626167 0.017732
O O4 0.000000 0.500000 0.000000
O O5 0.029682 0.363806 0.555548
O O6 0.337940 0.150942 0.368577
O O7 0.303514 0.490136 0.746795
O O8 0.000000 0.500000 0.500000
O O9 0.338234 0.424944 0.310795
O O10 0.043971 0.309940 0.084763
O O11 0.469746 0.227718 0.338030
O O12 0.500000 0.000000 0.000000
O O13 0.790374 0.113555 0.250997
O O14 0.770111 0.958836 0.941027
O O15 0.816662 0.151664 0.900124
O O16 0.500000 0.500000 0.000000
#
# Coordination Sequence:
#
# PCOD9093403 Si02
#       7
#     2   2   2   2   2   2   2
#     4  12  23  38  59  90 127 153 194 254 309 344
#     4  11  18  39  63  87 118 160 206 241 288 366
#     4   9  17  32  56  81 114 157 194 228 299 346
#     4   8  14  29  55  83 105 151 205 233 271 357
#     4  10  20  32  60  91 115 159 196 247 300 344
#     4   9  16  33  56  83 111 151 208 233 277 356
#     4  11  22  38  62  90 116 161 202 243 293 364
#
# _framework density 22.617778000000001
#
# number of rings (size 3 to 8) (size 9 to 14) (size 15 to 20)
#    0.000    2.286    7.143    2.571    0.000    1.143 
#    0.000    0.714    0.000    0.857    0.000    0.000 
#    0.000    0.000    0.000    0.000    0.000    0.000 
#
# Total GULP energy -78074.931976 kJ/mol
# GULP energy per Si atom -5576.780855 kJ/mol
# Density = 2.256630 g / cm^3
# Si number density = 22.617778 Si / 1000 Ang^3
#
#
#
# Elastic Constant Matrix: (Units=GPa)
#
#
# Indices 1 2 3 4 5 6 
#
# 1 124.2124 31.3532 30.5085 -1.0304 -20.3613 -36.2907
# 2 31.3532 160.7688 25.2051 -13.6926 -14.1412 -27.4150
# 3 30.5085 25.2051 43.6179 -9.0906 -23.7605 -10.2754
# 4 -1.0304 -13.6926 -9.0906 39.1449 -5.3991 -17.1327
# 5 -20.3613 -14.1412 -23.7605 -5.3991 41.4840 9.0243
# 6 -36.2907 -27.4150 -10.2754 -17.1327 9.0243 50.2074
#
#
#
# Elastic Compliance Matrix: (Units=1/GPa)
#
#
# Indices 1 2 3 4 5 6 
#
# 1 0.012028 0.000349 -0.004910 0.003351 0.001752 0.008708
# 2 0.000349 0.007948 -0.001707 0.005088 0.001316 0.005742
# 3 -0.004910 -0.001707 0.044568 0.015324 0.023293 0.005682
# 4 0.003351 0.005088 0.015324 0.041618 0.013185 0.020168
# 5 0.001752 0.001316 0.023293 0.013185 0.039571 0.004139
# 6 0.008708 0.005742 0.005682 0.020168 0.004139 0.036648
#
#
# Mechanical properties :
#
#
# Convention : Reuss Voigt Hill
#
# Bulk Modulus (GPa) = 19.22806 55.85921 37.54364
# Shear Modulus (GPa) = 23.55664 42.26942 32.91303
#
# Velocity S-wave (km/s) = 3.23074 4.32772 3.81883
# Velocity P-wave (km/s) = 4.73674 7.05144 6.00664
#
# Compressibility (1/GPa) = 0.05200731
#
# Stress axis : x y z
#
# Youngs Moduli (GPa) = 83.13989 125.81893 22.43752
#
# Poissons Ratio (x) = -0.04386 0.11017
# Poissons Ratio (y) = -0.02898 0.03830
# Poissons Ratio (z) = 0.40823 0.21475
#
# Static dielectric constant tensor:
#      x y z
#    x 1.939790 -0.041510 0.036470 
#    y -0.041510 1.889790 0.041990 
#    z 0.036470 0.041990 1.938210 
# 
# From -- ./inp_files/523073.got.cif
#   From: 2010.05.17/outbox.cif.g08.bks.cpg/sg2_262_cif.got.tgz:523073.got - 2010.06.03 11:33:40.
