data_PCOD9093440
_publ_section_title
;
Structure prediction by ZEFSAII (Michael W. Deem and Ramdas Pophale) SiO2 
 PCOD9093440
Probable space group: P -1
;
_chemical_formula_sum "Si O2"
_cell_formula_units_Z 16
_cell_length_a 9.951713
_cell_length_b 5.050905
_cell_length_c 18.465916
_cell_angle_alpha 109.228033
_cell_angle_beta 97.650417
_cell_angle_gamma 109.162779
_cell_volume 796.995599
_symmetry_space_group_name_H-M "P -1"
_symmetry_group_IT_number 2
_symmetry_cell_setting 'triclinic'
loop_
_space_group_symop_operation_xyz
x,y,z
-x,-y,-z
loop_
_atom_site_type_symbol
_atom_site_label
_atom_site_fract_x
_atom_site_fract_y
_atom_site_fract_z
Si Si1 0.313818 0.945091 0.835879
Si Si2 0.519949 0.122558 0.674406
Si Si3 0.445453 0.290276 0.189467
Si Si4 0.863969 0.572796 0.020082
Si Si5 0.113643 0.253421 0.802088
Si Si6 0.224344 0.016520 0.275462
Si Si7 0.678714 0.892698 0.985405
Si Si8 0.524968 0.518345 0.588226
O O1 0.452199 0.896238 0.807932
O O2 0.196942 0.604012 0.816460
O O3 0.226831 0.087544 0.790810
O O4 0.361005 0.120265 0.933264
O O5 0.490013 0.369966 0.743227
O O6 0.478827 0.203760 0.599103
O O7 0.694996 0.201190 0.710071
O O8 0.696528 0.695237 0.640002
O O9 0.293487 0.114504 0.208075
O O10 0.431772 0.295845 0.102059
O O11 0.909899 0.753101 0.114077
O O12 0.809641 0.771021 0.981129
O O13 0.000000 0.500000 0.000000
O O14 0.731943 0.245005 0.997161
O O15 0.950380 0.109369 0.744703
O O16 0.541510 0.246549 0.360927
O O17 0.500000 0.500000 0.500000
#
# Coordination Sequence:
#
# PCOD9093440 Si02
#       8
#     2   2   2   2   2   2   2   2
#     4  10  24  38  53  77 111 157 192 237 280 320
#     4   9  21  32  55  88 110 141 178 219 282 315
#     4  11  22  37  58  80 114 146 197 236 278 328
#     4  10  20  33  48  74 101 143 184 238 290 321
#     4  10  22  37  53  76 114 140 191 233 279 337
#     4   9  22  35  59  86 111 143 183 224 285 324
#     4  10  22  34  51  73 102 149 197 237 275 317
#     4   9  18  35  57  89 119 135 171 223 277 331
#
# _framework density 20.075393999999999
#
# number of rings (size 3 to 8) (size 9 to 14) (size 15 to 20)
#    0.750    1.500    0.000    1.875    8.750    1.000 
#    0.000    3.750    0.000    0.000    0.000   12.250 
#    0.000    0.000    0.000    0.000    0.000    0.000 
#
# Total GULP energy -89095.462197 kJ/mol
# GULP energy per Si atom -5568.466387 kJ/mol
# Density = 2.002970 g / cm^3
# Si number density = 20.075394 Si / 1000 Ang^3
#
#
#
# Elastic Constant Matrix: (Units=GPa)
#
#
# Indices 1 2 3 4 5 6 
#
# 1 73.7262 21.9917 21.8441 -2.0238 -0.9631 -17.5650
# 2 21.9917 99.5729 16.6660 -11.0601 0.6362 -24.3917
# 3 21.8441 16.6660 75.3154 -5.3953 1.0827 -2.5375
# 4 -2.0238 -11.0601 -5.3953 21.8359 -7.5559 -3.6844
# 5 -0.9631 0.6362 1.0827 -7.5559 14.8382 2.9511
# 6 -17.5650 -24.3917 -2.5375 -3.6844 2.9511 33.1283
#
#
#
# Elastic Compliance Matrix: (Units=1/GPa)
#
#
# Indices 1 2 3 4 5 6 
#
# 1 0.017141 -0.000841 -0.004394 0.001712 0.000698 0.008261
# 2 -0.000841 0.014161 -0.001906 0.009115 0.001997 0.010671
# 3 -0.004394 -0.001906 0.015035 0.002009 0.000195 -0.002376
# 4 0.001712 0.009115 0.002009 0.063291 0.029377 0.012195
# 5 0.000698 0.001997 0.000195 0.029377 0.082746 -0.002248
# 6 0.008261 0.010671 -0.002376 0.012195 -0.002248 0.043797
#
#
# Mechanical properties :
#
#
# Convention : Reuss Voigt Hill
#
# Bulk Modulus (GPa) = 31.19689 41.06866 36.13277
# Shear Modulus (GPa) = 19.14696 26.50134 22.82415
#
# Velocity S-wave (km/s) = 3.09164 3.63725 3.37548
# Velocity P-wave (km/s) = 5.32146 6.17584 5.76450
#
# Compressibility (1/GPa) = 0.03205448
#
# Stress axis : x y z
#
# Youngs Moduli (GPa) = 58.34053 70.61492 66.51213
#
# Poissons Ratio (x) = 0.05938 0.29228
# Poissons Ratio (y) = 0.04906 0.12677
# Poissons Ratio (z) = 0.25637 0.13459
#
# Static dielectric constant tensor:
#      x y z
#    x 1.787720 -0.010920 -0.034070 
#    y -0.010920 1.797100 -0.007570 
#    z -0.034070 -0.007570 1.757920 
# 
# From -- ./inp_files/585423.got.cif
#   From: 2010.05.17/outbox.cif.g08.bks.cpg/sg2_293_cif.got.tgz:585423.got - 2010.06.03 11:33:40.
