data_PCOD9093281
_publ_section_title
;
Structure prediction by ZEFSAII (Michael W. Deem and Ramdas Pophale) SiO2 
 PCOD9093281
Probable space group: P -1
;
_chemical_formula_sum "Si O2"
_cell_formula_units_Z 16
_cell_length_a 7.675867
_cell_length_b 18.265842
_cell_length_c 8.276020
_cell_angle_alpha 50.083139
_cell_angle_beta 99.922510
_cell_angle_gamma 128.459304
_cell_volume 645.292394
_symmetry_space_group_name_H-M "P -1"
_symmetry_group_IT_number 2
_symmetry_cell_setting 'triclinic'
loop_
_space_group_symop_operation_xyz
x,y,z
-x,-y,-z
loop_
_atom_site_type_symbol
_atom_site_label
_atom_site_fract_x
_atom_site_fract_y
_atom_site_fract_z
Si Si1 0.460854 0.613203 0.940136
Si Si2 0.930809 0.839498 0.837210
Si Si3 0.231929 0.469742 0.618601
Si Si4 0.109592 0.743134 0.379726
Si Si5 0.546159 0.979495 0.266504
Si Si6 0.072271 0.527250 0.220209
Si Si7 0.708748 0.965113 0.634226
Si Si8 0.310118 0.353854 0.368701
O O1 0.695929 0.689245 0.985617
O O2 0.571645 0.675956 0.694789
O O3 0.265391 0.610119 0.994080
O O4 0.323715 0.461838 0.130919
O O5 0.811556 0.897984 0.778486
O O6 0.169907 0.911007 0.881322
O O7 0.062540 0.894059 0.604319
O O8 0.054358 0.330573 0.700999
O O9 0.218141 0.553563 0.370474
O O10 0.510199 0.562911 0.570806
O O11 0.097617 0.449178 0.791698
O O12 0.085294 0.626076 0.611074
O O13 0.953729 0.756243 0.450107
O O14 0.381345 0.875953 0.246819
O O15 0.433908 0.035847 0.243135
O O16 0.541236 0.908346 0.526228
#
# Coordination Sequence:
#
# PCOD9093281 Si02
#       8
#     2   2   2   2   2   2   2   2
#     4  10  20  33  51  82 112 130 172 224 279 309
#     4   9  17  33  49  74 111 139 169 220 272 316
#     4   9  18  37  52  76 105 145 185 203 259 327
#     4   9  17  31  55  76 102 135 178 217 252 315
#     4   9  16  31  51  75 103 135 182 223 254 309
#     4   8  19  35  52  78 109 134 178 219 258 326
#     4   8  17  30  49  75 102 144 182 209 264 319
#     4  10  20  32  54  81 107 138 173 218 269 328
#
# _framework density 24.794964
#
# number of rings (size 3 to 8) (size 9 to 14) (size 15 to 20)
#    1.500    1.500    0.000    1.125    0.000    1.500 
#    4.500    0.000    0.000    1.500    0.000    0.000 
#    0.000    0.000    0.000    0.000    0.000    0.000 
#
# Total GULP energy -89105.423434 kJ/mol
# GULP energy per Si atom -5569.088965 kJ/mol
# Density = 2.473853 g / cm^3
# Si number density = 24.794964 Si / 1000 Ang^3
#
#
#
# Elastic Constant Matrix: (Units=GPa)
#
#
# Indices 1 2 3 4 5 6 
#
# 1 133.3037 51.2643 25.0217 2.1451 -23.4921 1.5468
# 2 51.2643 105.2281 23.3174 6.1219 -8.4516 29.1659
# 3 25.0217 23.3174 35.7820 -8.3250 -10.2505 7.7453
# 4 2.1451 6.1219 -8.3250 32.6875 10.2610 -5.6707
# 5 -23.4921 -8.4516 -10.2505 10.2610 23.9446 10.9131
# 6 1.5468 29.1659 7.7453 -5.6707 10.9131 37.5604
#
#
#
# Elastic Compliance Matrix: (Units=1/GPa)
#
#
# Indices 1 2 3 4 5 6 
#
# 1 0.011497 -0.003364 -0.003540 -0.004681 0.011062 -0.001052
# 2 -0.003364 0.020774 -0.004241 -0.014637 0.018887 -0.022816
# 3 -0.003540 -0.004241 0.040003 0.005694 0.013273 -0.007807
# 4 -0.004681 -0.014637 0.005694 0.054845 -0.045334 0.031837
# 5 0.011062 0.018887 0.013273 -0.045334 0.110250 -0.056736
# 6 -0.001052 -0.022816 -0.007807 0.031837 -0.056736 0.067285
#
#
# Mechanical properties :
#
#
# Convention : Reuss Voigt Hill
#
# Bulk Modulus (GPa) = 20.00641 52.61342 36.30991
# Shear Modulus (GPa) = 14.55157 30.48586 22.51871
#
# Velocity S-wave (km/s) = 2.42518 3.51025 3.01690
# Velocity P-wave (km/s) = 3.99102 6.13959 5.17798
#
# Compressibility (1/GPa) = 0.04998398
#
# Stress axis : x y z
#
# Youngs Moduli (GPa) = 86.98003 48.13651 24.99822
#
# Poissons Ratio (x) = 0.16194 0.08848
# Poissons Ratio (y) = 0.29262 0.10602
# Poissons Ratio (z) = 0.30787 0.20416
#
# Static dielectric constant tensor:
#      x y z
#    x 1.979380 -0.000260 0.018100 
#    y -0.000260 2.015620 0.057400 
#    z 0.018100 0.057400 2.028520 
# 
# From -- ./inp_files/221838.got.cif
#   From: 2010.05.17/outbox.cif.g08.bks.cpg/sg2_111_cif.got.tgz:221838.got - 2010.06.03 11:33:40.
