data_PCOD9093875
_publ_section_title
;
Structure prediction by ZEFSAII (Michael W. Deem and Ramdas Pophale) SiO2 
 PCOD9093875
Probable space group: P -1
;
_chemical_formula_sum "Si O2"
_cell_formula_units_Z 15
_cell_length_a 9.115300
_cell_length_b 15.584175
_cell_length_c 13.631241
_cell_angle_alpha 32.990305
_cell_angle_beta 30.661269
_cell_angle_gamma 48.084677
_cell_volume 527.616176
_symmetry_space_group_name_H-M "P -1"
_symmetry_group_IT_number 2
_symmetry_cell_setting 'triclinic'
loop_
_space_group_symop_operation_xyz
x,y,z
-x,-y,-z
loop_
_atom_site_type_symbol
_atom_site_label
_atom_site_fract_x
_atom_site_fract_y
_atom_site_fract_z
Si Si1 0.152640 0.258240 0.491781
Si Si2 0.400197 0.388921 0.914656
Si Si3 0.562705 0.884989 0.691283
Si Si4 0.679019 0.982391 0.127134
Si Si5 0.805586 0.904748 0.821455
Si Si6 0.000000 0.500000 0.500000
Si Si7 0.037318 0.527056 0.774583
Si Si8 0.324267 0.291001 0.730477
O O1 0.415195 0.176590 0.373534
O O2 0.192191 0.397646 0.416510
O O3 0.046608 0.339352 0.377437
O O4 0.897209 0.122555 0.812041
O O5 0.503148 0.275009 0.049857
O O6 0.212214 0.259445 0.073502
O O7 0.195379 0.492907 0.985374
O O8 0.719593 0.465087 0.617433
O O9 0.345652 0.983681 0.776170
O O10 0.882649 0.991850 0.427285
O O11 0.365183 0.989871 0.250304
O O12 0.751259 0.811236 0.225409
O O13 0.647556 0.840449 0.074859
O O14 0.067742 0.372874 0.841732
O O15 0.362257 0.592277 0.566836
#
# Coordination Sequence:
#
# PCOD9093875 Si02
#       8
#     2   2   2   2   2   1   2   2
#     4  11  21  39  61  89 119 151 207 262 290 355
#     4  10  21  36  56  91 123 156 205 254 298 354
#     4  10  20  33  59  92 116 148 192 259 310 346
#     4  11  18  35  57  89 120 154 203 244 291 356
#     4  11  18  33  59  95 122 150 200 258 294 363
#     4  12  22  40  64  90 112 166 210 258 300 342
#     4  10  22  37  53  94 131 160 192 243 318 376
#     4  11  20  33  61  88 133 166 183 240 324 377
#
# _framework density 28.429756000000001
#
# number of rings (size 3 to 8) (size 9 to 14) (size 15 to 20)
#    0.000    1.333    5.333    4.400    0.000    2.667 
#    0.000    1.333    0.000    1.600    0.000    0.000 
#    0.000    0.000    0.000    0.000    0.000    0.000 
#
# Total GULP energy -83862.750190 kJ/mol
# GULP energy per Si atom -5590.850013 kJ/mol
# Density = 2.836505 g / cm^3
# Si number density = 28.429756 Si / 1000 Ang^3
#
#
#
# Elastic Constant Matrix: (Units=GPa)
#
#
# Indices 1 2 3 4 5 6 
#
# 1 101.3595 30.8288 23.6573 10.6943 2.3023 -2.1765
# 2 30.8288 278.7645 44.1838 10.7672 -1.5980 58.2893
# 3 23.6573 44.1838 78.9238 -1.0817 -18.7863 1.4761
# 4 10.6943 10.7672 -1.0817 41.7309 7.9582 11.8137
# 5 2.3023 -1.5980 -18.7863 7.9582 47.7824 9.7374
# 6 -2.1765 58.2893 1.4761 11.8137 9.7374 43.9875
#
#
#
# Elastic Compliance Matrix: (Units=1/GPa)
#
#
# Indices 1 2 3 4 5 6 
#
# 1 0.011577 -0.001489 -0.003271 -0.003402 -0.002151 0.004045
# 2 -0.001489 0.005805 -0.002449 0.000967 0.000797 -0.008120
# 3 -0.003271 -0.002449 0.016505 0.000408 0.006287 0.001028
# 4 -0.003402 0.000967 0.000408 0.027418 -0.002525 -0.008268
# 5 -0.002151 0.000797 0.006287 -0.002525 0.025231 -0.006280
# 6 0.004045 -0.008120 0.001028 -0.008268 -0.006280 0.037271
#
#
# Mechanical properties :
#
#
# Convention : Reuss Voigt Hill
#
# Bulk Modulus (GPa) = 51.36216 72.93195 62.14706
# Shear Modulus (GPa) = 34.55093 50.72533 42.63813
#
# Velocity S-wave (km/s) = 3.48991 4.22860 3.87689
# Velocity P-wave (km/s) = 5.86045 7.03921 6.47670
#
# Compressibility (1/GPa) = 0.01946958
#
# Stress axis : x y z
#
# Youngs Moduli (GPa) = 86.37945 172.26029 60.58794
#
# Poissons Ratio (x) = 0.25642 0.19819
# Poissons Ratio (y) = 0.12858 0.14838
# Poissons Ratio (z) = 0.28256 0.42185
#
# Static dielectric constant tensor:
#      x y z
#    x 2.286150 -0.051880 0.076860 
#    y -0.051880 2.244300 -0.029720 
#    z 0.076860 -0.029720 2.285230 
# 
# From -- ./inp_files/598254.got.cif
#   From: 2010.05.17/outbox.cif.g08.bks.cpg/sg2_300_cif.got.tgz:598254.got - 2010.06.03 11:33:40.
