data_PCOD9093974
_publ_section_title
;
Structure prediction by ZEFSAII (Michael W. Deem and Ramdas Pophale) SiO2 
 PCOD9093974
Probable space group: P -1
;
_chemical_formula_sum "Si O2"
_cell_formula_units_Z 16
_cell_length_a 6.135584
_cell_length_b 15.545241
_cell_length_c 15.242220
_cell_angle_alpha 124.978923
_cell_angle_beta 48.737033
_cell_angle_gamma 120.170741
_cell_volume 876.917332
_symmetry_space_group_name_H-M "P -1"
_symmetry_group_IT_number 2
_symmetry_cell_setting 'triclinic'
loop_
_space_group_symop_operation_xyz
x,y,z
-x,-y,-z
loop_
_atom_site_type_symbol
_atom_site_label
_atom_site_fract_x
_atom_site_fract_y
_atom_site_fract_z
Si Si1 0.713750 0.114921 0.322204
Si Si2 0.137484 0.123486 0.562786
Si Si3 0.539439 0.011424 0.121588
Si Si4 0.292248 0.650473 0.980172
Si Si5 0.147499 0.081667 0.736870
Si Si6 0.648727 0.833722 0.872709
Si Si7 0.598242 0.557678 0.099308
Si Si8 0.371400 0.745905 0.211983
O O1 0.436382 0.164551 0.452930
O O2 0.039406 0.184457 0.258692
O O3 0.620645 0.047540 0.219052
O O4 0.751657 0.029882 0.337750
O O5 0.211090 0.122084 0.645294
O O6 0.892289 0.195161 0.658444
O O7 0.000000 0.000000 0.500000
O O8 0.203322 0.942776 0.170257
O O9 0.529058 0.115424 0.125445
O O10 0.721914 0.932094 0.980912
O O11 0.335622 0.704635 0.097100
O O12 0.940764 0.617905 0.038668
O O13 0.459503 0.732071 0.911955
O O14 0.412125 0.539305 0.886645
O O15 0.325193 0.167504 0.806624
O O16 0.400538 0.647338 0.210363
O O17 0.500000 0.500000 0.000000
#
# Coordination Sequence:
#
# PCOD9093974 Si02
#       8
#     2   2   2   2   2   2   2   2
#     4  11  22  34  49  74 111 152 186 218 264 318
#     4  12  22  34  52  78 113 151 188 229 258 316
#     4  10  20  34  48  78 108 145 187 220 264 326
#     4  10  20  39  57  86 110 136 179 226 281 330
#     4  11  20  34  54  76 110 147 186 224 274 309
#     4  10  21  32  52  74 111 146 176 222 268 330
#     4   9  20  36  60  84 107 134 176 229 282 330
#     4  11  21  33  57  83 111 144 179 230 275 317
#
# _framework density 18.245733999999999
#
# number of rings (size 3 to 8) (size 9 to 14) (size 15 to 20)
#    0.000    1.500    2.500    3.750    0.000    4.000 
#    0.000    0.000    0.000    0.750    0.000   13.125 
#    0.000    0.000    0.000    0.000    0.000    0.000 
#
# Total GULP energy -89316.074958 kJ/mol
# GULP energy per Si atom -5582.254685 kJ/mol
# Density = 1.820421 g / cm^3
# Si number density = 18.245734 Si / 1000 Ang^3
#
#
#
# Elastic Constant Matrix: (Units=GPa)
#
#
# Indices 1 2 3 4 5 6 
#
# 1 87.4937 46.7980 33.1440 -1.3606 -6.1445 0.5451
# 2 46.7980 118.7640 45.5403 -7.3655 -19.2606 -13.6671
# 3 33.1440 45.5403 75.8547 -4.4471 -22.2218 -12.7297
# 4 -1.3606 -7.3655 -4.4471 23.9995 -3.0941 -2.3193
# 5 -6.1445 -19.2606 -22.2218 -3.0941 28.8472 7.7252
# 6 0.5451 -13.6671 -12.7297 -2.3193 7.7252 35.6818
#
#
#
# Elastic Compliance Matrix: (Units=1/GPa)
#
#
# Indices 1 2 3 4 5 6 
#
# 1 0.016206 -0.005400 -0.005753 -0.002662 -0.003880 -0.003702
# 2 -0.005400 0.013240 -0.003475 0.004013 0.004591 0.003181
# 3 -0.005753 -0.003475 0.022695 0.004944 0.013318 0.004291
# 4 -0.002662 0.004013 0.004944 0.045315 0.009657 0.004196
# 5 -0.003880 0.004591 0.013318 0.009657 0.049120 -0.003438
# 6 -0.003702 0.003181 0.004291 0.004196 -0.003438 0.031848
#
#
# Mechanical properties :
#
#
# Convention : Reuss Voigt Hill
#
# Bulk Modulus (GPa) = 43.69790 59.23078 51.46434
# Shear Modulus (GPa) = 23.22242 28.14771 25.68506
#
# Velocity S-wave (km/s) = 3.57145 3.93198 3.75604
# Velocity P-wave (km/s) = 6.40380 7.29022 6.86134
#
# Compressibility (1/GPa) = 0.02288439
#
# Stress axis : x y z
#
# Youngs Moduli (GPa) = 61.70419 75.52837 44.06336
#
# Poissons Ratio (x) = 0.40788 0.25349
# Poissons Ratio (y) = 0.33322 0.15312
# Poissons Ratio (z) = 0.35498 0.26247
#
# Static dielectric constant tensor:
#      x y z
#    x 1.670610 -0.017220 -0.025040 
#    y -0.017220 1.639920 0.012770 
#    z -0.025040 0.012770 1.642000 
# 
# From -- ./inp_files/75736.got.cif
#   From: 2010.05.17/outbox.cif.g08.bks.cpg/sg2_38_cif.got.tgz:75736.got - 2010.06.03 11:33:40.
