data_PCOD9093210
_publ_section_title
;
Structure prediction by ZEFSAII (Michael W. Deem and Ramdas Pophale) SiO2 
 PCOD9093210
Probable space group: P -1
;
_chemical_formula_sum "Si O2"
_cell_formula_units_Z 8
_cell_length_a 21.245047
_cell_length_b 4.933963
_cell_length_c 17.934009
_cell_angle_alpha 113.683306
_cell_angle_beta 11.415920
_cell_angle_gamma 115.425538
_cell_volume 334.109731
_symmetry_space_group_name_H-M "P -1"
_symmetry_group_IT_number 2
_symmetry_cell_setting 'triclinic'
loop_
_space_group_symop_operation_xyz
x,y,z
-x,-y,-z
loop_
_atom_site_type_symbol
_atom_site_label
_atom_site_fract_x
_atom_site_fract_y
_atom_site_fract_z
Si Si1 0.382312 0.462778 0.989059
Si Si2 0.134576 0.045116 0.931690
Si Si3 0.759713 0.085928 0.615949
Si Si4 0.095746 0.358648 0.709790
O O1 0.548751 0.243306 0.821779
O O2 0.545683 0.492006 0.719815
O O3 0.514240 0.799979 0.903838
O O4 0.003930 0.336715 0.405257
O O5 0.500000 0.000000 0.500000
O O6 0.109194 0.380128 0.024380
O O7 0.000000 0.000000 0.000000
O O8 0.932745 0.801047 0.195260
O O9 0.995483 0.907090 0.274774
#
# Coordination Sequence:
#
# PCOD9093210 Si02
#       4
#     2   2   2   2
#     4  10  20  32  51  63  72  84  96 108 120 132
#     4  12  26  36  46  58  70  82  94 106 118 130
#     4  10  20  32  51  63  72  84  96 108 120 132
#     4  10  22  38  50  56  74  80  98 104 122 128
#
# _framework density 23.944229
#
# number of rings (size 3 to 8) (size 9 to 14) (size 15 to 20)
#    1.500    0.000    2.500    3.000    3.500    4.000 
#    0.000    0.000    0.000    0.000    0.000    0.000 
#    0.000    0.000    0.000    0.000    0.000    0.000 
#
# Total GULP energy -44709.155221 kJ/mol
# GULP energy per Si atom -5588.644403 kJ/mol
# Density = 2.388973 g / cm^3
# Si number density = 23.944229 Si / 1000 Ang^3
#
#
#
# Elastic Constant Matrix: (Units=GPa)
#
#
# Indices 1 2 3 4 5 6 
#
# 1 -2557.0297 826.5194 630.9001 1800.4901 -509.9154 1383.8688
# 2 826.5194 -101.4354 -127.0452 -550.6921 153.3501 -449.9720
# 3 630.9001 -127.0452 -15.5877 -413.5211 105.8498 -306.3778
# 4 1800.4901 -550.6921 -413.5211-1203.9094 352.6634 -970.6947
# 5 -509.9154 153.3501 105.8498 352.6634 -59.9918 272.0703
# 6 1383.8688 -449.9720 -306.3778 -970.6947 272.0703 -701.3788
#
#
#
# Elastic Compliance Matrix: (Units=1/GPa)
#
#
# Indices 1 2 3 4 5 6 
#
# 1 0.016082 0.002860 -0.006741 0.011570 -0.004025 0.015267
# 2 0.002860 0.009214 -0.005892 -0.001985 -0.000122 0.005004
# 3 -0.006741 -0.005892 0.014095 -0.002924 0.003728 -0.010184
# 4 0.011570 -0.001985 -0.002924 0.018081 0.000888 0.000698
# 5 -0.004025 -0.000122 0.003728 0.000888 0.025805 -0.000710
# 6 0.015267 0.005004 -0.010184 0.000698 -0.000710 0.028693
#
#
# Mechanical properties :
#
#
# Convention : Reuss Voigt Hill
#
# Bulk Modulus (GPa) = 50.39272 -1.47825 24.45724
# Shear Modulus (GPa) = 36.19729 -660.01779 -311.91025
#
# Velocity S-wave (km/s) = 3.89232 -16.62066 -11.42577
# Velocity P-wave (km/s) = 6.42587 19.20800 12.79952
#
# Compressibility (1/GPa) = 0.01984414
#
# Stress axis : x y z
#
# Youngs Moduli (GPa) = 62.18264 108.52854 70.94744
#
# Poissons Ratio (x) = -0.31035 0.47823
# Poissons Ratio (y) = -0.17782 0.41804
# Poissons Ratio (z) = 0.41915 0.63948
#
# Static dielectric constant tensor:
#      x y z
#    x 1.893940 0.049780 0.063430 
#    y 0.049780 1.911660 -0.009340 
#    z 0.063430 -0.009340 1.881100 
# 
# From -- ./inp_files/125068.got.cif
#   From: 2010.05.17/outbox.cif.g08.bks.cpg/sg2_63_cif.got.tgz:125068.got - 2010.06.03 11:33:40.
