data_PCOD9093434
_publ_section_title
;
Structure prediction by ZEFSAII (Michael W. Deem and Ramdas Pophale) SiO2 
 PCOD9093434
Probable space group: P -1
;
_chemical_formula_sum "Si O2"
_cell_formula_units_Z 16
_cell_length_a 15.084039
_cell_length_b 13.648353
_cell_length_c 14.978198
_cell_angle_alpha 93.811899
_cell_angle_beta 160.907988
_cell_angle_gamma 78.734139
_cell_volume 919.647562
_symmetry_space_group_name_H-M "P -1"
_symmetry_group_IT_number 2
_symmetry_cell_setting 'triclinic'
loop_
_space_group_symop_operation_xyz
x,y,z
-x,-y,-z
loop_
_atom_site_type_symbol
_atom_site_label
_atom_site_fract_x
_atom_site_fract_y
_atom_site_fract_z
Si Si1 0.342895 0.151904 0.540594
Si Si2 0.338666 0.920122 0.337059
Si Si3 0.207869 0.257798 0.754299
Si Si4 0.071736 0.140722 0.773648
Si Si5 0.771855 0.059037 0.206967
Si Si6 0.556881 0.097955 0.366440
Si Si7 0.597829 0.373780 0.080117
Si Si8 0.256706 0.776828 0.947018
O O1 0.504258 0.155545 0.601388
O O2 0.996017 0.224066 0.227182
O O3 0.363371 0.030063 0.562188
O O4 0.517835 0.185300 0.784880
O O5 0.390075 0.869252 0.481277
O O6 0.500000 0.000000 0.500000
O O7 0.000000 0.000000 0.000000
O O8 0.073007 0.232910 0.714812
O O9 0.934246 0.312284 0.430503
O O10 0.458594 0.144958 0.950521
O O11 0.385245 0.333990 0.933412
O O12 0.764933 0.130579 0.501084
O O13 0.258623 0.029862 0.891877
O O14 0.230209 0.145672 0.016990
O O15 0.889856 0.131297 0.262690
O O16 0.000000 0.000000 0.500000
O O17 0.587070 0.331637 0.967008
O O18 0.500000 0.500000 0.000000
#
# Coordination Sequence:
#
# PCOD9093434 Si02
#       8
#     2   2   2   2   2   2   2   2
#     4  11  19  34  49  74 106 140 184 222 241 312
#     4  10  20  33  46  70 103 148 186 211 252 297
#     4  11  24  37  54  80 104 142 186 224 266 321
#     4  12  21  32  51  76 112 142 181 208 251 320
#     4  11  21  34  49  75 115 147 178 213 256 307
#     4  11  20  32  48  73 109 152 176 207 254 309
#     4  11  24  43  59  74 105 139 182 240 288 314
#     4  11  21  33  54  77 100 138 187 214 267 309
#
# _framework density 17.397969
#
# number of rings (size 3 to 8) (size 9 to 14) (size 15 to 20)
#    0.000    1.000    2.500    8.250    0.000    0.000 
#    0.000    0.000    0.000    0.000    0.000    0.000 
#    0.000   20.000    0.000    0.000    0.000    0.000 
#
# Total GULP energy -89274.364178 kJ/mol
# GULP energy per Si atom -5579.647761 kJ/mol
# Density = 1.735837 g / cm^3
# Si number density = 17.397969 Si / 1000 Ang^3
#
#
#
# Elastic Constant Matrix: (Units=GPa)
#
#
# Indices 1 2 3 4 5 6 
#
# 1 79.0452 35.4917 17.4920 0.5973 10.6708 -7.4861
# 2 35.4917 85.4077 28.2643 4.8579 5.2116 -1.3832
# 3 17.4920 28.2643 88.3126 19.2314 3.7000 1.5105
# 4 0.5973 4.8579 19.2314 19.0987 2.7395 1.1258
# 5 10.6708 5.2116 3.7000 2.7395 26.7000 10.5039
# 6 -7.4861 -1.3832 1.5105 1.1258 10.5039 19.3142
#
#
#
# Elastic Compliance Matrix: (Units=1/GPa)
#
#
# Indices 1 2 3 4 5 6 
#
# 1 0.018778 -0.006354 -0.002360 0.004288 -0.011495 0.013009
# 2 -0.006354 0.015519 -0.003705 -0.000019 0.000563 -0.001367
# 3 -0.002360 -0.003705 0.016324 -0.015559 0.002049 -0.002664
# 4 0.004288 -0.000019 -0.015559 0.068838 -0.007850 0.003134
# 5 -0.011495 0.000563 0.002049 -0.007850 0.056076 -0.034614
# 6 0.013009 -0.001367 -0.002664 0.003134 -0.034614 0.075570
#
#
# Mechanical properties :
#
#
# Convention : Reuss Voigt Hill
#
# Bulk Modulus (GPa) = 38.78379 46.14017 42.46198
# Shear Modulus (GPa) = 17.57231 24.45709 21.01470
#
# Velocity S-wave (km/s) = 3.18153 3.75339 3.47923
# Velocity P-wave (km/s) = 5.98638 6.73513 6.37176
#
# Compressibility (1/GPa) = 0.02578397
#
# Stress axis : x y z
#
# Youngs Moduli (GPa) = 53.25471 64.43523 61.25778
#
# Poissons Ratio (x) = 0.40941 0.14459
# Poissons Ratio (y) = 0.33837 0.22694
# Poissons Ratio (z) = 0.12570 0.23871
#
# Static dielectric constant tensor:
#      x y z
#    x 1.690980 -0.015640 0.008030 
#    y -0.015640 1.582550 0.022810 
#    z 0.008030 0.022810 1.613180 
# 
# From -- ./inp_files/533336.got.cif
#   From: 2010.05.17/outbox.cif.g08.bks.cpg/sg2_267_cif.got.tgz:533336.got - 2010.06.03 11:33:40.
