data_PCOD9093870
_publ_section_title
;
Structure prediction by ZEFSAII (Michael W. Deem and Ramdas Pophale) SiO2 
 PCOD9093870
Probable space group: P -1
;
_chemical_formula_sum "Si O2"
_cell_formula_units_Z 14
_cell_length_a 20.403373
_cell_length_b 5.063286
_cell_length_c 11.626092
_cell_angle_alpha 71.257397
_cell_angle_beta 135.059351
_cell_angle_gamma 131.183237
_cell_volume 614.383388
_symmetry_space_group_name_H-M "P -1"
_symmetry_group_IT_number 2
_symmetry_cell_setting 'triclinic'
loop_
_space_group_symop_operation_xyz
x,y,z
-x,-y,-z
loop_
_atom_site_type_symbol
_atom_site_label
_atom_site_fract_x
_atom_site_fract_y
_atom_site_fract_z
Si Si1 0.354645 0.744317 0.885250
Si Si2 0.680938 0.922201 0.997847
Si Si3 0.054404 0.234665 0.151188
Si Si4 0.823925 0.046806 0.942793
Si Si5 0.693043 0.363352 0.505472
Si Si6 0.573419 0.603456 0.198554
Si Si7 0.621693 0.615647 0.580045
O O1 0.294110 0.323324 0.869534
O O2 0.324913 0.817097 0.964992
O O3 0.327826 0.959876 0.741658
O O4 0.500000 0.000000 0.000000
O O5 0.540900 0.601595 0.828056
O O6 0.710851 0.697512 0.783472
O O7 0.771815 0.106279 0.979364
O O8 0.164900 0.295143 0.343114
O O9 0.938045 0.071775 0.108259
O O10 0.120242 0.635999 0.126576
O O11 0.000000 0.000000 0.000000
O O12 0.636923 0.433119 0.322305
O O13 0.623738 0.361695 0.530492
O O14 0.672575 0.993110 0.526542
O O15 0.500000 0.500000 0.000000
O O16 0.500000 0.500000 0.500000
#
# Coordination Sequence:
#
# PCOD9093870 Si02
#       7
#     2   2   2   2   2   2   2
#     4   9  19  35  55  84 118 151 191 239 294 363
#     4  10  20  33  59  89 114 154 193 238 306 362
#     4  10  21  41  60  82 123 164 212 248 291 359
#     4  10  22  37  61  88 122 164 202 250 302 361
#     4  11  23  38  60  86 116 165 202 242 305 366
#     4   9  20  38  59  87 121 153 195 250 308 364
#     4  11  23  37  56  91 127 150 193 252 307 374
#
# _framework density 22.787072999999999
#
# number of rings (size 3 to 8) (size 9 to 14) (size 15 to 20)
#    0.000    2.000    1.429    2.571    2.000   10.286 
#    0.000    0.000    0.000    4.286    0.000    0.000 
#    0.000    0.000    0.000    0.000    0.000    0.000 
#
# Total GULP energy -77964.578024 kJ/mol
# GULP energy per Si atom -5568.898430 kJ/mol
# Density = 2.273521 g / cm^3
# Si number density = 22.787073 Si / 1000 Ang^3
#
#
#
# Elastic Constant Matrix: (Units=GPa)
#
#
# Indices 1 2 3 4 5 6 
#
# 1 139.1001 12.8510 22.8928 -1.5422 3.9798 10.3802
# 2 12.8510 39.2579 17.7203 -9.0023 8.1214 -8.7280
# 3 22.8928 17.7203 111.0227 -1.6063 16.1127 20.1600
# 4 -1.5422 -9.0023 -1.6063 26.2811 -1.4785 8.9403
# 5 3.9798 8.1214 16.1127 -1.4785 28.7675 5.2352
# 6 10.3802 -8.7280 20.1600 8.9403 5.2352 45.0881
#
#
#
# Elastic Compliance Matrix: (Units=1/GPa)
#
#
# Indices 1 2 3 4 5 6 
#
# 1 0.007714 -0.002635 -0.000884 0.000205 0.000545 -0.001995
# 2 -0.002635 0.034033 -0.005306 0.007728 -0.007495 0.008905
# 3 -0.000884 -0.005306 0.011634 0.000562 -0.003831 -0.005692
# 4 0.000205 0.007728 0.000562 0.043364 0.001073 -0.007526
# 5 0.000545 -0.007495 -0.003831 0.001073 0.039859 -0.004704
# 6 -0.001995 0.008905 -0.005692 -0.007526 -0.004704 0.028945
#
#
# Mechanical properties :
#
#
# Convention : Reuss Voigt Hill
#
# Bulk Modulus (GPa) = 27.98787 44.03432 36.01109
# Shear Modulus (GPa) = 25.62669 35.75512 30.69090
#
# Velocity S-wave (km/s) = 3.35717 3.96548 3.67393
# Velocity P-wave (km/s) = 5.22843 6.35082 5.81676
#
# Compressibility (1/GPa) = 0.03572977
#
# Stress axis : x y z
#
# Youngs Moduli (GPa) = 129.64233 29.38360 85.95425
#
# Poissons Ratio (x) = 0.07744 0.07597
# Poissons Ratio (y) = 0.34165 0.45608
# Poissons Ratio (z) = 0.11459 0.15591
#
# Static dielectric constant tensor:
#      x y z
#    x 2.004780 -0.058680 -0.039910 
#    y -0.058680 2.020590 -0.018780 
#    z -0.039910 -0.018780 1.961400 
# 
# From -- ./inp_files/459465.got.cif
#   From: 2010.05.17/outbox.cif.g08.bks.cpg/sg2_230_cif.got.tgz:459465.got - 2010.06.03 11:33:40.
