data_PCOD9093313
_publ_section_title
;
Structure prediction by ZEFSAII (Michael W. Deem and Ramdas Pophale) SiO2 
 PCOD9093313
Probable space group: P -1
;
_chemical_formula_sum "Si O2"
_cell_formula_units_Z 12
_cell_length_a 16.704945
_cell_length_b 5.528069
_cell_length_c 4.902900
_cell_angle_alpha 86.823833
_cell_angle_beta 68.003303
_cell_angle_gamma 92.320469
_cell_volume 418.241931
_symmetry_space_group_name_H-M "P -1"
_symmetry_group_IT_number 2
_symmetry_cell_setting 'triclinic'
loop_
_space_group_symop_operation_xyz
x,y,z
-x,-y,-z
loop_
_atom_site_type_symbol
_atom_site_label
_atom_site_fract_x
_atom_site_fract_y
_atom_site_fract_z
Si Si1 0.713701 0.427993 0.058814
Si Si2 0.385045 0.980562 0.131769
Si Si3 0.422642 0.305169 0.534876
Si Si4 0.885724 0.232757 0.749764
Si Si5 0.213338 0.153918 0.470578
Si Si6 0.053987 0.334449 0.750993
O O1 0.797811 0.278103 0.025837
O O2 0.750557 0.645379 0.804414
O O3 0.643476 0.272789 0.967887
O O4 0.662376 0.533135 0.374564
O O5 0.448105 0.126821 0.265917
O O6 0.299168 0.017933 0.424737
O O7 0.401163 0.147916 0.838194
O O8 0.500000 0.500000 0.500000
O O9 0.913221 0.486666 0.548019
O O10 0.973907 0.150738 0.775172
O O11 0.852231 0.036182 0.587360
O O12 0.144883 0.255449 0.762394
O O13 0.000000 0.500000 0.000000
#
# Coordination Sequence:
#
# PCOD9093313 Si02
#       6
#     2   2   2   2   2   2
#     4   9  21  41  62  88 123 165 203 255 305 371
#     4  10  23  42  65  94 126 165 203 252 310 367
#     4  11  24  42  67  96 125 160 205 254 310 372
#     4   9  19  38  54  80 119 156 204 248 305 358
#     4   9  19  39  56  83 118 160 202 250 301 365
#     4  10  20  32  55  84 114 155 200 255 302 355
#
# _framework density 28.691526
#
# number of rings (size 3 to 8) (size 9 to 14) (size 15 to 20)
#    0.000    2.333    0.000    1.000    2.333    4.667 
#   24.000    0.000    0.000    0.000    0.000    0.000 
#    0.000    0.000    0.000    0.000    0.000    0.000 
#
# Total GULP energy -67001.337510 kJ/mol
# GULP energy per Si atom -5583.444793 kJ/mol
# Density = 2.862622 g / cm^3
# Si number density = 28.691526 Si / 1000 Ang^3
#
#
#
# Elastic Constant Matrix: (Units=GPa)
#
#
# Indices 1 2 3 4 5 6 
#
# 1 -16.6164 29.3737 -106.0290 -15.8043 69.2167 2.4996
# 2 29.3737 108.0281 45.0806 9.4048 -2.4738 36.1464
# 3 -106.0290 45.0806 -2.3111 -9.7682 95.3757 -12.7010
# 4 -15.8043 9.4048 -9.7682 71.4524 15.1683 -7.1053
# 5 69.2167 -2.4738 95.3757 15.1683 -15.4722 16.3024
# 6 2.4996 36.1464 -12.7010 -7.1053 16.3024 50.8147
#
#
#
# Elastic Compliance Matrix: (Units=1/GPa)
#
#
# Indices 1 2 3 4 5 6 
#
# 1 0.009893 0.001414 -0.004459 -0.001162 0.009335 -0.005765
# 2 0.001414 0.011167 -0.000219 -0.000856 -0.004689 -0.006683
# 3 -0.004459 -0.000219 0.004459 -0.001568 0.005513 -0.000498
# 4 -0.001162 -0.000856 -0.001568 0.013675 0.000735 0.001951
# 5 0.009335 -0.004689 0.005513 0.000735 0.012835 0.000239
# 6 -0.005765 -0.006683 -0.000498 0.001951 0.000239 0.024788
#
#
# Mechanical properties :
#
#
# Convention : Reuss Voigt Hill
#
# Bulk Modulus (GPa) = 52.65164 2.88348 27.76756
# Shear Modulus (GPa) = 55.75741 29.40401 42.58071
#
# Velocity S-wave (km/s) = 4.41312 3.20477 3.85656
# Velocity P-wave (km/s) = 6.66020 3.83422 5.43413
#
# Compressibility (1/GPa) = 0.01899276
#
# Stress axis : x y z
#
# Youngs Moduli (GPa) = 101.07869 89.54956 224.27346
#
# Poissons Ratio (x) = -0.12665 0.99994
# Poissons Ratio (y) = -0.14296 0.04910
# Poissons Ratio (z) = 0.45067 0.01960
#
# Static dielectric constant tensor:
#      x y z
#    x 2.806330 0.012680 -0.085210 
#    y 0.012680 2.321710 0.135910 
#    z -0.085210 0.135910 2.178710 
# 
# From -- ./inp_files/3279.got.cif
#   From: 2010.05.17/outbox.cif.g08.bks.cpg/sg2_2_cif.got.tgz:3279.got - 2010.06.03 11:33:40.
