data_PCOD9093820
_publ_section_title
;
Structure prediction by ZEFSAII (Michael W. Deem and Ramdas Pophale) SiO2 
 PCOD9093820
Probable space group: P -1
;
_chemical_formula_sum "Si O2"
_cell_formula_units_Z 16
_cell_length_a 24.746672
_cell_length_b 16.872626
_cell_length_c 13.073732
_cell_angle_alpha 154.912502
_cell_angle_beta 22.878780
_cell_angle_gamma 155.803171
_cell_volume 793.536020
_symmetry_space_group_name_H-M "P -1"
_symmetry_group_IT_number 2
_symmetry_cell_setting 'triclinic'
loop_
_space_group_symop_operation_xyz
x,y,z
-x,-y,-z
loop_
_atom_site_type_symbol
_atom_site_label
_atom_site_fract_x
_atom_site_fract_y
_atom_site_fract_z
Si Si1 0.855287 0.814947 0.811271
Si Si2 0.379615 0.444730 0.239256
Si Si3 0.326445 0.480164 0.851264
Si Si4 0.562783 0.796712 0.963078
Si Si5 0.588283 0.910983 0.475742
Si Si6 0.057730 0.252334 0.209806
Si Si7 0.279252 0.832425 0.253098
Si Si8 0.229071 0.052051 0.410129
O O1 0.787575 0.668871 0.658965
O O2 0.845230 0.685419 0.780876
O O3 0.740650 0.917301 0.159443
O O4 0.041456 0.968425 0.650422
O O5 0.394260 0.279817 0.097422
O O6 0.443100 0.673744 0.448197
O O7 0.500000 0.500000 0.000000
O O8 0.455838 0.586907 0.838049
O O9 0.318508 0.285022 0.575502
O O10 0.162766 0.381820 0.084423
O O11 0.340346 0.663672 0.965630
O O12 0.713242 0.935398 0.791148
O O13 0.464525 0.927058 0.293923
O O14 0.635034 0.984666 0.597663
O O15 0.903082 0.275193 0.521384
O O16 0.000000 0.000000 0.000000
O O17 0.280688 0.914083 0.232182
#
# Coordination Sequence:
#
# PCOD9093820 Si02
#       8
#     2   2   2   2   2   2   2   2
#     4  10  20  37  63  82 113 159 189 238 293 332
#     4  10  22  40  61  84 113 151 201 244 286 332
#     4  11  20  34  59  87 117 156 191 232 294 349
#     4  11  25  37  60  88 116 156 194 236 292 346
#     4  10  20  39  61  86 115 148 198 245 281 335
#     4  11  17  34  61  86 121 147 187 244 289 334
#     4  10  20  33  58  88 118 154 190 235 293 344
#     4  11  22  40  55  86 126 151 189 239 290 350
#
# _framework density 20.162915999999999
#
# number of rings (size 3 to 8) (size 9 to 14) (size 15 to 20)
#    0.000    1.500    3.750    3.000    0.000    6.500 
#    0.000    3.125    0.000    0.000    0.000    0.000 
#    0.000    0.000    0.000    0.000    0.000    0.000 
#
# Total GULP energy -89330.219517 kJ/mol
# GULP energy per Si atom -5583.138720 kJ/mol
# Density = 2.011702 g / cm^3
# Si number density = 20.162916 Si / 1000 Ang^3
#
#
#
# Elastic Constant Matrix: (Units=GPa)
#
#
# Indices 1 2 3 4 5 6 
#
# 1 141.4602 51.5651 35.9850 7.4305 -16.6291 -7.5626
# 2 51.5651 82.7537 35.3004 -1.8554 -1.6276 -2.4443
# 3 35.9850 35.3004 63.4101 -8.6255 -8.5600 -4.5867
# 4 7.4305 -1.8554 -8.6255 21.5824 -5.9403 4.1773
# 5 -16.6291 -1.6276 -8.5600 -5.9403 12.5839 -9.4090
# 6 -7.5626 -2.4443 -4.5867 4.1773 -9.4090 35.8964
#
#
#
# Elastic Compliance Matrix: (Units=1/GPa)
#
#
# Indices 1 2 3 4 5 6 
#
# 1 0.012694 -0.007431 0.000423 -0.000357 0.021922 0.008010
# 2 -0.007431 0.020954 -0.011754 -0.005265 -0.022833 -0.007013
# 3 0.000423 -0.011754 0.030347 0.018985 0.036516 0.010528
# 4 -0.000357 -0.005265 0.018985 0.065413 0.047808 0.006911
# 5 0.021922 -0.022833 0.036516 0.047808 0.192171 0.052537
# 6 0.008010 -0.007013 0.010528 0.006911 0.052537 0.043380
#
#
# Mechanical properties :
#
#
# Convention : Reuss Voigt Hill
#
# Bulk Modulus (GPa) = 37.77584 59.25835 48.51709
# Shear Modulus (GPa) = 12.15640 24.99745 18.57692
#
# Velocity S-wave (km/s) = 2.45808 3.52486 3.03865
# Velocity P-wave (km/s) = 5.17998 6.78379 6.03539
#
# Compressibility (1/GPa) = 0.02647195
#
# Stress axis : x y z
#
# Youngs Moduli (GPa) = 78.77676 47.72407 32.95189
#
# Poissons Ratio (x) = 0.35462 -0.01394
# Poissons Ratio (y) = 0.58535 0.38732
# Poissons Ratio (z) = -0.03332 0.56095
#
# Static dielectric constant tensor:
#      x y z
#    x 1.715410 0.025330 0.008660 
#    y 0.025330 1.759760 -0.017830 
#    z 0.008660 -0.017830 1.742270 
# 
# From -- ./inp_files/471975.got.cif
#   From: 2010.05.17/outbox.cif.g08.bks.cpg/sg2_236_cif.got.tgz:471975.got - 2010.06.03 11:33:40.
