data_PCOD9093980
_publ_section_title
;
Structure prediction by ZEFSAII (Michael W. Deem and Ramdas Pophale) SiO2 
 PCOD9093980
Probable space group: P -1
;
_chemical_formula_sum "Si O2"
_cell_formula_units_Z 16
_cell_length_a 17.052874
_cell_length_b 9.333330
_cell_length_c 15.751749
_cell_angle_alpha 144.073084
_cell_angle_beta 29.635601
_cell_angle_gamma 121.178354
_cell_volume 557.976267
_symmetry_space_group_name_H-M "P -1"
_symmetry_group_IT_number 2
_symmetry_cell_setting 'triclinic'
loop_
_space_group_symop_operation_xyz
x,y,z
-x,-y,-z
loop_
_atom_site_type_symbol
_atom_site_label
_atom_site_fract_x
_atom_site_fract_y
_atom_site_fract_z
Si Si1 0.947441 0.452627 0.794149
Si Si2 0.861119 0.031053 0.893589
Si Si3 0.380593 0.169737 0.036781
Si Si4 0.655020 0.955758 0.533762
Si Si5 0.207370 0.523494 0.687811
Si Si6 0.624799 0.368656 0.637655
Si Si7 0.566763 0.651987 0.349165
Si Si8 0.170209 0.763826 0.337800
O O1 0.936994 0.368447 0.667740
O O2 0.054108 0.596267 0.792046
O O3 0.718869 0.650463 0.142482
O O4 0.074241 0.108577 0.555318
O O5 0.815203 0.193582 0.107540
O O6 0.711924 0.326062 0.109771
O O7 0.788219 0.827235 0.849298
O O8 0.089628 0.838835 0.546197
O O9 0.501179 0.211472 0.872354
O O10 0.564839 0.798307 0.710418
O O11 0.316404 0.413278 0.289365
O O12 0.748056 0.046465 0.421492
O O13 0.813493 0.640855 0.289661
O O14 0.511815 0.905323 0.592598
O O15 0.599256 0.318023 0.539551
O O16 0.397208 0.553434 0.982473
#
# Coordination Sequence:
#
# PCOD9093980 Si02
#       8
#     2   2   2   2   2   2   2   2
#     4   9  16  32  50  78 102 129 171 210 260 294
#     4  10  20  34  49  79 108 129 169 210 264 302
#     4  10  21  33  50  78 106 135 167 209 257 301
#     4   9  20  33  52  75 103 138 172 204 249 300
#     4   9  19  32  53  74 104 134 164 214 251 301
#     4  11  19  36  53  77 103 138 172 206 247 306
#     4   9  20  32  56  79 103 129 169 218 254 299
#     4   9  18  31  52  73 105 133 165 213 252 301
#
# _framework density 28.675052999999998
#
# number of rings (size 3 to 8) (size 9 to 14) (size 15 to 20)
#    0.750    1.750    1.250    1.875    0.000    6.000 
#    0.000    0.625    0.000    0.000    0.000    4.375 
#    0.000    0.000    0.000    0.000    0.000    0.000 
#
# Total GULP energy -89452.116685 kJ/mol
# GULP energy per Si atom -5590.757293 kJ/mol
# Density = 2.860979 g / cm^3
# Si number density = 28.675053 Si / 1000 Ang^3
#
#
#
# Elastic Constant Matrix: (Units=GPa)
#
#
# Indices 1 2 3 4 5 6 
#
# 1 190.5800 50.9712 35.0584 21.7420 49.4512 52.7806
# 2 50.9712 77.4947 21.1106 11.9700 11.0474 30.6552
# 3 35.0584 21.1106 86.3205 14.5729 11.1767 8.0570
# 4 21.7420 11.9700 14.5729 24.9554 1.4859 11.5690
# 5 49.4512 11.0474 11.1767 1.4859 49.5178 14.8363
# 6 52.7806 30.6552 8.0570 11.5690 14.8363 64.4822
#
#
#
# Elastic Compliance Matrix: (Units=1/GPa)
#
#
# Indices 1 2 3 4 5 6 
#
# 1 0.009755 -0.002771 -0.001238 -0.004124 -0.007509 -0.004045
# 2 -0.002771 0.017859 -0.002500 -0.002071 0.001148 -0.005802
# 3 -0.001238 -0.002500 0.013859 -0.006671 -0.001754 0.002071
# 4 -0.004124 -0.002071 -0.006671 0.050648 0.006158 -0.005310
# 5 -0.007509 0.001148 -0.001754 0.006158 0.028178 -0.001769
# 6 -0.004045 -0.005802 0.002071 -0.005310 -0.001769 0.022679
#
#
# Mechanical properties :
#
#
# Convention : Reuss Voigt Hill
#
# Bulk Modulus (GPa) = 35.14312 63.18616 49.16464
# Shear Modulus (GPa) = 30.21474 44.27477 37.24475
#
# Velocity S-wave (km/s) = 3.24959 3.93366 3.60787
# Velocity P-wave (km/s) = 5.13439 6.53565 5.87693
#
# Compressibility (1/GPa) = 0.02845507
#
# Stress axis : x y z
#
# Youngs Moduli (GPa) = 102.50863 55.99311 72.15546
#
# Poissons Ratio (x) = 0.15518 0.08934
# Poissons Ratio (y) = 0.28410 0.18036
# Poissons Ratio (z) = 0.12692 0.13996
#
# Static dielectric constant tensor:
#      x y z
#    x 2.269470 0.008620 -0.124490 
#    y 0.008620 2.246830 0.051510 
#    z -0.124490 0.051510 2.248370 
# 
# From -- ./inp_files/260228.got.cif
#   From: 2010.05.17/outbox.cif.g08.bks.cpg/sg2_131_cif.got.tgz:260228.got - 2010.06.03 11:33:40.
