data_PCOD9093354
_publ_section_title
;
Structure prediction by ZEFSAII (Michael W. Deem and Ramdas Pophale) SiO2 
 PCOD9093354
Probable space group: P -1
;
_chemical_formula_sum "Si O2"
_cell_formula_units_Z 16
_cell_length_a 6.013495
_cell_length_b 20.318764
_cell_length_c 15.293184
_cell_angle_alpha 150.140123
_cell_angle_beta 80.905314
_cell_angle_gamma 108.431289
_cell_volume 855.537052
_symmetry_space_group_name_H-M "P -1"
_symmetry_group_IT_number 2
_symmetry_cell_setting 'triclinic'
loop_
_space_group_symop_operation_xyz
x,y,z
-x,-y,-z
loop_
_atom_site_type_symbol
_atom_site_label
_atom_site_fract_x
_atom_site_fract_y
_atom_site_fract_z
Si Si1 0.363140 0.557078 0.205746
Si Si2 0.193136 0.106829 0.673501
Si Si3 0.251873 0.889701 0.849413
Si Si4 0.083403 0.694694 0.028354
Si Si5 0.576839 0.910404 0.186320
Si Si6 0.358835 0.638880 0.108034
Si Si7 0.473421 0.157217 0.371937
Si Si8 0.982463 0.944881 0.073997
O O1 0.273711 0.588081 0.151807
O O2 0.500789 0.703014 0.414945
O O3 0.540950 0.472288 0.074248
O O4 0.125862 0.454765 0.154194
O O5 0.317322 0.048719 0.675458
O O6 0.408130 0.217094 0.731737
O O7 0.053431 0.196045 0.831871
O O8 0.000000 0.000000 0.500000
O O9 0.341105 0.797641 0.670286
O O10 0.080021 0.844021 0.892573
O O11 0.131233 0.973709 0.891902
O O12 0.500000 0.000000 0.000000
O O13 0.327985 0.774083 0.050746
O O14 0.175762 0.672783 0.094031
O O15 0.774315 0.873824 0.074944
O O16 0.538724 0.044371 0.298073
O O17 0.207965 0.064967 0.245568
#
# Coordination Sequence:
#
# PCOD9093354 Si02
#       8
#     2   2   2   2   2   2   2   2
#     4  10  21  36  52  75 105 142 188 223 262 321
#     4  10  22  34  52  76 107 139 182 233 268 314
#     4   8  16  32  52  82 113 138 165 215 275 319
#     4  10  21  38  51  71 105 146 185 219 272 314
#     4  10  21  33  53  82 106 142 179 221 275 315
#     4   9  21  36  52  71 101 150 185 224 269 309
#     4  10  20  32  57  85 108 138 179 226 268 317
#     4   9  17  32  53  82 113 135 171 217 270 327
#
# _framework density 18.701702999999998
#
# number of rings (size 3 to 8) (size 9 to 14) (size 15 to 20)
#    0.000    2.500    0.000    1.125    5.250    3.000 
#    0.000    0.000    0.000    0.750    0.000   48.125 
#    0.000    0.000    0.000    0.000    0.000    0.000 
#
# Total GULP energy -89130.643668 kJ/mol
# GULP energy per Si atom -5570.665229 kJ/mol
# Density = 1.865914 g / cm^3
# Si number density = 18.701703 Si / 1000 Ang^3
#
#
#
# Elastic Constant Matrix: (Units=GPa)
#
#
# Indices 1 2 3 4 5 6 
#
# 1 77.5532 29.1774 28.9414 6.5892 17.8351 -0.9522
# 2 29.1774 78.8597 46.2819 3.7832 12.6034 21.8844
# 3 28.9414 46.2819 80.6884 -2.5318 11.2198 -0.2455
# 4 6.5892 3.7832 -2.5318 12.5887 2.1996 0.3155
# 5 17.8351 12.6034 11.2198 2.1996 10.8182 1.2209
# 6 -0.9522 21.8844 -0.2455 0.3155 1.2209 44.5301
#
#
#
# Elastic Compliance Matrix: (Units=1/GPa)
#
#
# Indices 1 2 3 4 5 6 
#
# 1 0.022270 -0.002150 -0.002722 -0.006310 -0.030374 0.002395
# 2 -0.002150 0.027225 -0.013581 -0.007523 -0.011076 -0.013144
# 3 -0.002722 -0.013581 0.022330 0.010844 -0.005825 0.006822
# 4 -0.006310 -0.007523 0.010844 0.088939 -0.010532 0.003281
# 5 -0.030374 -0.011076 -0.005825 -0.010532 0.163558 0.000352
# 6 0.002395 -0.013144 0.006822 0.003281 0.000352 0.028972
#
#
# Mechanical properties :
#
#
# Convention : Reuss Voigt Hill
#
# Bulk Modulus (GPa) = 28.63665 49.54473 39.09069
# Shear Modulus (GPa) = 12.44277 22.43410 17.43843
#
# Velocity S-wave (km/s) = 2.58219 3.46725 3.05692
# Velocity P-wave (km/s) = 4.92299 6.52523 5.77990
#
# Compressibility (1/GPa) = 0.03492028
#
# Stress axis : x y z
#
# Youngs Moduli (GPa) = 44.90418 36.73064 44.78191
#
# Poissons Ratio (x) = 0.07896 0.12189
# Poissons Ratio (y) = 0.09653 0.60818
# Poissons Ratio (z) = 0.12222 0.49884
#
# Static dielectric constant tensor:
#      x y z
#    x 1.681130 0.035270 -0.017080 
#    y 0.035270 1.690600 -0.022340 
#    z -0.017080 -0.022340 1.627940 
# 
# From -- ./inp_files/39263.got.cif
#   From: 2010.05.17/outbox.cif.g08.bks.cpg/sg2_20_cif.got.tgz:39263.got - 2010.06.03 11:33:40.
