data_PCOD9093350
_publ_section_title
;
Structure prediction by ZEFSAII (Michael W. Deem and Ramdas Pophale) SiO2 
 PCOD9093350
Probable space group: P -1
;
_chemical_formula_sum "Si O2"
_cell_formula_units_Z 16
_cell_length_a 15.917783
_cell_length_b 15.222343
_cell_length_c 11.866629
_cell_angle_alpha 37.873820
_cell_angle_beta 25.603007
_cell_angle_gamma 37.849363
_cell_volume 729.311615
_symmetry_space_group_name_H-M "P -1"
_symmetry_group_IT_number 2
_symmetry_cell_setting 'triclinic'
loop_
_space_group_symop_operation_xyz
x,y,z
-x,-y,-z
loop_
_atom_site_type_symbol
_atom_site_label
_atom_site_fract_x
_atom_site_fract_y
_atom_site_fract_z
Si Si1 0.505584 0.682011 0.727403
Si Si2 0.865060 0.361708 0.235966
Si Si3 0.867236 0.462244 0.370682
Si Si4 0.184009 0.063307 0.188602
Si Si5 0.528589 0.048312 0.653978
Si Si6 0.559106 0.184074 0.718734
Si Si7 0.767293 0.732132 0.774943
Si Si8 0.243357 0.466499 0.217717
O O1 0.692794 0.575593 0.536704
O O2 0.457434 0.852054 0.570618
O O3 0.601987 0.652417 0.765515
O O4 0.318333 0.613597 0.999377
O O5 0.779109 0.433265 0.386548
O O6 0.711086 0.285890 0.441729
O O7 0.075236 0.237975 0.141599
O O8 0.948830 0.468150 0.949027
O O9 0.993675 0.314021 0.434470
O O10 0.327677 0.977835 0.200516
O O11 0.309489 0.018277 0.966831
O O12 0.000000 0.000000 0.500000
O O13 0.520280 0.156468 0.663770
O O14 0.696358 0.891822 0.633607
O O15 0.373179 0.251634 0.960343
O O16 0.726596 0.608300 0.865765
O O17 0.000000 0.500000 0.500000
#
# Coordination Sequence:
#
# PCOD9093350 Si02
#       8
#     2   2   2   2   2   2   2   2
#     4  11  25  44  72  94 128 170 222 280 326 380
#     4  10  20  32  56  94 133 174 213 258 311 398
#     4  11  21  36  61  94 130 170 222 261 322 389
#     4   9  17  34  54  83 131 173 201 247 309 382
#     4  11  22  40  64 100 132 169 214 261 324 403
#     4  10  21  34  59  94 138 170 207 257 330 388
#     4  11  23  40  66  93 133 175 212 270 327 386
#     4  11  25  49  71  93 126 169 226 281 334 378
#
# _framework density 21.938496000000001
#
# number of rings (size 3 to 8) (size 9 to 14) (size 15 to 20)
#    0.000    1.500    2.500    3.750    3.500    1.000 
#    0.000    0.625    0.000    0.000    0.000    0.000 
#    0.000    0.000    0.000    0.000    0.000    0.000 
#
# Total GULP energy -89270.495863 kJ/mol
# GULP energy per Si atom -5579.405991 kJ/mol
# Density = 2.188856 g / cm^3
# Si number density = 21.938496 Si / 1000 Ang^3
#
#
#
# Elastic Constant Matrix: (Units=GPa)
#
#
# Indices 1 2 3 4 5 6 
#
# 1 78.9815 3.5556 24.2031 -1.8811 -11.1325 2.5993
# 2 3.5556 67.8583 21.5959 0.7511 -6.0425 -15.0676
# 3 24.2031 21.5959 79.7466 -12.1456 -21.1210 -20.8988
# 4 -1.8811 0.7511 -12.1456 30.4032 -7.4248 8.6580
# 5 -11.1325 -6.0425 -21.1210 -7.4248 31.9943 -2.0204
# 6 2.5993 -15.0676 -20.8988 8.6580 -2.0204 33.6498
#
#
#
# Elastic Compliance Matrix: (Units=1/GPa)
#
#
# Indices 1 2 3 4 5 6 
#
# 1 0.014588 0.000031 -0.005069 0.000484 0.001577 -0.004291
# 2 0.000031 0.017368 -0.003303 -0.003465 0.000727 0.006658
# 3 -0.005069 -0.003303 0.024124 0.009954 0.016627 0.012332
# 4 0.000484 -0.003465 0.009954 0.042310 0.015565 -0.005359
# 5 0.001577 0.000727 0.016627 0.015565 0.047120 0.009354
# 6 -0.004291 0.006658 0.012332 -0.005359 0.009354 0.042630
#
#
# Mechanical properties :
#
#
# Convention : Reuss Voigt Hill
#
# Bulk Modulus (GPa) = 25.38229 36.14395 30.76312
# Shear Modulus (GPa) = 22.94040 31.02493 26.98267
#
# Velocity S-wave (km/s) = 3.23719 3.76463 3.51083
# Velocity P-wave (km/s) = 5.05642 5.95042 5.52154
#
# Compressibility (1/GPa) = 0.03939756
#
# Stress axis : x y z
#
# Youngs Moduli (GPa) = 68.54868 57.57820 41.45219
#
# Poissons Ratio (x) = -0.00179 0.21013
# Poissons Ratio (y) = -0.00213 0.13692
# Poissons Ratio (z) = 0.34749 0.19019
#
# Static dielectric constant tensor:
#      x y z
#    x 1.862770 -0.033940 -0.050070 
#    y -0.033940 1.814760 0.024860 
#    z -0.050070 0.024860 1.866650 
# 
# From -- ./inp_files/454467.got.cif
#   From: 2010.05.17/outbox.cif.g08.bks.cpg/sg2_228_cif.got.tgz:454467.got - 2010.06.03 11:33:40.
