data_PCOD9093546
_publ_section_title
;
Structure prediction by ZEFSAII (Michael W. Deem and Ramdas Pophale) SiO2 
 PCOD9093546
Probable space group: P -1
;
_chemical_formula_sum "Si O2"
_cell_formula_units_Z 14
_cell_length_a 10.751823
_cell_length_b 10.555913
_cell_length_c 8.558247
_cell_angle_alpha 117.488269
_cell_angle_beta 62.712808
_cell_angle_gamma 81.472837
_cell_volume 681.337913
_symmetry_space_group_name_H-M "P -1"
_symmetry_group_IT_number 2
_symmetry_cell_setting 'triclinic'
loop_
_space_group_symop_operation_xyz
x,y,z
-x,-y,-z
loop_
_atom_site_type_symbol
_atom_site_label
_atom_site_fract_x
_atom_site_fract_y
_atom_site_fract_z
Si Si1 0.563904 0.625637 0.187045
Si Si2 0.083921 0.828612 0.644939
Si Si3 0.326071 0.143127 0.645795
Si Si4 0.736814 0.087966 0.642670
Si Si5 0.785182 0.987263 0.097145
Si Si6 0.540078 0.145755 0.089368
Si Si7 0.655994 0.519177 0.725628
O O1 0.658799 0.693678 0.275715
O O2 0.407848 0.778657 0.299626
O O3 0.491868 0.518373 0.244774
O O4 0.654155 0.543822 0.928614
O O5 0.118474 0.884874 0.488440
O O6 0.185073 0.637762 0.495445
O O7 0.904452 0.895562 0.836697
O O8 0.151077 0.914132 0.777262
O O9 0.500000 0.000000 0.500000
O O10 0.255443 0.081722 0.510709
O O11 0.232027 0.140618 0.853751
O O12 0.673080 0.130608 0.878099
O O13 0.618957 0.113524 0.194474
O O14 0.389292 0.314200 0.239833
O O15 0.500000 0.000000 0.000000
#
# Coordination Sequence:
#
# PCOD9093546 Si02
#       7
#     2   2   2   2   2   2   2
#     4   8  14  27  48  73  94 128 174 206 234 292
#     4   9  19  36  53  73 100 140 174 196 243 308
#     4   9  15  29  51  72  95 132 171 203 241 295
#     4   8  16  30  50  70  98 134 167 201 246 298
#     4  10  20  33  53  78 105 130 166 211 249 297
#     4  11  21  33  50  80 106 126 165 218 258 288
#     4   9  17  30  50  73 101 130 167 210 249 292
#
# _framework density 20.547808
#
# number of rings (size 3 to 8) (size 9 to 14) (size 15 to 20)
#    0.000    2.857    0.000    4.286    0.000    1.143 
#    0.000    2.857    0.000    0.000    0.000   10.000 
#    0.000    0.000    0.000    0.000    0.000    0.000 
#
# Total GULP energy -78032.347057 kJ/mol
# GULP energy per Si atom -5573.739075 kJ/mol
# Density = 2.050104 g / cm^3
# Si number density = 20.547808 Si / 1000 Ang^3
#
#
#
# Elastic Constant Matrix: (Units=GPa)
#
#
# Indices 1 2 3 4 5 6 
#
# 1 18.7979 14.3890 0.2941 10.2038 1.7000 3.0460
# 2 14.3890 75.5251 21.3327 25.6047 3.8895 5.1724
# 3 0.2941 21.3327 94.3935 7.1449 -17.4135 5.1359
# 4 10.2038 25.6047 7.1449 30.5370 2.1965 7.2789
# 5 1.7000 3.8895 -17.4135 2.1965 17.9553 4.8415
# 6 3.0460 5.1724 5.1359 7.2789 4.8415 26.3947
#
#
#
# Elastic Compliance Matrix: (Units=1/GPa)
#
#
# Indices 1 2 3 4 5 6 
#
# 1 0.068658 -0.008430 0.003276 -0.016084 0.001196 -0.002693
# 2 -0.008430 0.021318 -0.005431 -0.013960 -0.008246 0.003214
# 3 0.003276 -0.005431 0.015273 -0.000057 0.017145 -0.005415
# 4 -0.016084 -0.013960 -0.000057 0.052149 0.000788 -0.009923
# 5 0.001196 -0.008246 0.017145 0.000788 0.078332 -0.016444
# 6 -0.002693 0.003214 -0.005415 -0.009923 -0.016444 0.044374
#
#
# Mechanical properties :
#
#
# Convention : Reuss Voigt Hill
#
# Bulk Modulus (GPa) = 11.89364 28.97200 20.43282
# Shear Modulus (GPa) = 15.18368 25.15745 20.17057
#
# Velocity S-wave (km/s) = 2.72130 3.50285 3.13651
# Velocity P-wave (km/s) = 3.95914 5.52181 4.80443
#
# Compressibility (1/GPa) = 0.08407855
#
# Stress axis : x y z
#
# Youngs Moduli (GPa) = 14.56491 46.90845 65.47499
#
# Poissons Ratio (x) = 0.39546 -0.21449
# Poissons Ratio (y) = 0.12279 0.35559
# Poissons Ratio (z) = -0.04771 0.25476
#
# Static dielectric constant tensor:
#      x y z
#    x 1.763480 0.035960 0.012430 
#    y 0.035960 1.760330 -0.033490 
#    z 0.012430 -0.033490 1.788880 
# 
# From -- ./inp_files/195077.got.cif
#   From: 2010.05.17/outbox.cif.g08.bks.cpg/sg2_98_cif.got.tgz:195077.got - 2010.06.03 11:33:40.
