data_PCOD9093543
_publ_section_title
;
Structure prediction by ZEFSAII (Michael W. Deem and Ramdas Pophale) SiO2 
 PCOD9093543
Probable space group: P -1
;
_chemical_formula_sum "Si O2"
_cell_formula_units_Z 16
_cell_length_a 22.729387
_cell_length_b 19.230960
_cell_length_c 6.414233
_cell_angle_alpha 123.484052
_cell_angle_beta 43.864428
_cell_angle_gamma 157.576695
_cell_volume 667.595136
_symmetry_space_group_name_H-M "P -1"
_symmetry_group_IT_number 2
_symmetry_cell_setting 'triclinic'
loop_
_space_group_symop_operation_xyz
x,y,z
-x,-y,-z
loop_
_atom_site_type_symbol
_atom_site_label
_atom_site_fract_x
_atom_site_fract_y
_atom_site_fract_z
Si Si1 0.434275 0.174218 0.245447
Si Si2 0.646346 0.642205 0.058945
Si Si3 0.870393 0.116152 0.838826
Si Si4 0.094912 0.973615 0.046162
Si Si5 0.259802 0.878983 0.445506
Si Si6 0.293917 0.788249 0.560378
Si Si7 0.044045 0.410532 0.640300
Si Si8 0.315268 0.448094 0.843320
O O1 0.436448 0.086681 0.210104
O O2 0.635929 0.411000 0.089570
O O3 0.315444 0.060039 0.140930
O O4 0.277553 0.086638 0.648721
O O5 0.512170 0.577530 0.454491
O O6 0.693893 0.597781 0.977055
O O7 0.841860 0.873669 0.882739
O O8 0.500000 0.500000 0.000000
O O9 0.046585 0.323141 0.602519
O O10 0.917331 0.072359 0.763862
O O11 0.805149 0.118699 0.196703
O O12 0.886320 0.762892 0.112218
O O13 0.301950 0.830022 0.373257
O O14 0.075407 0.704452 0.463184
O O15 0.243861 0.646270 0.488759
O O16 0.500000 0.000000 0.500000
O O17 0.109066 0.672385 0.957334
#
# Coordination Sequence:
#
# PCOD9093543 Si02
#       8
#     2   2   2   2   2   2   2   2
#     4   9  19  36  53  73 103 134 167 208 252 299
#     4  10  21  36  53  75 105 136 166 206 253 299
#     4   9  18  35  55  74 101 135 168 207 254 299
#     4  10  20  34  54  78 101 131 171 209 249 299
#     4   9  18  35  54  73 104 137 165 208 256 296
#     4  10  20  33  53  78 101 133 173 207 248 301
#     4   9  19  36  53  73 105 136 165 208 254 297
#     4  10  21  35  53  77 103 133 169 208 250 298
#
# _framework density 23.966619000000001
#
# number of rings (size 3 to 8) (size 9 to 14) (size 15 to 20)
#    0.000    2.500    0.000    1.500    0.000    3.000 
#    0.000   11.250    0.000    0.000    0.000    0.000 
#    0.000    0.000    0.000    0.000    0.000    0.000 
#
# Total GULP energy -89478.934939 kJ/mol
# GULP energy per Si atom -5592.433434 kJ/mol
# Density = 2.391207 g / cm^3
# Si number density = 23.966619 Si / 1000 Ang^3
#
#
#
# Elastic Constant Matrix: (Units=GPa)
#
#
# Indices 1 2 3 4 5 6 
#
# 1 172.3286 84.2010 55.7169 -16.6350 47.0625 -20.3287
# 2 84.2010 179.0992 48.1372 -41.8169 46.7399 -32.8593
# 3 55.7169 48.1372 104.5450 -21.0737 30.5702 -5.3386
# 4 -16.6350 -41.8169 -21.0737 49.8696 -7.8964 9.0982
# 5 47.0625 46.7399 30.5702 -7.8964 54.9833 6.0682
# 6 -20.3287 -32.8593 -5.3386 9.0982 6.0682 28.8624
#
#
#
# Elastic Compliance Matrix: (Units=1/GPa)
#
#
# Indices 1 2 3 4 5 6 
#
# 1 0.009770 -0.001051 -0.002539 -0.001084 -0.006989 0.007026
# 2 -0.001051 0.013010 -0.000347 0.006109 -0.010671 0.014325
# 3 -0.002539 -0.000347 0.013072 0.003719 -0.004260 -0.000042
# 4 -0.001084 0.006109 0.003719 0.026144 -0.002486 -0.000839
# 5 -0.006989 -0.010671 -0.004260 -0.002486 0.038019 -0.025069
# 6 0.007026 0.014325 -0.000042 -0.000839 -0.025069 0.061433
#
#
# Mechanical properties :
#
#
# Convention : Reuss Voigt Hill
#
# Bulk Modulus (GPa) = 35.74287 92.45367 64.09827
# Shear Modulus (GPa) = 27.98800 44.60424 36.29612
#
# Velocity S-wave (km/s) = 3.42100 4.31873 3.89581
# Velocity P-wave (km/s) = 5.52723 7.97046 6.85852
#
# Compressibility (1/GPa) = 0.02797761
#
# Stress axis : x y z
#
# Youngs Moduli (GPa) = 102.35294 76.86178 76.50170
#
# Poissons Ratio (x) = 0.08077 0.19425
# Poissons Ratio (y) = 0.10756 0.02656
# Poissons Ratio (z) = 0.25989 0.02669
#
# Static dielectric constant tensor:
#      x y z
#    x 1.920450 -0.078500 -0.034030 
#    y -0.078500 1.855430 -0.007780 
#    z -0.034030 -0.007780 1.965130 
# 
# From -- ./inp_files/120650.got.cif
#   From: 2010.05.17/outbox.cif.g08.bks.cpg/sg2_61_cif.got.tgz:120650.got - 2010.06.03 11:33:40.
