data_PCOD9093685
_publ_section_title
;
Structure prediction by ZEFSAII (Michael W. Deem and Ramdas Pophale) SiO2 
 PCOD9093685
Probable space group: P -1
;
_chemical_formula_sum "Si O2"
_cell_formula_units_Z 16
_cell_length_a 26.184254
_cell_length_b 5.671485
_cell_length_c 8.019666
_cell_angle_alpha 123.041342
_cell_angle_beta 44.822172
_cell_angle_gamma 116.516437
_cell_volume 700.140176
_symmetry_space_group_name_H-M "P -1"
_symmetry_group_IT_number 2
_symmetry_cell_setting 'triclinic'
loop_
_space_group_symop_operation_xyz
x,y,z
-x,-y,-z
loop_
_atom_site_type_symbol
_atom_site_label
_atom_site_fract_x
_atom_site_fract_y
_atom_site_fract_z
Si Si1 0.477643 0.668723 0.451429
Si Si2 0.180283 0.047347 0.427818
Si Si3 0.788069 0.307283 0.306226
Si Si4 0.309200 0.949351 0.274414
Si Si5 0.078475 0.792480 0.857355
Si Si6 0.044962 0.134020 0.601664
Si Si7 0.563061 0.249755 0.929210
Si Si8 0.656501 0.406138 0.468661
O O1 0.500000 0.500000 0.500000
O O2 0.391255 0.608594 0.592149
O O3 0.500000 0.000000 0.500000
O O4 0.523405 0.528597 0.147454
O O5 0.207455 0.378161 0.504765
O O6 0.122919 0.012188 0.396974
O O7 0.253253 0.895589 0.229568
O O8 0.128811 0.969968 0.677222
O O9 0.740849 0.107557 0.467453
O O10 0.870660 0.236455 0.106663
O O11 0.738655 0.317165 0.259176
O O12 0.376353 0.768482 0.074025
O O13 0.339313 0.276652 0.344952
O O14 0.059061 0.477662 0.704081
O O15 0.007339 0.922450 0.137652
O O16 0.000000 0.000000 0.500000
O O17 0.606160 0.222406 0.647620
O O18 0.500000 0.000000 0.000000
#
# Coordination Sequence:
#
# PCOD9093685 Si02
#       8
#     2   2   2   2   2   2   2   2
#     4  12  27  40  57  90 133 160 195 264 332 371
#     4   9  17  34  56  85 112 149 193 249 303 353
#     4   8  17  33  59  84 106 148 203 249 293 356
#     4   9  18  33  63  86 107 147 213 255 292 357
#     4   9  18  35  57  82 117 153 196 241 298 360
#     4  10  20  33  55  87 119 152 193 243 295 361
#     4  11  21  38  64  89 112 157 219 251 297 384
#     4  10  20  37  64  83 111 159 211 248 300 378
#
# _framework density 22.852568000000002
#
# number of rings (size 3 to 8) (size 9 to 14) (size 15 to 20)
#    0.000    2.250    1.250    1.500    3.500    0.500 
#    0.000    1.250    8.250    0.000    0.000    0.000 
#    0.000    0.000    0.000    0.000    0.000    0.000 
#
# Total GULP energy -89196.649620 kJ/mol
# GULP energy per Si atom -5574.790601 kJ/mol
# Density = 2.280055 g / cm^3
# Si number density = 22.852568 Si / 1000 Ang^3
#
#
#
# Elastic Constant Matrix: (Units=GPa)
#
#
# Indices 1 2 3 4 5 6 
#
# 1 237.4340 20.7390 31.3201 10.3442 -26.4034 21.3290
# 2 20.7390 78.0062 13.0967 -10.6410 1.5572 7.6952
# 3 31.3201 13.0967 39.6510 5.9187 -11.5790 8.6195
# 4 10.3442 -10.6410 5.9187 21.7591 -5.5957 -4.5756
# 5 -26.4034 1.5572 -11.5790 -5.5957 44.1774 -5.8575
# 6 21.3290 7.6952 8.6195 -4.5756 -5.8575 27.5115
#
#
#
# Elastic Compliance Matrix: (Units=1/GPa)
#
#
# Indices 1 2 3 4 5 6 
#
# 1 0.005185 -0.001108 -0.002134 -0.002601 0.001840 -0.003082
# 2 -0.001108 0.015450 -0.006000 0.009199 -0.001668 -0.000408
# 3 -0.002134 -0.006000 0.033902 -0.011476 0.005298 -0.008070
# 4 -0.002601 0.009199 -0.011476 0.058837 0.004390 0.013759
# 5 0.001840 -0.001668 0.005298 0.004390 0.026229 0.003694
# 6 -0.003082 -0.000408 -0.008070 0.013759 0.003694 0.044455
#
#
# Mechanical properties :
#
#
# Convention : Reuss Voigt Hill
#
# Bulk Modulus (GPa) = 27.73641 53.93364 40.83502
# Shear Modulus (GPa) = 23.30371 38.01862 30.66116
#
# Velocity S-wave (km/s) = 3.19680 4.08321 3.66689
# Velocity P-wave (km/s) = 5.07834 6.77363 5.98630
#
# Compressibility (1/GPa) = 0.03605369
#
# Stress axis : x y z
#
# Youngs Moduli (GPa) = 192.87293 64.72591 29.49704
#
# Poissons Ratio (x) = 0.07170 0.06294
# Poissons Ratio (y) = 0.21364 0.17697
# Poissons Ratio (z) = 0.41157 0.38834
#
# Static dielectric constant tensor:
#      x y z
#    x 2.038230 0.011090 0.014320 
#    y 0.011090 1.912340 0.010460 
#    z 0.014320 0.010460 1.831260 
# 
# From -- ./inp_files/52881.got.cif
#   From: 2010.05.17/outbox.cif.g08.bks.cpg/sg2_27_cif.got.tgz:52881.got - 2010.06.03 11:33:40.
