data_PCOD9093514
_publ_section_title
;
Structure prediction by ZEFSAII (Michael W. Deem and Ramdas Pophale) SiO2 
 PCOD9093514
Probable space group: P -1
;
_chemical_formula_sum "Si O2"
_cell_formula_units_Z 14
_cell_length_a 11.838460
_cell_length_b 9.069989
_cell_length_c 11.050641
_cell_angle_alpha 127.467580
_cell_angle_beta 134.189060
_cell_angle_gamma 85.167437
_cell_volume 541.741300
_symmetry_space_group_name_H-M "P -1"
_symmetry_group_IT_number 2
_symmetry_cell_setting 'triclinic'
loop_
_space_group_symop_operation_xyz
x,y,z
-x,-y,-z
loop_
_atom_site_type_symbol
_atom_site_label
_atom_site_fract_x
_atom_site_fract_y
_atom_site_fract_z
Si Si1 0.589963 0.793080 0.519028
Si Si2 0.960194 0.154569 0.398756
Si Si3 0.368450 0.136672 0.149578
Si Si4 0.722526 0.367920 0.150879
Si Si5 0.219512 0.717984 0.461895
Si Si6 0.793281 0.335048 0.913403
Si Si7 0.323746 0.171896 0.670247
O O1 0.354034 0.652835 0.274963
O O2 0.644070 0.748196 0.406306
O O3 0.651940 0.779044 0.693301
O O4 0.695043 0.066902 0.724810
O O5 0.844742 0.201842 0.431145
O O6 0.096742 0.392129 0.537016
O O7 0.132798 0.138184 0.561852
O O8 0.797159 0.912925 0.090387
O O9 0.599990 0.287351 0.368628
O O10 0.310396 0.873287 0.971171
O O11 0.769912 0.412840 0.066207
O O12 0.511507 0.319782 0.972394
O O13 0.289725 0.924899 0.523137
O O14 0.025840 0.487569 0.148049
#
# Coordination Sequence:
#
# PCOD9093514 Si02
#       7
#     2   2   2   2   2   2   2
#     4   9  18  33  52  78  98 124 170 206 248 288
#     4  11  20  33  51  75 106 133 160 201 257 298
#     4  10  20  33  52  75 103 131 164 208 243 296
#     4   8  17  33  53  74  94 130 175 208 238 280
#     4  10  20  33  53  76  98 131 169 206 247 285
#     4   8  15  31  55  75  94 125 172 215 234 279
#     4  10  20  33  52  75 103 131 164 208 243 296
#
# _framework density 25.842592
#
# number of rings (size 3 to 8) (size 9 to 14) (size 15 to 20)
#    0.000    2.571    0.000    4.286    0.000    2.857 
#    0.000    0.000    0.000    3.429    0.000    0.000 
#    0.000    0.000    0.000    0.000    0.000    0.000 
#
# Total GULP energy -78074.672591 kJ/mol
# GULP energy per Si atom -5576.762328 kJ/mol
# Density = 2.578377 g / cm^3
# Si number density = 25.842592 Si / 1000 Ang^3
#
#
#
# Elastic Constant Matrix: (Units=GPa)
#
#
# Indices 1 2 3 4 5 6 
#
# 1 112.6120 13.5205 52.9903 -7.3219 15.9342 6.8574
# 2 13.5205 26.4095 14.7907 6.5177 1.7497 -8.6613
# 3 52.9903 14.7907 191.2580 -2.2771 29.3434 7.8816
# 4 -7.3219 6.5177 -2.2771 29.2667 -0.1376 -5.2529
# 5 15.9342 1.7497 29.3434 -0.1376 40.3596 0.9317
# 6 6.8574 -8.6613 7.8816 -5.2529 0.9317 26.1184
#
#
#
# Elastic Compliance Matrix: (Units=1/GPa)
#
#
# Indices 1 2 3 4 5 6 
#
# 1 0.011484 -0.006660 -0.002062 0.003501 -0.002646 -0.003803
# 2 -0.006660 0.051275 -0.003334 -0.010169 0.002389 0.017628
# 3 -0.002062 -0.003334 0.006759 0.000303 -0.003899 -0.002404
# 4 0.003501 -0.010169 0.000303 0.037916 -0.001108 0.003282
# 5 -0.002646 0.002389 -0.003899 -0.001108 0.028516 0.001423
# 6 -0.003803 0.017628 -0.002404 0.003282 0.001423 0.046466
#
#
# Mechanical properties :
#
#
# Convention : Reuss Voigt Hill
#
# Bulk Modulus (GPa) = 22.02441 54.76472 38.39457
# Shear Modulus (GPa) = 22.55682 35.74749 29.15215
#
# Velocity S-wave (km/s) = 2.95762 3.72328 3.36231
# Velocity P-wave (km/s) = 4.49492 6.30249 5.47384
#
# Compressibility (1/GPa) = 0.04540416
#
# Stress axis : x y z
#
# Youngs Moduli (GPa) = 87.08026 19.50286 147.96080
#
# Poissons Ratio (x) = 0.12989 0.30514
# Poissons Ratio (y) = 0.57995 0.49331
# Poissons Ratio (z) = 0.17959 0.06502
#
# Static dielectric constant tensor:
#      x y z
#    x 2.059650 0.033980 0.010790 
#    y 0.033980 2.173300 0.006730 
#    z 0.010790 0.006730 2.119310 
# 
# From -- ./inp_files/195195.got.cif
#   From: 2010.05.17/outbox.cif.g08.bks.cpg/sg2_98_cif.got.tgz:195195.got - 2010.06.03 11:33:40.
