data_PCOD9093970
_publ_section_title
;
Structure prediction by ZEFSAII (Michael W. Deem and Ramdas Pophale) SiO2 
 PCOD9093970
Probable space group: P -1
;
_chemical_formula_sum "Si O2"
_cell_formula_units_Z 14
_cell_length_a 5.093568
_cell_length_b 14.289399
_cell_length_c 20.013225
_cell_angle_alpha 126.484950
_cell_angle_beta 50.453359
_cell_angle_gamma 113.494142
_cell_volume 902.616231
_symmetry_space_group_name_H-M "P -1"
_symmetry_group_IT_number 2
_symmetry_cell_setting 'triclinic'
loop_
_space_group_symop_operation_xyz
x,y,z
-x,-y,-z
loop_
_atom_site_type_symbol
_atom_site_label
_atom_site_fract_x
_atom_site_fract_y
_atom_site_fract_z
Si Si1 0.202880 0.988022 0.892404
Si Si2 0.794660 0.839540 0.787926
Si Si3 0.427052 0.525274 0.618236
Si Si4 0.959165 0.389794 0.007140
Si Si5 0.614453 0.747531 0.029339
Si Si6 0.860980 0.355711 0.413192
Si Si7 0.737760 0.361079 0.172317
O O1 0.953112 0.926751 0.853600
O O2 0.918063 0.712571 0.914432
O O3 0.330236 0.117505 0.906538
O O4 0.000000 0.000000 0.000000
O O5 0.087994 0.777029 0.672014
O O6 0.575099 0.732245 0.811023
O O7 0.524503 0.907564 0.816933
O O8 0.550498 0.396078 0.526732
O O9 0.195990 0.572114 0.615815
O O10 0.274479 0.551765 0.726506
O O11 0.783400 0.601659 0.592608
O O12 0.758146 0.419350 0.120817
O O13 0.738599 0.289383 0.962847
O O14 0.000000 0.500000 0.000000
O O15 0.304411 0.334705 0.955406
#
# Coordination Sequence:
#
# PCOD9093970 Si02
#       7
#     2   2   2   2   2   2   2
#     4  12  20  30  43  66  93 127 156 181 211 263
#     4  11  20  29  45  65  97 126 157 178 212 264
#     4   9  17  29  44  62  90 120 156 184 224 262
#     4  10  20  34  48  65  91 119 149 194 236 267
#     4  10  21  31  46  67  91 122 152 185 224 267
#     4   9  18  29  42  63  89 126 153 186 216 258
#     4   9  20  28  49  66  94 122 154 183 224 270
#
# _framework density 15.510465999999999
#
# number of rings (size 3 to 8) (size 9 to 14) (size 15 to 20)
#    0.857    1.143    1.429    4.286    4.000    0.000 
#    0.000    0.000    0.000    0.000    0.000    0.000 
#    0.000    6.857    0.000    0.000    0.000    0.000 
#
# Total GULP energy -77937.444248 kJ/mol
# GULP energy per Si atom -5566.960303 kJ/mol
# Density = 1.547516 g / cm^3
# Si number density = 15.510466 Si / 1000 Ang^3
#
#
#
# Elastic Constant Matrix: (Units=GPa)
#
#
# Indices 1 2 3 4 5 6 
#
# 1 52.3124 -4.3486 -1.5021 -6.1052 6.1479 -4.7734
# 2 -4.3486 54.7283 23.8339 -2.0093 5.2623 -14.7904
# 3 -1.5021 23.8339 65.1975 4.4519 -0.8902 -4.9037
# 4 -6.1052 -2.0093 4.4519 9.1923 -4.7178 2.9253
# 5 6.1479 5.2623 -0.8902 -4.7178 28.8648 6.4851
# 6 -4.7734 -14.7904 -4.9037 2.9253 6.4851 20.9049
#
#
#
# Elastic Compliance Matrix: (Units=1/GPa)
#
#
# Indices 1 2 3 4 5 6 
#
# 1 0.022454 0.006161 -0.001852 0.010899 -0.006313 0.009485
# 2 0.006161 0.030854 -0.009521 0.001092 -0.012616 0.024763
# 3 -0.001852 -0.009521 0.019500 -0.011790 0.001091 -0.001274
# 4 0.010899 0.001092 -0.011790 0.144867 0.027128 -0.028192
# 5 -0.006313 -0.012616 0.001091 0.027128 0.049318 -0.029207
# 6 0.009485 0.024763 -0.001274 -0.028192 -0.029207 0.080229
#
#
# Mechanical properties :
#
#
# Convention : Reuss Voigt Hill
#
# Bulk Modulus (GPa) = 16.02983 23.13384 19.58184
# Shear Modulus (GPa) = 13.21209 22.07607 17.64408
#
# Velocity S-wave (km/s) = 2.92176 3.77676 3.37643
# Velocity P-wave (km/s) = 4.66257 5.82803 5.27757
#
# Compressibility (1/GPa) = 0.06238368
#
# Stress axis : x y z
#
# Youngs Moduli (GPa) = 44.53509 32.41108 51.28161
#
# Poissons Ratio (x) = -0.19969 0.09497
# Poissons Ratio (y) = -0.27439 0.48827
# Poissons Ratio (z) = 0.08248 0.30860
#
# Static dielectric constant tensor:
#      x y z
#    x 1.538270 -0.007520 -0.008290 
#    y -0.007520 1.495560 0.002390 
#    z -0.008290 0.002390 1.557640 
# 
# From -- ./inp_files/582867.got.cif
#   From: 2010.05.17/outbox.cif.g08.bks.cpg/sg2_292_cif.got.tgz:582867.got - 2010.06.03 11:33:40.
