data_PCOD9093305
_publ_section_title
;
Structure prediction by ZEFSAII (Michael W. Deem and Ramdas Pophale) SiO2 
 PCOD9093305
Probable space group: P -1
;
_chemical_formula_sum "Si O2"
_cell_formula_units_Z 16
_cell_length_a 10.590731
_cell_length_b 10.723504
_cell_length_c 11.737706
_cell_angle_alpha 105.578929
_cell_angle_beta 85.742173
_cell_angle_gamma 43.231593
_cell_volume 802.556764
_symmetry_space_group_name_H-M "P -1"
_symmetry_group_IT_number 2
_symmetry_cell_setting 'triclinic'
loop_
_space_group_symop_operation_xyz
x,y,z
-x,-y,-z
loop_
_atom_site_type_symbol
_atom_site_label
_atom_site_fract_x
_atom_site_fract_y
_atom_site_fract_z
Si Si1 0.302992 0.594398 0.422501
Si Si2 0.295924 0.133247 0.166249
Si Si3 0.595028 0.842947 0.614872
Si Si4 0.292400 0.314646 0.000647
Si Si5 0.689018 0.167859 0.381587
Si Si6 0.120407 0.558131 0.618053
Si Si7 0.251074 0.297661 0.737982
Si Si8 0.049441 0.701615 0.248814
O O1 0.540633 0.364212 0.352980
O O2 0.284773 0.759763 0.494134
O O3 0.202926 0.602431 0.540925
O O4 0.180037 0.644867 0.333838
O O5 0.396085 0.162515 0.249325
O O6 0.112023 0.236817 0.283711
O O7 0.463885 0.892038 0.071002
O O8 0.233961 0.251028 0.082072
O O9 0.447705 0.847061 0.585686
O O10 0.806698 0.633673 0.495658
O O11 0.480186 0.065477 0.646154
O O12 0.221501 0.338172 0.884519
O O13 0.200791 0.521282 0.101358
O O14 0.902249 0.934944 0.275055
O O15 0.217450 0.455532 0.710166
O O16 0.096757 0.305323 0.713925
#
# Coordination Sequence:
#
# PCOD9093305 Si02
#       8
#     2   2   2   2   2   2   2   2
#     4  10  22  38  57  86 111 139 183 229 276 325
#     4  10  20  32  55  82 113 144 177 224 279 322
#     4   9  19  34  54  85 108 139 176 227 278 326
#     4  10  20  36  49  80 113 147 187 215 263 333
#     4   9  20  38  58  85 106 142 188 225 272 317
#     4  11  20  32  52  82 117 141 166 224 288 330
#     4  10  21  32  51  83 114 143 176 217 276 333
#     4  11  20  35  61  82 106 148 183 230 268 314
#
# _framework density 19.936284000000001
#
# number of rings (size 3 to 8) (size 9 to 14) (size 15 to 20)
#    0.000    2.000    1.250    3.000    1.750    1.000 
#    4.500    0.000    0.000    1.500    0.000    0.000 
#    0.000    0.000    0.000    0.000    0.000    0.000 
#
# Total GULP energy -89105.083306 kJ/mol
# GULP energy per Si atom -5569.067707 kJ/mol
# Density = 1.989091 g / cm^3
# Si number density = 19.936284 Si / 1000 Ang^3
#
#
#
# Elastic Constant Matrix: (Units=GPa)
#
#
# Indices 1 2 3 4 5 6 
#
# 1 57.7416 36.7172 36.6070 -2.8165 21.5905 -11.1158
# 2 36.7172 98.1403 53.0867 30.0164 12.5742 -14.3044
# 3 36.6070 53.0867 114.6325 16.5856 10.5818 -6.8441
# 4 -2.8165 30.0164 16.5856 53.8615 -7.1395 1.8592
# 5 21.5905 12.5742 10.5818 -7.1395 24.1447 0.5332
# 6 -11.1158 -14.3044 -6.8441 1.8592 0.5332 24.8128
#
#
#
# Elastic Compliance Matrix: (Units=1/GPa)
#
#
# Indices 1 2 3 4 5 6 
#
# 1 0.038266 -0.006852 -0.006409 0.003813 -0.026972 0.011718
# 2 -0.006852 0.021001 -0.004722 -0.011760 -0.006411 0.008754
# 3 -0.006409 -0.004722 0.012816 -0.001284 0.002238 -0.002010
# 4 0.003813 -0.011760 -0.001284 0.027518 0.011585 -0.007736
# 5 -0.026972 -0.006411 0.002238 0.011585 0.071708 -0.017571
# 6 0.011718 0.008754 -0.002010 -0.007736 -0.017571 0.051001
#
#
# Mechanical properties :
#
#
# Convention : Reuss Voigt Hill
#
# Bulk Modulus (GPa) = 27.68709 58.14849 42.91779
# Shear Modulus (GPa) = 18.49695 30.17070 24.33382
#
# Velocity S-wave (km/s) = 3.04929 3.89441 3.49747
# Velocity P-wave (km/s) = 5.12986 7.03224 6.15499
#
# Compressibility (1/GPa) = 0.03611791
#
# Stress axis : x y z
#
# Youngs Moduli (GPa) = 26.13282 47.61567 78.02730
#
# Poissons Ratio (x) = 0.32627 0.50007
# Poissons Ratio (y) = 0.17907 0.36841
# Poissons Ratio (z) = 0.16748 0.22482
#
# Static dielectric constant tensor:
#      x y z
#    x 1.729650 -0.054370 -0.001210 
#    y -0.054370 1.802270 0.027020 
#    z -0.001210 0.027020 1.734360 
# 
# From -- ./inp_files/426182.got.cif
#   From: 2010.05.17/outbox.cif.g08.bks.cpg/sg2_214_cif.got.tgz:426182.got - 2010.06.03 11:33:40.
