data_PCOD9093116
_publ_section_title
;
Structure prediction by ZEFSAII (Michael W. Deem and Ramdas Pophale) SiO2 
 PCOD9093116
Probable space group: P -1
;
_chemical_formula_sum "Si O2"
_cell_formula_units_Z 14
_cell_length_a 9.235421
_cell_length_b 20.171445
_cell_length_c 5.776522
_cell_angle_alpha 99.513150
_cell_angle_beta 117.393761
_cell_angle_gamma 131.286438
_cell_volume 510.756451
_symmetry_space_group_name_H-M "P -1"
_symmetry_group_IT_number 2
_symmetry_cell_setting 'triclinic'
loop_
_space_group_symop_operation_xyz
x,y,z
-x,-y,-z
loop_
_atom_site_type_symbol
_atom_site_label
_atom_site_fract_x
_atom_site_fract_y
_atom_site_fract_z
Si Si1 0.043247 0.804976 0.575383
Si Si2 0.543670 0.304723 0.918527
Si Si3 0.447272 0.707327 0.580447
Si Si4 0.121368 0.888761 0.182214
Si Si5 0.504958 0.155869 0.583399
Si Si6 0.828931 0.578841 0.784511
Si Si7 0.829488 0.582123 0.290785
O O1 0.713773 0.727448 0.286518
O O2 0.027055 0.718653 0.514247
O O3 0.181448 0.875596 0.470521
O O4 0.176167 0.874405 0.960865
O O5 0.699520 0.362902 0.814807
O O6 0.418481 0.184399 0.722585
O O7 0.690949 0.352711 0.306212
O O8 0.536413 0.816438 0.669170
O O9 0.762748 0.776957 0.856158
O O10 0.302519 0.021328 0.383029
O O11 0.867894 0.270805 0.922135
O O12 0.500000 0.500000 0.500000
O O13 0.842555 0.549160 0.526619
O O14 0.859950 0.558610 0.050420
O O15 0.500000 0.500000 0.000000
#
# Coordination Sequence:
#
# PCOD9093116 Si02
#       7
#     2   2   2   2   2   2   2
#     4  10  20  36  56  87 118 148 190 233 286 344
#     4   8  18  29  53  83 116 150 180 228 278 341
#     4   8  17  29  48  82 119 151 182 212 276 348
#     4  10  20  31  55  91 123 154 173 230 289 352
#     4  10  21  33  58  85 124 150 193 222 289 339
#     4  10  23  40  62  82 104 153 206 246 273 329
#     4  10  22  43  64  78 103 157 202 242 285 329
#
# _framework density 27.410326999999999
#
# number of rings (size 3 to 8) (size 9 to 14) (size 15 to 20)
#    0.857    1.714    0.000    1.286    4.000    1.143 
#    0.000    4.286    0.000    6.857    0.000    0.000 
#    0.000    0.000    0.000    0.000    0.000    0.000 
#
# Total GULP energy -78073.987388 kJ/mol
# GULP energy per Si atom -5576.713385 kJ/mol
# Density = 2.734794 g / cm^3
# Si number density = 27.410327 Si / 1000 Ang^3
#
#
#
# Elastic Constant Matrix: (Units=GPa)
#
#
# Indices 1 2 3 4 5 6 
#
# 1 93.3652 79.0213 62.8071 -37.8889 -5.1497 16.9429
# 2 79.0213 168.5324 94.1030 -43.4449 -67.1331 15.7942
# 3 62.8071 94.1030 112.6950 -53.0493 -35.7610 20.3887
# 4 -37.8889 -43.4449 -53.0493 63.9902 11.1153 -32.4207
# 5 -5.1497 -67.1331 -35.7610 11.1153 44.1988 13.5947
# 6 16.9429 15.7942 20.3887 -32.4207 13.5947 53.3633
#
#
#
# Elastic Compliance Matrix: (Units=1/GPa)
#
#
# Indices 1 2 3 4 5 6 
#
# 1 -0.068108 0.093208 0.013714 -0.036542 0.178157 -0.078791
# 2 0.093208 -0.098319 -0.028254 0.044285 -0.199554 0.088045
# 3 0.013714 -0.028254 0.019948 0.021070 -0.036133 0.018393
# 4 -0.036542 0.044285 0.021070 0.017182 0.081878 -0.019976
# 5 0.178157 -0.199554 -0.036133 0.081878 -0.357904 0.157227
# 6 -0.078791 0.088045 0.018393 -0.019976 0.157227 -0.041522
#
#
# Mechanical properties :
#
#
# Convention : Reuss Voigt Hill
#
# Bulk Modulus (GPa) = 92.10238 94.05060 93.07649
# Shear Modulus (GPa) = -7.32666 41.55456 17.11395
#
# Velocity S-wave (km/s) = -1.63669 3.89783 2.50143
# Velocity P-wave (km/s) = 5.48658 7.39216 6.50948
#
# Compressibility (1/GPa) = 0.01085748
#
# Stress axis : x y z
#
# Youngs Moduli (GPa) = -14.68265 -10.17096 50.13020
#
# Poissons Ratio (x) = 0.94802 -0.68748
# Poissons Ratio (y) = 1.36854 1.41637
# Poissons Ratio (z) = 0.20136 -0.28737
#
# Static dielectric constant tensor:
#      x y z
#    x 2.174610 -0.013320 0.022900 
#    y -0.013320 2.100040 -0.015430 
#    z 0.022900 -0.015430 2.146730 
# 
# From -- ./inp_files/84070.got.cif
#   From: 2010.05.17/outbox.cif.g08.bks.cpg/sg2_43_cif.got.tgz:84070.got - 2010.06.03 11:33:40.
