data_PCOD9093293
_publ_section_title
;
Structure prediction by ZEFSAII (Michael W. Deem and Ramdas Pophale) SiO2 
 PCOD9093293
Probable space group: P -1
;
_chemical_formula_sum "Si O2"
_cell_formula_units_Z 16
_cell_length_a 12.688403
_cell_length_b 7.849843
_cell_length_c 8.943342
_cell_angle_alpha 107.305842
_cell_angle_beta 105.920667
_cell_angle_gamma 74.629068
_cell_volume 801.332757
_symmetry_space_group_name_H-M "P -1"
_symmetry_group_IT_number 2
_symmetry_cell_setting 'triclinic'
loop_
_space_group_symop_operation_xyz
x,y,z
-x,-y,-z
loop_
_atom_site_type_symbol
_atom_site_label
_atom_site_fract_x
_atom_site_fract_y
_atom_site_fract_z
Si Si1 0.715308 0.655414 0.020078
Si Si2 0.860892 0.398663 0.533079
Si Si3 0.343046 0.428539 0.329121
Si Si4 0.503966 0.684138 0.139126
Si Si5 0.458019 0.755260 0.484581
Si Si6 0.256616 0.947349 0.605063
Si Si7 0.373784 0.966345 0.966098
Si Si8 0.879350 0.637042 0.316864
O O1 0.624893 0.710565 0.132070
O O2 0.831826 0.584734 0.125632
O O3 0.709143 0.845287 0.979779
O O4 0.670519 0.539549 0.845070
O O5 0.778758 0.544163 0.641772
O O6 0.820144 0.205575 0.476695
O O7 0.851823 0.494291 0.391695
O O8 0.988671 0.372888 0.627667
O O9 0.394741 0.592341 0.461072
O O10 0.436078 0.253912 0.367329
O O11 0.501086 0.709351 0.321833
O O12 0.500000 0.500000 0.000000
O O13 0.396203 0.821242 0.067673
O O14 0.357313 0.925854 0.516523
O O15 0.323706 0.904283 0.777535
O O16 0.182936 0.151638 0.626388
O O17 0.500000 0.000000 0.000000
#
# Coordination Sequence:
#
# PCOD9093293 Si02
#       8
#     2   2   2   2   2   2   2   2
#     4  10  20  36  53  77 114 149 185 231 281 338
#     4  10  22  38  61  84 111 149 197 241 283 331
#     4  10  20  34  55  83 116 148 183 231 288 337
#     4  11  20  31  53  81 112 149 183 222 276 348
#     4  10  20  32  54  87 114 144 186 230 279 346
#     4  10  21  38  61  81 118 153 186 236 284 339
#     4   9  20  34  50  78 113 150 183 222 280 336
#     4  10  22  40  59  85 110 149 201 238 281 332
#
# _framework density 19.966735
#
# number of rings (size 3 to 8) (size 9 to 14) (size 15 to 20)
#    0.000    2.000    1.250    2.625    5.250    1.500 
#    0.000    6.875    0.000    0.000    0.000   13.125 
#    0.000    0.000    0.000    0.000    0.000    0.000 
#
# Total GULP energy -89097.710628 kJ/mol
# GULP energy per Si atom -5568.606914 kJ/mol
# Density = 1.992129 g / cm^3
# Si number density = 19.966735 Si / 1000 Ang^3
#
#
#
# Elastic Constant Matrix: (Units=GPa)
#
#
# Indices 1 2 3 4 5 6 
#
# 1 91.5317 34.3535 49.3753 -6.0437 4.4744 -21.8250
# 2 34.3535 61.2717 17.1668 -15.8217 11.8480 -8.8147
# 3 49.3753 17.1668 111.1045 -20.0422 16.5169 -13.0348
# 4 -6.0437 -15.8217 -20.0422 28.7910 -5.4382 6.5943
# 5 4.4744 11.8480 16.5169 -5.4382 24.6550 -4.0535
# 6 -21.8250 -8.8147 -13.0348 6.5943 -4.0535 26.6438
#
#
#
# Elastic Compliance Matrix: (Units=1/GPa)
#
#
# Indices 1 2 3 4 5 6 
#
# 1 0.023171 -0.012569 -0.009874 -0.010504 0.008413 0.013872
# 2 -0.012569 0.027409 0.005304 0.014818 -0.011850 -0.004103
# 3 -0.009874 0.005304 0.015525 0.010526 -0.009289 -0.002756
# 4 -0.010504 0.014818 0.010526 0.050024 -0.003108 -0.011406
# 5 0.008413 -0.011850 -0.009289 -0.003108 0.051419 0.007018
# 6 0.013872 -0.004103 -0.002756 -0.011406 0.007018 0.050080
#
#
# Mechanical properties :
#
#
# Convention : Reuss Voigt Hill
#
# Bulk Modulus (GPa) = 31.41834 51.74436 41.58135
# Shear Modulus (GPa) = 19.04650 26.88546 22.96598
#
# Velocity S-wave (km/s) = 3.09190 3.67347 3.39516
# Velocity P-wave (km/s) = 5.34003 6.63054 6.01996
#
# Compressibility (1/GPa) = 0.03182854
#
# Stress axis : x y z
#
# Youngs Moduli (GPa) = 43.15658 36.48417 64.41095
#
# Poissons Ratio (x) = 0.45857 0.63597
# Poissons Ratio (y) = 0.54243 -0.34163
# Poissons Ratio (z) = 0.42611 -0.19351
#
# Static dielectric constant tensor:
#      x y z
#    x 1.730240 0.030580 -0.011600 
#    y 0.030580 1.817900 0.016990 
#    z -0.011600 0.016990 1.769200 
# 
# From -- ./inp_files/179358.got.cif
#   From: 2010.05.17/outbox.cif.g08.bks.cpg/sg2_90_cif.got.tgz:179358.got - 2010.06.03 11:33:40.
