data_PCOD9093465
_publ_section_title
;
Structure prediction by ZEFSAII (Michael W. Deem and Ramdas Pophale) SiO2 
 PCOD9093465
Probable space group: P -1
;
_chemical_formula_sum "Si O2"
_cell_formula_units_Z 16
_cell_length_a 15.271737
_cell_length_b 8.246624
_cell_length_c 8.819877
_cell_angle_alpha 55.978927
_cell_angle_beta 99.242894
_cell_angle_gamma 107.225592
_cell_volume 879.335366
_symmetry_space_group_name_H-M "P -1"
_symmetry_group_IT_number 2
_symmetry_cell_setting 'triclinic'
loop_
_space_group_symop_operation_xyz
x,y,z
-x,-y,-z
loop_
_atom_site_type_symbol
_atom_site_label
_atom_site_fract_x
_atom_site_fract_y
_atom_site_fract_z
Si Si1 0.508233 0.306531 0.290592
Si Si2 0.000901 0.985162 0.685460
Si Si3 0.641745 0.103747 0.015816
Si Si4 0.001948 0.774204 0.178792
Si Si5 0.851729 0.209625 0.022861
Si Si6 0.855772 0.619716 0.988234
Si Si7 0.490026 0.902817 0.295999
Si Si8 0.645401 0.520160 0.976795
O O1 0.522192 0.271404 0.490199
O O2 0.413006 0.363653 0.202059
O O3 0.503264 0.103337 0.298292
O O4 0.589997 0.470535 0.145506
O O5 0.914451 0.807762 0.809574
O O6 0.997345 0.192998 0.659721
O O7 0.091624 0.920425 0.799704
O O8 0.000000 0.000000 0.500000
O O9 0.746179 0.095073 0.031767
O O10 0.593002 0.108540 0.838029
O O11 0.643197 0.312017 0.996212
O O12 0.578110 0.931752 0.194522
O O13 0.092201 0.736009 0.146983
O O14 0.912084 0.629982 0.155325
O O15 0.000000 0.000000 0.000000
O O16 0.856728 0.414879 0.008298
O O17 0.751419 0.629033 0.974620
#
# Coordination Sequence:
#
# PCOD9093465 Si02
#       8
#     2   2   2   2   2   2   2   2
#     4   9  18  32  49  71  99 130 166 204 240 285
#     4  10  20  33  50  75 100 121 159 207 245 289
#     4   9  18  32  50  72  97 130 165 199 245 290
#     4   8  16  31  50  69  93 124 158 191 236 290
#     4   9  17  33  52  69  96 132 163 195 241 296
#     4   9  17  33  52  69  96 133 164 193 242 297
#     4   9  18  32  49  71  99 130 165 203 242 287
#     4   9  18  32  50  72  98 130 164 201 245 289
#
# _framework density 18.195561000000001
#
# number of rings (size 3 to 8) (size 9 to 14) (size 15 to 20)
#    0.000    3.250    0.000    1.500    0.000    4.500 
#    0.000    8.750    0.000    0.000    0.000    0.000 
#    0.000    0.000    0.000    0.000    0.000    0.000 
#
# Total GULP energy -89105.059339 kJ/mol
# GULP energy per Si atom -5569.066209 kJ/mol
# Density = 1.815415 g / cm^3
# Si number density = 18.195561 Si / 1000 Ang^3
#
#
#
# Elastic Constant Matrix: (Units=GPa)
#
#
# Indices 1 2 3 4 5 6 
#
# 1 163.8646 34.7476 60.4347 19.8452 0.6204 24.2336
# 2 34.7476 48.3102 27.8170 24.1000 -9.1888 9.4323
# 3 60.4347 27.8170 123.1476 33.7849 -6.2602 13.6765
# 4 19.8452 24.1000 33.7849 27.6207 -5.8835 1.5650
# 5 0.6204 -9.1888 -6.2602 -5.8835 7.9419 -0.1226
# 6 24.2336 9.4323 13.6765 1.5650 -0.1226 30.2093
#
#
#
# Elastic Compliance Matrix: (Units=1/GPa)
#
#
# Indices 1 2 3 4 5 6 
#
# 1 0.009210 -0.006427 -0.003527 0.001404 -0.009955 -0.003898
# 2 -0.006427 0.049216 0.004947 -0.036516 0.034133 -0.010421
# 3 -0.003527 0.004947 0.014455 -0.018440 0.003667 -0.004290
# 4 0.001404 -0.036516 -0.018440 0.091129 0.010831 0.013946
# 5 -0.009955 0.034133 0.003667 0.010831 0.177032 -0.004174
# 6 -0.003898 -0.010421 -0.004290 0.013946 -0.004174 0.040686
#
#
# Mechanical properties :
#
#
# Convention : Reuss Voigt Hill
#
# Bulk Modulus (GPa) = 15.90598 64.59124 40.24861
# Shear Modulus (GPa) = 12.11540 27.30927 19.71233
#
# Velocity S-wave (km/s) = 2.58319 3.87832 3.29501
# Velocity P-wave (km/s) = 4.20212 7.45859 6.05344
#
# Compressibility (1/GPa) = 0.06286943
#
# Stress axis : x y z
#
# Youngs Moduli (GPa) = 108.57596 20.31840 69.17933
#
# Poissons Ratio (x) = 0.13058 0.24396
# Poissons Ratio (y) = 0.69778 -0.34223
# Poissons Ratio (z) = 0.38290 -0.10052
#
# Static dielectric constant tensor:
#      x y z
#    x 1.621890 -0.013120 -0.016340 
#    y -0.013120 1.664680 0.004350 
#    z -0.016340 0.004350 1.646130 
# 
# From -- ./inp_files/291886.got.cif
#   From: 2010.05.17/outbox.cif.g08.bks.cpg/sg2_146_cif.got.tgz:291886.got - 2010.06.03 11:33:40.
