data_PCOD9093575
_publ_section_title
;
Structure prediction by ZEFSAII (Michael W. Deem and Ramdas Pophale) SiO2 
 PCOD9093575
Probable space group: P -1
;
_chemical_formula_sum "Si O2"
_cell_formula_units_Z 16
_cell_length_a 17.667728
_cell_length_b 13.292573
_cell_length_c 9.853799
_cell_angle_alpha 122.399554
_cell_angle_beta 84.999480
_cell_angle_gamma 44.789150
_cell_volume 851.302905
_symmetry_space_group_name_H-M "P -1"
_symmetry_group_IT_number 2
_symmetry_cell_setting 'triclinic'
loop_
_space_group_symop_operation_xyz
x,y,z
-x,-y,-z
loop_
_atom_site_type_symbol
_atom_site_label
_atom_site_fract_x
_atom_site_fract_y
_atom_site_fract_z
Si Si1 0.729988 0.103559 0.401133
Si Si2 0.550825 0.587363 0.777990
Si Si3 0.455647 0.727125 0.183658
Si Si4 0.145774 0.314504 0.038337
Si Si5 0.198844 0.681293 0.235734
Si Si6 0.637018 0.914366 0.912880
Si Si7 0.128421 0.547736 0.996568
Si Si8 0.232148 0.262106 0.537992
O O1 0.622687 0.364276 0.542048
O O2 0.645865 0.197011 0.629178
O O3 0.928943 0.860516 0.220563
O O4 0.744371 0.958874 0.214369
O O5 0.714147 0.423505 0.706670
O O6 0.433815 0.717229 0.022883
O O7 0.454261 0.826195 0.884440
O O8 0.380269 0.967000 0.361317
O O9 0.663928 0.436181 0.961027
O O10 0.233034 0.264985 0.110415
O O11 0.131055 0.420057 0.986217
O O12 0.953760 0.540708 0.272416
O O13 0.206696 0.538027 0.072269
O O14 0.000000 0.000000 0.500000
O O15 0.731773 0.769434 0.648181
O O16 0.500000 0.000000 0.000000
O O17 0.224032 0.390350 0.725603
#
# Coordination Sequence:
#
# PCOD9093575 Si02
#       8
#     2   2   2   2   2   2   2   2
#     4  11  18  36  59  88 118 146 193 248 286 343
#     4   9  21  35  57  80 119 153 191 236 287 337
#     4   9  18  33  54  86 120 142 189 237 294 334
#     4  11  22  35  63  88 118 154 194 235 298 342
#     4  10  20  33  53  86 116 155 184 236 293 341
#     4  11  24  42  57  82 118 163 197 234 286 353
#     4  11  19  35  62  91 118 146 193 247 292 339
#     4  10  20  38  58  88 119 149 193 244 289 338
#
# _framework density 18.794720000000002
#
# number of rings (size 3 to 8) (size 9 to 14) (size 15 to 20)
#    0.750    1.000    3.750    2.250    0.000    2.000 
#    0.000    0.000    0.000    3.000    0.000    0.000 
#    0.000    0.000    0.000    0.000    0.000    0.000 
#
# Total GULP energy -89117.005615 kJ/mol
# GULP energy per Si atom -5569.812851 kJ/mol
# Density = 1.875194 g / cm^3
# Si number density = 18.794720 Si / 1000 Ang^3
#
#
#
# Elastic Constant Matrix: (Units=GPa)
#
#
# Indices 1 2 3 4 5 6 
#
# 1 55.5405 7.1781 24.6736 -4.6181 18.4792 0.6181
# 2 7.1781 52.6058 28.8851 -3.5776 0.5796 -2.0713
# 3 24.6736 28.8851 95.4334 15.0361 5.6855 9.5796
# 4 -4.6181 -3.5776 15.0361 19.7866 -0.3829 1.4428
# 5 18.4792 0.5796 5.6855 -0.3829 23.4937 4.9338
# 6 0.6181 -2.0713 9.5796 1.4428 4.9338 24.4847
#
#
#
# Elastic Compliance Matrix: (Units=1/GPa)
#
#
# Indices 1 2 3 4 5 6 
#
# 1 0.031398 0.003264 -0.010854 0.015160 -0.023493 0.007571
# 2 0.003264 0.025996 -0.011380 0.013638 -0.001507 0.006069
# 3 -0.010854 -0.011380 0.020310 -0.019294 0.005392 -0.008584
# 4 0.015160 0.013638 -0.019294 0.070642 -0.007636 0.005696
# 5 -0.023493 -0.001507 0.005392 -0.007636 0.062549 -0.013798
# 6 0.007571 0.006069 -0.008584 0.005696 -0.013798 0.046967
#
#
# Mechanical properties :
#
#
# Convention : Reuss Voigt Hill
#
# Bulk Modulus (GPa) = 25.15005 36.11701 30.63353
# Shear Modulus (GPa) = 16.17825 23.07586 19.62705
#
# Velocity S-wave (km/s) = 2.93710 3.50778 3.23505
# Velocity P-wave (km/s) = 4.99125 5.97196 5.50349
#
# Compressibility (1/GPa) = 0.03976135
#
# Stress axis : x y z
#
# Youngs Moduli (GPa) = 31.84942 38.46777 49.23747
#
# Poissons Ratio (x) = -0.12554 0.53444
# Poissons Ratio (y) = -0.10394 0.56034
# Poissons Ratio (z) = 0.34570 0.43777
#
# Static dielectric constant tensor:
#      x y z
#    x 1.665390 0.008980 0.025560 
#    y 0.008980 1.639260 0.019580 
#    z 0.025560 0.019580 1.682370 
# 
# From -- ./inp_files/333612.got.cif
#   From: 2010.05.17/outbox.cif.g08.bks.cpg/sg2_167_cif.got.tgz:333612.got - 2010.06.03 11:33:40.
