data_PCOD9093411
_publ_section_title
;
Structure prediction by ZEFSAII (Michael W. Deem and Ramdas Pophale) SiO2 
 PCOD9093411
Probable space group: P -1
;
_chemical_formula_sum "Si O2"
_cell_formula_units_Z 16
_cell_length_a 13.704813
_cell_length_b 7.940917
_cell_length_c 11.088364
_cell_angle_alpha 112.771119
_cell_angle_beta 137.119718
_cell_angle_gamma 91.473843
_cell_volume 658.723713
_symmetry_space_group_name_H-M "P -1"
_symmetry_group_IT_number 2
_symmetry_cell_setting 'triclinic'
loop_
_space_group_symop_operation_xyz
x,y,z
-x,-y,-z
loop_
_atom_site_type_symbol
_atom_site_label
_atom_site_fract_x
_atom_site_fract_y
_atom_site_fract_z
Si Si1 0.778058 0.212444 0.185839
Si Si2 0.345598 0.035553 0.344278
Si Si3 0.004835 0.390763 0.665937
Si Si4 0.422115 0.154615 0.809262
Si Si5 0.800888 0.831474 0.173628
Si Si6 0.491919 0.455566 0.743691
Si Si7 0.465035 0.667656 0.580791
Si Si8 0.188651 0.752406 0.318994
O O1 0.856092 0.324144 0.416712
O O2 0.858765 0.385081 0.200314
O O3 0.834442 0.034200 0.182923
O O4 0.584980 0.143706 0.989495
O O5 0.391247 0.245454 0.517353
O O6 0.380702 0.108037 0.257223
O O7 0.500000 0.000000 0.500000
O O8 0.185851 0.850895 0.213673
O O9 0.960145 0.385548 0.764900
O O10 0.058794 0.211147 0.657902
O O11 0.317525 0.161919 0.828158
O O12 0.470042 0.361032 0.829619
O O13 0.305126 0.954957 0.564949
O O14 0.686499 0.608138 0.940635
O O15 0.435057 0.613191 0.680041
O O16 0.500000 0.500000 0.500000
O O17 0.297540 0.641966 0.369562
#
# Coordination Sequence:
#
# PCOD9093411 Si02
#       8
#     2   2   2   2   2   2   2   2
#     4  11  24  40  58  85 129 180 208 249 294 356
#     4   8  17  36  60  88 115 148 203 270 309 355
#     4  11  25  40  56  88 133 172 205 246 311 367
#     4  11  22  38  61  92 124 169 213 251 290 358
#     4  12  23  40  59  89 134 169 207 251 296 369
#     4  10  20  32  61  92 117 157 205 256 302 360
#     4   9  18  35  59  93 112 145 206 270 306 353
#     4  10  20  37  62  89 121 161 207 254 316 369
#
# _framework density 24.289396
#
# number of rings (size 3 to 8) (size 9 to 14) (size 15 to 20)
#    0.000    1.750    2.500    1.875    1.750    1.000 
#    4.500    0.000    0.000    7.500    0.000    0.000 
#    0.000    0.000    0.000    0.000    0.000    0.000 
#
# Total GULP energy -89148.240162 kJ/mol
# GULP energy per Si atom -5571.765010 kJ/mol
# Density = 2.423411 g / cm^3
# Si number density = 24.289396 Si / 1000 Ang^3
#
#
#
# Elastic Constant Matrix: (Units=GPa)
#
#
# Indices 1 2 3 4 5 6 
#
# 1 115.2449 68.3778 9.0421 5.6240 8.7713 3.0155
# 2 68.3778 197.8214 12.1995 -0.2448 8.6395 25.4679
# 3 9.0421 12.1995 54.2371 1.8589 3.2831 -3.2721
# 4 5.6240 -0.2448 1.8589 29.3829 -0.7446 4.4636
# 5 8.7713 8.6395 3.2831 -0.7446 19.7998 6.2304
# 6 3.0155 25.4679 -3.2721 4.4636 6.2304 28.4465
#
#
#
# Elastic Compliance Matrix: (Units=1/GPa)
#
#
# Indices 1 2 3 4 5 6 
#
# 1 0.011670 -0.004341 -0.000340 -0.002987 -0.004619 0.004091
# 2 -0.004341 0.007505 -0.001532 0.002088 0.001191 -0.007024
# 3 -0.000340 -0.001532 0.019442 -0.002014 -0.004002 0.004836
# 4 -0.002987 0.002088 -0.002014 0.036163 0.004783 -0.008506
# 5 -0.004619 0.001191 -0.004002 0.004783 0.057393 -0.014358
# 6 0.004091 -0.007024 0.004836 -0.008506 -0.014358 0.046044
#
#
# Mechanical properties :
#
#
# Convention : Reuss Voigt Hill
#
# Bulk Modulus (GPa) = 38.18252 60.72691 49.45471
# Shear Modulus (GPa) = 25.07848 34.03812 29.55830
#
# Velocity S-wave (km/s) = 3.21672 3.74753 3.49223
# Velocity P-wave (km/s) = 5.43602 6.61672 6.05522
#
# Compressibility (1/GPa) = 0.02618999
#
# Stress axis : x y z
#
# Youngs Moduli (GPa) = 85.68975 133.24544 51.43535
#
# Poissons Ratio (x) = 0.57848 0.01750
# Poissons Ratio (y) = 0.37202 0.07878
# Poissons Ratio (z) = 0.02916 0.20409
#
# Static dielectric constant tensor:
#      x y z
#    x 1.945540 0.062290 -0.045140 
#    y 0.062290 2.057930 -0.045030 
#    z -0.045140 -0.045030 2.095900 
# 
# From -- ./inp_files/446218.got.cif
#   From: 2010.05.17/outbox.cif.g08.bks.cpg/sg2_224_cif.got.tgz:446218.got - 2010.06.03 11:33:40.
