data_PCOD9093841
_publ_section_title
;
Structure prediction by ZEFSAII (Michael W. Deem and Ramdas Pophale) SiO2 
 PCOD9093841
Probable space group: P -1
;
_chemical_formula_sum "Si O2"
_cell_formula_units_Z 14
_cell_length_a 26.413470
_cell_length_b 14.032027
_cell_length_c 6.727846
_cell_angle_alpha 122.489327
_cell_angle_beta 58.015857
_cell_angle_gamma 159.939852
_cell_volume 718.721450
_symmetry_space_group_name_H-M "P -1"
_symmetry_group_IT_number 2
_symmetry_cell_setting 'triclinic'
loop_
_space_group_symop_operation_xyz
x,y,z
-x,-y,-z
loop_
_atom_site_type_symbol
_atom_site_label
_atom_site_fract_x
_atom_site_fract_y
_atom_site_fract_z
Si Si1 0.878251 0.718390 0.813178
Si Si2 0.505837 0.637993 0.712830
Si Si3 0.691558 0.325178 0.122221
Si Si4 0.742605 0.697892 0.861796
Si Si5 0.949579 0.706385 0.276332
Si Si6 0.516272 0.241799 0.485996
Si Si7 0.305329 0.888672 0.896484
O O1 0.783682 0.647571 0.811774
O O2 0.955402 0.766774 0.552770
O O3 0.767114 0.459588 0.900703
O O4 0.000000 0.000000 0.000000
O O5 0.500000 0.500000 0.500000
O O6 0.513144 0.729079 0.605424
O O7 0.359476 0.415256 0.893955
O O8 0.642254 0.906597 0.877209
O O9 0.833771 0.588006 0.267590
O O10 0.571378 0.214279 0.271241
O O11 0.367385 0.896269 0.921551
O O12 0.649270 0.520961 0.657084
O O13 0.895533 0.022970 0.852790
O O14 0.866257 0.441786 0.138417
O O15 0.380303 0.002411 0.654231
#
# Coordination Sequence:
#
# PCOD9093841 Si02
#       7
#     2   2   2   2   2   2   2
#     4  12  19  31  58  95 134 162 185 233 301 373
#     4  11  26  44  64  84 112 162 219 255 291 348
#     4  10  20  33  58  95 126 156 188 237 302 369
#     4  11  21  38  59  92 120 162 202 238 302 357
#     4  10  22  36  57  94 132 151 193 240 305 371
#     4  11  21  39  63  85 127 160 195 249 302 361
#     4   9  23  39  59  90 127 156 194 244 312 357
#
# _framework density 19.479036000000001
#
# number of rings (size 3 to 8) (size 9 to 14) (size 15 to 20)
#    0.857    0.571    4.286    1.714    2.000    2.857 
#    0.000    0.714    0.000    1.714    0.000    0.000 
#    0.000    0.000    0.000    0.000    0.000    0.000 
#
# Total GULP energy -78126.120532 kJ/mol
# GULP energy per Si atom -5580.437181 kJ/mol
# Density = 1.943470 g / cm^3
# Si number density = 19.479036 Si / 1000 Ang^3
#
#
#
# Elastic Constant Matrix: (Units=GPa)
#
#
# Indices 1 2 3 4 5 6 
#
# 1 25.5722 14.9556 34.6731 1.0340 1.4587 -13.4697
# 2 14.9556 86.7616 47.8954 -10.2983 6.5205 -20.8140
# 3 34.6731 47.8954 119.1964 -6.2085 4.4035 -23.6275
# 4 1.0340 -10.2983 -6.2085 25.4554 -4.7878 7.0157
# 5 1.4587 6.5205 4.4035 -4.7878 30.8066 4.3796
# 6 -13.4697 -20.8140 -23.6275 7.0157 4.3796 22.2992
#
#
#
# Elastic Compliance Matrix: (Units=1/GPa)
#
#
# Indices 1 2 3 4 5 6 
#
# 1 0.088426 0.004952 -0.019029 -0.021584 -0.012570 0.047132
# 2 0.004952 0.017602 -0.005417 0.000637 -0.005147 0.014491
# 3 -0.019029 -0.005417 0.016178 0.002638 0.000184 -0.000276
# 4 -0.021584 0.000637 0.002638 0.051180 0.012474 -0.028201
# 5 -0.012570 -0.005147 0.000184 0.012474 0.039451 -0.023874
# 6 0.047132 0.014491 -0.000276 -0.028201 -0.023874 0.100109
#
#
# Mechanical properties :
#
#
# Convention : Reuss Voigt Hill
#
# Bulk Modulus (GPa) = 12.01694 47.39762 29.70728
# Shear Modulus (GPa) = 13.16918 24.64599 18.90758
#
# Velocity S-wave (km/s) = 2.60295 3.56090 3.11893
# Velocity P-wave (km/s) = 3.90082 6.42590 5.31548
#
# Compressibility (1/GPa) = 0.08321588
#
# Stress axis : x y z
#
# Youngs Moduli (GPa) = 11.30887 56.81324 61.81365
#
# Poissons Ratio (x) = -0.28134 1.17627
# Poissons Ratio (y) = -0.05600 0.33487
# Poissons Ratio (z) = 0.21520 0.30778
#
# Static dielectric constant tensor:
#      x y z
#    x 1.663680 -0.009390 0.023120 
#    y -0.009390 1.718140 0.038810 
#    z 0.023120 0.038810 1.689010 
# 
# From -- ./inp_files/36334.got.cif
#   From: 2010.05.17/outbox.cif.g08.bks.cpg/sg2_19_cif.got.tgz:36334.got - 2010.06.03 11:33:40.
