data_PCOD9093449
_publ_section_title
;
Structure prediction by ZEFSAII (Michael W. Deem and Ramdas Pophale) SiO2 
 PCOD9093449
Probable space group: P -1
;
_chemical_formula_sum "Si O2"
_cell_formula_units_Z 16
_cell_length_a 7.759239
_cell_length_b 9.656157
_cell_length_c 7.969581
_cell_angle_alpha 79.457388
_cell_angle_beta 94.014932
_cell_angle_gamma 91.090411
_cell_volume 585.583996
_symmetry_space_group_name_H-M "P -1"
_symmetry_group_IT_number 2
_symmetry_cell_setting 'triclinic'
loop_
_space_group_symop_operation_xyz
x,y,z
-x,-y,-z
loop_
_atom_site_type_symbol
_atom_site_label
_atom_site_fract_x
_atom_site_fract_y
_atom_site_fract_z
Si Si1 0.757840 0.088292 0.879748
Si Si2 0.835410 0.840394 0.146734
Si Si3 0.756538 0.601944 0.421409
Si Si4 0.825629 0.763987 0.714552
Si Si5 0.643061 0.333525 0.614795
Si Si6 0.312536 0.503885 0.064477
Si Si7 0.209680 0.760929 0.820877
Si Si8 0.208295 0.995662 0.552123
O O1 0.673367 0.171173 0.701704
O O2 0.960543 0.127729 0.858892
O O3 0.698711 0.166680 0.029327
O O4 0.747750 0.924157 0.967903
O O5 0.805614 0.678146 0.233464
O O6 0.768542 0.920287 0.291016
O O7 0.862336 0.675047 0.563968
O O8 0.753746 0.432366 0.472855
O O9 0.558317 0.643820 0.439387
O O10 0.740698 0.653128 0.857466
O O11 0.725087 0.901724 0.612833
O O12 0.009531 0.803476 0.796423
O O13 0.684392 0.414667 0.775686
O O14 0.500000 0.500000 0.000000
O O15 0.208058 0.597471 0.903886
O O16 0.273572 0.839359 0.639071
O O17 0.000000 0.000000 0.500000
#
# Coordination Sequence:
#
# PCOD9093449 Si02
#       8
#     2   2   2   2   2   2   2   2
#     4   9  18  31  49  75  99 120 154 198 240 278
#     4   9  17  30  50  75  95 120 161 198 230 278
#     4   9  18  33  49  68  95 129 161 190 232 282
#     4   9  17  32  52  71  93 125 160 194 235 281
#     4   9  19  35  49  66  98 131 156 192 239 281
#     4  10  20  33  49  71  97 125 159 197 236 280
#     4   9  17  32  53  71  94 125 156 196 240 278
#     4   8  15  30  50  70  96 124 153 192 237 277
#
# _framework density 27.323150999999999
#
# number of rings (size 3 to 8) (size 9 to 14) (size 15 to 20)
#    0.000    3.000    0.000    0.375    0.000    2.000 
#    0.000   11.875    0.000    0.000    0.000    0.000 
#    0.000    0.000    0.000    0.000    0.000    0.000 
#
# Total GULP energy -89397.040000 kJ/mol
# GULP energy per Si atom -5587.315000 kJ/mol
# Density = 2.726096 g / cm^3
# Si number density = 27.323151 Si / 1000 Ang^3
#
#
#
# Elastic Constant Matrix: (Units=GPa)
#
#
# Indices 1 2 3 4 5 6 
#
# 1 40.5901 12.8806 30.0865 -26.1487 -1.8879 7.2234
# 2 12.8806 136.6199 76.7384 -46.0241 7.2097 -18.3422
# 3 30.0865 76.7384 265.1838 -69.4035 -11.1293 -4.8033
# 4 -26.1487 -46.0241 -69.4035 71.9244 2.8194 7.8460
# 5 -1.8879 7.2097 -11.1293 2.8194 32.1666 -10.2853
# 6 7.2234 -18.3422 -4.8033 7.8460 -10.2853 16.6136
#
#
#
# Elastic Compliance Matrix: (Units=1/GPa)
#
#
# Indices 1 2 3 4 5 6 
#
# 1 0.043541 -0.001859 -0.000701 0.018341 -0.010500 -0.036348
# 2 -0.001859 0.011219 -0.001941 0.003439 -0.000096 0.010950
# 3 -0.000701 -0.001941 0.005462 0.003828 0.001605 -0.001073
# 4 0.018341 0.003439 0.003828 0.029141 -0.007863 -0.021701
# 5 -0.010500 -0.000096 0.001605 -0.007863 0.043015 0.035267
# 6 -0.036348 0.010950 -0.001073 -0.021701 0.035267 0.119856
#
#
# Mechanical properties :
#
#
# Convention : Reuss Voigt Hill
#
# Bulk Modulus (GPa) = 19.52351 75.75610 47.63981
# Shear Modulus (GPa) = 17.96563 45.65347 31.80955
#
# Velocity S-wave (km/s) = 2.56701 4.09206 3.41574
# Velocity P-wave (km/s) = 3.99336 7.07904 5.74716
#
# Compressibility (1/GPa) = 0.05122030
#
# Stress axis : x y z
#
# Youngs Moduli (GPa) = 22.96666 89.13527 183.08563
#
# Poissons Ratio (x) = 0.16567 0.12837
# Poissons Ratio (y) = 0.04269 0.35540
# Poissons Ratio (z) = 0.01610 0.17303
#
# Static dielectric constant tensor:
#      x y z
#    x 2.121470 -0.089700 0.016440 
#    y -0.089700 2.391220 -0.120250 
#    z 0.016440 -0.120250 2.203420 
# 
# From -- ./inp_files/175311.got.cif
#   From: 2010.05.17/outbox.cif.g08.bks.cpg/sg2_88_cif.got.tgz:175311.got - 2010.06.03 11:33:40.
