data_PCOD9093516
_publ_section_title
;
Structure prediction by ZEFSAII (Michael W. Deem and Ramdas Pophale) SiO2 
 PCOD9093516
Probable space group: P -1
;
_chemical_formula_sum "Si O2"
_cell_formula_units_Z 16
_cell_length_a 23.379579
_cell_length_b 5.495146
_cell_length_c 19.081888
_cell_angle_alpha 98.296753
_cell_angle_beta 163.473289
_cell_angle_gamma 77.982369
_cell_volume 668.470314
_symmetry_space_group_name_H-M "P -1"
_symmetry_group_IT_number 2
_symmetry_cell_setting 'triclinic'
loop_
_space_group_symop_operation_xyz
x,y,z
-x,-y,-z
loop_
_atom_site_type_symbol
_atom_site_label
_atom_site_fract_x
_atom_site_fract_y
_atom_site_fract_z
Si Si1 0.513635 0.674356 0.931550
Si Si2 0.715989 0.678102 0.816889
Si Si3 0.762137 0.118679 0.255555
Si Si4 0.544427 0.084895 0.270233
Si Si5 0.962679 0.844877 0.017134
Si Si6 0.973635 0.776009 0.770504
Si Si7 0.301751 0.894370 0.071406
Si Si8 0.387007 0.548045 0.513252
O O1 0.305747 0.770285 0.739812
O O2 0.460754 0.719272 0.789806
O O3 0.641106 0.382501 0.084164
O O4 0.653392 0.881029 0.114808
O O5 0.521221 0.567266 0.602681
O O6 0.715322 0.888193 0.882825
O O7 0.743715 0.787785 0.777480
O O8 0.923482 0.469515 0.073962
O O9 0.000000 0.000000 0.500000
O O10 0.586625 0.223799 0.396071
O O11 0.735047 0.842252 0.471751
O O12 0.334856 0.997745 0.038070
O O13 0.146834 0.592951 0.219566
O O14 0.000026 0.005690 0.135509
O O15 0.000000 0.000000 0.000000
O O16 0.112387 0.773181 0.863407
O O17 0.510921 0.696247 0.332568
#
# Coordination Sequence:
#
# PCOD9093516 Si02
#       8
#     2   2   2   2   2   2   2   2
#     4  10  23  40  65  97 124 165 215 251 300 373
#     4   9  18  35  51  73 104 141 179 230 286 347
#     4  10  22  45  66  89 132 170 204 254 305 356
#     4  10  20  34  56  85 111 143 187 238 287 341
#     4  10  20  33  52  76 101 144 192 229 284 347
#     4   9  19  36  53  76 112 143 182 237 292 340
#     4   9  18  34  54  76 109 143 180 230 293 348
#     4   9  19  35  54  73 110 144 174 240 290 333
#
# _framework density 23.935241999999999
#
# number of rings (size 3 to 8) (size 9 to 14) (size 15 to 20)
#    0.000    2.500    0.000    1.125    1.750    2.000 
#    4.500    5.625    0.000    0.000    0.000    0.000 
#    0.000    0.000    0.000    0.000    0.000    0.000 
#
# Total GULP energy -89160.670328 kJ/mol
# GULP energy per Si atom -5572.541895 kJ/mol
# Density = 2.388076 g / cm^3
# Si number density = 23.935242 Si / 1000 Ang^3
#
#
#
# Elastic Constant Matrix: (Units=GPa)
#
#
# Indices 1 2 3 4 5 6 
#
# 1 136.3272 38.9053 57.1544 -12.5745 10.4070 61.4429
# 2 38.9053 84.6669 33.1522 -12.8300 24.3002 21.9103
# 3 57.1544 33.1522 85.3630 -19.5443 36.0347 20.2249
# 4 -12.5745 -12.8300 -19.5443 0.5278 -47.6207 19.8625
# 5 10.4070 24.3002 36.0347 -47.6207 -21.5285 16.9560
# 6 61.4429 21.9103 20.2249 19.8625 16.9560 56.6397
#
#
#
# Elastic Compliance Matrix: (Units=1/GPa)
#
#
# Indices 1 2 3 4 5 6 
#
# 1 0.015206 -0.000174 -0.004392 -0.001160 -0.007296 -0.012269
# 2 -0.000174 0.017666 0.001434 0.010994 -0.008688 -0.008411
# 3 -0.004392 0.001434 0.028192 0.024198 -0.014678 -0.009949
# 4 -0.001160 0.010994 0.024198 0.036509 -0.038561 -0.012895
# 5 -0.007296 -0.008688 -0.014678 -0.038561 0.019908 0.024080
# 6 -0.012269 -0.008411 -0.009949 -0.012895 0.024080 0.035085
#
#
# Mechanical properties :
#
#
# Convention : Reuss Voigt Hill
#
# Bulk Modulus (GPa) = 18.24857 62.75343 40.50100
# Shear Modulus (GPa) = 28.23284 18.93747 23.58515
#
# Velocity S-wave (km/s) = 3.43819 2.81587 3.14247
# Velocity P-wave (km/s) = 4.83758 6.07018 5.48859
#
# Compressibility (1/GPa) = 0.05479881
#
# Stress axis : x y z
#
# Youngs Moduli (GPa) = 65.76285 56.60533 35.47044
#
# Poissons Ratio (x) = 0.00986 0.15580
# Poissons Ratio (y) = 0.01146 -0.05085
# Poissons Ratio (z) = 0.28885 -0.08114
#
# Static dielectric constant tensor:
#      x y z
#    x 1.983020 0.004410 0.033520 
#    y 0.004410 2.009790 0.007580 
#    z 0.033520 0.007580 1.965290 
# 
# From -- ./inp_files/350841.got.cif
#   From: 2010.05.17/outbox.cif.g08.bks.cpg/sg2_176_cif.got.tgz:350841.got - 2010.06.03 11:33:40.
