data_PCOD9093785
_publ_section_title
;
Structure prediction by ZEFSAII (Michael W. Deem and Ramdas Pophale) SiO2 
 PCOD9093785
Probable space group: P -1
;
_chemical_formula_sum "Si O2"
_cell_formula_units_Z 14
_cell_length_a 5.917448
_cell_length_b 8.865537
_cell_length_c 18.641798
_cell_angle_alpha 49.891445
_cell_angle_beta 54.490479
_cell_angle_gamma 71.729413
_cell_volume 605.969152
_symmetry_space_group_name_H-M "P -1"
_symmetry_group_IT_number 2
_symmetry_cell_setting 'triclinic'
loop_
_space_group_symop_operation_xyz
x,y,z
-x,-y,-z
loop_
_atom_site_type_symbol
_atom_site_label
_atom_site_fract_x
_atom_site_fract_y
_atom_site_fract_z
Si Si1 0.149134 0.030445 0.102099
Si Si2 0.104883 0.499759 0.352361
Si Si3 0.681414 0.130607 0.740786
Si Si4 0.665479 0.569990 0.135839
Si Si5 0.144279 0.366248 0.770660
Si Si6 0.421734 0.841100 0.770538
Si Si7 0.293118 0.096794 0.452465
O O1 0.863362 0.072535 0.181771
O O2 0.354971 0.988885 0.141416
O O3 0.248315 0.218395 0.979054
O O4 0.077526 0.828564 0.133002
O O5 0.067582 0.695649 0.346016
O O6 0.367466 0.556109 0.233745
O O7 0.186639 0.304759 0.436060
O O8 0.872064 0.480313 0.339043
O O9 0.429714 0.266331 0.735786
O O10 0.664160 0.965696 0.733241
O O11 0.863911 0.541710 0.176882
O O12 0.639651 0.395244 0.135987
O O13 0.507431 0.864153 0.665352
O O14 0.500000 0.000000 0.500000
O O15 0.000000 0.000000 0.500000
#
# Coordination Sequence:
#
# PCOD9093785 Si02
#       7
#     2   2   2   2   2   2   2
#     4  10  20  35  58  88 128 169 206 251 308 374
#     4   9  21  39  63  89 123 165 203 263 307 378
#     4   9  20  37  59  85 129 162 209 249 316 371
#     4  10  20  33  57  91 126 167 213 247 309 369
#     4   9  19  35  58  85 127 165 211 248 304 367
#     4  10  23  39  60  89 124 163 201 271 315 379
#     4  11  27  46  73  98 121 160 216 270 332 388
#
# _framework density 23.103484999999999
#
# number of rings (size 3 to 8) (size 9 to 14) (size 15 to 20)
#    0.000    2.286    0.000    0.857    8.000    9.143 
#    0.000    1.429    0.000    0.000    0.000    0.000 
#    0.000    0.000    0.000    0.000    0.000    0.000 
#
# Total GULP energy -77949.698436 kJ/mol
# GULP energy per Si atom -5567.835603 kJ/mol
# Density = 2.305090 g / cm^3
# Si number density = 23.103485 Si / 1000 Ang^3
#
#
#
# Elastic Constant Matrix: (Units=GPa)
#
#
# Indices 1 2 3 4 5 6 
#
# 1 77.9810 14.2888 15.6053 -14.3463 23.1131 9.0061
# 2 14.2888 111.8417 6.6882 -24.2225 5.3012 32.4774
# 3 15.6053 6.6882 47.3457 -8.3665 4.1707 3.1431
# 4 -14.3463 -24.2225 -8.3665 34.6788 -6.8305 -2.4971
# 5 23.1131 5.3012 4.1707 -6.8305 32.9396 5.5238
# 6 9.0061 32.4774 3.1431 -2.4971 5.5238 32.1410
#
#
#
# Elastic Compliance Matrix: (Units=1/GPa)
#
#
# Indices 1 2 3 4 5 6 
#
# 1 0.017863 0.000122 -0.004047 0.004198 -0.010741 -0.002560
# 2 0.000122 0.015450 0.000420 0.010250 0.002057 -0.015244
# 3 -0.004047 0.000420 0.023162 0.004297 0.000963 -0.001387
# 4 0.004198 0.010250 0.004297 0.038970 0.004570 -0.009712
# 5 -0.010741 0.002057 0.000963 0.004570 0.039324 -0.005566
# 6 -0.002560 -0.015244 -0.001387 -0.009712 -0.005566 0.047571
#
#
# Mechanical properties :
#
#
# Convention : Reuss Voigt Hill
#
# Bulk Modulus (GPa) = 20.21674 34.48144 27.34909
# Shear Modulus (GPa) = 24.29090 33.32431 28.80760
#
# Velocity S-wave (km/s) = 3.24604 3.80201 3.53497
# Velocity P-wave (km/s) = 4.77688 5.85071 5.34085
#
# Compressibility (1/GPa) = 0.04946395
#
# Stress axis : x y z
#
# Youngs Moduli (GPa) = 55.98199 64.72645 43.17347
#
# Poissons Ratio (x) = -0.00788 0.17471
# Poissons Ratio (y) = -0.00682 -0.01811
# Poissons Ratio (z) = 0.22655 -0.02715
#
# Static dielectric constant tensor:
#      x y z
#    x 2.091010 0.063870 -0.014520 
#    y 0.063870 1.958590 -0.044530 
#    z -0.014520 -0.044530 1.869650 
# 
# From -- ./inp_files/35195.got.cif
#   From: 2010.05.17/outbox.cif.g08.bks.cpg/sg2_18_cif.got.tgz:35195.got - 2010.06.03 11:33:40.
