data_PCOD9093143
_publ_section_title
;
Structure prediction by ZEFSAII (Michael W. Deem and Ramdas Pophale) SiO2 
 PCOD9093143
Probable space group: P -1
;
_chemical_formula_sum "Si O2"
_cell_formula_units_Z 12
_cell_length_a 8.038637
_cell_length_b 26.805423
_cell_length_c 5.759432
_cell_angle_alpha 44.633547
_cell_angle_beta 143.665439
_cell_angle_gamma 146.327369
_cell_volume 404.472812
_symmetry_space_group_name_H-M "P -1"
_symmetry_group_IT_number 2
_symmetry_cell_setting 'triclinic'
loop_
_space_group_symop_operation_xyz
x,y,z
-x,-y,-z
loop_
_atom_site_type_symbol
_atom_site_label
_atom_site_fract_x
_atom_site_fract_y
_atom_site_fract_z
Si Si1 0.428098 0.779185 0.541644
Si Si2 0.237171 0.274441 0.525329
Si Si3 0.692281 0.942597 0.536548
Si Si4 0.148891 0.614299 0.536172
Si Si5 0.520967 0.439190 0.541847
Si Si6 0.956896 0.106888 0.528915
O O1 0.374109 0.847548 0.373059
O O2 0.108653 0.687324 0.356766
O O3 0.738628 0.835524 0.513463
O O4 0.595110 0.754371 0.006743
O O5 0.552878 0.336539 0.487874
O O6 0.193440 0.344826 0.365630
O O7 0.916891 0.178037 0.366876
O O8 0.866290 0.918106 0.003205
O O9 0.000000 0.000000 0.500000
O O10 0.638177 0.010851 0.370086
O O11 0.791284 0.515008 0.404457
O O12 0.297494 0.593152 0.992108
O O13 0.500000 0.500000 0.500000
#
# Coordination Sequence:
#
# PCOD9093143 Si02
#       6
#     2   2   2   2   2   2
#     4   8  14  24  40  61  88 118 147 183 223 262
#     4   9  16  28  44  62  89 120 149 186 227 265
#     4   8  12  19  34  60  91 118 147 181 217 263
#     4   9  18  32  47  65  91 119 149 188 228 267
#     4  10  20  32  47  67  89 117 153 189 228 271
#     4   8  13  21  36  60  90 119 147 182 221 262
#
# _framework density 29.668248999999999
#
# number of rings (size 3 to 8) (size 9 to 14) (size 15 to 20)
#    0.000    3.333    0.000    0.500    0.000    0.667 
#    0.000    0.000    0.000    0.000    0.000    1.167 
#    0.000  260.000    0.000   66.667    0.000   16.167 
#
# Total GULP energy -67248.640556 kJ/mol
# GULP energy per Si atom -5604.053380 kJ/mol
# Density = 2.960072 g / cm^3
# Si number density = 29.668249 Si / 1000 Ang^3
#
#
#
# Elastic Constant Matrix: (Units=GPa)
#
#
# Indices 1 2 3 4 5 6 
#
# 1 135.3590 69.1282 49.5993 -14.5536 -6.9990 -19.7835
# 2 69.1282 277.0728 57.2121 -42.3756 26.8778 -76.6380
# 3 49.5993 57.2121 135.1220 -19.4931 -19.4371 17.8804
# 4 -14.5536 -42.3756 -19.4931 61.3112 -2.5756 15.1155
# 5 -6.9990 26.8778 -19.4371 -2.5756 57.2450 -20.2592
# 6 -19.7835 -76.6380 17.8804 15.1155 -20.2592 74.5977
#
#
#
# Elastic Compliance Matrix: (Units=1/GPa)
#
#
# Indices 1 2 3 4 5 6 
#
# 1 0.009590 -0.001236 -0.003114 -0.000110 0.001563 0.002467
# 2 -0.001236 0.006949 -0.003444 0.001668 -0.002130 0.006721
# 3 -0.003114 -0.003444 0.011672 0.002405 0.002877 -0.006868
# 4 -0.000110 0.001668 0.002405 0.018874 -0.000102 -0.002744
# 5 0.001563 -0.002130 0.002877 -0.000102 0.020763 0.003197
# 6 0.002467 0.006721 -0.006868 -0.002744 0.003197 0.024034
#
#
# Mechanical properties :
#
#
# Convention : Reuss Voigt Hill
#
# Bulk Modulus (GPa) = 79.22135 99.93700 89.57917
# Shear Modulus (GPa) = 44.77184 63.40506 54.08845
#
# Velocity S-wave (km/s) = 3.88891 4.62793 4.27442
# Velocity P-wave (km/s) = 6.85019 7.89398 7.39054
#
# Compressibility (1/GPa) = 0.01262286
#
# Stress axis : x y z
#
# Youngs Moduli (GPa) = 104.28038 143.90154 85.67726
#
# Poissons Ratio (x) = 0.17780 0.26684
# Poissons Ratio (y) = 0.12884 0.29506
# Poissons Ratio (z) = 0.32477 0.49557
#
# Static dielectric constant tensor:
#      x y z
#    x 2.297100 -0.114630 -0.058760 
#    y -0.114630 2.389470 -0.046360 
#    z -0.058760 -0.046360 2.250890 
# 
# From -- ./inp_files/4420.got.cif
#   From: 2010.05.17/outbox.cif.g08.bks.cpg/sg2_3_cif.got.tgz:4420.got - 2010.06.03 11:33:40.
