data_PCOD9093702
_publ_section_title
;
Structure prediction by ZEFSAII (Michael W. Deem and Ramdas Pophale) SiO2 
 PCOD9093702
Probable space group: P -1
;
_chemical_formula_sum "Si O2"
_cell_formula_units_Z 16
_cell_length_a 14.193478
_cell_length_b 7.245667
_cell_length_c 10.707421
_cell_angle_alpha 120.211162
_cell_angle_beta 131.458043
_cell_angle_gamma 57.506801
_cell_volume 676.846162
_symmetry_space_group_name_H-M "P -1"
_symmetry_group_IT_number 2
_symmetry_cell_setting 'triclinic'
loop_
_space_group_symop_operation_xyz
x,y,z
-x,-y,-z
loop_
_atom_site_type_symbol
_atom_site_label
_atom_site_fract_x
_atom_site_fract_y
_atom_site_fract_z
Si Si1 0.495591 0.468868 0.199035
Si Si2 0.984662 0.386600 0.241246
Si Si3 0.529377 0.819262 0.145718
Si Si4 0.758651 0.890591 0.044456
Si Si5 0.817120 0.671997 0.412366
Si Si6 0.778172 0.246942 0.385782
Si Si7 0.220680 0.623807 0.108495
Si Si8 0.052028 0.733123 0.240916
O O1 0.524295 0.623624 0.169046
O O2 0.632494 0.365819 0.357455
O O3 0.369281 0.619490 0.214645
O O4 0.466206 0.271369 0.023622
O O5 0.101682 0.239952 0.382786
O O6 0.043744 0.500628 0.219739
O O7 0.900858 0.581847 0.330089
O O8 0.886005 0.265631 0.054911
O O9 0.672655 0.840990 0.310370
O O10 0.387329 0.003999 0.106594
O O11 0.904549 0.858979 0.105051
O O12 0.761926 0.052362 0.217459
O O13 0.767108 0.636798 0.990398
O O14 0.805582 0.441346 0.389045
O O15 0.892503 0.159964 0.558058
O O16 0.156954 0.690123 0.208560
#
# Coordination Sequence:
#
# PCOD9093702 Si02
#       8
#     2   2   2   2   2   2   2   2
#     4   9  18  33  55  80 103 146 175 218 265 324
#     4   9  17  30  53  77 103 138 182 210 257 317
#     4   9  17  32  54  80 110 130 182 226 269 300
#     4  10  20  33  56  83 109 135 177 232 265 299
#     4   9  16  31  54  81 103 137 175 228 264 308
#     4   9  19  34  58  80 105 136 185 226 261 305
#     4  11  21  35  56  78 113 145 176 210 272 333
#     4  10  21  37  52  76 112 152 174 208 269 334
#
# _framework density 23.639049
#
# number of rings (size 3 to 8) (size 9 to 14) (size 15 to 20)
#    0.000    2.500    1.250    2.625    0.000    2.500 
#    0.000    0.625    2.750   12.000    0.000    0.000 
#    0.000    0.000    0.000    0.000    0.000    0.000 
#
# Total GULP energy -89263.888784 kJ/mol
# GULP energy per Si atom -5578.993049 kJ/mol
# Density = 2.358525 g / cm^3
# Si number density = 23.639049 Si / 1000 Ang^3
#
#
#
# Elastic Constant Matrix: (Units=GPa)
#
#
# Indices 1 2 3 4 5 6 
#
# 1 131.2354 29.0674 25.9772 -13.6909 1.1554 -40.8076
# 2 29.0674 61.1510 30.6329 -21.0748 4.4173 0.5840
# 3 25.9772 30.6329 70.6700 -27.3944 12.6044 -15.2158
# 4 -13.6909 -21.0748 -27.3944 31.4354 -11.9284 10.8396
# 5 1.1554 4.4173 12.6044 -11.9284 30.4335 -10.1400
# 6 -40.8076 0.5840 -15.2158 10.8396 -10.1400 39.6058
#
#
#
# Elastic Compliance Matrix: (Units=1/GPa)
#
#
# Indices 1 2 3 4 5 6 
#
# 1 0.014525 -0.008589 -0.000215 -0.003647 0.005126 0.017320
# 2 -0.008589 0.029449 -0.007131 0.015239 -0.000457 -0.016311
# 3 -0.000215 -0.007131 0.023995 0.013621 -0.001930 0.004880
# 4 -0.003647 0.015239 0.013621 0.061188 0.012140 -0.012387
# 5 0.005126 -0.000457 -0.001930 0.012140 0.042304 0.012055
# 6 0.017320 -0.016311 0.004880 -0.012387 0.012055 0.051687
#
#
# Mechanical properties :
#
#
# Convention : Reuss Voigt Hill
#
# Bulk Modulus (GPa) = 27.70153 48.26792 37.98472
# Shear Modulus (GPa) = 18.72304 32.12021 25.42163
#
# Velocity S-wave (km/s) = 2.81737 3.69016 3.28290
# Velocity P-wave (km/s) = 4.72519 6.21445 5.52027
#
# Compressibility (1/GPa) = 0.03609909
#
# Stress axis : x y z
#
# Youngs Moduli (GPa) = 68.84680 33.95758 41.67476
#
# Poissons Ratio (x) = 0.29167 0.00895
# Poissons Ratio (y) = 0.59134 0.29718
# Poissons Ratio (z) = 0.01478 0.24215
#
# Static dielectric constant tensor:
#      x y z
#    x 1.931930 0.013130 0.071760 
#    y 0.013130 1.956590 -0.081960 
#    z 0.071760 -0.081960 1.961750 
# 
# From -- ./inp_files/414281.got.cif
#   From: 2010.05.17/outbox.cif.g08.bks.cpg/sg2_208_cif.got.tgz:414281.got - 2010.06.03 11:33:40.
