data_PCOD9093176
_publ_section_title
;
Structure prediction by ZEFSAII (Michael W. Deem and Ramdas Pophale) SiO2 
 PCOD9093176
Probable space group: P -1
;
_chemical_formula_sum "Si O2"
_cell_formula_units_Z 16
_cell_length_a 5.050661
_cell_length_b 12.429842
_cell_length_c 17.361009
_cell_angle_alpha 97.200753
_cell_angle_beta 122.703357
_cell_angle_gamma 88.067429
_cell_volume 909.144336
_symmetry_space_group_name_H-M "P -1"
_symmetry_group_IT_number 2
_symmetry_cell_setting 'triclinic'
loop_
_space_group_symop_operation_xyz
x,y,z
-x,-y,-z
loop_
_atom_site_type_symbol
_atom_site_label
_atom_site_fract_x
_atom_site_fract_y
_atom_site_fract_z
Si Si1 0.748153 0.599638 0.536126
Si Si2 0.740413 0.921997 0.991379
Si Si3 0.078399 0.270697 0.890655
Si Si4 0.694150 0.567106 0.943018
Si Si5 0.643897 0.538848 0.354344
Si Si6 0.610133 0.634419 0.190162
Si Si7 0.492630 0.261422 0.178342
Si Si8 0.220448 0.333689 0.291674
O O1 0.500000 0.500000 0.500000
O O2 0.691284 0.623836 0.439788
O O3 0.699537 0.680591 0.606314
O O4 0.087983 0.549013 0.598059
O O5 0.584298 0.845252 0.893316
O O6 0.878624 0.843842 0.071779
O O7 0.500000 0.000000 0.000000
O O8 0.000000 0.000000 0.000000
O O9 0.157137 0.285973 0.814497
O O10 0.731028 0.312276 0.855785
O O11 0.332067 0.351052 0.982740
O O12 0.422464 0.479102 0.872083
O O13 0.728891 0.646483 0.882699
O O14 0.000000 0.500000 0.000000
O O15 0.686373 0.598980 0.285618
O O16 0.326801 0.460470 0.301531
O O17 0.408196 0.260285 0.255013
O O18 0.850186 0.304301 0.223625
#
# Coordination Sequence:
#
# PCOD9093176 Si02
#       8
#     2   2   2   2   2   2   2   2
#     4   9  19  31  50  73 112 159 191 205 250 304
#     4  11  23  43  61  75 105 138 179 240 294 317
#     4  10  23  34  50  78  99 139 184 220 259 326
#     4   9  19  31  46  69 108 142 172 209 249 300
#     4  10  20  32  49  76 113 167 177 212 255 304
#     4  11  20  32  50  74 114 142 179 207 252 313
#     4  11  22  33  56  79 102 140 190 217 272 320
#     4  11  19  34  49  76 111 141 185 223 245 309
#
# _framework density 17.598966999999998
#
# number of rings (size 3 to 8) (size 9 to 14) (size 15 to 20)
#    0.000    1.750    2.500    1.875    5.250    5.000 
#    0.000    0.000    0.000    0.000    0.000    0.000 
#    0.000   20.000    0.000    0.000    0.000    0.000 
#
# Total GULP energy -89171.054848 kJ/mol
# GULP energy per Si atom -5573.190928 kJ/mol
# Density = 1.755891 g / cm^3
# Si number density = 17.598967 Si / 1000 Ang^3
#
#
#
# Elastic Constant Matrix: (Units=GPa)
#
#
# Indices 1 2 3 4 5 6 
#
# 1 105.5654 42.6157 29.9358 8.4427 -4.9576 10.8117
# 2 42.6157 88.7959 43.8397 -0.2680 -8.3294 6.7501
# 3 29.9358 43.8397 78.1769 9.0074 -11.9319 10.6369
# 4 8.4427 -0.2680 9.0074 20.6510 3.9466 -4.5754
# 5 -4.9576 -8.3294 -11.9319 3.9466 34.5492 -2.7029
# 6 10.8117 6.7501 10.6369 -4.5754 -2.7029 25.3925
#
#
#
# Elastic Compliance Matrix: (Units=1/GPa)
#
#
# Indices 1 2 3 4 5 6 
#
# 1 0.012878 -0.005637 -0.000230 -0.006486 0.000761 -0.004976
# 2 -0.005637 0.018406 -0.009415 0.007303 -0.000243 0.002741
# 3 -0.000230 -0.009415 0.021581 -0.012356 0.005933 -0.008035
# 4 -0.006486 0.007303 -0.012356 0.061908 -0.009244 0.016167
# 5 0.000761 -0.000243 0.005933 -0.009244 0.032022 -0.001002
# 6 -0.004976 0.002741 -0.008035 0.016167 -0.001002 0.046944
#
#
# Mechanical properties :
#
#
# Convention : Reuss Voigt Hill
#
# Bulk Modulus (GPa) = 44.83774 56.14673 50.49224
# Shear Modulus (GPa) = 21.57641 26.52835 24.05238
#
# Velocity S-wave (km/s) = 3.50523 3.88671 3.70089
# Velocity P-wave (km/s) = 6.47418 7.21905 6.85674
#
# Compressibility (1/GPa) = 0.02230264
#
# Stress axis : x y z
#
# Youngs Moduli (GPa) = 77.65475 54.32980 46.33627
#
# Poissons Ratio (x) = 0.30625 0.01064
# Poissons Ratio (y) = 0.43772 0.43624
# Poissons Ratio (z) = 0.01783 0.51150
#
# Static dielectric constant tensor:
#      x y z
#    x 1.677830 0.017800 -0.018110 
#    y 0.017800 1.586140 0.012200 
#    z -0.018110 0.012200 1.696560 
# 
# From -- ./inp_files/549171.got.cif
#   From: 2010.05.17/outbox.cif.g08.bks.cpg/sg2_275_cif.got.tgz:549171.got - 2010.06.03 11:33:40.
