data_PCOD9093809
_publ_section_title
;
Structure prediction by ZEFSAII (Michael W. Deem and Ramdas Pophale) SiO2 
 PCOD9093809
Probable space group: P -1
;
_chemical_formula_sum "Si O2"
_cell_formula_units_Z 16
_cell_length_a 14.088702
_cell_length_b 18.552823
_cell_length_c 21.532631
_cell_angle_alpha 19.623618
_cell_angle_beta 23.191118
_cell_angle_gamma 30.941880
_cell_volume 742.960000
_symmetry_space_group_name_H-M "P -1"
_symmetry_group_IT_number 2
_symmetry_cell_setting 'triclinic'
loop_
_space_group_symop_operation_xyz
x,y,z
-x,-y,-z
loop_
_atom_site_type_symbol
_atom_site_label
_atom_site_fract_x
_atom_site_fract_y
_atom_site_fract_z
Si Si1 0.204582 0.321767 0.127607
Si Si2 0.262808 0.719943 0.110547
Si Si3 0.578087 0.803653 0.377980
Si Si4 0.135892 0.582128 0.430028
Si Si5 0.961574 0.060092 0.382842
Si Si6 0.612643 0.232474 0.763736
Si Si7 0.283479 0.390781 0.677589
Si Si8 0.904039 0.723060 0.989815
O O1 0.170555 0.194398 0.186580
O O2 0.051721 0.174277 0.388799
O O3 0.471894 0.338665 0.980178
O O4 0.090044 0.545798 0.007507
O O5 0.116475 0.692106 0.285638
O O6 0.119258 0.543386 0.297551
O O7 0.289480 0.964366 0.873073
O O8 0.679320 0.611015 0.514363
O O9 0.293865 0.838205 0.529861
O O10 0.641580 0.756405 0.305636
O O11 0.252184 0.768061 0.252719
O O12 0.009043 0.074953 0.268968
O O13 0.793424 0.389541 0.486888
O O14 0.359570 0.351303 0.819420
O O15 0.500000 0.000000 0.000000
O O16 0.500000 0.500000 0.500000
O O17 0.122267 0.269275 0.926059
#
# Coordination Sequence:
#
# PCOD9093809 Si02
#       8
#     2   2   2   2   2   2   2   2
#     4  10  20  34  53  83 118 148 195 230 296 343
#     4  10  21  34  59  85 115 156 188 245 283 346
#     4  10  20  38  58  86 119 149 192 242 291 338
#     4  10  20  36  56  87 113 149 202 237 288 338
#     4  10  20  33  58  85 115 153 185 240 293 349
#     4  10  22  36  59  85 117 154 193 241 296 343
#     4   9  20  34  53  86 118 149 185 237 290 347
#     4  11  21  35  57  86 118 148 185 242 296 340
#
# _framework density 21.53548
#
# number of rings (size 3 to 8) (size 9 to 14) (size 15 to 20)
#    0.000    2.000    0.000    4.500    5.250    0.000 
#    0.000    0.000    0.000    3.750    3.250    0.000 
#    0.000    0.000    0.000    0.000    0.000    0.000 
#
# Total GULP energy -89120.816890 kJ/mol
# GULP energy per Si atom -5570.051056 kJ/mol
# Density = 2.148646 g / cm^3
# Si number density = 21.535480 Si / 1000 Ang^3
#
#
#
# Elastic Constant Matrix: (Units=GPa)
#
#
# Indices 1 2 3 4 5 6 
#
# 1 57.7821 0.3595 35.6758 0.2300 11.2410 4.2999
# 2 0.3595 40.1776 24.9955 -6.3127 -9.8143 -6.2491
# 3 35.6758 24.9955 87.1100 -9.9056 0.8114 8.5825
# 4 0.2300 -6.3127 -9.9056 28.0864 -5.3552 4.1016
# 5 11.2410 -9.8143 0.8114 -5.3552 60.2911 5.4402
# 6 4.2999 -6.2491 8.5825 4.1016 5.4402 28.8559
#
#
#
# Elastic Compliance Matrix: (Units=1/GPa)
#
#
# Indices 1 2 3 4 5 6 
#
# 1 0.026228 0.006861 -0.013507 -0.004703 -0.004286 0.003072
# 2 0.006861 0.036507 -0.014008 0.002562 0.004187 0.009897
# 3 -0.013507 -0.014008 0.022638 0.006501 0.001316 -0.008926
# 4 -0.004703 0.002562 0.006501 0.040653 0.005493 -0.007492
# 5 -0.004286 0.004187 0.001316 0.005493 0.018824 -0.003176
# 6 0.003072 0.009897 -0.008926 -0.007492 -0.003176 0.040659
#
#
# Mechanical properties :
#
#
# Convention : Reuss Voigt Hill
#
# Bulk Modulus (GPa) = 22.69498 34.12569 28.41034
# Shear Modulus (GPa) = 20.70348 31.71593 26.20971
#
# Velocity S-wave (km/s) = 3.10395 3.84178 3.49241
# Velocity P-wave (km/s) = 4.83811 5.96319 5.42987
#
# Compressibility (1/GPa) = 0.04406261
#
# Stress axis : x y z
#
# Youngs Moduli (GPa) = 38.12788 27.39180 44.17439
#
# Poissons Ratio (x) = -0.18792 0.59668
# Poissons Ratio (y) = -0.26158 0.61879
# Poissons Ratio (z) = 0.51501 0.38370
#
# Static dielectric constant tensor:
#      x y z
#    x 2.050440 0.056560 0.038350 
#    y 0.056560 1.851190 0.000900 
#    z 0.038350 0.000900 1.857120 
# 
# From -- ./inp_files/612235.got.cif
#   From: 2010.05.17/outbox.cif.g08.bks.cpg/sg2_307_cif.got.tgz:612235.got - 2010.06.03 11:33:40.
