data_PCOD9093985
_publ_section_title
;
Structure prediction by ZEFSAII (Michael W. Deem and Ramdas Pophale) SiO2 
 PCOD9093985
Probable space group: P -1
;
_chemical_formula_sum "Si O2"
_cell_formula_units_Z 16
_cell_length_a 10.763647
_cell_length_b 12.051699
_cell_length_c 5.532897
_cell_angle_alpha 75.337197
_cell_angle_beta 107.788597
_cell_angle_gamma 115.861713
_cell_volume 608.922310
_symmetry_space_group_name_H-M "P -1"
_symmetry_group_IT_number 2
_symmetry_cell_setting 'triclinic'
loop_
_space_group_symop_operation_xyz
x,y,z
-x,-y,-z
loop_
_atom_site_type_symbol
_atom_site_label
_atom_site_fract_x
_atom_site_fract_y
_atom_site_fract_z
Si Si1 0.934158 0.603831 0.399400
Si Si2 0.191736 0.505070 0.117694
Si Si3 0.485292 0.395123 0.744598
Si Si4 0.807343 0.259243 0.769771
Si Si5 0.457817 0.851466 0.615462
Si Si6 0.333095 0.937454 0.864165
Si Si7 0.246865 0.155695 0.564607
Si Si8 0.282716 0.226487 0.047708
O O1 0.842639 0.577891 0.606550
O O2 0.000000 0.500000 0.500000
O O3 0.075965 0.724910 0.375315
O O4 0.858988 0.577993 0.107301
O O5 0.355836 0.579055 0.117253
O O6 0.140345 0.617701 0.092998
O O7 0.500000 0.500000 0.500000
O O8 0.401284 0.266537 0.625955
O O9 0.385013 0.365836 0.940930
O O10 0.649239 0.239033 0.594009
O O11 0.773945 0.128959 0.951789
O O12 0.343280 0.828212 0.770968
O O13 0.595378 0.830373 0.801860
O O14 0.500000 0.000000 0.500000
O O15 0.276422 0.031019 0.649093
O O16 0.500000 0.000000 0.000000
O O17 0.195535 0.191006 0.263400
O O18 0.186750 0.168078 0.786341
#
# Coordination Sequence:
#
# PCOD9093985 Si02
#       8
#     2   2   2   2   2   2   2   2
#     4  10  24  39  58  81 117 162 204 233 282 339
#     4  11  23  41  58  83 119 156 200 250 279 340
#     4  10  24  40  63  86 114 152 197 249 306 340
#     4  11  23  34  55  82 121 164 191 229 282 358
#     4  12  20  29  51  81 121 157 182 219 289 359
#     4  12  19  31  48  81 119 155 186 225 290 358
#     4  10  21  34  50  79 115 144 178 228 281 357
#     4  10  20  34  50  76 117 145 183 219 282 339
#
# _framework density 26.275932000000001
#
# number of rings (size 3 to 8) (size 9 to 14) (size 15 to 20)
#    0.750    0.500    3.750    3.750   10.500    0.500 
#    0.000    0.000    0.000    0.000    0.000    1.750 
#    0.000    0.000    0.000    0.000    0.000    0.000 
#
# Total GULP energy -89133.485758 kJ/mol
# GULP energy per Si atom -5570.842860 kJ/mol
# Density = 2.621613 g / cm^3
# Si number density = 26.275932 Si / 1000 Ang^3
#
#
#
# Elastic Constant Matrix: (Units=GPa)
#
#
# Indices 1 2 3 4 5 6 
#
# 1 61.6302 17.4937 22.0575 -8.6056 -15.2128 -2.6863
# 2 17.4937 77.5666 44.8586 -26.8265 -9.9640 7.7520
# 3 22.0575 44.8586 188.0527 -19.5756 -33.7731 2.6590
# 4 -8.6056 -26.8265 -19.5756 56.7974 0.1068 -3.8368
# 5 -15.2128 -9.9640 -33.7731 0.1068 35.8628 -5.9855
# 6 -2.6863 7.7520 2.6590 -3.8368 -5.9855 16.7143
#
#
#
# Elastic Compliance Matrix: (Units=1/GPa)
#
#
# Indices 1 2 3 4 5 6 
#
# 1 0.020095 -0.003685 0.000251 0.001957 0.009172 0.008632
# 2 -0.003685 0.018572 -0.003360 0.006553 -0.000833 -0.007465
# 3 0.000251 -0.003360 0.007356 0.001181 0.006609 0.003066
# 4 0.001957 0.006553 0.001181 0.021640 0.004298 0.003594
# 5 0.009172 -0.000833 0.006609 0.004298 0.040473 0.016289
# 6 0.008632 -0.007465 0.003066 0.003594 0.016289 0.070849
#
#
# Mechanical properties :
#
#
# Convention : Reuss Voigt Hill
#
# Bulk Modulus (GPa) = 30.83084 55.11879 42.97481
# Shear Modulus (GPa) = 24.58392 38.06421 31.32407
#
# Velocity S-wave (km/s) = 3.06209 3.81022 3.45645
# Velocity P-wave (km/s) = 4.92552 6.35449 5.68508
#
# Compressibility (1/GPa) = 0.03243505
#
# Stress axis : x y z
#
# Youngs Moduli (GPa) = 49.76247 53.84546 135.94030
#
# Poissons Ratio (x) = 0.19842 -0.03409
# Poissons Ratio (y) = 0.18338 0.45673
# Poissons Ratio (z) = -0.01248 0.18091
#
# Static dielectric constant tensor:
#      x y z
#    x 2.067080 -0.061080 -0.034300 
#    y -0.061080 2.077030 0.070700 
#    z -0.034300 0.070700 2.229510 
# 
# From -- ./inp_files/96933.got.cif
#   From: 2010.05.17/outbox.cif.g08.bks.cpg/sg2_49_cif.got.tgz:96933.got - 2010.06.03 11:33:40.
