data_PCOD9093775
_publ_section_title
;
Structure prediction by ZEFSAII (Michael W. Deem and Ramdas Pophale) SiO2 
 PCOD9093775
Probable space group: P -1
;
_chemical_formula_sum "Si O2"
_cell_formula_units_Z 14
_cell_length_a 5.249059
_cell_length_b 24.015437
_cell_length_c 7.039723
_cell_angle_alpha 39.860521
_cell_angle_beta 72.778370
_cell_angle_gamma 66.077748
_cell_volume 519.730150
_symmetry_space_group_name_H-M "P -1"
_symmetry_group_IT_number 2
_symmetry_cell_setting 'triclinic'
loop_
_space_group_symop_operation_xyz
x,y,z
-x,-y,-z
loop_
_atom_site_type_symbol
_atom_site_label
_atom_site_fract_x
_atom_site_fract_y
_atom_site_fract_z
Si Si1 0.753225 0.455565 0.701173
Si Si2 0.290671 0.044702 0.145706
Si Si3 0.119020 0.062760 0.584555
Si Si4 0.479455 0.272845 0.886235
Si Si5 0.893880 0.767773 0.237944
Si Si6 0.724637 0.261365 0.233311
Si Si7 0.675007 0.371574 0.309304
O O1 0.500000 0.500000 0.500000
O O2 0.000000 0.500000 0.500000
O O3 0.843828 0.346029 0.922167
O O4 0.662347 0.449246 0.957309
O O5 0.208536 0.057421 0.355673
O O6 0.596924 0.975388 0.261275
O O7 0.268475 0.147425 0.821504
O O8 0.072081 0.004735 0.193151
O O9 0.935056 0.161835 0.433012
O O10 0.285101 0.233138 0.906274
O O11 0.477275 0.368553 0.538903
O O12 0.805316 0.218156 0.919973
O O13 0.467616 0.272102 0.116575
O O14 0.011216 0.669300 0.570066
O O15 0.635815 0.290998 0.389571
#
# Coordination Sequence:
#
# PCOD9093775 Si02
#       7
#     2   2   2   2   2   2   2
#     4  10  24  43  68  94 124 159 206 268 318 377
#     4  10  20  33  57  88 134 158 213 259 298 351
#     4  10  20  34  55  94 121 170 208 258 301 366
#     4  10  21  39  63  94 120 171 211 248 311 376
#     4  10  20  39  61  88 131 168 204 256 309 363
#     4  10  22  43  69  91 126 171 216 249 324 382
#     4   8  23  41  68  88 132 162 205 260 321 371
#
# _framework density 26.937055000000001
#
# number of rings (size 3 to 8) (size 9 to 14) (size 15 to 20)
#    1.714    0.571    1.429    0.857    6.000    2.286 
#    5.143    2.857    0.000    0.000    0.000    0.000 
#    0.000    0.000    0.000    0.000    0.000    0.000 
#
# Total GULP energy -78258.238626 kJ/mol
# GULP energy per Si atom -5589.874188 kJ/mol
# Density = 2.687575 g / cm^3
# Si number density = 26.937055 Si / 1000 Ang^3
#
#
#
# Elastic Constant Matrix: (Units=GPa)
#
#
# Indices 1 2 3 4 5 6 
#
# 1 158.6260 46.1710 25.5378 -0.4886 9.2463 42.0376
# 2 46.1710 103.1353 14.4509 12.8254 -4.8872 10.5496
# 3 25.5378 14.4509 82.6866 -4.9949 -4.0505 6.5693
# 4 -0.4886 12.8254 -4.9949 57.2106 0.7007 -0.1089
# 5 9.2463 -4.8872 -4.0505 0.7007 35.4273 5.7711
# 6 42.0376 10.5496 6.5693 -0.1089 5.7711 53.3153
#
#
#
# Elastic Compliance Matrix: (Units=1/GPa)
#
#
# Indices 1 2 3 4 5 6 
#
# 1 0.009410 -0.003502 -0.001858 0.000718 -0.002145 -0.006264
# 2 -0.003502 0.011849 -0.001061 -0.002808 0.002438 0.000278
# 3 -0.001858 -0.001061 0.013033 0.001337 0.001823 -0.000125
# 4 0.000718 -0.002808 0.001337 0.018241 -0.000774 -0.000054
# 5 -0.002145 0.002438 0.001823 -0.000774 0.029710 -0.002233
# 6 -0.006264 0.000278 -0.000125 -0.000054 -0.002233 0.023897
#
#
# Mechanical properties :
#
#
# Convention : Reuss Voigt Hill
#
# Bulk Modulus (GPa) = 46.62431 57.41859 52.02145
# Shear Modulus (GPa) = 39.64024 46.40986 43.02505
#
# Velocity S-wave (km/s) = 3.84029 4.15529 4.00089
# Velocity P-wave (km/s) = 6.08358 6.66213 6.37942
#
# Compressibility (1/GPa) = 0.02144804
#
# Stress axis : x y z
#
# Youngs Moduli (GPa) = 106.27001 84.39585 76.72642
#
# Poissons Ratio (x) = 0.29559 0.14258
# Poissons Ratio (y) = 0.37220 0.08144
# Poissons Ratio (z) = 0.19748 0.08958
#
# Static dielectric constant tensor:
#      x y z
#    x 2.085820 -0.059520 -0.024160 
#    y -0.059520 2.174310 -0.041430 
#    z -0.024160 -0.041430 2.235950 
# 
# From -- ./inp_files/142169.got.cif
#   From: 2010.05.17/outbox.cif.g08.bks.cpg/sg2_72_cif.got.tgz:142169.got - 2010.06.03 11:33:40.
