data_PCOD9093962
_publ_section_title
;
Structure prediction by ZEFSAII (Michael W. Deem and Ramdas Pophale) SiO2 
 PCOD9093962
Probable space group: P -1
;
_chemical_formula_sum "Si O2"
_cell_formula_units_Z 16
_cell_length_a 9.773237
_cell_length_b 20.792552
_cell_length_c 13.208581
_cell_angle_alpha 159.038293
_cell_angle_beta 118.790957
_cell_angle_gamma 64.849435
_cell_volume 838.902912
_symmetry_space_group_name_H-M "P -1"
_symmetry_group_IT_number 2
_symmetry_cell_setting 'triclinic'
loop_
_space_group_symop_operation_xyz
x,y,z
-x,-y,-z
loop_
_atom_site_type_symbol
_atom_site_label
_atom_site_fract_x
_atom_site_fract_y
_atom_site_fract_z
Si Si1 0.390412 0.340323 0.626594
Si Si2 0.064532 0.184194 0.237812
Si Si3 0.618190 0.819999 0.384849
Si Si4 0.715971 0.253462 0.834991
Si Si5 0.095086 0.905562 0.156323
Si Si6 0.274589 0.530583 0.143133
Si Si7 0.023244 0.544007 0.222721
Si Si8 0.048328 0.857531 0.388686
O O1 0.253408 0.208750 0.334767
O O2 0.390955 0.276516 0.649655
O O3 0.567527 0.355063 0.668576
O O4 0.329262 0.541108 0.888146
O O5 0.011088 0.342196 0.524219
O O6 0.992615 0.190617 0.110120
O O7 0.000000 0.000000 0.000000
O O8 0.442223 0.866069 0.370088
O O9 0.751989 0.979198 0.662840
O O10 0.663098 0.663681 0.094373
O O11 0.843137 0.222657 0.922155
O O12 0.780481 0.187305 0.653544
O O13 0.986532 0.050675 0.382494
O O14 0.176416 0.619229 0.326252
O O15 0.133456 0.473206 0.928564
O O16 0.047660 0.334583 0.942669
O O17 0.000000 0.000000 0.500000
#
# Coordination Sequence:
#
# PCOD9093962 Si02
#       8
#     2   2   2   2   2   2   2   2
#     4  11  21  38  61  89 122 155 200 255 296 357
#     4  12  24  40  58  88 128 162 198 243 308 368
#     4  11  18  37  61  91 119 147 204 256 295 346
#     4  10  21  37  63  92 115 155 203 253 296 346
#     4  11  23  38  60  90 125 159 196 244 305 361
#     4  10  20  33  64  89 109 153 207 251 296 338
#     4  11  20  38  62  88 119 155 198 252 297 355
#     4  10  20  38  59  90 115 153 206 244 286 352
#
# _framework density 19.072528999999999
#
# number of rings (size 3 to 8) (size 9 to 14) (size 15 to 20)
#    0.000    1.250    5.000    2.625    1.750    0.500 
#    0.000    1.875    0.000    3.000    0.000    0.000 
#    0.000    0.000    0.000    0.000    0.000    0.000 
#
# Total GULP energy -89170.732463 kJ/mol
# GULP energy per Si atom -5573.170779 kJ/mol
# Density = 1.902912 g / cm^3
# Si number density = 19.072529 Si / 1000 Ang^3
#
#
#
# Elastic Constant Matrix: (Units=GPa)
#
#
# Indices 1 2 3 4 5 6 
#
# 1 177.3266 34.0200 44.5239 -13.9007 -1.9426 -1.1904
# 2 34.0200 78.9417 35.6173 -8.7547 -7.5562 -8.2009
# 3 44.5239 35.6173 79.8491 -18.2355 -6.5634 1.0620
# 4 -13.9007 -8.7547 -18.2355 34.5783 1.1415 2.8665
# 5 -1.9426 -7.5562 -6.5634 1.1415 30.1144 -4.3752
# 6 -1.1904 -8.2009 1.0620 2.8665 -4.3752 23.8153
#
#
#
# Elastic Compliance Matrix: (Units=1/GPa)
#
#
# Indices 1 2 3 4 5 6 
#
# 1 0.006729 -0.001595 -0.002906 0.000817 -0.000675 -0.000305
# 2 -0.001595 0.017457 -0.006792 -0.000510 0.003833 0.007000
# 3 -0.002906 -0.006792 0.019040 0.007436 0.001399 -0.003971
# 4 0.000817 -0.000510 0.007436 0.033431 -0.000384 -0.004561
# 5 -0.000675 0.003833 0.001399 -0.000384 0.035579 0.007806
# 6 -0.000305 0.007000 -0.003971 -0.004561 0.007806 0.046545
#
#
# Mechanical properties :
#
#
# Convention : Reuss Voigt Hill
#
# Bulk Modulus (GPa) = 48.44813 62.71553 55.58183
# Shear Modulus (GPa) = 26.56087 32.49867 29.52977
#
# Velocity S-wave (km/s) = 3.73584 4.13237 3.93910
# Velocity P-wave (km/s) = 6.63821 7.46476 7.06359
#
# Compressibility (1/GPa) = 0.02064063
#
# Stress axis : x y z
#
# Youngs Moduli (GPa) = 148.60036 57.28416 52.52201
#
# Poissons Ratio (x) = 0.09135 0.15262
# Poissons Ratio (y) = 0.23697 0.35673
# Poissons Ratio (z) = 0.43182 0.38908
#
# Static dielectric constant tensor:
#      x y z
#    x 1.742690 0.017760 -0.007710 
#    y 0.017760 1.737060 0.030510 
#    z -0.007710 0.030510 1.665740 
# 
# From -- ./inp_files/405778.got.cif
#   From: 2010.05.17/outbox.cif.g08.bks.cpg/sg2_203_cif.got.tgz:405778.got - 2010.06.03 11:33:40.
