data_PCOD9093839
_publ_section_title
;
Structure prediction by ZEFSAII (Michael W. Deem and Ramdas Pophale) SiO2 
 PCOD9093839
Probable space group: P -1
;
_chemical_formula_sum "Si O2"
_cell_formula_units_Z 14
_cell_length_a 11.897286
_cell_length_b 8.715820
_cell_length_c 10.840116
_cell_angle_alpha 134.671482
_cell_angle_beta 67.444391
_cell_angle_gamma 79.749728
_cell_volume 540.203708
_symmetry_space_group_name_H-M "P -1"
_symmetry_group_IT_number 2
_symmetry_cell_setting 'triclinic'
loop_
_space_group_symop_operation_xyz
x,y,z
-x,-y,-z
loop_
_atom_site_type_symbol
_atom_site_label
_atom_site_fract_x
_atom_site_fract_y
_atom_site_fract_z
Si Si1 0.992647 0.747291 0.082124
Si Si2 0.588938 0.005284 0.828280
Si Si3 0.360896 0.899795 0.619946
Si Si4 0.068059 0.510846 0.645418
Si Si5 0.684598 0.005454 0.031348
Si Si6 0.571523 0.697980 0.179397
Si Si7 0.871328 0.072530 0.694290
O O1 0.091132 0.824575 0.144505
O O2 0.796623 0.036522 0.329445
O O3 0.000000 0.500000 0.000000
O O4 0.051260 0.642526 0.858848
O O5 0.574903 0.080971 0.732368
O O6 0.749011 0.651539 0.575448
O O7 0.618343 0.147910 0.003692
O O8 0.410797 0.109444 0.984638
O O9 0.506221 0.728137 0.361092
O O10 0.324177 0.203662 0.809935
O O11 0.372364 0.824361 0.717522
O O12 0.885261 0.764127 0.806575
O O13 0.093417 0.222251 0.478715
O O14 0.689643 0.367656 0.895429
O O15 0.000000 0.000000 0.500000
#
# Coordination Sequence:
#
# PCOD9093839 Si02
#       7
#     2   2   2   2   2   2   2
#     4  11  19  36  58  85 124 166 194 252 321 358
#     4  10  20  37  63  91 122 166 210 251 311 366
#     4   9  18  35  57  88 119 153 211 249 305 366
#     4  11  23  39  62  93 122 164 211 253 313 370
#     4   9  20  39  64  90 120 167 213 252 302 378
#     4  10  20  33  58  95 119 155 208 252 308 374
#     4  12  23  36  58  95 131 155 203 264 308 376
#
# _framework density 25.916149000000001
#
# number of rings (size 3 to 8) (size 9 to 14) (size 15 to 20)
#    0.000    1.714    2.857    3.000    4.000    0.571 
#    2.571    0.000    0.000    8.571    3.714    0.000 
#    0.000    0.000    0.000    0.000    0.000    0.000 
#
# Total GULP energy -78142.277824 kJ/mol
# GULP energy per Si atom -5581.591273 kJ/mol
# Density = 2.585716 g / cm^3
# Si number density = 25.916149 Si / 1000 Ang^3
#
#
#
# Elastic Constant Matrix: (Units=GPa)
#
#
# Indices 1 2 3 4 5 6 
#
# 1 104.9655 15.1364 23.3542 14.3784 -6.4351 -30.1826
# 2 15.1364 55.5859 46.8175 -6.3488 1.7235 -27.0059
# 3 23.3542 46.8175 107.3406 -13.2955 -21.6907 -6.4349
# 4 14.3784 -6.3488 -13.2955 42.5117 4.7009 8.2916
# 5 -6.4351 1.7235 -21.6907 4.7009 39.8640 2.2701
# 6 -30.1826 -27.0059 -6.4349 8.2916 2.2701 46.9108
#
#
#
# Elastic Compliance Matrix: (Units=1/GPa)
#
#
# Indices 1 2 3 4 5 6 
#
# 1 0.015845 0.009549 -0.008239 -0.009458 -0.002153 0.016337
# 2 0.009549 0.059700 -0.030770 -0.009431 -0.018884 0.038872
# 3 -0.008239 -0.030770 0.027430 0.009324 0.015058 -0.021629
# 4 -0.009458 -0.009431 0.009324 0.031182 0.001177 -0.015804
# 5 -0.002153 -0.018884 0.015058 0.001177 0.034295 -0.012059
# 6 0.016337 0.038872 -0.021629 -0.015804 -0.012059 0.054617
#
#
# Mechanical properties :
#
#
# Convention : Reuss Voigt Hill
#
# Bulk Modulus (GPa) = 22.69928 48.72313 35.71121
# Shear Modulus (GPa) = 16.85350 38.02956 27.44153
#
# Velocity S-wave (km/s) = 2.55288 3.83483 3.25754
# Velocity P-wave (km/s) = 4.17940 6.20073 5.28755
#
# Compressibility (1/GPa) = 0.04405425
#
# Stress axis : x y z
#
# Youngs Moduli (GPa) = 63.11337 16.75038 36.45596
#
# Poissons Ratio (x) = -0.15995 0.30037
# Poissons Ratio (y) = -0.60266 1.12175
# Poissons Ratio (z) = 0.52001 0.51541
#
# Static dielectric constant tensor:
#      x y z
#    x 2.106740 -0.018900 -0.035000 
#    y -0.018900 2.140860 -0.038460 
#    z -0.035000 -0.038460 2.063440 
# 
# From -- ./inp_files/428177.got.cif
#   From: 2010.05.17/outbox.cif.g08.bks.cpg/sg2_215_cif.got.tgz:428177.got - 2010.06.03 11:33:40.
