data_PCOD9093699
_publ_section_title
;
Structure prediction by ZEFSAII (Michael W. Deem and Ramdas Pophale) SiO2 
 PCOD9093699
Probable space group: P -1
;
_chemical_formula_sum "Si O2"
_cell_formula_units_Z 16
_cell_length_a 8.116035
_cell_length_b 8.652154
_cell_length_c 14.746524
_cell_angle_alpha 126.582576
_cell_angle_beta 80.347286
_cell_angle_gamma 122.658387
_cell_volume 681.670269
_symmetry_space_group_name_H-M "P -1"
_symmetry_group_IT_number 2
_symmetry_cell_setting 'triclinic'
loop_
_space_group_symop_operation_xyz
x,y,z
-x,-y,-z
loop_
_atom_site_type_symbol
_atom_site_label
_atom_site_fract_x
_atom_site_fract_y
_atom_site_fract_z
Si Si1 0.503781 0.615294 0.720005
Si Si2 0.881962 0.150558 0.154864
Si Si3 0.298958 0.751339 0.640791
Si Si4 0.672079 0.271269 0.076374
Si Si5 0.712615 0.255937 0.759972
Si Si6 0.139673 0.840669 0.127164
Si Si7 0.203305 0.289234 0.030779
Si Si8 0.344941 0.722132 0.425630
O O1 0.359741 0.610373 0.651611
O O2 0.411118 0.590886 0.820843
O O3 0.552159 0.422642 0.635846
O O4 0.700306 0.880945 0.791143
O O5 0.858030 0.212539 0.279341
O O6 0.827054 0.288219 0.141818
O O7 0.084692 0.202488 0.108239
O O8 0.720437 0.875155 0.054919
O O9 0.239910 0.667270 0.513910
O O10 0.507712 0.004138 0.700472
O O11 0.770544 0.290523 0.977996
O O12 0.500000 0.000000 0.000000
O O13 0.876900 0.241350 0.797134
O O14 0.671561 0.439536 0.871052
O O15 0.773759 0.327405 0.674891
O O16 0.948036 0.775823 0.063146
O O17 0.500000 0.000000 0.500000
#
# Coordination Sequence:
#
# PCOD9093699 Si02
#       8
#     2   2   2   2   2   2   2   2
#     4   9  17  32  59  79 105 146 180 223 278 321
#     4   9  19  33  54  82 110 138 186 221 268 326
#     4   9  19  39  55  81 106 143 189 228 261 324
#     4   8  15  28  50  79 111 131 173 219 265 325
#     4  10  21  34  54  80 114 143 177 228 275 315
#     4   9  18  34  52  81 111 146 180 210 274 344
#     4  10  20  33  56  81 117 144 174 222 278 331
#     4  10  21  35  53  82 111 140 185 236 270 307
#
# _framework density 23.471758999999999
#
# number of rings (size 3 to 8) (size 9 to 14) (size 15 to 20)
#    0.000    2.750    0.000    1.500    7.000    0.500 
#    4.500    0.625    0.000    0.750    0.000    0.000 
#    0.000    0.000    0.000    0.000    0.000    0.000 
#
# Total GULP energy -89212.953925 kJ/mol
# GULP energy per Si atom -5575.809620 kJ/mol
# Density = 2.341834 g / cm^3
# Si number density = 23.471759 Si / 1000 Ang^3
#
#
#
# Elastic Constant Matrix: (Units=GPa)
#
#
# Indices 1 2 3 4 5 6 
#
# 1 49.4255 40.1445 40.1174 -11.5609 -0.4610 -18.8756
# 2 40.1445 100.4565 59.7384 -7.0675 -0.8817 -29.4099
# 3 40.1174 59.7384 159.5067 -16.6450 -16.0144 -21.9199
# 4 -11.5609 -7.0675 -16.6450 49.6184 -6.1623 5.9142
# 5 -0.4610 -0.8817 -16.0144 -6.1623 42.8224 -0.4044
# 6 -18.8756 -29.4099 -21.9199 5.9142 -0.4044 30.6721
#
#
#
# Elastic Compliance Matrix: (Units=1/GPa)
#
#
# Indices 1 2 3 4 5 6 
#
# 1 0.035078 -0.008553 -0.003867 0.004430 -0.000515 0.009761
# 2 -0.008553 0.018357 -0.003673 -0.001970 -0.001276 0.010076
# 3 -0.003867 -0.003673 0.009250 0.002090 0.003646 0.000355
# 4 0.004430 -0.001970 0.002090 0.022330 0.003984 -0.001922
# 5 -0.000515 -0.001276 0.003646 0.003984 0.025263 0.000630
# 6 0.009761 0.010076 0.000355 -0.001922 0.000630 0.048903
#
#
# Mechanical properties :
#
#
# Convention : Reuss Voigt Hill
#
# Bulk Modulus (GPa) = 32.78863 65.48770 49.13816
# Shear Modulus (GPa) = 24.80974 35.91513 30.36244
#
# Velocity S-wave (km/s) = 3.25469 3.91595 3.60053
# Velocity P-wave (km/s) = 5.30318 6.95754 6.18592
#
# Compressibility (1/GPa) = 0.03049838
#
# Stress axis : x y z
#
# Youngs Moduli (GPa) = 28.50827 54.47576 108.10513
#
# Poissons Ratio (x) = 0.46596 0.41804
# Poissons Ratio (y) = 0.24384 0.39704
# Poissons Ratio (z) = 0.11024 0.20007
#
# Static dielectric constant tensor:
#      x y z
#    x 2.001880 0.046810 0.040200 
#    y 0.046810 1.944000 0.007580 
#    z 0.040200 0.007580 1.919670 
# 
# From -- ./inp_files/469414.got.cif
#   From: 2010.05.17/outbox.cif.g08.bks.cpg/sg2_235_cif.got.tgz:469414.got - 2010.06.03 11:33:40.
