data_PCOD9093519
_publ_section_title
;
Structure prediction by ZEFSAII (Michael W. Deem and Ramdas Pophale) SiO2 
 PCOD9093519
Probable space group: P -1
;
_chemical_formula_sum "Si O2"
_cell_formula_units_Z 14
_cell_length_a 10.124780
_cell_length_b 10.854038
_cell_length_c 8.920991
_cell_angle_alpha 86.208379
_cell_angle_beta 120.447902
_cell_angle_gamma 53.604074
_cell_volume 577.487754
_symmetry_space_group_name_H-M "P -1"
_symmetry_group_IT_number 2
_symmetry_cell_setting 'triclinic'
loop_
_space_group_symop_operation_xyz
x,y,z
-x,-y,-z
loop_
_atom_site_type_symbol
_atom_site_label
_atom_site_fract_x
_atom_site_fract_y
_atom_site_fract_z
Si Si1 0.666475 0.728402 0.568172
Si Si2 0.450566 0.673315 0.919466
Si Si3 0.888692 0.145901 0.049441
Si Si4 0.236406 0.060297 0.471112
Si Si5 0.249071 0.407684 0.683144
Si Si6 0.745044 0.402271 0.700872
Si Si7 0.889613 0.236531 0.502505
O O1 0.799652 0.777115 0.616051
O O2 0.600133 0.740105 0.353309
O O3 0.765896 0.537970 0.691001
O O4 0.482331 0.874095 0.575575
O O5 0.288376 0.757145 0.672402
O O6 0.500000 0.500000 0.000000
O O7 0.294647 0.807339 0.955975
O O8 0.663033 0.636051 0.089178
O O9 0.787851 0.326314 0.896343
O O10 0.077448 0.073242 0.277484
O O11 0.000000 0.000000 0.000000
O O12 0.130817 0.102892 0.571385
O O13 0.224416 0.565236 0.614901
O O14 0.000000 0.500000 0.500000
O O15 0.500000 0.500000 0.500000
O O16 0.903804 0.236436 0.688825
#
# Coordination Sequence:
#
# PCOD9093519 Si02
#       7
#     2   2   2   2   2   2   2
#     4  10  21  36  60  88 123 156 197 242 302 352
#     4   9  18  33  55  83 114 147 199 242 283 352
#     4  11  22  39  61  85 117 157 203 241 302 355
#     4  10  20  38  62  89 118 158 198 243 295 363
#     4  10  16  29  53  86 114 153 195 231 290 353
#     4  11  22  38  59  87 123 157 196 248 297 354
#     4   9  19  35  57  86 115 154 198 243 294 346
#
# _framework density 24.242940999999998
#
# number of rings (size 3 to 8) (size 9 to 14) (size 15 to 20)
#    0.000    2.000    1.429    4.286    0.000    0.571 
#    0.000    7.857    0.000    3.429    0.000    0.000 
#    0.000    0.000    0.000    0.000    0.000    0.000 
#
# Total GULP energy -78003.830991 kJ/mol
# GULP energy per Si atom -5571.702214 kJ/mol
# Density = 2.418776 g / cm^3
# Si number density = 24.242941 Si / 1000 Ang^3
#
#
#
# Elastic Constant Matrix: (Units=GPa)
#
#
# Indices 1 2 3 4 5 6 
#
# 1 83.0668 39.2857 23.2678 6.1715 -0.8041 -10.2313
# 2 39.2857 121.4274 -0.8513 13.2462 -1.8529 -17.6506
# 3 23.2678 -0.8513 41.5552 15.1662 -0.6068 -4.1248
# 4 6.1715 13.2462 15.1662 31.8199 6.1127 -8.5928
# 5 -0.8041 -1.8529 -0.6068 6.1127 36.8279 5.8184
# 6 -10.2313 -17.6506 -4.1248 -8.5928 5.8184 47.3982
#
#
#
# Elastic Compliance Matrix: (Units=1/GPa)
#
#
# Indices 1 2 3 4 5 6 
#
# 1 0.018280 -0.006396 -0.012295 0.005690 -0.001337 0.001690
# 2 -0.006396 0.011346 0.006282 -0.006136 0.001217 0.002130
# 3 -0.012295 0.006282 0.038140 -0.019467 0.004069 -0.001024
# 4 0.005690 -0.006136 -0.019467 0.045711 -0.009144 0.006659
# 5 -0.001337 0.001217 0.004069 -0.009144 0.029523 -0.004763
# 6 0.001690 0.002130 -0.001024 0.006659 -0.004763 0.023958
#
#
# Mechanical properties :
#
#
# Convention : Reuss Voigt Hill
#
# Bulk Modulus (GPa) = 23.28373 41.05041 32.16707
# Shear Modulus (GPa) = 24.26119 35.49903 29.88011
#
# Velocity S-wave (km/s) = 3.16690 3.83077 3.51455
# Velocity P-wave (km/s) = 4.79557 6.04451 5.45590
#
# Compressibility (1/GPa) = 0.04294844
#
# Stress axis : x y z
#
# Youngs Moduli (GPa) = 54.70574 88.13616 26.21935
#
# Poissons Ratio (x) = 0.56370 0.32236
# Poissons Ratio (y) = 0.34988 -0.16471
# Poissons Ratio (z) = 0.67259 -0.55367
#
# Static dielectric constant tensor:
#      x y z
#    x 1.664550 0.181520 -0.124050 
#    y 0.181520 1.834500 0.019930 
#    z -0.124050 0.019930 2.027460 
# 
# From -- ./inp_files/259174.got.cif
#   From: 2010.05.17/outbox.cif.g08.bks.cpg/sg2_130_cif.got.tgz:259174.got - 2010.06.03 11:33:40.
