data_PCOD9093707
_publ_section_title
;
Structure prediction by ZEFSAII (Michael W. Deem and Ramdas Pophale) SiO2 
 PCOD9093707
Probable space group: P -1
;
_chemical_formula_sum "Si O2"
_cell_formula_units_Z 16
_cell_length_a 17.955594
_cell_length_b 13.888320
_cell_length_c 9.796862
_cell_angle_alpha 136.764536
_cell_angle_beta 35.494437
_cell_angle_gamma 153.339378
_cell_volume 636.486810
_symmetry_space_group_name_H-M "P -1"
_symmetry_group_IT_number 2
_symmetry_cell_setting 'triclinic'
loop_
_space_group_symop_operation_xyz
x,y,z
-x,-y,-z
loop_
_atom_site_type_symbol
_atom_site_label
_atom_site_fract_x
_atom_site_fract_y
_atom_site_fract_z
Si Si1 0.810530 0.809573 0.276205
Si Si2 0.559402 0.348253 0.275786
Si Si3 0.238580 0.833171 0.586366
Si Si4 0.444414 0.691639 0.451629
Si Si5 0.206764 0.717385 0.102774
Si Si6 0.774786 0.786304 0.985174
Si Si7 0.085871 0.400874 0.366192
Si Si8 0.189901 0.732592 0.844454
O O1 0.696907 0.568612 0.215980
O O2 0.668112 0.800145 0.558829
O O3 0.803388 0.848066 0.167278
O O4 0.042109 0.007295 0.164930
O O5 0.596482 0.410036 0.445840
O O6 0.617606 0.233883 0.053966
O O7 0.031598 0.720206 0.725063
O O8 0.277460 0.886828 0.744816
O O9 0.216420 0.648023 0.407456
O O10 0.407518 0.053948 0.485101
O O11 0.256627 0.623706 0.614413
O O12 0.565978 0.686719 0.169769
O O13 0.095018 0.712876 0.379307
O O14 0.041132 0.464385 0.042874
O O15 0.240844 0.819147 0.010879
O O16 0.797820 0.638096 0.799562
#
# Coordination Sequence:
#
# PCOD9093707 Si02
#       8
#     2   2   2   2   2   2   2   2
#     4   9  18  32  54  81 115 148 195 229 284 338
#     4   9  18  32  54  80 112 145 191 237 276 329
#     4  10  20  34  57  86 113 146 192 239 280 336
#     4  10  20  37  58  85 110 153 204 232 266 344
#     4   9  19  35  57  83 115 153 186 235 290 338
#     4  10  20  33  56  84 115 150 189 240 283 338
#     4  10  21  34  56  91 121 143 180 244 308 332
#     4   9  19  36  58  84 110 154 202 230 267 343
#
# _framework density 25.137991
#
# number of rings (size 3 to 8) (size 9 to 14) (size 15 to 20)
#    0.000    2.500    0.000    2.625    8.750    0.000 
#    0.000    8.125    0.000    0.750    0.000    0.000 
#    0.000    0.000    0.000    0.000    0.000    0.000 
#
# Total GULP energy -89334.222314 kJ/mol
# GULP energy per Si atom -5583.388895 kJ/mol
# Density = 2.508078 g / cm^3
# Si number density = 25.137991 Si / 1000 Ang^3
#
#
#
# Elastic Constant Matrix: (Units=GPa)
#
#
# Indices 1 2 3 4 5 6 
#
# 1 79.0669 17.9936 31.9838 -10.5433 -0.5314 -10.7088
# 2 17.9936 93.6175 31.5237 -2.0510 -1.8828 -23.1372
# 3 31.9838 31.5237 178.5912 -14.8492 -31.4129 -0.9240
# 4 -10.5433 -2.0510 -14.8492 42.3206 -5.0739 -2.0332
# 5 -0.5314 -1.8828 -31.4129 -5.0739 33.5275 -2.7606
# 6 -10.7088 -23.1372 -0.9240 -2.0332 -2.7606 29.6328
#
#
#
# Elastic Compliance Matrix: (Units=1/GPa)
#
#
# Indices 1 2 3 4 5 6 
#
# 1 0.014851 -0.000813 -0.002486 0.002857 -0.001318 0.004728
# 2 -0.000813 0.014298 -0.002416 0.000090 -0.000575 0.010748
# 3 -0.002486 -0.002416 0.008059 0.002935 0.007686 -0.001616
# 4 0.002857 0.000090 0.002935 0.026402 0.007098 0.003667
# 5 -0.001318 -0.000575 0.007686 0.007098 0.038327 0.003372
# 6 0.004728 0.010748 -0.001616 0.003667 0.003372 0.044362
#
#
# Mechanical properties :
#
#
# Convention : Reuss Voigt Hill
#
# Bulk Modulus (GPa) = 38.79313 57.14195 47.96754
# Shear Modulus (GPa) = 30.06235 39.08115 34.57175
#
# Velocity S-wave (km/s) = 3.46192 3.94720 3.71250
# Velocity P-wave (km/s) = 5.60762 6.59959 6.12372
#
# Compressibility (1/GPa) = 0.02577776
#
# Stress axis : x y z
#
# Youngs Moduli (GPa) = 67.33761 69.93851 124.08824
#
# Poissons Ratio (x) = 0.05683 0.30847
# Poissons Ratio (y) = 0.05472 0.29985
# Poissons Ratio (z) = 0.16739 0.16900
#
# Static dielectric constant tensor:
#      x y z
#    x 2.032940 0.041850 -0.000530 
#    y 0.041850 1.978580 -0.017870 
#    z -0.000530 -0.017870 2.084580 
# 
# From -- ./inp_files/471761.got.cif
#   From: 2010.05.17/outbox.cif.g08.bks.cpg/sg2_236_cif.got.tgz:471761.got - 2010.06.03 11:33:40.
