data_PCOD9093640
_publ_section_title
;
Structure prediction by ZEFSAII (Michael W. Deem and Ramdas Pophale) SiO2 
 PCOD9093640
Probable space group: P -1
;
_chemical_formula_sum "Si O2"
_cell_formula_units_Z 16
_cell_length_a 10.762633
_cell_length_b 19.029693
_cell_length_c 7.627578
_cell_angle_alpha 132.001377
_cell_angle_beta 96.470164
_cell_angle_gamma 47.613559
_cell_volume 675.112102
_symmetry_space_group_name_H-M "P -1"
_symmetry_group_IT_number 2
_symmetry_cell_setting 'triclinic'
loop_
_space_group_symop_operation_xyz
x,y,z
-x,-y,-z
loop_
_atom_site_type_symbol
_atom_site_label
_atom_site_fract_x
_atom_site_fract_y
_atom_site_fract_z
Si Si1 0.613785 0.582126 0.304352
Si Si2 0.114035 0.703600 0.923989
Si Si3 0.804604 0.997010 0.579931
Si Si4 0.335156 0.730556 0.839771
Si Si5 0.012253 0.686271 0.518266
Si Si6 0.810602 0.252471 0.503141
Si Si7 0.308733 0.253388 0.480093
Si Si8 0.582543 0.999767 0.799307
O O1 0.414941 0.648716 0.301128
O O2 0.648548 0.662845 0.362521
O O3 0.531435 0.639609 0.592871
O O4 0.827054 0.391071 0.051261
O O5 0.313273 0.648049 0.809667
O O6 0.916337 0.893834 0.249765
O O7 0.055726 0.670631 0.702279
O O8 0.642465 0.018035 0.664826
O O9 0.002432 0.883335 0.559518
O O10 0.701912 0.162299 0.852737
O O11 0.162660 0.815358 0.796677
O O12 0.939849 0.626191 0.351628
O O13 0.796981 0.876467 0.748966
O O14 0.193712 0.633668 0.359787
O O15 0.429694 0.106976 0.387816
O O16 0.396559 0.162965 0.152943
#
# Coordination Sequence:
#
# PCOD9093640 Si02
#       8
#     2   2   2   2   2   2   2   2
#     4  10  20  33  55  78 104 140 176 209 252 310
#     4  11  22  32  49  80 116 136 161 213 271 308
#     4  11  18  34  55  80 105 133 169 224 265 294
#     4   9  19  34  53  74  99 139 177 208 246 308
#     4   8  17  32  53  80  99 138 174 213 245 311
#     4   8  18  32  57  77  98 131 186 212 246 300
#     4   9  16  33  60  77  97 133 187 214 243 298
#     4   8  16  33  57  77  94 133 180 221 241 295
#
# _framework density 23.699766
#
# number of rings (size 3 to 8) (size 9 to 14) (size 15 to 20)
#    1.500    1.250    1.250    1.125    0.000    2.000 
#    0.000    1.250    0.000    0.000    0.000    0.000 
#    0.000    0.000    0.000    0.000    0.000    0.000 
#
# Total GULP energy -89095.961840 kJ/mol
# GULP energy per Si atom -5568.497615 kJ/mol
# Density = 2.364582 g / cm^3
# Si number density = 23.699766 Si / 1000 Ang^3
#
#
#
# Elastic Constant Matrix: (Units=GPa)
#
#
# Indices 1 2 3 4 5 6 
#
# 1 168.5203 13.1205 29.7605 6.5052 20.3157 20.6279
# 2 13.1205 45.7441 -2.8644 -9.0031 8.1758 -2.4890
# 3 29.7605 -2.8644 49.5902 -3.9531 2.9270 7.0208
# 4 6.5052 -9.0031 -3.9531 21.9203 8.7284 1.0059
# 5 20.3157 8.1758 2.9270 8.7284 26.6458 9.0995
# 6 20.6279 -2.4890 7.0208 1.0059 9.0995 20.5277
#
#
#
# Elastic Compliance Matrix: (Units=1/GPa)
#
#
# Indices 1 2 3 4 5 6 
#
# 1 0.008035 -0.003465 -0.004368 -0.003838 -0.001178 -0.006291
# 2 -0.003465 0.031658 0.004946 0.022006 -0.019299 0.013106
# 3 -0.004368 0.004946 0.024313 0.009008 -0.002972 -0.002450
# 4 -0.003838 0.022006 0.009008 0.069740 -0.032605 0.014480
# 5 -0.001178 -0.019299 -0.002972 -0.032605 0.064644 -0.027197
# 6 -0.006291 0.013106 -0.002450 0.014480 -0.027197 0.068810
#
#
# Mechanical properties :
#
#
# Convention : Reuss Voigt Hill
#
# Bulk Modulus (GPa) = 17.17292 38.20976 27.69134
# Shear Modulus (GPa) = 17.10072 28.74129 22.92100
#
# Velocity S-wave (km/s) = 2.68909 3.48620 3.11326
# Velocity P-wave (km/s) = 4.11137 5.68878 4.96314
#
# Compressibility (1/GPa) = 0.05823123
#
# Stress axis : x y z
#
# Youngs Moduli (GPa) = 124.44921 31.58757 41.13044
#
# Poissons Ratio (x) = 0.10946 0.17967
# Poissons Ratio (y) = 0.43127 -0.20344
# Poissons Ratio (z) = 0.54363 -0.15624
#
# Static dielectric constant tensor:
#      x y z
#    x 1.961780 0.000280 -0.034730 
#    y 0.000280 1.869940 0.019660 
#    z -0.034730 0.019660 1.970860 
# 
# From -- ./inp_files/283377.got.cif
#   From: 2010.05.17/outbox.cif.g08.bks.cpg/sg2_142_cif.got.tgz:283377.got - 2010.06.03 11:33:40.
