data_PCOD9093144
_publ_section_title
;
Structure prediction by ZEFSAII (Michael W. Deem and Ramdas Pophale) SiO2 
 PCOD9093144
Probable space group: P -1
;
_chemical_formula_sum "Si O2"
_cell_formula_units_Z 10
_cell_length_a 14.874730
_cell_length_b 17.680131
_cell_length_c 5.721405
_cell_angle_alpha 69.582019
_cell_angle_beta 111.436885
_cell_angle_gamma 166.010872
_cell_volume 338.458146
_symmetry_space_group_name_H-M "P -1"
_symmetry_group_IT_number 2
_symmetry_cell_setting 'triclinic'
loop_
_space_group_symop_operation_xyz
x,y,z
-x,-y,-z
loop_
_atom_site_type_symbol
_atom_site_label
_atom_site_fract_x
_atom_site_fract_y
_atom_site_fract_z
Si Si1 0.835214 0.804460 0.742154
Si Si2 0.832177 0.063111 0.319983
Si Si3 0.483898 0.318325 0.190856
Si Si4 0.184830 0.547955 0.875935
Si Si5 0.495848 0.923968 0.392709
O O1 0.486143 0.569405 0.782671
O O2 0.000000 0.000000 0.500000
O O3 0.817383 0.701664 0.717273
O O4 0.157159 0.058338 0.968851
O O5 0.673771 0.869874 0.561283
O O6 0.852833 0.168018 0.349707
O O7 0.499010 0.803782 0.094991
O O8 0.830813 0.555371 0.135093
O O9 0.323603 0.712998 0.610115
O O10 0.797153 0.278291 0.858507
O O11 0.500000 0.000000 0.500000
#
# Coordination Sequence:
#
# PCOD9093144 Si02
#       5
#     2   2   2   2   2
#     4   8  13  23  43  71  95 118 151 188 229 275
#     4   9  16  28  46  68  94 123 155 190 229 275
#     4   8  14  25  44  70  94 118 152 190 228 274
#     4   9  18  32  48  68  94 123 156 192 230 274
#     4  10  20  32  47  68  94 124 158 194 230 271
#
# _framework density 29.545753000000001
#
# number of rings (size 3 to 8) (size 9 to 14) (size 15 to 20)
#    0.000    3.200    0.000    0.600    0.000    0.800 
#    0.000    0.000    0.000    1.200    0.000  126.000 
#    0.000    0.000    0.000    0.000    0.000    0.000 
#
# Total GULP energy -56028.853948 kJ/mol
# GULP energy per Si atom -5602.885395 kJ/mol
# Density = 2.947851 g / cm^3
# Si number density = 29.545753 Si / 1000 Ang^3
#
#
#
# Elastic Constant Matrix: (Units=GPa)
#
#
# Indices 1 2 3 4 5 6 
#
# 1 370.9309 45.3651 28.5859 3.3948 -9.0081 26.0112
# 2 45.3651 106.3087 33.1466 -6.1439 1.5077 7.4639
# 3 28.5859 33.1466 170.7077 9.5054 22.7786 0.6024
# 4 3.3948 -6.1439 9.5054 30.6361 -3.8347 -8.3726
# 5 -9.0081 1.5077 22.7786 -3.8347 57.0021 -3.6777
# 6 26.0112 7.4639 0.6024 -8.3726 -3.6777 43.1993
#
#
#
# Elastic Compliance Matrix: (Units=1/GPa)
#
#
# Indices 1 2 3 4 5 6 
#
# 1 0.002997 -0.001125 -0.000287 -0.000888 0.000446 -0.001740
# 2 -0.001125 0.010746 -0.002128 0.002858 0.000545 -0.000550
# 3 -0.000287 -0.002128 0.006884 -0.003009 -0.002968 -0.000391
# 4 -0.000888 0.002858 -0.003009 0.036805 0.003950 0.007552
# 5 0.000446 0.000545 -0.002968 0.003950 0.019185 0.002077
# 6 -0.001740 -0.000550 -0.000391 0.007552 0.002077 0.025937
#
#
# Mechanical properties :
#
#
# Convention : Reuss Voigt Hill
#
# Bulk Modulus (GPa) = 73.81959 95.79362 84.80661
# Shear Modulus (GPa) = 43.80198 62.22416 53.01307
#
# Velocity S-wave (km/s) = 3.85452 4.59413 4.24048
# Velocity P-wave (km/s) = 6.69693 7.78677 7.26232
#
# Compressibility (1/GPa) = 0.01354654
#
# Stress axis : x y z
#
# Youngs Moduli (GPa) = 333.71210 93.05728 145.25831
#
# Poissons Ratio (x) = 0.10465 0.04174
# Poissons Ratio (y) = 0.37530 0.30914
# Poissons Ratio (z) = 0.09590 0.19805
#
# Static dielectric constant tensor:
#      x y z
#    x 2.427540 0.043140 -0.053270 
#    y 0.043140 2.185120 -0.016560 
#    z -0.053270 -0.016560 2.312770 
# 
# From -- ./inp_files/1551.got.cif
#   From: 2010.05.17/outbox.cif.g08.bks.cpg/sg2_1_cif.got.tgz:1551.got - 2010.06.03 11:33:40.
