data_PCOD9093596
_publ_section_title
;
Structure prediction by ZEFSAII (Michael W. Deem and Ramdas Pophale) SiO2 
 PCOD9093596
Probable space group: P -1
;
_chemical_formula_sum "Si O2"
_cell_formula_units_Z 16
_cell_length_a 7.896298
_cell_length_b 10.589855
_cell_length_c 10.888104
_cell_angle_alpha 70.296643
_cell_angle_beta 56.793450
_cell_angle_gamma 61.485863
_cell_volume 665.827418
_symmetry_space_group_name_H-M "P -1"
_symmetry_group_IT_number 2
_symmetry_cell_setting 'triclinic'
loop_
_space_group_symop_operation_xyz
x,y,z
-x,-y,-z
loop_
_atom_site_type_symbol
_atom_site_label
_atom_site_fract_x
_atom_site_fract_y
_atom_site_fract_z
Si Si1 0.625147 0.468779 0.245060
Si Si2 0.426961 0.227762 0.442381
Si Si3 0.152630 0.802277 0.464675
Si Si4 0.348763 0.265195 0.728159
Si Si5 0.967309 0.223669 0.025605
Si Si6 0.944752 0.586868 0.620097
Si Si7 0.101211 0.969325 0.679802
Si Si8 0.704232 0.401459 0.872242
O O1 0.530443 0.352957 0.373053
O O2 0.693800 0.569862 0.274366
O O3 0.829745 0.367359 0.114071
O O4 0.420419 0.583235 0.212382
O O5 0.298312 0.239204 0.616043
O O6 0.275468 0.273458 0.368426
O O7 0.638323 0.083039 0.392903
O O8 0.389185 0.808763 0.348955
O O9 0.062472 0.886480 0.600631
O O10 0.130717 0.649807 0.547132
O O11 0.017048 0.869185 0.373413
O O12 0.205876 0.213493 0.894830
O O13 0.974837 0.089233 0.149550
O O14 0.825082 0.253950 0.946201
O O15 0.871014 0.485783 0.771412
O O16 0.000000 0.500000 0.500000
O O17 0.500000 0.500000 0.000000
#
# Coordination Sequence:
#
# PCOD9093596 Si02
#       8
#     2   2   2   2   2   2   2   2
#     4   9  18  33  52  79 112 144 178 221 277 329
#     4   9  19  34  54  78 107 142 183 226 267 324
#     4  10  22  39  58  78 109 148 187 228 267 319
#     4  11  20  31  53  81 110 143 182 229 273 320
#     4  10  20  33  54  80 111 143 178 226 275 329
#     4  11  21  35  58  85 112 142 178 225 279 326
#     4   9  21  41  57  77 107 147 192 226 265 319
#     4   9  19  34  52  78 113 142 172 219 274 327
#
# _framework density 24.030249999999999
#
# number of rings (size 3 to 8) (size 9 to 14) (size 15 to 20)
#    0.000    2.250    0.000    3.750    0.000    8.000 
#    0.000    0.000    0.000    6.750    0.000    0.000 
#    0.000    0.000    0.000    0.000    0.000    0.000 
#
# Total GULP energy -89367.925100 kJ/mol
# GULP energy per Si atom -5585.495319 kJ/mol
# Density = 2.397556 g / cm^3
# Si number density = 24.030250 Si / 1000 Ang^3
#
#
#
# Elastic Constant Matrix: (Units=GPa)
#
#
# Indices 1 2 3 4 5 6 
#
# 1 87.8861 22.8018 36.5001 -19.7140 -5.5903 -18.0000
# 2 22.8018 49.5856 38.6052 -12.7889 5.3740 -15.0864
# 3 36.5001 38.6052 184.5501 -22.4315 -20.2617 -9.8207
# 4 -19.7140 -12.7889 -22.4315 39.1634 -12.2299 9.2360
# 5 -5.5903 5.3740 -20.2617 -12.2299 38.4957 -9.4613
# 6 -18.0000 -15.0864 -9.8207 9.2360 -9.4613 45.1910
#
#
#
# Elastic Compliance Matrix: (Units=1/GPa)
#
#
# Indices 1 2 3 4 5 6 
#
# 1 0.015529 -0.004284 -0.000439 0.006964 0.005936 0.004479
# 2 -0.004284 0.028892 -0.005425 0.001089 -0.005860 0.005311
# 3 -0.000439 -0.005425 0.007879 0.004452 0.006288 0.000133
# 4 0.006964 0.001089 0.004452 0.036625 0.014767 -0.000289
# 5 0.005936 -0.005860 0.006288 0.014767 0.037270 0.006559
# 6 0.004479 0.005311 0.000133 -0.000289 0.006559 0.027147
#
#
# Mechanical properties :
#
#
# Convention : Reuss Voigt Hill
#
# Bulk Modulus (GPa) = 31.24480 57.53731 44.39105
# Shear Modulus (GPa) = 27.12893 39.51100 33.31997
#
# Velocity S-wave (km/s) = 3.36363 4.05930 3.72773
# Velocity P-wave (km/s) = 5.30244 6.77984 6.08613
#
# Compressibility (1/GPa) = 0.03200533
#
# Stress axis : x y z
#
# Youngs Moduli (GPa) = 64.39534 34.61120 126.92356
#
# Poissons Ratio (x) = 0.14826 0.05569
# Poissons Ratio (y) = 0.27585 0.68856
# Poissons Ratio (z) = 0.02825 0.18777
#
# Static dielectric constant tensor:
#      x y z
#    x 2.016530 -0.078520 0.031750 
#    y -0.078520 1.987760 0.021060 
#    z 0.031750 0.021060 1.897120 
# 
# From -- ./inp_files/269704.got.cif
#   From: 2010.05.17/outbox.cif.g08.bks.cpg/sg2_135_cif.got.tgz:269704.got - 2010.06.03 11:33:40.
