data_PCOD9093871
_publ_section_title
;
Structure prediction by ZEFSAII (Michael W. Deem and Ramdas Pophale) SiO2 
 PCOD9093871
Probable space group: P -1
;
_chemical_formula_sum "Si O2"
_cell_formula_units_Z 16
_cell_length_a 8.859125
_cell_length_b 9.111197
_cell_length_c 11.893723
_cell_angle_alpha 75.137996
_cell_angle_beta 73.594134
_cell_angle_gamma 49.211558
_cell_volume 693.836131
_symmetry_space_group_name_H-M "P -1"
_symmetry_group_IT_number 2
_symmetry_cell_setting 'triclinic'
loop_
_space_group_symop_operation_xyz
x,y,z
-x,-y,-z
loop_
_atom_site_type_symbol
_atom_site_label
_atom_site_fract_x
_atom_site_fract_y
_atom_site_fract_z
Si Si1 0.175946 0.093108 0.151119
Si Si2 0.332292 0.204352 0.434518
Si Si3 0.795096 0.627755 0.183924
Si Si4 0.571708 0.626938 0.432929
Si Si5 0.229974 0.822810 0.024559
Si Si6 0.137476 0.050418 0.415237
Si Si7 0.475046 0.920422 0.822606
Si Si8 0.848236 0.444498 0.985919
O O1 0.078202 0.126751 0.285986
O O2 0.363619 0.090319 0.131778
O O3 0.024871 0.256242 0.060276
O O4 0.244911 0.887570 0.131351
O O5 0.320653 0.358360 0.485356
O O6 0.500000 0.000000 0.500000
O O7 0.146144 0.200837 0.455866
O O8 0.419866 0.183337 0.296461
O O9 0.718633 0.559218 0.308555
O O10 0.698483 0.846958 0.197276
O O11 0.732323 0.603207 0.078171
O O12 0.032153 0.522372 0.134493
O O13 0.500000 0.500000 0.500000
O O14 0.367185 0.846146 0.404826
O O15 0.260600 0.625962 0.040744
O O16 0.378442 0.831408 0.914850
O O17 0.000000 0.000000 0.000000
O O18 0.000000 0.000000 0.500000
#
# Coordination Sequence:
#
# PCOD9093871 Si02
#       8
#     2   2   2   2   2   2   2   2
#     4  10  20  37  61  85 116 156 193 242 303 340
#     4   9  19  37  59  86 109 157 201 237 292 356
#     4  11  21  40  59  86 123 153 199 238 305 351
#     4  11  24  40  64  86 119 165 200 243 300 355
#     4  10  20  33  59  90 109 154 205 237 284 360
#     4  10  22  38  62  92 116 152 204 252 296 350
#     4  11  19  36  63  82 119 148 198 243 296 354
#     4  10  24  37  61  89 121 156 197 246 296 348
#
# _framework density 23.060200999999999
#
# number of rings (size 3 to 8) (size 9 to 14) (size 15 to 20)
#    0.000    1.750    6.250    0.375    3.500    4.000 
#    0.000    1.250   11.000    0.000    0.000    0.000 
#    0.000    0.000    0.000    0.000    0.000    0.000 
#
# Total GULP energy -89399.794591 kJ/mol
# GULP energy per Si atom -5587.487162 kJ/mol
# Density = 2.300771 g / cm^3
# Si number density = 23.060201 Si / 1000 Ang^3
#
#
#
# Elastic Constant Matrix: (Units=GPa)
#
#
# Indices 1 2 3 4 5 6 
#
# 1 124.8294 43.1883 80.8598 11.3612 -17.4187 42.7005
# 2 43.1883 91.5187 47.7065 12.5050 -9.2375 31.0638
# 3 80.8598 47.7065 154.5855 10.4666 -20.1561 36.2130
# 4 11.3612 12.5050 10.4666 28.7788 8.4882 -0.0575
# 5 -17.4187 -9.2375 -20.1561 8.4882 39.5466 -8.0893
# 6 42.7005 31.0638 36.2130 -0.0575 -8.0893 54.0109
#
#
#
# Elastic Compliance Matrix: (Units=1/GPa)
#
#
# Indices 1 2 3 4 5 6 
#
# 1 0.015085 -0.000953 -0.005100 -0.004673 0.003297 -0.007469
# 2 -0.000953 0.015817 -0.002114 -0.006395 0.002220 -0.006600
# 3 -0.005100 -0.002114 0.010604 -0.001736 0.002740 -0.001453
# 4 -0.004673 -0.006395 -0.001736 0.043685 -0.012439 0.006720
# 5 0.003297 0.002220 0.002740 -0.012439 0.031104 -0.001075
# 6 -0.007469 -0.006600 -0.001453 0.006720 -0.001075 0.029036
#
#
# Mechanical properties :
#
#
# Convention : Reuss Voigt Hill
#
# Bulk Modulus (GPa) = 39.72826 79.38252 59.55539
# Shear Modulus (GPa) = 29.40189 37.74586 33.57387
#
# Velocity S-wave (km/s) = 3.57460 4.05018 3.81980
# Velocity P-wave (km/s) = 5.85683 7.50804 6.73324
#
# Compressibility (1/GPa) = 0.02517100
#
# Stress axis : x y z
#
# Youngs Moduli (GPa) = 66.29095 63.22403 94.30097
#
# Poissons Ratio (x) = 0.06028 0.48096
# Poissons Ratio (y) = 0.06320 0.19934
# Poissons Ratio (z) = 0.33810 0.13365
#
# Static dielectric constant tensor:
#      x y z
#    x 1.889770 -0.009830 0.008440 
#    y -0.009830 1.859090 0.029120 
#    z 0.008440 0.029120 1.828170 
# 
# From -- ./inp_files/382238.got.cif
#   From: 2010.05.17/outbox.cif.g08.bks.cpg/sg2_192_cif.got.tgz:382238.got - 2010.06.03 11:33:40.
