data_PCOD9093323
_publ_section_title
;
Structure prediction by ZEFSAII (Michael W. Deem and Ramdas Pophale) SiO2 
 PCOD9093323
Probable space group: P -1
;
_chemical_formula_sum "Si O2"
_cell_formula_units_Z 16
_cell_length_a 22.648101
_cell_length_b 5.395281
_cell_length_c 24.443932
_cell_angle_alpha 71.817346
_cell_angle_beta 168.111516
_cell_angle_gamma 108.865380
_cell_volume 582.118322
_symmetry_space_group_name_H-M "P -1"
_symmetry_group_IT_number 2
_symmetry_cell_setting 'triclinic'
loop_
_space_group_symop_operation_xyz
x,y,z
-x,-y,-z
loop_
_atom_site_type_symbol
_atom_site_label
_atom_site_fract_x
_atom_site_fract_y
_atom_site_fract_z
Si Si1 0.680631 0.256359 0.690968
Si Si2 0.141651 0.037639 0.566033
Si Si3 0.906579 0.425758 0.156679
Si Si4 0.191362 0.566381 0.089721
Si Si5 0.684683 0.204850 0.556392
Si Si6 0.726829 0.470958 0.411736
Si Si7 0.410714 0.197103 0.953884
Si Si8 0.578616 0.946538 0.359629
O O1 0.500000 0.500000 0.500000
O O2 0.844980 0.276958 0.897444
O O3 0.438345 0.016051 0.497137
O O4 0.941987 0.327554 0.880280
O O5 0.927321 0.873947 0.342221
O O6 0.166243 0.343789 0.553919
O O7 0.433439 0.901479 0.844999
O O8 0.000000 0.000000 0.500000
O O9 0.002464 0.659091 0.184444
O O10 0.014071 0.514129 0.309776
O O11 0.131791 0.205302 0.368849
O O12 0.561545 0.384996 0.843402
O O13 0.489004 0.438644 0.375160
O O14 0.272299 0.766861 0.100064
O O15 0.591102 0.089759 0.419929
O O16 0.603067 0.168940 0.320392
O O17 0.500000 0.500000 0.000000
O O18 0.500000 0.000000 0.000000
#
# Coordination Sequence:
#
# PCOD9093323 Si02
#       8
#     2   2   2   2   2   2   2   2
#     4  10  20  32  55  87 120 158 208 269 327 398
#     4  10  22  43  68 104 138 179 227 283 351 419
#     4  10  23  42  65  97 126 177 226 275 337 403
#     4   9  19  38  55  84 121 161 215 261 334 395
#     4   9  19  39  58  82 123 166 211 274 330 396
#     4  11  23  44  68  95 136 171 226 275 339 407
#     4  10  21  42  69 100 143 184 229 277 347 421
#     4   9  21  42  64  89 125 173 220 280 330 399
#
# _framework density 27.48582
#
# number of rings (size 3 to 8) (size 9 to 14) (size 15 to 20)
#    0.000    2.250    0.000    1.500    1.750    2.500 
#   31.500    0.000    0.000    0.000    0.000    0.000 
#    0.000    0.000    0.000    0.000    0.000    0.000 
#
# Total GULP energy -89383.862942 kJ/mol
# GULP energy per Si atom -5586.491434 kJ/mol
# Density = 2.742326 g / cm^3
# Si number density = 27.485820 Si / 1000 Ang^3
#
#
#
# Elastic Constant Matrix: (Units=GPa)
#
#
# Indices 1 2 3 4 5 6 
#
# 1 84.9241 45.2248 11.2200 13.7162 15.8128 40.8453
# 2 45.2248 210.8080 25.0468 14.9515 2.5695 52.4052
# 3 11.2200 25.0468 119.1958 6.2191 -20.5736 7.7425
# 4 13.7162 14.9515 6.2191 49.8310 5.9988 0.2578
# 5 15.8128 2.5695 -20.5736 5.9988 36.5419 10.8016
# 6 40.8453 52.4052 7.7425 0.2578 10.8016 55.2123
#
#
#
# Elastic Compliance Matrix: (Units=1/GPa)
#
#
# Indices 1 2 3 4 5 6 
#
# 1 0.020332 -0.000459 -0.001557 -0.004602 -0.004925 -0.013402
# 2 -0.000459 0.006538 -0.000572 -0.001916 0.001527 -0.006076
# 3 -0.001557 -0.000572 0.009990 -0.001470 0.006889 -0.001047
# 4 -0.004602 -0.001916 -0.001470 0.022570 -0.004225 0.006151
# 5 -0.004925 0.001527 0.006889 -0.004225 0.035655 -0.005728
# 6 -0.013402 -0.006076 -0.001047 0.006151 -0.005728 0.035032
#
#
# Mechanical properties :
#
#
# Convention : Reuss Voigt Hill
#
# Bulk Modulus (GPa) = 31.56198 64.21233 47.88716
# Shear Modulus (GPa) = 34.28093 50.54615 42.41354
#
# Velocity S-wave (km/s) = 3.53544 4.29300 3.93250
# Velocity P-wave (km/s) = 5.30789 6.92718 6.17088
#
# Compressibility (1/GPa) = 0.03168369
#
# Stress axis : x y z
#
# Youngs Moduli (GPa) = 49.18464 152.95948 100.09752
#
# Poissons Ratio (x) = 0.07015 0.15584
# Poissons Ratio (y) = 0.02256 0.05730
# Poissons Ratio (z) = 0.07657 0.08756
#
# Static dielectric constant tensor:
#      x y z
#    x 2.195420 0.002720 -0.197860 
#    y 0.002720 2.209660 0.035990 
#    z -0.197860 0.035990 2.451870 
# 
# From -- ./inp_files/624247.got.cif
#   From: 2010.05.17/outbox.cif.g08.bks.cpg/sg2_313_cif.got.tgz:624247.got - 2010.06.03 11:33:40.
