data_PCOD9093762
_publ_section_title
;
Structure prediction by ZEFSAII (Michael W. Deem and Ramdas Pophale) SiO2 
 PCOD9093762
Probable space group: P -1
;
_chemical_formula_sum "Si O2"
_cell_formula_units_Z 16
_cell_length_a 15.234237
_cell_length_b 12.256958
_cell_length_c 8.523445
_cell_angle_alpha 127.627217
_cell_angle_beta 78.027330
_cell_angle_gamma 63.206362
_cell_volume 822.147500
_symmetry_space_group_name_H-M "P -1"
_symmetry_group_IT_number 2
_symmetry_cell_setting 'triclinic'
loop_
_space_group_symop_operation_xyz
x,y,z
-x,-y,-z
loop_
_atom_site_type_symbol
_atom_site_label
_atom_site_fract_x
_atom_site_fract_y
_atom_site_fract_z
Si Si1 0.190795 0.555027 0.116667
Si Si2 0.435652 0.924872 0.492214
Si Si3 0.450439 0.415973 0.366792
Si Si4 0.685493 0.919586 0.807592
Si Si5 0.414161 0.474639 0.079765
Si Si6 0.040328 0.364682 0.712947
Si Si7 0.199646 0.287237 0.074586
Si Si8 0.643739 0.679107 0.455033
O O1 0.272128 0.601757 0.159726
O O2 0.238439 0.399109 0.104805
O O3 0.032507 0.701891 0.303945
O O4 0.244459 0.441557 0.828245
O O5 0.510373 0.792824 0.507195
O O6 0.500000 0.000000 0.500000
O O7 0.486675 0.768232 0.200668
O O8 0.280401 0.108405 0.755182
O O9 0.500000 0.500000 0.500000
O O10 0.393046 0.517360 0.307637
O O11 0.340032 0.461023 0.550089
O O12 0.573989 0.165658 0.082186
O O13 0.806030 0.820812 0.556811
O O14 0.750775 0.810072 0.857859
O O15 0.627786 0.842931 0.690759
O O16 0.500000 0.500000 0.000000
O O17 0.958065 0.534195 0.749833
O O18 0.000000 0.500000 0.000000
#
# Coordination Sequence:
#
# PCOD9093762 Si02
#       8
#     2   2   2   2   2   2   2   2
#     4   9  20  37  60  85 122 150 193 245 296 347
#     4  11  18  34  56  88 117 150 189 245 300 355
#     4  12  26  38  56  89 126 153 197 247 299 353
#     4  12  22  35  62  90 118 157 193 247 298 348
#     4  11  23  38  60  83 118 162 196 237 302 351
#     4  10  21  38  57  91 121 153 201 244 293 345
#     4  10  20  33  57  86 125 143 194 239 296 336
#     4  11  20  34  60  89 119 146 195 248 307 344
#
# _framework density 19.461227999999998
#
# number of rings (size 3 to 8) (size 9 to 14) (size 15 to 20)
#    0.750    0.500    5.000    3.750    1.750    0.000 
#    0.000    0.000    0.000    5.250    0.000    0.000 
#    0.000    0.000    0.000    0.000    0.000    0.000 
#
# Total GULP energy -89099.772788 kJ/mol
# GULP energy per Si atom -5568.735799 kJ/mol
# Density = 1.941693 g / cm^3
# Si number density = 19.461228 Si / 1000 Ang^3
#
#
#
# Elastic Constant Matrix: (Units=GPa)
#
#
# Indices 1 2 3 4 5 6 
#
# 1 81.5858 13.1705 23.5131 -7.0619 9.0301 19.0622
# 2 13.1705 61.2477 7.9712 -24.6716 8.0119 9.1647
# 3 23.5131 7.9712 66.2585 -17.4591 4.3631 5.9343
# 4 -7.0619 -24.6716 -17.4591 28.3663 -0.9408 1.6869
# 5 9.0301 8.0119 4.3631 -0.9408 40.8019 -3.3979
# 6 19.0622 9.1647 5.9343 1.6869 -3.3979 33.5740
#
#
#
# Elastic Compliance Matrix: (Units=1/GPa)
#
#
# Indices 1 2 3 4 5 6 
#
# 1 0.016138 -0.000658 -0.004321 0.001178 -0.003674 -0.008650
# 2 -0.000658 0.030580 0.006076 0.030619 -0.006741 -0.011268
# 3 -0.004321 0.006076 0.020965 0.017272 -0.002416 -0.004023
# 4 0.001178 0.030619 0.017272 0.073534 -0.007804 -0.016564
# 5 -0.003674 -0.006741 -0.002416 -0.007804 0.027349 0.007513
# 6 -0.008650 -0.011268 -0.004023 -0.016564 0.007513 0.040076
#
#
# Mechanical properties :
#
#
# Convention : Reuss Voigt Hill
#
# Bulk Modulus (GPa) = 14.31087 33.15572 23.73330
# Shear Modulus (GPa) = 21.76362 31.51091 26.63727
#
# Velocity S-wave (km/s) = 3.34774 4.02825 3.70366
# Velocity P-wave (km/s) = 4.72362 6.22170 5.52368
#
# Compressibility (1/GPa) = 0.06987695
#
# Stress axis : x y z
#
# Youngs Moduli (GPa) = 61.96456 32.70147 47.69798
#
# Poissons Ratio (x) = 0.02153 0.20609
# Poissons Ratio (y) = 0.04080 -0.28981
# Poissons Ratio (z) = 0.26773 -0.19869
#
# Static dielectric constant tensor:
#      x y z
#    x 1.669260 -0.012520 0.017360 
#    y -0.012520 1.753060 -0.004260 
#    z 0.017360 -0.004260 1.682530 
# 
# From -- ./inp_files/305883.got.cif
#   From: 2010.05.17/outbox.cif.g08.bks.cpg/sg2_153_cif.got.tgz:305883.got - 2010.06.03 11:33:40.
