data_PCOD9093865
_publ_section_title
;
Structure prediction by ZEFSAII (Michael W. Deem and Ramdas Pophale) SiO2 
 PCOD9093865
Probable space group: P -1
;
_chemical_formula_sum "Si O2"
_cell_formula_units_Z 16
_cell_length_a 7.935223
_cell_length_b 12.785629
_cell_length_c 7.994879
_cell_angle_alpha 98.227178
_cell_angle_beta 82.165002
_cell_angle_gamma 77.949800
_cell_volume 773.437576
_symmetry_space_group_name_H-M "P -1"
_symmetry_group_IT_number 2
_symmetry_cell_setting 'triclinic'
loop_
_space_group_symop_operation_xyz
x,y,z
-x,-y,-z
loop_
_atom_site_type_symbol
_atom_site_label
_atom_site_fract_x
_atom_site_fract_y
_atom_site_fract_z
Si Si1 0.799288 0.105890 0.681403
Si Si2 0.533494 0.704991 0.170150
Si Si3 0.083724 0.823245 0.971716
Si Si4 0.934376 0.862490 0.631089
Si Si5 0.650533 0.527393 0.375671
Si Si6 0.408064 0.671216 0.831513
Si Si7 0.074162 0.377032 0.027569
Si Si8 0.792615 0.651750 0.629267
O O1 0.604082 0.180882 0.751778
O O2 0.898155 0.144557 0.516948
O O3 0.808257 0.978502 0.629391
O O4 0.907990 0.113015 0.841752
O O5 0.550951 0.631579 0.312157
O O6 0.454111 0.650785 0.014590
O O7 0.736390 0.687513 0.086363
O O8 0.280115 0.789015 0.865784
O O9 0.972318 0.863039 0.827976
O O10 0.038942 0.710793 0.010807
O O11 0.851388 0.759178 0.587329
O O12 0.500000 0.500000 0.500000
O O13 0.691893 0.419271 0.235635
O O14 0.803786 0.560677 0.465236
O O15 0.587343 0.673489 0.713530
O O16 0.105377 0.385570 0.222950
O O17 0.000000 0.500000 0.000000
#
# Coordination Sequence:
#
# PCOD9093865 Si02
#       8
#     2   2   2   2   2   2   2   2
#     4  10  23  41  65  88 117 166 203 258 313 354
#     4  10  21  38  60  87 122 158 207 244 296 371
#     4  10  21  39  64  90 122 159 204 253 305 366
#     4  10  22  43  62  89 123 155 210 261 306 354
#     4  10  20  33  59  87 119 156 196 236 301 361
#     4   9  19  38  60  88 119 163 194 241 303 369
#     4  10  21  40  60  90 126 161 198 248 303 364
#     4   9  21  38  60  88 122 158 203 249 299 366
#
# _framework density 20.686865999999998
#
# number of rings (size 3 to 8) (size 9 to 14) (size 15 to 20)
#    0.000    2.250    0.000    1.500    5.250    5.000 
#    0.000   13.750    0.000    0.000    0.000    0.000 
#    0.000    0.000    0.000    0.000    0.000    0.000 
#
# Total GULP energy -89087.900734 kJ/mol
# GULP energy per Si atom -5567.993796 kJ/mol
# Density = 2.063978 g / cm^3
# Si number density = 20.686866 Si / 1000 Ang^3
#
#
#
# Elastic Constant Matrix: (Units=GPa)
#
#
# Indices 1 2 3 4 5 6 
#
# 1 82.2294 46.5214 19.6203 13.2978 6.3775 -5.4200
# 2 46.5214 93.5909 37.5484 7.3943 -9.9262 8.6919
# 3 19.6203 37.5484 89.6372 -7.8566 -27.9394 17.1476
# 4 13.2978 7.3943 -7.8566 34.6029 7.3803 -16.7188
# 5 6.3775 -9.9262 -27.9394 7.3803 54.0214 -15.8797
# 6 -5.4200 8.6919 17.1476 -16.7188 -15.8797 45.1140
#
#
#
# Elastic Compliance Matrix: (Units=1/GPa)
#
#
# Indices 1 2 3 4 5 6 
#
# 1 0.018700 -0.008577 -0.002453 -0.004150 -0.003923 0.001913
# 2 -0.008577 0.017578 -0.004739 -0.003476 0.001248 -0.003465
# 3 -0.002453 -0.004739 0.016505 0.003254 0.006918 -0.002014
# 4 -0.004150 -0.003476 0.003254 0.038313 0.000179 0.013196
# 5 -0.003923 0.001248 0.006918 0.000179 0.024310 0.005282
# 6 0.001913 -0.003465 -0.002014 0.013196 0.005282 0.030578
#
#
# Mechanical properties :
#
#
# Convention : Reuss Voigt Hill
#
# Bulk Modulus (GPa) = 47.06766 52.53751 49.80259
# Shear Modulus (GPa) = 27.08488 37.53216 32.30852
#
# Velocity S-wave (km/s) = 3.62232 4.26408 3.95623
# Velocity P-wave (km/s) = 6.34797 7.04946 6.70789
#
# Compressibility (1/GPa) = 0.02124601
#
# Stress axis : x y z
#
# Youngs Moduli (GPa) = 53.47499 56.88808 60.58796
#
# Poissons Ratio (x) = 0.48794 0.14860
# Poissons Ratio (y) = 0.45867 0.28712
# Poissons Ratio (z) = 0.13116 0.26958
#
# Static dielectric constant tensor:
#      x y z
#    x 1.704020 -0.032970 -0.001450 
#    y -0.032970 1.728470 0.035060 
#    z -0.001450 0.035060 1.853720 
# 
# From -- ./inp_files/188413.got.cif
#   From: 2010.05.17/outbox.cif.g08.bks.cpg/sg2_95_cif.got.tgz:188413.got - 2010.06.03 11:33:40.
