data_PCOD9093461
_publ_section_title
;
Structure prediction by ZEFSAII (Michael W. Deem and Ramdas Pophale) SiO2 
 PCOD9093461
Probable space group: P -1
;
_chemical_formula_sum "Si O2"
_cell_formula_units_Z 12
_cell_length_a 8.953814
_cell_length_b 18.595966
_cell_length_c 11.760766
_cell_angle_alpha 156.998840
_cell_angle_beta 141.687143
_cell_angle_gamma 35.335135
_cell_volume 437.594056
_symmetry_space_group_name_H-M "P -1"
_symmetry_group_IT_number 2
_symmetry_cell_setting 'triclinic'
loop_
_space_group_symop_operation_xyz
x,y,z
-x,-y,-z
loop_
_atom_site_type_symbol
_atom_site_label
_atom_site_fract_x
_atom_site_fract_y
_atom_site_fract_z
Si Si1 0.124428 0.872727 0.998996
Si Si2 0.589065 0.480190 0.740603
Si Si3 0.332889 0.004132 0.649413
Si Si4 0.844315 0.768556 0.344963
Si Si5 0.659892 0.605812 0.318817
Si Si6 0.060947 0.196564 0.974989
O O1 0.250394 0.015995 0.341901
O O2 0.948274 0.848373 0.963004
O O3 0.343923 0.653285 0.787004
O O4 0.000000 0.000000 0.000000
O O5 0.471844 0.368658 0.597365
O O6 0.838465 0.329490 0.602588
O O7 0.725298 0.609860 0.080553
O O8 0.608087 0.817832 0.541542
O O9 0.138976 0.892639 0.334032
O O10 0.242563 0.186177 0.773170
O O11 0.303626 0.094343 0.889570
O O12 0.500000 0.500000 0.000000
O O13 0.945600 0.435174 0.242842
#
# Coordination Sequence:
#
# PCOD9093461 Si02
#       6
#     2   2   2   2   2   2
#     4  10  20  33  50  73 103 137 168 200 243 300
#     4  10  20  33  50  76 104 128 164 211 253 289
#     4   9  15  27  48  72  95 122 161 206 245 285
#     4  10  20  33  51  78 104 128 161 208 258 294
#     4   9  15  25  44  71  97 121 154 201 247 286
#     4   8  15  26  43  68  93 119 160 203 237 276
#
# _framework density 27.422675999999999
#
# number of rings (size 3 to 8) (size 9 to 14) (size 15 to 20)
#    0.000    2.667    0.000    5.500    0.000    0.667 
#    0.000    0.000    0.000    1.000    0.000   65.333 
#    0.000    1.333    0.000    0.000    0.000    0.000 
#
# Total GULP energy -67091.583475 kJ/mol
# GULP energy per Si atom -5590.965290 kJ/mol
# Density = 2.736026 g / cm^3
# Si number density = 27.422676 Si / 1000 Ang^3
#
#
#
# Elastic Constant Matrix: (Units=GPa)
#
#
# Indices 1 2 3 4 5 6 
#
# 1 103.2088 69.1700 29.8331 27.1281 -4.0798 7.7980
# 2 69.1700 163.0677 39.5855 27.3346 -20.0304 25.3880
# 3 29.8331 39.5855 60.2819 17.7282 -3.1190 -6.1808
# 4 27.1281 27.3346 17.7282 53.5244 0.8176 2.8851
# 5 -4.0798 -20.0304 -3.1190 0.8176 41.1641 -3.8822
# 6 7.7980 25.3880 -6.1808 2.8851 -3.8822 28.8690
#
#
#
# Elastic Compliance Matrix: (Units=1/GPa)
#
#
# Indices 1 2 3 4 5 6 
#
# 1 0.014963 -0.005124 -0.002918 -0.003988 -0.001144 0.000084
# 2 -0.005124 0.011862 -0.005710 -0.001111 0.003946 -0.009628
# 3 -0.002918 -0.005710 0.024192 -0.004231 -0.000075 0.011402
# 4 -0.003988 -0.001111 -0.004231 0.022775 -0.001838 -0.001375
# 5 -0.001144 0.003946 -0.000075 -0.001838 0.026180 0.000528
# 6 0.000084 -0.009628 0.011402 -0.001375 0.000528 0.045734
#
#
# Mechanical properties :
#
#
# Convention : Reuss Voigt Hill
#
# Bulk Modulus (GPa) = 42.53016 67.08172 54.80594
# Shear Modulus (GPa) = 27.61698 37.24281 32.42989
#
# Velocity S-wave (km/s) = 3.17690 3.68924 3.44262
# Velocity P-wave (km/s) = 5.38514 6.53166 5.98591
#
# Compressibility (1/GPa) = 0.02351273
#
# Stress axis : x y z
#
# Youngs Moduli (GPa) = 66.83066 84.30352 41.33572
#
# Poissons Ratio (x) = 0.43196 0.12063
# Poissons Ratio (y) = 0.34243 0.23603
# Poissons Ratio (z) = 0.19504 0.48138
#
# Static dielectric constant tensor:
#      x y z
#    x 2.183890 -0.055110 0.027980 
#    y -0.055110 2.145200 -0.052110 
#    z 0.027980 -0.052110 2.111230 
# 
# From -- ./inp_files/403601.got.cif
#   From: 2010.05.17/outbox.cif.g08.bks.cpg/sg2_202_cif.got.tgz:403601.got - 2010.06.03 11:33:40.
