data_PCOD9093605
_publ_section_title
;
Structure prediction by ZEFSAII (Michael W. Deem and Ramdas Pophale) SiO2 
 PCOD9093605
Probable space group: P -1
;
_chemical_formula_sum "Si O2"
_cell_formula_units_Z 16
_cell_length_a 11.274945
_cell_length_b 10.784420
_cell_length_c 7.751340
_cell_angle_alpha 123.734411
_cell_angle_beta 66.570505
_cell_angle_gamma 117.350494
_cell_volume 683.120179
_symmetry_space_group_name_H-M "P -1"
_symmetry_group_IT_number 2
_symmetry_cell_setting 'triclinic'
loop_
_space_group_symop_operation_xyz
x,y,z
-x,-y,-z
loop_
_atom_site_type_symbol
_atom_site_label
_atom_site_fract_x
_atom_site_fract_y
_atom_site_fract_z
Si Si1 0.698304 0.195441 0.775805
Si Si2 0.717134 0.886421 0.402064
Si Si3 0.251322 0.953060 0.031310
Si Si4 0.495063 0.323873 0.845868
Si Si5 0.149805 0.719488 0.594508
Si Si6 0.007552 0.076312 0.240323
Si Si7 0.587460 0.730587 0.695776
Si Si8 0.662723 0.435438 0.506017
O O1 0.756787 0.174060 0.911696
O O2 0.580692 0.274130 0.903347
O O3 0.802050 0.284024 0.634277
O O4 0.647052 0.019102 0.590477
O O5 0.653796 0.793216 0.194570
O O6 0.875369 0.981001 0.355179
O O7 0.674725 0.766499 0.492799
O O8 0.138903 0.039845 0.207283
O O9 0.385623 0.099619 0.100725
O O10 0.228572 0.868186 0.792109
O O11 0.579378 0.325177 0.622788
O O12 0.500000 0.500000 0.000000
O O13 0.187886 0.582544 0.570500
O O14 0.007638 0.754230 0.668002
O O15 0.000000 0.000000 0.000000
O O16 0.647377 0.608147 0.665838
O O17 0.431487 0.640950 0.661903
#
# Coordination Sequence:
#
# PCOD9093605 Si02
#       8
#     2   2   2   2   2   2   2   2
#     4   9  19  34  54  82 109 136 177 222 267 318
#     4   9  18  34  55  76 109 145 173 222 272 308
#     4  10  20  34  57  81 101 140 189 222 259 314
#     4  10  20  33  54  81 110 143 175 214 268 328
#     4   9  19  35  55  76 109 143 173 223 270 312
#     4   9  19  35  55  79 105 137 183 228 264 306
#     4   9  19  33  53  80 108 139 178 217 266 326
#     4   9  19  36  51  77 116 143 169 216 275 324
#
# _framework density 23.421938999999998
#
# number of rings (size 3 to 8) (size 9 to 14) (size 15 to 20)
#    0.000    2.750    0.000    0.375    0.000   14.000 
#    0.000    0.625    0.000   11.250    0.000    0.000 
#    0.000    1.000    0.000    0.000    0.000    0.000 
#
# Total GULP energy -89096.642269 kJ/mol
# GULP energy per Si atom -5568.540142 kJ/mol
# Density = 2.336863 g / cm^3
# Si number density = 23.421939 Si / 1000 Ang^3
#
#
#
# Elastic Constant Matrix: (Units=GPa)
#
#
# Indices 1 2 3 4 5 6 
#
# 1 123.2286 36.4679 17.7588 2.6831 -20.7251 -42.1116
# 2 36.4679 59.4171 21.4406 1.1718 -1.5752 -19.9162
# 3 17.7588 21.4406 67.0008 -8.1732 8.1732 2.6662
# 4 2.6831 1.1718 -8.1732 36.2465 -10.7285 6.4871
# 5 -20.7251 -1.5752 8.1732 -10.7285 36.8726 7.2985
# 6 -42.1116 -19.9162 2.6662 6.4871 7.2985 36.5194
#
#
#
# Elastic Compliance Matrix: (Units=1/GPa)
#
#
# Indices 1 2 3 4 5 6 
#
# 1 0.016872 -0.001840 -0.005828 -0.004065 0.005866 0.018427
# 2 -0.001840 0.025968 -0.008811 -0.005992 -0.002537 0.014255
# 3 -0.005828 -0.008811 0.021107 0.006814 -0.003667 -0.013544
# 4 -0.004065 -0.005992 0.006814 0.035429 0.009554 -0.016656
# 5 0.005866 -0.002537 -0.003667 0.009554 0.034484 -0.002940
# 6 0.018427 0.014255 -0.013544 -0.016656 -0.002940 0.060941
#
#
# Mechanical properties :
#
#
# Convention : Reuss Voigt Hill
#
# Bulk Modulus (GPa) = 32.26935 44.55344 38.41140
# Shear Modulus (GPa) = 21.00072 33.52632 27.26352
#
# Velocity S-wave (km/s) = 2.99762 3.78750 3.41547
# Velocity P-wave (km/s) = 5.07822 6.17983 5.65591
#
# Compressibility (1/GPa) = 0.03098916
#
# Stress axis : x y z
#
# Youngs Moduli (GPa) = 59.27104 38.50909 47.37766
#
# Poissons Ratio (x) = 0.07085 0.27611
# Poissons Ratio (y) = 0.10905 0.41744
# Poissons Ratio (z) = 0.34543 0.33930
#
# Static dielectric constant tensor:
#      x y z
#    x 2.029000 0.005500 -0.010640 
#    y 0.005500 1.933440 -0.043710 
#    z -0.010640 -0.043710 1.913550 
# 
# From -- ./inp_files/263422.got.cif
#   From: 2010.05.17/outbox.cif.g08.bks.cpg/sg2_132_cif.got.tgz:263422.got - 2010.06.03 11:33:40.
