data_PCOD9093541
_publ_section_title
;
Structure prediction by ZEFSAII (Michael W. Deem and Ramdas Pophale) SiO2 
 PCOD9093541
Probable space group: P -1
;
_chemical_formula_sum "Si O2"
_cell_formula_units_Z 12
_cell_length_a 7.152125
_cell_length_b 11.455743
_cell_length_c 9.123188
_cell_angle_alpha 61.730711
_cell_angle_beta 99.499034
_cell_angle_gamma 54.965943
_cell_volume 428.856154
_symmetry_space_group_name_H-M "P -1"
_symmetry_group_IT_number 2
_symmetry_cell_setting 'triclinic'
loop_
_space_group_symop_operation_xyz
x,y,z
-x,-y,-z
loop_
_atom_site_type_symbol
_atom_site_label
_atom_site_fract_x
_atom_site_fract_y
_atom_site_fract_z
Si Si1 0.916498 0.801608 0.565231
Si Si2 0.739226 0.445118 0.859926
Si Si3 0.722011 0.955894 0.741642
Si Si4 0.446248 0.210828 0.817256
Si Si5 0.123142 0.640018 0.399556
Si Si6 0.578851 0.639511 0.996870
O O1 0.865154 0.923304 0.625168
O O2 0.083679 0.757175 0.465585
O O3 0.104819 0.578418 0.783013
O O4 0.603202 0.912463 0.416167
O O5 0.717198 0.428735 0.694161
O O6 0.620494 0.377148 0.965357
O O7 0.589782 0.639070 0.821730
O O8 0.077109 0.270377 0.044431
O O9 0.696670 0.060468 0.819963
O O10 0.276498 0.429988 0.610394
O O11 0.523968 0.192428 0.007211
O O12 0.204808 0.224272 0.767136
#
# Coordination Sequence:
#
# PCOD9093541 Si02
#       6
#     2   2   2   2   2   2
#     4   8  16  31  51  69  97 134 165 189 242 306
#     4  10  20  33  53  75 100 131 169 204 245 294
#     4   9  17  32  52  74  99 130 165 208 245 285
#     4   9  18  32  51  74 103 130 163 204 249 291
#     4   9  18  33  52  75  99 133 168 200 242 302
#     4   9  19  35  51  72 102 136 164 200 249 301
#
# _framework density 27.981411999999999
#
# number of rings (size 3 to 8) (size 9 to 14) (size 15 to 20)
#    0.000    3.000    0.000    1.000    0.000    6.667 
#    0.000    1.667    0.000   12.000    0.000    0.000 
#    0.000    0.000    0.000    0.000    0.000    0.000 
#
# Total GULP energy -66977.786162 kJ/mol
# GULP energy per Si atom -5581.482180 kJ/mol
# Density = 2.791772 g / cm^3
# Si number density = 27.981412 Si / 1000 Ang^3
#
#
#
# Elastic Constant Matrix: (Units=GPa)
#
#
# Indices 1 2 3 4 5 6 
#
# 1 48.8935 40.5462 18.4915 18.0227 -1.1755 -15.9002
# 2 40.5462 299.4220 88.0563 105.0169 -11.7047 -20.1081
# 3 18.4915 88.0563 109.4580 28.0380 -7.4016 -6.9826
# 4 18.0227 105.0169 28.0380 92.3187 -0.6063 -10.2444
# 5 -1.1755 -11.7047 -7.4016 -0.6063 20.3109 7.2495
# 6 -15.9002 -20.1081 -6.9826 -10.2444 7.2495 44.2231
#
#
#
# Elastic Compliance Matrix: (Units=1/GPa)
#
#
# Indices 1 2 3 4 5 6 
#
# 1 0.026049 -0.002051 -0.002146 -0.001192 -0.003486 0.008390
# 2 -0.002051 0.007017 -0.003463 -0.006515 0.002471 -0.000008
# 3 -0.002146 -0.003463 0.012270 0.000571 0.002621 -0.000706
# 4 -0.001192 -0.006515 0.000571 0.018452 -0.003624 0.001568
# 5 -0.003486 0.002471 0.002621 -0.003624 0.054703 -0.009523
# 6 0.008390 -0.000008 -0.000706 0.001568 -0.009523 0.027438
#
#
# Mechanical properties :
#
#
# Convention : Reuss Voigt Hill
#
# Bulk Modulus (GPa) = 33.31486 83.55126 58.43306
# Shear Modulus (GPa) = 29.19618 52.08250 40.63934
#
# Velocity S-wave (km/s) = 3.23370 4.31899 3.81513
# Velocity P-wave (km/s) = 5.08668 7.40243 6.35099
#
# Compressibility (1/GPa) = 0.03001663
#
# Stress axis : x y z
#
# Youngs Moduli (GPa) = 38.38904 142.51349 81.49679
#
# Poissons Ratio (x) = 0.29230 0.17487
# Poissons Ratio (y) = 0.07874 0.28223
# Poissons Ratio (z) = 0.08237 0.49354
#
# Static dielectric constant tensor:
#      x y z
#    x 2.200830 0.026350 -0.003000 
#    y 0.026350 2.227910 0.068790 
#    z -0.003000 0.068790 2.255460 
# 
# From -- ./inp_files/144604.got.cif
#   From: 2010.05.17/outbox.cif.g08.bks.cpg/sg2_73_cif.got.tgz:144604.got - 2010.06.03 11:33:40.
