data_PCOD9093782
_publ_section_title
;
Structure prediction by ZEFSAII (Michael W. Deem and Ramdas Pophale) SiO2 
 PCOD9093782
Probable space group: P -1
;
_chemical_formula_sum "Si O2"
_cell_formula_units_Z 12
_cell_length_a 14.851750
_cell_length_b 10.612755
_cell_length_c 7.477412
_cell_angle_alpha 103.678481
_cell_angle_beta 76.327332
_cell_angle_gamma 38.804679
_cell_volume 518.842034
_symmetry_space_group_name_H-M "P -1"
_symmetry_group_IT_number 2
_symmetry_cell_setting 'triclinic'
loop_
_space_group_symop_operation_xyz
x,y,z
-x,-y,-z
loop_
_atom_site_type_symbol
_atom_site_label
_atom_site_fract_x
_atom_site_fract_y
_atom_site_fract_z
Si Si1 0.528457 0.974485 0.195089
Si Si2 0.032354 0.673433 0.186664
Si Si3 0.935713 0.957752 0.642360
Si Si4 0.352806 0.997107 0.548433
Si Si5 0.807477 0.195880 0.333250
Si Si6 0.550370 0.483215 0.199276
O O1 0.370592 0.087989 0.423174
O O2 0.548154 0.085615 0.334771
O O3 0.740475 0.646387 0.035158
O O4 0.500000 0.000000 0.000000
O O5 0.987645 0.765713 0.445369
O O6 0.873754 0.763243 0.233054
O O7 0.969615 0.880885 0.179522
O O8 0.703869 0.250411 0.896991
O O9 0.000000 0.000000 0.500000
O O10 0.082133 0.805498 0.687249
O O11 0.456357 0.742734 0.326421
O O12 0.700114 0.308207 0.236702
O O13 0.626566 0.394890 0.623819
#
# Coordination Sequence:
#
# PCOD9093782 Si02
#       6
#     2   2   2   2   2   2
#     4  11  25  44  66  89 119 168 220 263 306 366
#     4  10  22  41  61  95 125 163 201 257 316 365
#     4  10  20  33  57  90 126 158 194 246 302 378
#     4  10  23  44  65  89 128 164 207 266 308 365
#     4   9  20  36  60  92 127 161 198 247 309 380
#     4  10  20  38  61  95 125 163 201 248 320 373
#
# _framework density 23.128429000000001
#
# number of rings (size 3 to 8) (size 9 to 14) (size 15 to 20)
#    0.000    2.000    0.000    3.000    2.333    8.000 
#    9.000    0.000    0.000    0.000    0.000    0.000 
#    0.000    0.000    0.000    0.000    0.000    0.000 
#
# Total GULP energy -66972.926744 kJ/mol
# GULP energy per Si atom -5581.077229 kJ/mol
# Density = 2.307579 g / cm^3
# Si number density = 23.128429 Si / 1000 Ang^3
#
#
#
# Elastic Constant Matrix: (Units=GPa)
#
#
# Indices 1 2 3 4 5 6 
#
# 1 96.2369 0.2853 7.2145 -4.1516 2.3376 -19.9063
# 2 0.2853 67.3077 -15.2055 -7.3305 3.0516 -20.2327
# 3 7.2145 -15.2055 81.9493 -4.1091 13.0781 0.6718
# 4 -4.1516 -7.3305 -4.1091 47.7710 -2.5781 5.3680
# 5 2.3376 3.0516 13.0781 -2.5781 29.9037 2.2757
# 6 -19.9063 -20.2327 0.6718 5.3680 2.2757 21.3187
#
#
#
# Elastic Compliance Matrix: (Units=1/GPa)
#
#
# Indices 1 2 3 4 5 6 
#
# 1 0.014496 0.006023 0.000205 -0.000187 -0.003349 0.019650
# 2 0.006023 0.025573 0.005230 0.001088 -0.007577 0.030264
# 3 0.000205 0.005230 0.014301 0.001084 -0.007106 0.005191
# 4 -0.000187 0.001088 0.001084 0.021812 0.001679 -0.004848
# 5 -0.003349 -0.007577 -0.007106 0.001679 0.038844 -0.014664
# 6 0.019650 0.030264 0.005191 -0.004848 -0.014664 0.096600
#
#
# Mechanical properties :
#
#
# Convention : Reuss Voigt Hill
#
# Bulk Modulus (GPa) = 12.93880 25.56470 19.25175
# Shear Modulus (GPa) = 23.31329 36.67865 29.99597
#
# Velocity S-wave (km/s) = 3.17833 3.98662 3.60520
# Velocity P-wave (km/s) = 4.36756 5.68051 5.06674
#
# Compressibility (1/GPa) = 0.07728692
#
# Stress axis : x y z
#
# Youngs Moduli (GPa) = 68.98678 39.10429 69.92597
#
# Poissons Ratio (x) = -0.23553 -0.01437
# Poissons Ratio (y) = -0.41552 -0.36574
# Poissons Ratio (z) = -0.01417 -0.20453
#
# Static dielectric constant tensor:
#      x y z
#    x 1.970660 -0.082300 0.067720 
#    y -0.082300 1.966690 -0.075370 
#    z 0.067720 -0.075370 1.931250 
# 
# From -- ./inp_files/303650.got.cif
#   From: 2010.05.17/outbox.cif.g08.bks.cpg/sg2_152_cif.got.tgz:303650.got - 2010.06.03 11:33:40.
