data_PCOD9093110
_publ_section_title
;
Structure prediction by ZEFSAII (Michael W. Deem and Ramdas Pophale) SiO2 
 PCOD9093110
Probable space group: P -1
;
_chemical_formula_sum "Si O2"
_cell_formula_units_Z 14
_cell_length_a 17.689716
_cell_length_b 5.376762
_cell_length_c 13.259082
_cell_angle_alpha 109.651252
_cell_angle_beta 30.848694
_cell_angle_gamma 104.254497
_cell_volume 606.640523
_symmetry_space_group_name_H-M "P -1"
_symmetry_group_IT_number 2
_symmetry_cell_setting 'triclinic'
loop_
_space_group_symop_operation_xyz
x,y,z
-x,-y,-z
loop_
_atom_site_type_symbol
_atom_site_label
_atom_site_fract_x
_atom_site_fract_y
_atom_site_fract_z
Si Si1 0.142290 0.850965 0.367179
Si Si2 0.884821 0.656236 0.282941
Si Si3 0.767270 0.464416 0.191705
Si Si4 0.625280 0.759687 0.820436
Si Si5 0.393278 0.452699 0.960784
Si Si6 0.284283 0.124105 0.868067
Si Si7 0.939248 0.243715 0.337076
O O1 0.253406 0.677818 0.141004
O O2 0.092748 0.693359 0.500521
O O3 0.232722 0.085819 0.337500
O O4 0.000000 0.000000 0.500000
O O5 0.775061 0.562558 0.310768
O O6 0.878950 0.475994 0.363993
O O7 0.867340 0.972918 0.355769
O O8 0.057818 0.595360 0.043816
O O9 0.703012 0.693247 0.220324
O O10 0.694755 0.188203 0.222131
O O11 0.631178 0.640178 0.909446
O O12 0.553986 0.564600 0.797327
O O13 0.500000 0.000000 0.000000
O O14 0.382330 0.229026 0.859759
O O15 0.114581 0.184130 0.109911
#
# Coordination Sequence:
#
# PCOD9093110 Si02
#       7
#     2   2   2   2   2   2   2
#     4  11  24  35  58  87 124 158 192 238 293 349
#     4   9  18  34  50  75 117 150 189 241 288 352
#     4   9  18  32  52  79 110 150 192 239 296 340
#     4   9  21  40  57  78 117 158 204 236 285 337
#     4  10  22  38  58  82 120 157 198 243 278 353
#     4  10  20  31  55  84 112 149 193 240 292 343
#     4  10  21  32  52  82 116 155 190 231 297 347
#
# _framework density 23.077915000000001
#
# number of rings (size 3 to 8) (size 9 to 14) (size 15 to 20)
#    0.000    2.286    0.000    1.714   12.000    4.571 
#    0.000    0.000    0.000    0.000    0.000    6.000 
#    0.000    0.000    0.000    0.000    0.000    0.000 
#
# Total GULP energy -78230.401954 kJ/mol
# GULP energy per Si atom -5587.885854 kJ/mol
# Density = 2.302539 g / cm^3
# Si number density = 23.077915 Si / 1000 Ang^3
#
#
#
# Elastic Constant Matrix: (Units=GPa)
#
#
# Indices 1 2 3 4 5 6 
#
# 1 130.1999 64.6371 16.1839 -12.4345 3.1057 19.2121
# 2 64.6371 153.1619 6.1129 -6.8045 3.4178 13.9116
# 3 16.1839 6.1129 27.2323 -4.6188 -5.4891 -6.3254
# 4 -12.4345 -6.8045 -4.6188 18.5639 1.1435 2.6157
# 5 3.1057 3.4178 -5.4891 1.1435 26.6105 -1.3698
# 6 19.2121 13.9116 -6.3254 2.6157 -1.3698 44.4549
#
#
#
# Elastic Compliance Matrix: (Units=1/GPa)
#
#
# Indices 1 2 3 4 5 6 
#
# 1 0.011917 -0.003945 -0.007044 0.005712 -0.002858 -0.005342
# 2 -0.003945 0.008310 0.000247 0.000633 -0.000630 -0.000917
# 3 -0.007044 0.000247 0.046021 0.004824 0.010568 0.009557
# 4 0.005712 0.000633 0.004824 0.060076 -0.002622 -0.005596
# 5 -0.002858 -0.000630 0.010568 -0.002622 0.040510 0.004338
# 6 -0.005342 -0.000917 0.009557 -0.005596 0.004338 0.026913
#
#
# Mechanical properties :
#
#
# Convention : Reuss Voigt Hill
#
# Bulk Modulus (GPa) = 22.34096 53.82909 38.08503
# Shear Modulus (GPa) = 21.72481 32.83655 27.28068
#
# Velocity S-wave (km/s) = 3.07150 3.77617 3.44192
# Velocity P-wave (km/s) = 4.72022 6.51062 5.68633
#
# Compressibility (1/GPa) = 0.04476084
#
# Stress axis : x y z
#
# Youngs Moduli (GPa) = 83.91690 120.34300 21.72941
#
# Poissons Ratio (x) = 0.47477 0.15307
# Poissons Ratio (y) = 0.33106 -0.00536
# Poissons Ratio (z) = 0.59114 -0.02967
#
# Static dielectric constant tensor:
#      x y z
#    x 1.849030 0.010150 -0.001900 
#    y 0.010150 1.862940 -0.033200 
#    z -0.001900 -0.033200 1.894020 
# 
# From -- ./inp_files/26710.got.cif
#   From: 2010.05.17/outbox.cif.g08.bks.cpg/sg2_14_cif.got.tgz:26710.got - 2010.06.03 11:33:40.
