data_PCOD9093005
_publ_section_title
;
Structure prediction by ZEFSAII (Michael W. Deem and Ramdas Pophale) SiO2 
 PCOD9093005
Probable space group: P -1
;
_chemical_formula_sum "Si O2"
_cell_formula_units_Z 16
_cell_length_a 14.136373
_cell_length_b 14.288649
_cell_length_c 15.129625
_cell_angle_alpha 19.822983
_cell_angle_beta 92.995017
_cell_angle_gamma 101.829404
_cell_volume 918.830733
_symmetry_space_group_name_H-M "P -1"
_symmetry_group_IT_number 2
_symmetry_cell_setting 'triclinic'
loop_
_space_group_symop_operation_xyz
x,y,z
-x,-y,-z
loop_
_atom_site_type_symbol
_atom_site_label
_atom_site_fract_x
_atom_site_fract_y
_atom_site_fract_z
Si Si1 0.253323 0.660831 0.301729
Si Si2 0.840982 0.630792 0.269370
Si Si3 0.348165 0.138192 0.257186
Si Si4 0.681213 0.514127 0.208339
Si Si5 0.430681 0.205953 0.517600
Si Si6 0.614930 0.724594 0.345988
Si Si7 0.946480 0.312600 0.752791
Si Si8 0.400331 0.557285 0.049401
O O1 0.223689 0.644211 0.419223
O O2 0.309840 0.441984 0.491045
O O3 0.140629 0.577280 0.321515
O O4 0.332241 0.991957 0.971439
O O5 0.762939 0.620715 0.198030
O O6 0.948641 0.630892 0.237564
O O7 0.883170 0.948954 0.046174
O O8 0.335932 0.300826 0.200576
O O9 0.313998 0.775682 0.582962
O O10 0.296832 0.217806 0.099365
O O11 0.474796 0.307877 0.090488
O O12 0.559651 0.375845 0.361529
O O13 0.402136 0.179309 0.642397
O O14 0.389044 0.405325 0.280170
O O15 0.383611 0.861098 0.781118
O O16 0.500000 0.500000 0.500000
O O17 0.000000 0.500000 0.500000
#
# Coordination Sequence:
#
# PCOD9093005 Si02
#       8
#     2   2   2   2   2   2   2   2
#     4  11  22  37  53  71 106 144 182 216 253 301
#     4  10  20  36  55  79 106 140 173 216 271 321
#     4   9  18  30  48  74  98 136 164 215 261 302
#     4  10  20  30  50  77 107 131 172 208 260 313
#     4  10  20  32  49  72 101 147 177 204 245 298
#     4  12  24  36  50  76 109 145 185 221 248 286
#     4   9  20  36  57  75  99 146 172 216 271 318
#     4   9  17  33  49  66 102 135 178 207 249 310
#
# _framework density 17.413436000000001
#
# number of rings (size 3 to 8) (size 9 to 14) (size 15 to 20)
#    0.000    2.000    1.250    2.625    3.500    5.000 
#    0.000    0.000    0.000    0.000    0.000    0.000 
#    0.000   20.000    0.000    0.000    0.000    0.000 
#
# Total GULP energy -89191.157525 kJ/mol
# GULP energy per Si atom -5574.447345 kJ/mol
# Density = 1.737380 g / cm^3
# Si number density = 17.413436 Si / 1000 Ang^3
#
#
#
# Elastic Constant Matrix: (Units=GPa)
#
#
# Indices 1 2 3 4 5 6 
#
# 1 70.6632 14.1080 11.3748 -3.2692 7.0832 1.2186
# 2 14.1080 41.9995 -5.0777 3.8599 -8.0945 -1.0091
# 3 11.3748 -5.0777 72.7437 8.7011 -0.0041 -3.1246
# 4 -3.2692 3.8599 8.7011 15.0715 -0.3884 5.6548
# 5 7.0832 -8.0945 -0.0041 -0.3884 25.3355 2.7045
# 6 1.2186 -1.0091 -3.1246 5.6548 2.7045 15.7552
#
#
#
# Elastic Compliance Matrix: (Units=1/GPa)
#
#
# Indices 1 2 3 4 5 6 
#
# 1 0.018173 -0.009291 -0.005085 0.011246 -0.007259 -0.005800
# 2 -0.009291 0.031547 0.005911 -0.016096 0.011609 0.007696
# 3 -0.005085 0.005911 0.017305 -0.016180 0.002034 0.009662
# 4 0.011246 -0.016096 -0.016180 0.097000 -0.002588 -0.039480
# 5 -0.007259 0.011609 0.002034 -0.002588 0.045726 -0.005212
# 6 -0.005800 0.007696 0.009662 -0.039480 -0.005212 0.081393
#
#
# Mechanical properties :
#
#
# Convention : Reuss Voigt Hill
#
# Bulk Modulus (GPa) = 19.96161 25.13516 22.54838
# Shear Modulus (GPa) = 15.39542 22.23251 18.81397
#
# Velocity S-wave (km/s) = 2.97663 3.57703 3.29055
# Velocity P-wave (km/s) = 4.82721 5.61479 5.23583
#
# Compressibility (1/GPa) = 0.05009617
#
# Stress axis : x y z
#
# Youngs Moduli (GPa) = 55.02660 31.69860 57.78611
#
# Poissons Ratio (x) = 0.29451 0.29384
# Poissons Ratio (y) = 0.51126 -0.34160
# Poissons Ratio (z) = 0.27981 -0.18738
#
# Static dielectric constant tensor:
#      x y z
#    x 1.635100 0.007510 0.025750 
#    y 0.007510 1.594880 -0.015090 
#    z 0.025750 -0.015090 1.623510 
# 
# From -- ./inp_files/73998.got.cif
#   From: 2010.05.17/outbox.cif.g08.bks.cpg/sg2_37_cif.got.tgz:73998.got - 2010.06.03 11:33:40.
