data_PCOD9093173
_publ_section_title
;
Structure prediction by ZEFSAII (Michael W. Deem and Ramdas Pophale) SiO2 
 PCOD9093173
Probable space group: P -1
;
_chemical_formula_sum "Si O2"
_cell_formula_units_Z 14
_cell_length_a 12.822640
_cell_length_b 8.775198
_cell_length_c 7.685306
_cell_angle_alpha 123.013244
_cell_angle_beta 67.586688
_cell_angle_gamma 121.756142
_cell_volume 611.139632
_symmetry_space_group_name_H-M "P -1"
_symmetry_group_IT_number 2
_symmetry_cell_setting 'triclinic'
loop_
_space_group_symop_operation_xyz
x,y,z
-x,-y,-z
loop_
_atom_site_type_symbol
_atom_site_label
_atom_site_fract_x
_atom_site_fract_y
_atom_site_fract_z
Si Si1 0.651496 0.668967 0.649627
Si Si2 0.151427 0.448919 0.389524
Si Si3 0.005487 0.787313 0.168682
Si Si4 0.229755 0.137822 0.632742
Si Si5 0.884854 0.202357 0.251671
Si Si6 0.819076 0.357097 0.875188
Si Si7 0.610755 0.417767 0.190622
O O1 0.762543 0.661236 0.685360
O O2 0.699477 0.843050 0.582553
O O3 0.612648 0.469435 0.427570
O O4 0.532110 0.664205 0.820922
O O5 0.146597 0.605048 0.634838
O O6 0.197208 0.587495 0.276555
O O7 0.013548 0.294538 0.334463
O O8 0.084484 0.872742 0.996561
O O9 0.910723 0.563988 0.034952
O O10 0.101457 0.773263 0.238677
O O11 0.908105 0.878567 0.331990
O O12 0.309990 0.359772 0.798544
O O13 0.214247 0.970952 0.679182
O O14 0.687917 0.291074 0.013536
#
# Coordination Sequence:
#
# PCOD9093173 Si02
#       7
#     2   2   2   2   2   2   2
#     4   9  18  34  53  75  96 130 171 200 242 293
#     4  10  21  31  48  77 103 135 159 194 255 302
#     4   9  17  30  52  73  99 129 164 204 246 290
#     4   9  18  32  54  77  98 125 168 208 245 281
#     4  10  20  32  49  76 108 125 162 203 250 299
#     4   9  17  31  51  74  98 131 165 201 243 295
#     4   8  17  34  56  70  96 130 175 199 239 286
#
# _framework density 22.908021999999999
#
# number of rings (size 3 to 8) (size 9 to 14) (size 15 to 20)
#    0.857    2.000    0.000    1.286    6.000    1.143 
#    0.000    0.714    0.000    0.857    0.000    0.000 
#    0.000    0.000    0.000    0.000    0.000    0.000 
#
# Total GULP energy -78090.719542 kJ/mol
# GULP energy per Si atom -5577.908539 kJ/mol
# Density = 2.285588 g / cm^3
# Si number density = 22.908022 Si / 1000 Ang^3
#
#
#
# Elastic Constant Matrix: (Units=GPa)
#
#
# Indices 1 2 3 4 5 6 
#
# 1 83.1825 28.4398 29.3805 -16.1819 -25.8760 6.1246
# 2 28.4398 73.5869 26.3559 -20.5120 -9.4197 3.0359
# 3 29.3805 26.3559 69.5146 -12.1987 -22.5723 1.9719
# 4 -16.1819 -20.5120 -12.1987 35.9441 1.3310 0.5110
# 5 -25.8760 -9.4197 -22.5723 1.3310 32.2431 -7.5662
# 6 6.1246 3.0359 1.9719 0.5110 -7.5662 13.9749
#
#
#
# Elastic Compliance Matrix: (Units=1/GPa)
#
#
# Indices 1 2 3 4 5 6 
#
# 1 0.018811 -0.003560 -0.001529 0.005460 0.012614 -0.000625
# 2 -0.003560 0.018666 -0.004725 0.007554 -0.001738 -0.003045
# 3 -0.001529 -0.004725 0.021763 0.003401 0.013902 0.006028
# 4 0.005460 0.007554 0.003401 0.035512 0.007033 -0.002005
# 5 0.012614 -0.001738 0.013902 0.007033 0.055378 0.022613
# 6 -0.000625 -0.003045 0.006028 -0.002005 0.022613 0.083958
#
#
# Mechanical properties :
#
#
# Convention : Reuss Voigt Hill
#
# Bulk Modulus (GPa) = 25.24456 43.84848 34.54652
# Shear Modulus (GPa) = 18.73216 25.90627 22.31922
#
# Velocity S-wave (km/s) = 2.86267 3.36651 3.12476
# Velocity P-wave (km/s) = 4.68726 5.85609 5.30397
#
# Compressibility (1/GPa) = 0.03961250
#
# Stress axis : x y z
#
# Youngs Moduli (GPa) = 53.16039 53.57273 45.94912
#
# Poissons Ratio (x) = 0.19072 0.07026
# Poissons Ratio (y) = 0.18925 0.21711
# Poissons Ratio (z) = 0.08128 0.25313
#
# Static dielectric constant tensor:
#      x y z
#    x 1.860660 -0.010770 -0.005080 
#    y -0.010770 1.883720 0.032620 
#    z -0.005080 0.032620 1.948230 
# 
# From -- ./inp_files/240280.got.cif
#   From: 2010.05.17/outbox.cif.g08.bks.cpg/sg2_121_cif.got.tgz:240280.got - 2010.06.03 11:33:40.
