data_PCOD9093276
_publ_section_title
;
Structure prediction by ZEFSAII (Michael W. Deem and Ramdas Pophale) SiO2 
 PCOD9093276
Probable space group: P -1
;
_chemical_formula_sum "Si O2"
_cell_formula_units_Z 16
_cell_length_a 16.089134
_cell_length_b 9.746012
_cell_length_c 5.306815
_cell_angle_alpha 127.083020
_cell_angle_beta 105.069814
_cell_angle_gamma 64.658564
_cell_volume 599.964026
_symmetry_space_group_name_H-M "P -1"
_symmetry_group_IT_number 2
_symmetry_cell_setting 'triclinic'
loop_
_space_group_symop_operation_xyz
x,y,z
-x,-y,-z
loop_
_atom_site_type_symbol
_atom_site_label
_atom_site_fract_x
_atom_site_fract_y
_atom_site_fract_z
Si Si1 0.375771 0.200754 0.024221
Si Si2 0.468835 0.239134 0.643809
Si Si3 0.203606 0.102635 0.736229
Si Si4 0.089611 0.299027 0.481357
Si Si5 0.646626 0.322475 0.953785
Si Si6 0.739300 0.355273 0.565014
Si Si7 0.049211 0.043005 0.832118
Si Si8 0.890482 0.490888 0.689891
O O1 0.441142 0.174718 0.286835
O O2 0.316417 0.420756 0.220567
O O3 0.430821 0.160305 0.762508
O O4 0.306357 0.088248 0.858478
O O5 0.411583 0.459419 0.854464
O O6 0.573697 0.223190 0.742274
O O7 0.166451 0.110482 0.429756
O O8 0.154686 0.998017 0.758636
O O9 0.151869 0.327920 0.972928
O O10 0.998470 0.383401 0.666701
O O11 0.134667 0.433534 0.533738
O O12 0.039809 0.249065 0.137714
O O13 0.693211 0.286929 0.222268
O O14 0.718839 0.281497 0.735436
O O15 0.840679 0.350487 0.570142
O O16 0.000000 0.000000 0.500000
O O17 0.000000 0.000000 0.000000
#
# Coordination Sequence:
#
# PCOD9093276 Si02
#       8
#     2   2   2   2   2   2   2   2
#     4   9  18  25  43  63  89 120 160 201 234 274
#     4   9  16  26  38  59  86 121 163 197 227 278
#     4  10  20  32  54  72 103 131 172 202 251 292
#     4  10  20  35  52  74  99 135 171 210 244 293
#     4   9  16  26  39  56  85 127 163 191 231 278
#     4   9  17  27  41  60  90 125 162 197 232 278
#     4  11  22  38  54  72  95 131 171 207 252 298
#     4   9  20  31  49  77 101 133 171 211 242 284
#
# _framework density 26.668263
#
# number of rings (size 3 to 8) (size 9 to 14) (size 15 to 20)
#    0.000    2.500    1.250    1.125   10.500    3.000 
#    0.000    0.000    0.000    0.000    0.000    0.000 
#    0.000    0.000    0.000   22.500    0.000   25.000 
#
# Total GULP energy -89367.814783 kJ/mol
# GULP energy per Si atom -5585.488424 kJ/mol
# Density = 2.660757 g / cm^3
# Si number density = 26.668263 Si / 1000 Ang^3
#
#
#
# Elastic Constant Matrix: (Units=GPa)
#
#
# Indices 1 2 3 4 5 6 
#
# 1 149.6600 40.9459 70.4035 -4.0609 8.8460 45.3773
# 2 40.9459 122.9227 30.1464 -9.4055 16.3594 33.7426
# 3 70.4035 30.1464 135.3813 -19.1296 3.2714 22.1509
# 4 -4.0609 -9.4055 -19.1296 34.4286 11.8605 -1.5201
# 5 8.8460 16.3594 3.2714 11.8605 43.3492 2.9090
# 6 45.3773 33.7426 22.1509 -1.5201 2.9090 52.8948
#
#
#
# Elastic Compliance Matrix: (Units=1/GPa)
#
#
# Indices 1 2 3 4 5 6 
#
# 1 0.011305 -0.000597 -0.004739 -0.001504 -0.000821 -0.007331
# 2 -0.000597 0.011018 -0.000489 0.004025 -0.004702 -0.005937
# 3 -0.004739 -0.000489 0.010784 0.005729 -0.001236 0.000094
# 4 -0.001504 0.004025 0.005729 0.037080 -0.011658 -0.001970
# 5 -0.000821 -0.004702 -0.001236 -0.011658 0.028136 0.002339
# 6 -0.007331 -0.005937 0.000094 -0.001970 0.002339 0.028757
#
#
# Mechanical properties :
#
#
# Convention : Reuss Voigt Hill
#
# Bulk Modulus (GPa) = 46.60710 76.77283 61.68997
# Shear Modulus (GPa) = 34.27392 43.89906 39.08649
#
# Velocity S-wave (km/s) = 3.58885 4.06164 3.83254
# Velocity P-wave (km/s) = 5.88963 7.13067 6.53965
#
# Compressibility (1/GPa) = 0.02145596
#
# Stress axis : x y z
#
# Youngs Moduli (GPa) = 88.45562 90.76451 92.72912
#
# Poissons Ratio (x) = 0.05418 0.43948
# Poissons Ratio (y) = 0.05280 0.04535
# Poissons Ratio (z) = 0.41922 0.04439
#
# Static dielectric constant tensor:
#      x y z
#    x 2.135020 -0.023180 -0.150840 
#    y -0.023180 2.484670 -0.293640 
#    z -0.150840 -0.293640 2.665440 
# 
# From -- ./inp_files/80049.got.cif
#   From: 2010.05.17/outbox.cif.g08.bks.cpg/sg2_41_cif.got.tgz:80049.got - 2010.06.03 11:33:40.
