data_PCOD9093814
_publ_section_title
;
Structure prediction by ZEFSAII (Michael W. Deem and Ramdas Pophale) SiO2 
 PCOD9093814
Probable space group: P -1
;
_chemical_formula_sum "Si O2"
_cell_formula_units_Z 16
_cell_length_a 10.988995
_cell_length_b 20.059899
_cell_length_c 8.752066
_cell_angle_alpha 92.428687
_cell_angle_beta 82.756334
_cell_angle_gamma 152.509833
_cell_volume 873.217400
_symmetry_space_group_name_H-M "P -1"
_symmetry_group_IT_number 2
_symmetry_cell_setting 'triclinic'
loop_
_space_group_symop_operation_xyz
x,y,z
-x,-y,-z
loop_
_atom_site_type_symbol
_atom_site_label
_atom_site_fract_x
_atom_site_fract_y
_atom_site_fract_z
Si Si1 0.758882 0.611156 0.072106
Si Si2 0.787638 0.957488 0.570593
Si Si3 0.489401 0.855855 0.303951
Si Si4 0.994703 0.401100 0.846890
Si Si5 0.290959 0.164397 0.913937
Si Si6 0.729065 0.072944 0.063277
Si Si7 0.914146 0.813651 0.223909
Si Si8 0.641387 0.302730 0.141067
O O1 0.781955 0.677247 0.211541
O O2 0.805594 0.560698 0.127365
O O3 0.500000 0.500000 0.000000
O O4 0.019622 0.756106 0.941639
O O5 0.602437 0.896531 0.458070
O O6 0.577258 0.830545 0.719642
O O7 0.000000 0.000000 0.500000
O O8 0.964945 0.102909 0.629142
O O9 0.179604 0.707479 0.281955
O O10 0.593077 0.841079 0.197116
O O11 0.623244 0.986342 0.222127
O O12 0.145856 0.543672 0.803061
O O13 0.799000 0.323988 0.015486
O O14 0.276755 0.221477 0.814343
O O15 0.476581 0.266207 0.039824
O O16 0.000000 0.000000 0.000000
O O17 0.844141 0.073000 0.928231
O O18 0.500000 0.000000 0.000000
#
# Coordination Sequence:
#
# PCOD9093814 Si02
#       8
#     2   2   2   2   2   2   2   2
#     4  10  21  36  65  92 115 148 204 270 305 346
#     4  12  23  35  57  93 129 161 196 248 307 370
#     4  11  20  34  57  85 120 158 198 244 303 360
#     4  10  21  40  61  86 116 159 208 257 299 358
#     4  11  15  31  56  84 109 147 198 253 288 337
#     4  10  20  37  62  84 114 157 210 259 290 355
#     4  10  20  33  58  86 121 150 202 252 298 352
#     4  10  22  36  61  88 121 153 206 254 303 354
#
# _framework density 18.323043999999999
#
# number of rings (size 3 to 8) (size 9 to 14) (size 15 to 20)
#    0.750    0.750    5.000    1.500    0.000    0.500 
#    0.000    2.500    0.000    1.500    0.000    0.000 
#    0.000    0.000    0.000    0.000    0.000    0.000 
#
# Total GULP energy -89073.375715 kJ/mol
# GULP energy per Si atom -5567.085982 kJ/mol
# Density = 1.828134 g / cm^3
# Si number density = 18.323044 Si / 1000 Ang^3
#
#
#
# Elastic Constant Matrix: (Units=GPa)
#
#
# Indices 1 2 3 4 5 6 
#
# 1 100.2059 24.5060 21.8302 8.6429 20.1937 5.3985
# 2 24.5060 77.0590 28.3935 19.3647 6.1076 8.1311
# 3 21.8302 28.3935 66.2796 21.1179 21.3038 1.6081
# 4 8.6429 19.3647 21.1179 28.9487 7.2830 2.6273
# 5 20.1937 6.1076 21.3038 7.2830 29.2077 7.5285
# 6 5.3985 8.1311 1.6081 2.6273 7.5285 31.2128
#
#
#
# Elastic Compliance Matrix: (Units=1/GPa)
#
#
# Indices 1 2 3 4 5 6 
#
# 1 0.012400 -0.003465 -0.000297 0.000785 -0.007992 0.000635
# 2 -0.003465 0.018301 -0.006038 -0.007927 0.006154 -0.004674
# 3 -0.000297 -0.006038 0.026621 -0.011641 -0.016383 0.005184
# 4 0.000785 -0.007927 -0.011641 0.048774 -0.002292 -0.001023
# 5 -0.007992 0.006154 -0.016383 -0.002292 0.054153 -0.012246
# 6 0.000635 -0.004674 0.005184 -0.001023 -0.012246 0.035919
#
#
# Mechanical properties :
#
#
# Convention : Reuss Voigt Hill
#
# Bulk Modulus (GPa) = 26.50846 43.66711 35.08779
# Shear Modulus (GPa) = 21.89701 29.12815 25.51258
#
# Velocity S-wave (km/s) = 3.46070 3.99143 3.73550
# Velocity P-wave (km/s) = 5.51972 6.71756 6.14788
#
# Compressibility (1/GPa) = 0.03772380
#
# Stress axis : x y z
#
# Youngs Moduli (GPa) = 80.64492 54.64110 37.56438
#
# Poissons Ratio (x) = 0.18933 0.01114
# Poissons Ratio (y) = 0.27943 0.22680
# Poissons Ratio (z) = 0.02392 0.32990
#
# Static dielectric constant tensor:
#      x y z
#    x 1.672640 0.019770 0.003250 
#    y 0.019770 1.836780 0.090960 
#    z 0.003250 0.090960 1.666450 
# 
# From -- ./inp_files/281094.got.cif
#   From: 2010.05.17/outbox.cif.g08.bks.cpg/sg2_141_cif.got.tgz:281094.got - 2010.06.03 11:33:40.
