data_PCOD9093239
_publ_section_title
;
Structure prediction by ZEFSAII (Michael W. Deem and Ramdas Pophale) SiO2 
 PCOD9093239
Probable space group: P -1
;
_chemical_formula_sum "Si O2"
_cell_formula_units_Z 16
_cell_length_a 5.214753
_cell_length_b 13.718038
_cell_length_c 18.243562
_cell_angle_alpha 132.001014
_cell_angle_beta 58.921904
_cell_angle_gamma 125.730139
_cell_volume 770.085936
_symmetry_space_group_name_H-M "P -1"
_symmetry_group_IT_number 2
_symmetry_cell_setting 'triclinic'
loop_
_space_group_symop_operation_xyz
x,y,z
-x,-y,-z
loop_
_atom_site_type_symbol
_atom_site_label
_atom_site_fract_x
_atom_site_fract_y
_atom_site_fract_z
Si Si1 0.404674 0.131762 0.558188
Si Si2 0.839727 0.897763 0.880300
Si Si3 0.192032 0.211757 0.019324
Si Si4 0.660806 0.989321 0.638017
Si Si5 0.838340 0.257497 0.906112
Si Si6 0.826967 0.529666 0.920709
Si Si7 0.417519 0.062017 0.207645
Si Si8 0.499091 0.747042 0.247657
O O1 0.570804 0.250094 0.653812
O O2 0.023717 0.082902 0.605675
O O3 0.500000 0.000000 0.500000
O O4 0.465847 0.139698 0.466209
O O5 0.679071 0.801489 0.925266
O O6 0.678472 0.858594 0.804811
O O7 0.200343 0.897567 0.825601
O O8 0.901817 0.060770 0.975305
O O9 0.120054 0.351450 0.089050
O O10 0.466417 0.227987 0.924811
O O11 0.478461 0.099888 0.710707
O O12 0.673506 0.938329 0.693283
O O13 0.164368 0.278945 0.824090
O O14 0.767613 0.101955 0.870301
O O15 0.911923 0.389837 0.016132
O O16 0.778646 0.380224 0.816915
O O17 0.500000 0.500000 0.000000
#
# Coordination Sequence:
#
# PCOD9093239 Si02
#       8
#     2   2   2   2   2   2   2   2
#     4   9  19  34  54  79 111 142 179 234 294 348
#     4  10  23  35  60  80 114 159 195 242 285 321
#     4  10  22  37  51  79 116 154 200 235 272 325
#     4  10  20  33  55  81 114 140 184 237 291 352
#     4  10  20  32  52  73 118 148 190 225 271 328
#     4  10  22  33  51  78 113 156 197 225 275 337
#     4  11  20  35  58  83 110 153 190 239 289 334
#     4  10  20  34  52  80 114 157 188 223 286 344
#
# _framework density 20.776902
#
# number of rings (size 3 to 8) (size 9 to 14) (size 15 to 20)
#    0.000    2.000    2.500    0.750    8.750    4.500 
#    0.000    0.000    0.000    0.000    0.000    1.750 
#    0.000    0.000    0.000    0.000    0.000    0.000 
#
# Total GULP energy -89075.476846 kJ/mol
# GULP energy per Si atom -5567.217303 kJ/mol
# Density = 2.072961 g / cm^3
# Si number density = 20.776902 Si / 1000 Ang^3
#
#
#
# Elastic Constant Matrix: (Units=GPa)
#
#
# Indices 1 2 3 4 5 6 
#
# 1 83.2902 28.5954 40.5120 -13.2365 11.9740 -13.1806
# 2 28.5954 72.1449 29.4647 -11.9709 5.9165 -13.7098
# 3 40.5120 29.4647 146.2318 -9.3984 30.7936 -7.3185
# 4 -13.2365 -11.9709 -9.3984 25.2949 -8.2596 12.1116
# 5 11.9740 5.9165 30.7936 -8.2596 35.0196 -10.4615
# 6 -13.1806 -13.7098 -7.3185 12.1116 -10.4615 38.0046
#
#
#
# Elastic Compliance Matrix: (Units=1/GPa)
#
#
# Indices 1 2 3 4 5 6 
#
# 1 0.015940 -0.003900 -0.003174 0.004199 -0.000393 0.002063
# 2 -0.003900 0.017717 -0.002608 0.004433 0.002847 0.003907
# 3 -0.003174 -0.002608 0.009739 -0.000857 -0.007854 -0.002055
# 4 0.004199 0.004433 -0.000857 0.051380 0.007256 -0.011486
# 5 -0.000393 0.002847 -0.007854 0.007256 0.039171 0.007848
# 6 0.002063 0.003907 -0.002055 -0.011486 0.007848 0.033863
#
#
# Mechanical properties :
#
#
# Convention : Reuss Voigt Hill
#
# Bulk Modulus (GPa) = 41.61390 55.42345 48.51868
# Shear Modulus (GPa) = 25.61675 33.20347 29.41011
#
# Velocity S-wave (km/s) = 3.51514 4.00196 3.76642
# Velocity P-wave (km/s) = 6.04544 6.93452 6.50519
#
# Compressibility (1/GPa) = 0.02403043
#
# Stress axis : x y z
#
# Youngs Moduli (GPa) = 62.73701 56.44370 102.67667
#
# Poissons Ratio (x) = 0.22015 0.32589
# Poissons Ratio (y) = 0.24470 0.26780
# Poissons Ratio (z) = 0.19913 0.14722
#
# Static dielectric constant tensor:
#      x y z
#    x 1.929660 -0.019170 0.037370 
#    y -0.019170 1.761010 -0.035970 
#    z 0.037370 -0.035970 1.832470 
# 
# From -- ./inp_files/549952.got.cif
#   From: 2010.05.17/outbox.cif.g08.bks.cpg/sg2_275_cif.got.tgz:549952.got - 2010.06.03 11:33:40.
