data_PCOD9093923
_publ_section_title
;
Structure prediction by ZEFSAII (Michael W. Deem and Ramdas Pophale) SiO2 
 PCOD9093923
Probable space group: P -1
;
_chemical_formula_sum "Si O2"
_cell_formula_units_Z 16
_cell_length_a 11.840499
_cell_length_b 11.699574
_cell_length_c 12.818987
_cell_angle_alpha 53.475554
_cell_angle_beta 73.565114
_cell_angle_gamma 115.566564
_cell_volume 859.290235
_symmetry_space_group_name_H-M "P -1"
_symmetry_group_IT_number 2
_symmetry_cell_setting 'triclinic'
loop_
_space_group_symop_operation_xyz
x,y,z
-x,-y,-z
loop_
_atom_site_type_symbol
_atom_site_label
_atom_site_fract_x
_atom_site_fract_y
_atom_site_fract_z
Si Si1 0.387454 0.430539 0.960266
Si Si2 0.482845 0.946510 0.366632
Si Si3 0.245103 0.635127 0.077334
Si Si4 0.023745 0.146847 0.328455
Si Si5 0.376025 0.094941 0.451045
Si Si6 0.749963 0.403275 0.570930
Si Si7 0.505550 0.730108 0.122921
Si Si8 0.150022 0.754209 0.208726
O O1 0.469660 0.654992 0.774169
O O2 0.434947 0.357564 0.901284
O O3 0.500000 0.500000 0.000000
O O4 0.168585 0.230696 0.156435
O O5 0.550473 0.904882 0.461951
O O6 0.377912 0.765093 0.400430
O O7 0.352827 0.944260 0.456109
O O8 0.660553 0.197319 0.135492
O O9 0.126517 0.383827 0.218715
O O10 0.414703 0.742334 0.049344
O O11 0.130276 0.640721 0.172182
O O12 0.000000 0.000000 0.500000
O O13 0.816670 0.001361 0.429461
O O14 0.648694 0.420179 0.663885
O O15 0.788350 0.298616 0.688127
O O16 0.954390 0.641577 0.350323
O O17 0.683323 0.977590 0.989890
#
# Coordination Sequence:
#
# PCOD9093923 Si02
#       8
#     2   2   2   2   2   2   2   2
#     4  12  23  42  62  87 126 160 201 258 305 358
#     4  11  21  42  65  85 133 159 199 258 305 370
#     4  11  19  37  62  91 125 158 196 257 312 349
#     4  12  24  39  65  93 123 162 206 255 305 364
#     4  11  25  41  61  95 118 168 207 244 313 368
#     4  10  20  36  59  91 119 158 198 256 302 354
#     4  11  20  36  61  89 122 154 203 248 309 353
#     4  10  20  33  61  93 118 153 207 251 305 358
#
# _framework density 18.62002
#
# number of rings (size 3 to 8) (size 9 to 14) (size 15 to 20)
#    0.000    1.000    6.250    1.500    0.000    4.500 
#    2.250    0.625    0.000    1.500    0.000    0.000 
#    0.000    0.000    0.000    0.000    0.000    0.000 
#
# Total GULP energy -89353.013240 kJ/mol
# GULP energy per Si atom -5584.563328 kJ/mol
# Density = 1.857764 g / cm^3
# Si number density = 18.620020 Si / 1000 Ang^3
#
#
#
# Elastic Constant Matrix: (Units=GPa)
#
#
# Indices 1 2 3 4 5 6 
#
# 1 91.2733 28.0812 56.6413 19.3489 -16.2108 -18.0052
# 2 28.0812 77.1942 24.1908 21.1069 -3.7854 -20.4950
# 3 56.6413 24.1908 112.5127 12.5733 -10.4773 0.7339
# 4 19.3489 21.1069 12.5733 28.0654 -4.4109 -5.0375
# 5 -16.2108 -3.7854 -10.4773 -4.4109 40.3068 11.8160
# 6 -18.0052 -20.4950 0.7339 -5.0375 11.8160 23.6270
#
#
#
# Elastic Compliance Matrix: (Units=1/GPa)
#
#
# Indices 1 2 3 4 5 6 
#
# 1 0.022369 0.002393 -0.010830 -0.009208 0.000316 0.017337
# 2 0.002393 0.023090 -0.005380 -0.013596 -0.006282 0.022262
# 3 -0.010830 -0.005380 0.015677 0.002433 0.003818 -0.014798
# 4 -0.009208 -0.013596 0.002433 0.049913 0.004138 -0.010313
# 5 0.000316 -0.006282 0.003818 0.004138 0.031750 -0.020323
# 6 0.017337 0.022262 -0.014798 -0.010313 -0.020323 0.083272
#
#
# Mechanical properties :
#
#
# Convention : Reuss Voigt Hill
#
# Bulk Modulus (GPa) = 29.84961 55.42298 42.63630
# Shear Modulus (GPa) = 18.87708 29.87098 24.37403
#
# Velocity S-wave (km/s) = 3.18749 4.00964 3.62197
# Velocity P-wave (km/s) = 5.44174 7.16004 6.35919
#
# Compressibility (1/GPa) = 0.03350127
#
# Stress axis : x y z
#
# Youngs Moduli (GPa) = 44.70487 43.30912 63.78827
#
# Poissons Ratio (x) = -0.10363 0.69084
# Poissons Ratio (y) = -0.10697 0.34317
# Poissons Ratio (z) = 0.48416 0.23300
#
# Static dielectric constant tensor:
#      x y z
#    x 1.634130 -0.025230 -0.027830 
#    y -0.025230 1.644260 0.005880 
#    z -0.027830 0.005880 1.642920 
# 
# From -- ./inp_files/427567.got.cif
#   From: 2010.05.17/outbox.cif.g08.bks.cpg/sg2_214_cif.got.tgz:427567.got - 2010.06.03 11:33:40.
