data_PCOD9093011
_publ_section_title
;
Structure prediction by ZEFSAII (Michael W. Deem and Ramdas Pophale) SiO2 
 PCOD9093011
Probable space group: P -1
;
_chemical_formula_sum "Si O2"
_cell_formula_units_Z 15
_cell_length_a 5.640042
_cell_length_b 20.419409
_cell_length_c 11.083411
_cell_angle_alpha 151.371870
_cell_angle_beta 85.556356
_cell_angle_gamma 81.874611
_cell_volume 548.057455
_symmetry_space_group_name_H-M "P -1"
_symmetry_group_IT_number 2
_symmetry_cell_setting 'triclinic'
loop_
_space_group_symop_operation_xyz
x,y,z
-x,-y,-z
loop_
_atom_site_type_symbol
_atom_site_label
_atom_site_fract_x
_atom_site_fract_y
_atom_site_fract_z
Si Si1 0.130879 0.818572 0.063700
Si Si2 0.671968 0.102953 0.446446
Si Si3 0.142747 0.471350 0.664928
Si Si4 0.827335 0.271552 0.516157
Si Si5 0.689368 0.885256 0.904669
Si Si6 0.382996 0.182298 0.811231
Si Si7 0.665060 0.436780 0.554612
Si Si8 0.000000 0.500000 0.000000
O O1 0.357258 0.512888 0.657367
O O2 0.196895 0.715408 0.775017
O O3 0.918123 0.780196 0.084374
O O4 0.957760 0.999445 0.329292
O O5 0.682858 0.204318 0.499268
O O6 0.456564 0.215315 0.727690
O O7 0.615146 0.971382 0.173610
O O8 0.285781 0.284239 0.357567
O O9 0.865954 0.513881 0.672973
O O10 0.076043 0.518619 0.882806
O O11 0.648792 0.400661 0.638840
O O12 0.028284 0.147299 0.217158
O O13 0.973147 0.346132 0.712492
O O14 0.500000 0.000000 0.000000
O O15 0.500000 0.000000 0.500000
O O16 0.592267 0.207769 0.929757
#
# Coordination Sequence:
#
# PCOD9093011 Si02
#       8
#     2   2   2   2   2   2   2   1
#     4  11  21  38  56  80 124 152 193 236 281 359
#     4  11  20  34  52  85 121 151 195 234 290 354
#     4  10  20  35  55  80 112 154 189 230 282 339
#     4  10  21  35  56  85 117 158 186 244 290 346
#     4  10  20  30  51  86 123 150 182 231 292 358
#     4  10  23  36  53  80 116 166 187 233 285 344
#     4  10  20  35  57  86 110 152 190 233 293 341
#     4   8  20  40  54  82 120 152 202 228 290 354
#
# _framework density 27.369392999999999
#
# number of rings (size 3 to 8) (size 9 to 14) (size 15 to 20)
#    0.000    2.133    2.667    3.600    3.733    3.200 
#    0.000    0.000    0.000    0.000    0.000   13.067 
#    0.000    0.000    0.000    0.000    0.000    0.000 
#
# Total GULP energy -83704.765689 kJ/mol
# GULP energy per Si atom -5580.317713 kJ/mol
# Density = 2.730710 g / cm^3
# Si number density = 27.369393 Si / 1000 Ang^3
#
#
#
# Elastic Constant Matrix: (Units=GPa)
#
#
# Indices 1 2 3 4 5 6 
#
# 1 177.9412 47.2990 57.9181 -10.8635 -13.3317 9.2042
# 2 47.2990 93.7126 36.5304 -19.1147 -3.0424 18.8196
# 3 57.9181 36.5304 112.5229 -25.7403 0.1227 -8.0195
# 4 -10.8635 -19.1147 -25.7403 58.0601 -4.0200 -0.2217
# 5 -13.3317 -3.0424 0.1227 -4.0200 56.3664 9.4325
# 6 9.2042 18.8196 -8.0195 -0.2217 9.4325 49.4056
#
#
#
# Elastic Compliance Matrix: (Units=1/GPa)
#
#
# Indices 1 2 3 4 5 6 
#
# 1 0.007494 -0.002256 -0.003395 -0.000723 0.001848 -0.001444
# 2 -0.002256 0.015081 -0.003469 0.003088 0.001540 -0.006167
# 3 -0.003395 -0.003469 0.012961 0.003884 -0.001470 0.004356
# 4 -0.000723 0.003088 0.003884 0.019929 0.001510 -0.000610
# 5 0.001848 0.001540 -0.001470 0.001510 0.019180 -0.004825
# 6 -0.001444 -0.006167 0.004356 -0.000610 -0.004825 0.024484
#
#
# Mechanical properties :
#
#
# Convention : Reuss Voigt Hill
#
# Bulk Modulus (GPa) = 57.82365 74.18575 66.00470
# Shear Modulus (GPa) = 40.60606 48.92837 44.76722
#
# Velocity S-wave (km/s) = 3.85597 4.23271 4.04873
# Velocity P-wave (km/s) = 6.40294 7.14507 6.78416
#
# Compressibility (1/GPa) = 0.01729396
#
# Stress axis : x y z
#
# Youngs Moduli (GPa) = 133.44691 66.31055 77.15253
#
# Poissons Ratio (x) = 0.14963 0.26193
# Poissons Ratio (y) = 0.30112 0.26767
# Poissons Ratio (z) = 0.45305 0.23005
#
# Static dielectric constant tensor:
#      x y z
#    x 2.144610 -0.081170 0.020300 
#    y -0.081170 2.243610 0.059580 
#    z 0.020300 0.059580 2.167880 
# 
# From -- ./inp_files/404336.got.cif
#   From: 2010.05.17/outbox.cif.g08.bks.cpg/sg2_203_cif.got.tgz:404336.got - 2010.06.03 11:33:40.
