data_PCOD9093648
_publ_section_title
;
Structure prediction by ZEFSAII (Michael W. Deem and Ramdas Pophale) SiO2 
 PCOD9093648
Probable space group: P -1
;
_chemical_formula_sum "Si O2"
_cell_formula_units_Z 12
_cell_length_a 14.289848
_cell_length_b 17.642743
_cell_length_c 11.147608
_cell_angle_alpha 142.436265
_cell_angle_beta 160.824737
_cell_angle_gamma 34.012993
_cell_volume 515.645412
_symmetry_space_group_name_H-M "P -1"
_symmetry_group_IT_number 2
_symmetry_cell_setting 'triclinic'
loop_
_space_group_symop_operation_xyz
x,y,z
-x,-y,-z
loop_
_atom_site_type_symbol
_atom_site_label
_atom_site_fract_x
_atom_site_fract_y
_atom_site_fract_z
Si Si1 0.450827 0.874616 0.934497
Si Si2 0.102664 0.998998 0.420669
Si Si3 0.566641 0.744401 0.545329
Si Si4 0.643052 0.591024 0.214224
Si Si5 0.596337 0.476267 0.383115
Si Si6 0.832358 0.333294 0.708821
O O1 0.272891 0.951285 0.695261
O O2 0.415465 0.732846 0.697389
O O3 0.256390 0.939310 0.900549
O O4 0.773413 0.891967 0.345211
O O5 0.244511 0.865441 0.342106
O O6 0.609950 0.711922 0.416297
O O7 0.610793 0.604022 0.490003
O O8 0.848385 0.772971 0.981989
O O9 0.000000 0.500000 0.500000
O O10 0.500000 0.500000 0.000000
O O11 0.465758 0.619695 0.909238
O O12 0.868005 0.393159 0.699235
O O13 0.305152 0.549309 0.211672
#
# Coordination Sequence:
#
# PCOD9093648 Si02
#       6
#     2   2   2   2   2   2
#     4  10  20  34  51  83 111 143 176 233 274 320
#     4  10  20  33  55  80 110 139 188 227 274 312
#     4  11  20  35  59  81 112 145 190 229 273 326
#     4  10  21  38  55  78 113 147 186 223 269 328
#     4  10  22  35  52  85 112 150 176 227 283 333
#     4  11  20  34  56  80 119 140 184 224 283 335
#
# _framework density 23.271808
#
# number of rings (size 3 to 8) (size 9 to 14) (size 15 to 20)
#    0.000    1.667    3.333    3.500    0.000    0.000 
#    0.000    0.000    0.000    2.000    0.000    0.000 
#    0.000    2.667    0.000    0.000    0.000    0.000 
#
# Total GULP energy -67014.467843 kJ/mol
# GULP energy per Si atom -5584.538987 kJ/mol
# Density = 2.321884 g / cm^3
# Si number density = 23.271808 Si / 1000 Ang^3
#
#
#
# Elastic Constant Matrix: (Units=GPa)
#
#
# Indices 1 2 3 4 5 6 
#
# 1 127.0335 51.1197 55.5634 10.9031 -7.9913 -35.8069
# 2 51.1197 87.5095 27.9353 19.2123 -2.9532 -33.6942
# 3 55.5634 27.9353 65.5602 12.5533 2.5918 -3.7071
# 4 10.9031 19.2123 12.5533 27.5800 -7.7878 5.7970
# 5 -7.9913 -2.9532 2.5918 -7.7878 52.8051 9.8722
# 6 -35.8069 -33.6942 -3.7071 5.7970 9.8722 47.2015
#
#
#
# Elastic Compliance Matrix: (Units=1/GPa)
#
#
# Indices 1 2 3 4 5 6 
#
# 1 0.017803 -0.000848 -0.013578 -0.002598 0.000685 0.012010
# 2 -0.000848 0.026586 -0.004897 -0.022182 -0.005763 0.021880
# 3 -0.013578 -0.004897 0.028838 -0.002687 -0.002130 -0.010756
# 4 -0.002598 -0.022182 -0.002687 0.063714 0.013244 -0.028611
# 5 0.000685 -0.005763 -0.002130 0.013244 0.022670 -0.010130
# 6 0.012010 0.021880 -0.010756 -0.028611 -0.010130 0.050703
#
#
# Mechanical properties :
#
#
# Convention : Reuss Voigt Hill
#
# Bulk Modulus (GPa) = 28.91760 61.03781 44.97770
# Shear Modulus (GPa) = 19.19483 35.21630 27.20557
#
# Velocity S-wave (km/s) = 2.87507 3.89428 3.42283
# Velocity P-wave (km/s) = 4.84503 6.81951 5.91524
#
# Compressibility (1/GPa) = 0.03458102
#
# Stress axis : x y z
#
# Youngs Moduli (GPa) = 56.16980 37.61394 34.67667
#
# Poissons Ratio (x) = 0.03189 0.47083
# Poissons Ratio (y) = 0.04762 0.16983
# Poissons Ratio (z) = 0.76266 0.18421
#
# Static dielectric constant tensor:
#      x y z
#    x 1.879580 -0.003180 0.044770 
#    y -0.003180 1.949890 0.007930 
#    z 0.044770 0.007930 1.953370 
# 
# From -- ./inp_files/75130.got.cif
#   From: 2010.05.17/outbox.cif.g08.bks.cpg/sg2_38_cif.got.tgz:75130.got - 2010.06.03 11:33:40.
