data_PCOD9093618
_publ_section_title
;
Structure prediction by ZEFSAII (Michael W. Deem and Ramdas Pophale) SiO2 
 PCOD9093618
Probable space group: P -1
;
_chemical_formula_sum "Si O2"
_cell_formula_units_Z 16
_cell_length_a 25.068569
_cell_length_b 5.701017
_cell_length_c 7.129085
_cell_angle_alpha 44.126684
_cell_angle_beta 128.015279
_cell_angle_gamma 113.157418
_cell_volume 556.665360
_symmetry_space_group_name_H-M "P -1"
_symmetry_group_IT_number 2
_symmetry_cell_setting 'triclinic'
loop_
_space_group_symop_operation_xyz
x,y,z
-x,-y,-z
loop_
_atom_site_type_symbol
_atom_site_label
_atom_site_fract_x
_atom_site_fract_y
_atom_site_fract_z
Si Si1 0.330522 0.756540 0.789556
Si Si2 0.080277 0.640096 0.908205
Si Si3 0.831037 0.781209 0.181721
Si Si4 0.454081 0.352025 0.213456
Si Si5 0.291232 0.805111 0.236840
Si Si6 0.956098 0.344590 0.745380
Si Si7 0.415543 0.396484 0.668887
Si Si8 0.204836 0.162865 0.352628
O O1 0.309201 0.771554 0.515812
O O2 0.377506 0.065844 0.740019
O O3 0.260645 0.848896 0.702479
O O4 0.383047 0.425051 0.130077
O O5 0.058557 0.661827 0.062700
O O6 0.133523 0.307474 0.202972
O O7 0.010998 0.612089 0.660815
O O8 0.120045 0.963379 0.764017
O O9 0.880112 0.441005 0.450536
O O10 0.814360 0.901138 0.867070
O O11 0.759023 0.850143 0.094527
O O12 0.510665 0.594597 0.267102
O O13 0.500000 0.000000 0.500000
O O14 0.431705 0.422736 0.910078
O O15 0.361531 0.722786 0.324402
O O16 0.247695 0.490826 0.275427
O O17 0.000000 0.000000 0.000000
#
# Coordination Sequence:
#
# PCOD9093618 Si02
#       8
#     2   2   2   2   2   2   2   2
#     4   9  17  34  58  81 110 148 186 228 279 330
#     4  10  22  39  58  82 114 149 187 232 283 337
#     4  10  20  38  61  82 111 149 188 231 283 336
#     4  10  20  33  54  84 113 145 185 226 273 329
#     4   8  17  34  57  81 106 145 188 229 277 329
#     4  11  24  38  56  86 117 147 187 231 282 341
#     4   9  18  35  55  77 112 147 181 228 276 324
#     4   9  18  35  62  84 106 148 192 232 283 332
#
# _framework density 28.742584000000001
#
# number of rings (size 3 to 8) (size 9 to 14) (size 15 to 20)
#    0.000    2.500    0.000    1.500    0.000    6.500 
#    0.000    8.750    0.000   19.500    0.000    0.000 
#    0.000    0.000    0.000    0.000    0.000    0.000 
#
# Total GULP energy -89547.167986 kJ/mol
# GULP energy per Si atom -5596.697999 kJ/mol
# Density = 2.867716 g / cm^3
# Si number density = 28.742584 Si / 1000 Ang^3
#
#
#
# Elastic Constant Matrix: (Units=GPa)
#
#
# Indices 1 2 3 4 5 6 
#
# 1 125.6873 25.6024 77.5162 -3.3938 51.6911 -22.1454
# 2 25.6024 100.0040 37.9028 -3.5510 16.0609 6.1919
# 3 77.5162 37.9028 218.5287 -27.4537 77.8765 -10.9456
# 4 -3.3938 -3.5510 -27.4537 62.7906 -16.9622 20.1884
# 5 51.6911 16.0609 77.8765 -16.9622 76.0059 -13.1330
# 6 -22.1454 6.1919 -10.9456 20.1884 -13.1330 39.0201
#
#
#
# Elastic Compliance Matrix: (Units=1/GPa)
#
#
# Indices 1 2 3 4 5 6 
#
# 1 0.013646 -0.002229 -0.002545 -0.004592 -0.005883 0.007780
# 2 -0.002229 0.011333 -0.001189 0.001295 -0.000079 -0.004094
# 3 -0.002545 -0.001189 0.008058 0.002401 -0.006137 -0.002303
# 4 -0.004592 0.001295 0.002401 0.021577 0.003085 -0.012263
# 5 -0.005883 -0.000079 -0.006137 0.003085 0.024423 0.001576
# 6 0.007780 -0.004094 -0.002303 -0.012263 0.001576 0.036922
#
#
# Mechanical properties :
#
#
# Convention : Reuss Voigt Hill
#
# Bulk Modulus (GPa) = 47.36840 80.69587 64.03213
# Shear Modulus (GPa) = 37.05835 55.77656 46.41746
#
# Velocity S-wave (km/s) = 3.59460 4.40995 4.02299
# Velocity P-wave (km/s) = 5.80898 7.35300 6.62611
#
# Compressibility (1/GPa) = 0.02111112
#
# Stress axis : x y z
#
# Youngs Moduli (GPa) = 73.28254 88.23702 124.09775
#
# Poissons Ratio (x) = 0.19669 0.31578
# Poissons Ratio (y) = 0.16335 0.14759
# Poissons Ratio (z) = 0.18648 0.10494
#
# Static dielectric constant tensor:
#      x y z
#    x 2.213880 0.026770 0.031420 
#    y 0.026770 2.313640 -0.071740 
#    z 0.031420 -0.071740 2.286100 
# 
# From -- ./inp_files/51599.got.cif
#   From: 2010.05.17/outbox.cif.g08.bks.cpg/sg2_26_cif.got.tgz:51599.got - 2010.06.03 11:33:40.
