data_PCOD9093168
_publ_section_title
;
Structure prediction by ZEFSAII (Michael W. Deem and Ramdas Pophale) SiO2 
 PCOD9093168
Probable space group: P -1
;
_chemical_formula_sum "Si O2"
_cell_formula_units_Z 16
_cell_length_a 4.904225
_cell_length_b 5.654445
_cell_length_c 21.552366
_cell_angle_alpha 91.609758
_cell_angle_beta 112.327186
_cell_angle_gamma 81.033539
_cell_volume 545.781826
_symmetry_space_group_name_H-M "P -1"
_symmetry_group_IT_number 2
_symmetry_cell_setting 'triclinic'
loop_
_space_group_symop_operation_xyz
x,y,z
-x,-y,-z
loop_
_atom_site_type_symbol
_atom_site_label
_atom_site_fract_x
_atom_site_fract_y
_atom_site_fract_z
Si Si1 0.441995 0.074917 0.896932
Si Si2 0.102254 0.368936 0.274312
Si Si3 0.910056 0.514507 0.854309
Si Si4 0.231674 0.221716 0.480481
Si Si5 0.574694 0.808473 0.232741
Si Si6 0.430625 0.574312 0.397328
Si Si7 0.769098 0.276941 0.023083
Si Si8 0.894865 0.020061 0.355757
O O1 0.442811 0.004927 0.824551
O O2 0.210730 0.322372 0.878435
O O3 0.321480 0.895350 0.932120
O O4 0.743425 0.146286 0.953928
O O5 0.098532 0.297905 0.201811
O O6 0.409468 0.438994 0.329312
O O7 0.878902 0.620431 0.257030
O O8 0.978038 0.194294 0.309946
O O9 0.665447 0.355411 0.810569
O O10 0.929913 0.635776 0.924491
O O11 0.325427 0.400712 0.438455
O O12 0.265175 0.342640 0.551400
O O13 0.500000 0.000000 0.500000
O O14 0.931252 0.137225 0.427617
O O15 0.595500 0.929503 0.303173
O O16 0.171756 0.803171 0.377696
O O17 0.500000 0.500000 0.000000
#
# Coordination Sequence:
#
# PCOD9093168 Si02
#       8
#     2   2   2   2   2   2   2   2
#     4   9  19  36  53  71  97 125 157 198 238 280
#     4   9  18  32  48  69  98 128 159 197 238 281
#     4  10  20  33  51  73  96 126 161 195 236 285
#     4   8  13  23  43  71  96 123 162 200 237 282
#     4  10  20  32  49  73  98 126 160 196 236 284
#     4   8  14  25  44  70  95 124 163 199 235 282
#     4   9  18  35  54  71  96 126 156 196 240 282
#     4   9  16  28  46  69  98 128 158 197 240 282
#
# _framework density 29.315743000000001
#
# number of rings (size 3 to 8) (size 9 to 14) (size 15 to 20)
#    0.000    3.000    0.000    0.750    0.000    1.500 
#    0.000    5.625    0.000    0.750    0.000   78.750 
#    0.000    0.000    0.000    0.000    0.000    0.000 
#
# Total GULP energy -89625.644911 kJ/mol
# GULP energy per Si atom -5601.602807 kJ/mol
# Density = 2.924902 g / cm^3
# Si number density = 29.315743 Si / 1000 Ang^3
#
#
#
# Elastic Constant Matrix: (Units=GPa)
#
#
# Indices 1 2 3 4 5 6 
#
# 1 93.6037 28.8115 55.9153 10.5423 8.4785 2.2881
# 2 28.8115 114.6236 82.3508 0.6681 -2.9661 12.9916
# 3 55.9153 82.3508 274.4731 47.7894 46.5504 12.5517
# 4 10.5423 0.6681 47.7894 98.8238 15.1980 9.9314
# 5 8.4785 -2.9661 46.5504 15.1980 49.8556 13.7990
# 6 2.2881 12.9916 12.5517 9.9314 13.7990 50.8333
#
#
#
# Elastic Compliance Matrix: (Units=1/GPa)
#
#
# Indices 1 2 3 4 5 6 
#
# 1 0.012440 -0.001896 -0.001826 -0.000405 -0.000568 0.000609
# 2 -0.001896 0.013245 -0.004768 0.001893 0.006136 -0.004158
# 3 -0.001826 -0.004768 0.006802 -0.002297 -0.006101 0.001726
# 4 -0.000405 0.001893 -0.002297 0.011559 -0.000649 -0.001980
# 5 -0.000568 0.006136 -0.006101 -0.000649 0.028533 -0.007655
# 6 0.000609 -0.004158 0.001726 -0.001980 -0.007655 0.022746
#
#
# Mechanical properties :
#
#
# Convention : Reuss Voigt Hill
#
# Bulk Modulus (GPa) = 64.48890 90.76174 77.62532
# Shear Modulus (GPa) = 42.56238 60.94406 51.75322
#
# Velocity S-wave (km/s) = 3.81446 4.56443 4.20619
# Velocity P-wave (km/s) = 6.43785 7.66850 7.07997
#
# Compressibility (1/GPa) = 0.01550655
#
# Stress axis : x y z
#
# Youngs Moduli (GPa) = 80.38482 75.49903 147.02177
#
# Poissons Ratio (x) = 0.14316 0.26852
# Poissons Ratio (y) = 0.15242 0.70096
# Poissons Ratio (z) = 0.14681 0.35996
#
# Static dielectric constant tensor:
#      x y z
#    x 2.207710 0.015780 0.023540 
#    y 0.015780 2.356540 0.087930 
#    z 0.023540 0.087930 2.319670 
# 
# From -- ./inp_files/12981.got.cif
#   From: 2010.05.17/outbox.cif.g08.bks.cpg/sg2_7_cif.got.tgz:12981.got - 2010.06.03 11:33:40.
