data_PCOD9093965
_publ_section_title
;
Structure prediction by ZEFSAII (Michael W. Deem and Ramdas Pophale) SiO2 
 PCOD9093965
Probable space group: P -1
;
_chemical_formula_sum "Si O2"
_cell_formula_units_Z 12
_cell_length_a 5.181983
_cell_length_b 22.672538
_cell_length_c 7.347840
_cell_angle_alpha 137.085763
_cell_angle_beta 109.380987
_cell_angle_gamma 97.591444
_cell_volume 450.102388
_symmetry_space_group_name_H-M "P -1"
_symmetry_group_IT_number 2
_symmetry_cell_setting 'triclinic'
loop_
_space_group_symop_operation_xyz
x,y,z
-x,-y,-z
loop_
_atom_site_type_symbol
_atom_site_label
_atom_site_fract_x
_atom_site_fract_y
_atom_site_fract_z
Si Si1 0.323549 0.932565 0.120520
Si Si2 0.740137 0.670930 0.154752
Si Si3 0.960850 0.403465 0.666571
Si Si4 0.299219 0.176772 0.040760
Si Si5 0.205102 0.858531 0.442838
Si Si6 0.072247 0.646857 0.856210
O O1 0.500000 0.000000 0.500000
O O2 0.439623 0.027641 0.220188
O O3 0.507569 0.876207 0.007579
O O4 0.936652 0.852601 0.906508
O O5 0.825392 0.631728 0.263030
O O6 0.028787 0.794797 0.443552
O O7 0.382539 0.650930 0.020653
O O8 0.791879 0.614096 0.868157
O O9 0.571255 0.302411 0.362725
O O10 0.042703 0.417207 0.502686
O O11 0.000000 0.500000 0.000000
O O12 0.066185 0.133112 0.708261
O O13 0.214349 0.770405 0.130455
#
# Coordination Sequence:
#
# PCOD9093965 Si02
#       6
#     2   2   2   2   2   2
#     4  10  20  33  68  99 132 178 222 266 347 403
#     4  10  25  43  72 101 141 173 233 279 339 410
#     4  12  26  48  73 100 138 187 230 287 346 395
#     4  11  22  38  63 103 133 175 231 276 325 416
#     4   9  20  41  70  98 141 176 218 279 345 403
#     4  10  23  45  70 100 143 170 230 282 337 407
#
# _framework density 26.660601
#
# number of rings (size 3 to 8) (size 9 to 14) (size 15 to 20)
#    1.000    0.667    1.667    4.000    2.333    5.333 
#    0.000   11.667    0.000    0.000    0.000    0.000 
#    0.000    0.000    0.000    0.000    0.000    0.000 
#
# Total GULP energy -67284.302079 kJ/mol
# GULP energy per Si atom -5607.025173 kJ/mol
# Density = 2.659992 g / cm^3
# Si number density = 26.660601 Si / 1000 Ang^3
#
#
#
# Elastic Constant Matrix: (Units=GPa)
#
#
# Indices 1 2 3 4 5 6 
#
# 1 127.7406 -1.1906 12.0577 2.7286 -6.9357 -15.2583
# 2 -1.1906 89.1209 -4.2938 -7.1431 -0.5959 -10.2277
# 3 12.0577 -4.2938 74.3514 19.8589 13.5720 -2.8896
# 4 2.7286 -7.1431 19.8589 33.3326 7.4792 -8.1813
# 5 -6.9357 -0.5959 13.5720 7.4792 26.8334 -0.4521
# 6 -15.2583 -10.2277 -2.8896 -8.1813 -0.4521 37.4785
#
#
#
# Elastic Compliance Matrix: (Units=1/GPa)
#
#
# Indices 1 2 3 4 5 6 
#
# 1 0.008616 0.000531 -0.002005 0.000823 0.003087 0.003715
# 2 0.000531 0.012015 -0.000144 0.003787 -0.000506 0.004305
# 3 -0.002005 -0.000144 0.017372 -0.009078 -0.006804 -0.001580
# 4 0.000823 0.003787 -0.009078 0.039788 -0.006045 0.009281
# 5 0.003087 -0.000506 -0.006804 -0.006045 0.043177 -0.000205
# 6 0.003715 0.004305 -0.001580 0.009281 -0.000205 0.031271
#
#
# Mechanical properties :
#
#
# Convention : Reuss Voigt Hill
#
# Bulk Modulus (GPa) = 28.76307 33.81772 31.29040
# Shear Modulus (GPa) = 29.92870 38.50487 34.21679
#
# Velocity S-wave (km/s) = 3.35413 3.80447 3.58637
# Velocity P-wave (km/s) = 5.08058 5.65780 5.37694
#
# Compressibility (1/GPa) = 0.03476680
#
# Stress axis : x y z
#
# Youngs Moduli (GPa) = 116.05792 83.22890 57.56474
#
# Poissons Ratio (x) = -0.04423 0.11544
# Poissons Ratio (y) = -0.06168 0.00830
# Poissons Ratio (z) = 0.23274 0.01200
#
# Static dielectric constant tensor:
#      x y z
#    x 2.058830 0.101840 -0.003260 
#    y 0.101840 2.095510 -0.005800 
#    z -0.003260 -0.005800 2.211470 
# 
# From -- ./inp_files/96218.got.cif
#   From: 2010.05.17/outbox.cif.g08.bks.cpg/sg2_49_cif.got.tgz:96218.got - 2010.06.03 11:33:40.
