data_PCOD9093880
_publ_section_title
;
Structure prediction by ZEFSAII (Michael W. Deem and Ramdas Pophale) SiO2 
 PCOD9093880
Probable space group: P -1
;
_chemical_formula_sum "Si O2"
_cell_formula_units_Z 16
_cell_length_a 13.485339
_cell_length_b 7.646054
_cell_length_c 13.175763
_cell_angle_alpha 79.144547
_cell_angle_beta 147.470712
_cell_angle_gamma 98.691132
_cell_volume 717.384537
_symmetry_space_group_name_H-M "P -1"
_symmetry_group_IT_number 2
_symmetry_cell_setting 'triclinic'
loop_
_space_group_symop_operation_xyz
x,y,z
-x,-y,-z
loop_
_atom_site_type_symbol
_atom_site_label
_atom_site_fract_x
_atom_site_fract_y
_atom_site_fract_z
Si Si1 0.667044 0.136427 0.598087
Si Si2 0.986018 0.083332 0.367999
Si Si3 0.701951 0.291276 0.834272
Si Si4 0.050033 0.166002 0.810078
Si Si5 0.908412 0.665527 0.836623
Si Si6 0.956830 0.532734 0.576391
Si Si7 0.339286 0.291059 0.203335
Si Si8 0.311616 0.268407 0.560450
O O1 0.692675 0.253759 0.709678
O O2 0.552069 0.243443 0.401942
O O3 0.872341 0.106202 0.731674
O O4 0.500000 0.000000 0.500000
O O5 0.930704 0.292279 0.307822
O O6 0.191827 0.095944 0.497900
O O7 0.890419 0.957316 0.219583
O O8 0.000000 0.000000 0.500000
O O9 0.675560 0.495752 0.824179
O O10 0.519782 0.209364 0.731766
O O11 0.907355 0.235494 0.049426
O O12 0.996882 0.358724 0.695427
O O13 0.227783 0.201284 0.028222
O O14 0.780313 0.766355 0.794754
O O15 0.777713 0.640564 0.628852
O O16 0.000000 0.500000 0.000000
O O17 0.000000 0.500000 0.500000
O O18 0.747780 0.601436 0.413121
#
# Coordination Sequence:
#
# PCOD9093880 Si02
#       8
#     2   2   2   2   2   2   2   2
#     4  12  26  39  60  95 140 182 215 263 326 394
#     4  10  23  43  71  98 128 168 226 285 333 394
#     4  11  21  38  61  91 135 171 217 259 308 399
#     4  12  23  44  68  98 135 173 222 273 330 398
#     4  10  20  33  59  94 128 172 210 253 319 383
#     4  10  21  40  73  98 117 173 228 271 342 387
#     4  11  24  37  62  96 133 180 219 258 322 392
#     4  10  21  37  64  95 130 172 214 268 332 381
#
# _framework density 22.303239999999999
#
# number of rings (size 3 to 8) (size 9 to 14) (size 15 to 20)
#    0.750    0.500    3.750    3.375    3.500    1.500 
#    0.000    0.000    0.000   18.000    0.000    0.000 
#    0.000    0.000    0.000    0.000    0.000    0.000 
#
# Total GULP energy -89154.111306 kJ/mol
# GULP energy per Si atom -5572.131957 kJ/mol
# Density = 2.225248 g / cm^3
# Si number density = 22.303240 Si / 1000 Ang^3
#
#
#
# Elastic Constant Matrix: (Units=GPa)
#
#
# Indices 1 2 3 4 5 6 
#
# 1 97.4473 27.3458 35.3548 9.2380 -19.5815 -19.8326
# 2 27.3458 95.6333 27.1744 13.9712 -20.8049 -8.5278
# 3 35.3548 27.1744 83.9767 15.7047 12.7760 -21.5576
# 4 9.2380 13.9712 15.7047 39.1736 -11.6846 -10.1603
# 5 -19.5815 -20.8049 12.7760 -11.6846 38.1193 4.4346
# 6 -19.8326 -8.5278 -21.5576 -10.1603 4.4346 41.9743
#
#
#
# Elastic Compliance Matrix: (Units=1/GPa)
#
#
# Indices 1 2 3 4 5 6 
#
# 1 0.015974 0.000192 -0.008644 0.003972 0.012096 0.002831
# 2 0.000192 0.014447 -0.006795 0.000273 0.010520 -0.001509
# 3 -0.008644 -0.006795 0.024318 -0.009478 -0.020000 0.006844
# 4 0.003972 0.000273 -0.009478 0.033799 0.015304 0.003629
# 5 0.012096 0.010520 -0.020000 0.015304 0.050049 -0.004003
# 6 0.002831 -0.001509 0.006844 0.003629 -0.004003 0.029671
#
#
# Mechanical properties :
#
#
# Convention : Reuss Voigt Hill
#
# Bulk Modulus (GPa) = 41.24330 50.75635 45.99983
# Shear Modulus (GPa) = 24.17414 36.33224 30.25319
#
# Velocity S-wave (km/s) = 3.29581 4.04048 3.68699
# Velocity P-wave (km/s) = 5.74590 6.67638 6.22854
#
# Compressibility (1/GPa) = 0.02424636
#
# Stress axis : x y z
#
# Youngs Moduli (GPa) = 62.60047 69.22081 41.12180
#
# Poissons Ratio (x) = -0.01329 0.35545
# Poissons Ratio (y) = -0.01202 0.27940
# Poissons Ratio (z) = 0.54110 0.47032
#
# Static dielectric constant tensor:
#      x y z
#    x 1.820140 0.065020 -0.000750 
#    y 0.065020 1.961720 0.027420 
#    z -0.000750 0.027420 1.811040 
# 
# From -- ./inp_files/417245.got.cif
#   From: 2010.05.17/outbox.cif.g08.bks.cpg/sg2_209_cif.got.tgz:417245.got - 2010.06.03 11:33:40.
