data_PCOD9093701
_publ_section_title
;
Structure prediction by ZEFSAII (Michael W. Deem and Ramdas Pophale) SiO2 
 PCOD9093701
Probable space group: P -1
;
_chemical_formula_sum "Si O2"
_cell_formula_units_Z 16
_cell_length_a 11.724546
_cell_length_b 16.098492
_cell_length_c 12.513996
_cell_angle_alpha 157.266662
_cell_angle_beta 60.759202
_cell_angle_gamma 116.974003
_cell_volume 796.429094
_symmetry_space_group_name_H-M "P -1"
_symmetry_group_IT_number 2
_symmetry_cell_setting 'triclinic'
loop_
_space_group_symop_operation_xyz
x,y,z
-x,-y,-z
loop_
_atom_site_type_symbol
_atom_site_label
_atom_site_fract_x
_atom_site_fract_y
_atom_site_fract_z
Si Si1 0.963275 0.428606 0.608948
Si Si2 0.389453 0.307070 0.570470
Si Si3 0.181725 0.537412 0.072769
Si Si4 0.627954 0.504069 0.566434
Si Si5 0.014261 0.805086 0.340512
Si Si6 0.522278 0.133870 0.038357
Si Si7 0.875984 0.272699 0.242923
Si Si8 0.830594 0.814526 0.636113
O O1 0.927681 0.279759 0.347944
O O2 0.007117 0.656046 0.806300
O O3 0.091418 0.340239 0.505043
O O4 0.846154 0.425339 0.745455
O O5 0.312581 0.422670 0.838168
O O6 0.516236 0.434325 0.620368
O O7 0.291345 0.291904 0.495315
O O8 0.420826 0.057492 0.286553
O O9 0.058410 0.385766 0.916609
O O10 0.154538 0.738528 0.244511
O O11 0.613079 0.333002 0.271781
O O12 0.595834 0.740434 0.816152
O O13 0.766210 0.456041 0.498850
O O14 0.929913 0.856639 0.543823
O O15 0.000000 0.000000 0.500000
O O16 0.500000 0.000000 0.000000
O O17 0.811156 0.045373 0.972887
#
# Coordination Sequence:
#
# PCOD9093701 Si02
#       8
#     2   2   2   2   2   2   2   2
#     4  10  23  37  54  78 109 149 186 219 262 317
#     4  10  20  33  57  85 109 138 171 227 283 323
#     4   9  19  35  50  76 111 139 177 221 267 326
#     4  10  21  34  55  82 110 138 180 223 276 321
#     4   9  17  31  51  78 106 141 174 220 272 317
#     4   9  19  34  51  83 109 140 172 218 279 319
#     4  11  22  37  56  77 108 148 186 225 260 318
#     4  10  20  33  56  82 110 138 178 224 273 325
#
# _framework density 20.089673999999999
#
# number of rings (size 3 to 8) (size 9 to 14) (size 15 to 20)
#    0.000    2.250    1.250    1.875    5.250    2.000 
#    0.000    0.625    0.000    0.750    0.000    0.000 
#    0.000    0.000    0.000    0.000    0.000    0.000 
#
# Total GULP energy -89177.533654 kJ/mol
# GULP energy per Si atom -5573.595853 kJ/mol
# Density = 2.004395 g / cm^3
# Si number density = 20.089674 Si / 1000 Ang^3
#
#
#
# Elastic Constant Matrix: (Units=GPa)
#
#
# Indices 1 2 3 4 5 6 
#
# 1 33.8971 7.2472 9.5053 -4.6062 -2.6397 -2.8833
# 2 7.2472 96.9049 50.8407 -0.8570 -1.0687 -8.0144
# 3 9.5053 50.8407 84.4204 1.3252 -21.4467 -2.4630
# 4 -4.6062 -0.8570 1.3252 25.2122 3.1595 0.0801
# 5 -2.6397 -1.0687 -21.4467 3.1595 27.3095 -4.2350
# 6 -2.8833 -8.0144 -2.4630 0.0801 -4.2350 22.6692
#
#
#
# Elastic Compliance Matrix: (Units=1/GPa)
#
#
# Indices 1 2 3 4 5 6 
#
# 1 0.031617 -0.000285 -0.003289 0.005885 0.000340 0.003606
# 2 -0.000285 0.017040 -0.012453 0.002294 -0.008947 0.002955
# 3 -0.003289 -0.012453 0.024772 -0.004767 0.019436 0.001518
# 4 0.005885 0.002294 -0.004767 0.042078 -0.008047 -0.000611
# 5 0.000340 -0.008947 0.019436 -0.008047 0.053904 0.009090
# 6 0.003606 0.002955 0.001518 -0.000611 0.009090 0.047482
#
#
# Mechanical properties :
#
#
# Convention : Reuss Voigt Hill
#
# Bulk Modulus (GPa) = 24.16880 38.93431 31.55156
# Shear Modulus (GPa) = 19.03041 24.88013 21.95527
#
# Velocity S-wave (km/s) = 3.08112 3.52299 3.30943
# Velocity P-wave (km/s) = 4.97135 5.99757 5.50841
#
# Compressibility (1/GPa) = 0.04137566
#
# Stress axis : x y z
#
# Youngs Moduli (GPa) = 31.62831 58.68542 40.36833
#
# Poissons Ratio (x) = 0.01672 0.13278
# Poissons Ratio (y) = 0.00901 0.50270
# Poissons Ratio (z) = 0.10403 0.73079
#
# Static dielectric constant tensor:
#      x y z
#    x 2.016990 0.186270 -0.048090 
#    y 0.186270 1.883110 0.034670 
#    z -0.048090 0.034670 1.808610 
# 
# From -- ./inp_files/433495.got.cif
#   From: 2010.05.17/outbox.cif.g08.bks.cpg/sg2_217_cif.got.tgz:433495.got - 2010.06.03 11:33:40.
