data_PCOD9093102
_publ_section_title
;
Structure prediction by ZEFSAII (Michael W. Deem and Ramdas Pophale) SiO2 
 PCOD9093102
Probable space group: P -1
;
_chemical_formula_sum "Si O2"
_cell_formula_units_Z 16
_cell_length_a 11.305913
_cell_length_b 16.372251
_cell_length_c 11.740179
_cell_angle_alpha 127.356796
_cell_angle_beta 40.835300
_cell_angle_gamma 144.797044
_cell_volume 818.787351
_symmetry_space_group_name_H-M "P -1"
_symmetry_group_IT_number 2
_symmetry_cell_setting 'triclinic'
loop_
_space_group_symop_operation_xyz
x,y,z
-x,-y,-z
loop_
_atom_site_type_symbol
_atom_site_label
_atom_site_fract_x
_atom_site_fract_y
_atom_site_fract_z
Si Si1 0.684195 0.000568 0.243747
Si Si2 0.124900 0.840626 0.540361
Si Si3 0.334282 0.427610 0.253172
Si Si4 0.239654 0.792555 0.819377
Si Si5 0.792204 0.949763 0.518851
Si Si6 0.605921 0.749029 0.069358
Si Si7 0.102581 0.485772 0.300783
Si Si8 0.795874 0.753789 0.184244
O O1 0.392959 0.891032 0.397196
O O2 0.710951 0.899910 0.083819
O O3 0.863108 0.083218 0.291198
O O4 0.725306 0.115367 0.233506
O O5 0.894823 0.672518 0.577090
O O6 0.126289 0.915600 0.494707
O O7 0.234593 0.436280 0.214577
O O8 0.569233 0.589971 0.248662
O O9 0.400051 0.337407 0.097974
O O10 0.522856 0.868993 0.705106
O O11 0.097148 0.635512 0.744792
O O12 0.052108 0.786511 0.030440
O O13 0.778454 0.849897 0.353970
O O14 0.000000 0.000000 0.500000
O O15 0.315627 0.639147 0.223275
O O16 0.744839 0.766764 0.099993
O O17 0.000000 0.500000 0.500000
#
# Coordination Sequence:
#
# PCOD9093102 Si02
#       8
#     2   2   2   2   2   2   2   2
#     4  10  20  31  54  90 119 152 180 228 295 356
#     4  10  20  36  55  81 121 149 188 238 290 344
#     4  11  20  33  54  90 121 148 182 225 297 368
#     4  11  21  39  59  89 119 149 192 237 289 356
#     4  11  26  43  61  82 109 157 210 246 283 328
#     4  11  19  31  52  92 126 147 179 220 296 368
#     4  11  19  30  52  84 127 157 177 220 284 362
#     4  11  21  38  60  85 119 157 189 236 290 341
#
# _framework density 19.541093
#
# number of rings (size 3 to 8) (size 9 to 14) (size 15 to 20)
#    0.000    1.250    5.000    3.000    3.500    1.500 
#    0.000    0.625    0.000    0.750    0.000    0.000 
#    0.000    0.000    0.000    0.000    0.000    0.000 
#
# Total GULP energy -89221.008338 kJ/mol
# GULP energy per Si atom -5576.313021 kJ/mol
# Density = 1.949662 g / cm^3
# Si number density = 19.541093 Si / 1000 Ang^3
#
#
#
# Elastic Constant Matrix: (Units=GPa)
#
#
# Indices 1 2 3 4 5 6 
#
# 1 60.1945 29.1467 -3.6208 -10.5974 -13.4848 8.3575
# 2 29.1467 89.4451 16.6090 -15.4945 -8.9746 -3.4656
# 3 -3.6208 16.6090 59.6490 -14.4353 -19.4332 7.0953
# 4 -10.5974 -15.4945 -14.4353 40.7476 2.6462 -11.5165
# 5 -13.4848 -8.9746 -19.4332 2.6462 18.5681 -4.5570
# 6 8.3575 -3.4656 7.0953 -11.5165 -4.5570 17.4851
#
#
#
# Elastic Compliance Matrix: (Units=1/GPa)
#
#
# Indices 1 2 3 4 5 6 
#
# 1 0.033793 -0.010573 0.019650 0.005692 0.035972 -0.013098
# 2 -0.010573 0.016966 -0.007112 0.005331 -0.004322 0.013688
# 3 0.019650 -0.007112 0.039357 0.011313 0.048791 -0.006605
# 4 0.005692 0.005331 0.011313 0.037420 0.018943 0.023329
# 5 0.035972 -0.004322 0.048791 0.018943 0.128230 0.008047
# 6 -0.013098 0.013688 -0.006605 0.023329 0.008047 0.086309
#
#
# Mechanical properties :
#
#
# Convention : Reuss Voigt Hill
#
# Bulk Modulus (GPa) = 10.63302 32.61760 21.62531
# Shear Modulus (GPa) = 13.53202 26.50371 20.01786
#
# Velocity S-wave (km/s) = 2.63438 3.68680 3.20409
# Velocity P-wave (km/s) = 3.83490 5.90351 4.97784
#
# Compressibility (1/GPa) = 0.09404665
#
# Stress axis : x y z
#
# Youngs Moduli (GPa) = 29.59164 58.94059 25.40838
#
# Poissons Ratio (x) = 0.62318 -0.49928
# Poissons Ratio (y) = 0.31287 0.18071
# Poissons Ratio (z) = -0.58148 0.41919
#
# Static dielectric constant tensor:
#      x y z
#    x 1.654380 -0.004270 -0.050130 
#    y -0.004270 1.709350 -0.011680 
#    z -0.050130 -0.011680 1.834160 
# 
# From -- ./inp_files/175010.got.cif
#   From: 2010.05.17/outbox.cif.g08.bks.cpg/sg2_88_cif.got.tgz:175010.got - 2010.06.03 11:33:40.
