data_PCOD9093343
_publ_section_title
;
Structure prediction by ZEFSAII (Michael W. Deem and Ramdas Pophale) SiO2 
 PCOD9093343
Probable space group: P -1
;
_chemical_formula_sum "Si O2"
_cell_formula_units_Z 10
_cell_length_a 10.330535
_cell_length_b 9.597919
_cell_length_c 11.440772
_cell_angle_alpha 109.863145
_cell_angle_beta 68.900464
_cell_angle_gamma 151.007184
_cell_volume 512.188981
_symmetry_space_group_name_H-M "P -1"
_symmetry_group_IT_number 2
_symmetry_cell_setting 'triclinic'
loop_
_space_group_symop_operation_xyz
x,y,z
-x,-y,-z
loop_
_atom_site_type_symbol
_atom_site_label
_atom_site_fract_x
_atom_site_fract_y
_atom_site_fract_z
Si Si1 0.784023 0.677099 0.450417
Si Si2 0.406304 0.258778 0.020146
Si Si3 0.837262 0.725829 0.183185
Si Si4 0.166071 0.509529 0.410376
Si Si5 0.287419 0.048827 0.749515
O O1 0.500000 0.500000 0.500000
O O2 0.835796 0.668838 0.299748
O O3 0.809830 0.575509 0.510351
O O4 0.000000 0.000000 0.500000
O O5 0.653601 0.454547 0.082714
O O6 0.500000 0.500000 0.000000
O O7 0.336816 0.092485 0.884802
O O8 0.132983 0.019133 0.115817
O O9 0.707460 0.772818 0.239514
O O10 0.467299 0.811030 0.352187
O O11 0.000000 0.500000 0.500000
O O12 0.995341 0.273018 0.295740
#
# Coordination Sequence:
#
# PCOD9093343 Si02
#       5
#     2   2   2   2   2
#     4  12  22  38  60  86 120 153 191 247 290 337
#     4  10  20  32  56  88 117 147 186 245 295 335
#     4  11  19  34  58  87 117 145 192 241 296 336
#     4  12  24  39  59  86 119 160 193 234 293 350
#     4  11  20  37  58  83 121 149 196 239 287 344
#
# _framework density 19.524042999999999
#
# number of rings (size 3 to 8) (size 9 to 14) (size 15 to 20)
#    0.000    0.800    4.000    7.800    0.000    0.000 
#    0.000    0.000    0.000    7.200    0.000    0.000 
#    0.000    0.000    0.000    0.000    0.000    0.000 
#
# Total GULP energy -55860.666775 kJ/mol
# GULP energy per Si atom -5586.066677 kJ/mol
# Density = 1.947961 g / cm^3
# Si number density = 19.524043 Si / 1000 Ang^3
#
#
#
# Elastic Constant Matrix: (Units=GPa)
#
#
# Indices 1 2 3 4 5 6 
#
# 1 61.3277 32.0126 19.0928 -6.2956 1.1354 9.1712
# 2 32.0126 103.2495 43.7727 -12.2615 18.4196 34.4215
# 3 19.0928 43.7727 112.2744 -6.6426 34.4429 1.2507
# 4 -6.2956 -12.2615 -6.6426 48.1226 13.4283 -2.1716
# 5 1.1354 18.4196 34.4429 13.4283 34.5774 2.8555
# 6 9.1712 34.4215 1.2507 -2.1716 2.8555 18.0819
#
#
#
# Elastic Compliance Matrix: (Units=1/GPa)
#
#
# Indices 1 2 3 4 5 6 
#
# 1 0.020280 -0.007366 -0.002493 -0.001095 0.005932 0.002841
# 2 -0.007366 0.049219 -0.014099 0.007900 -0.007833 -0.086799
# 3 -0.002493 -0.014099 0.019834 0.004769 -0.016487 0.029909
# 4 -0.001095 0.007900 0.004769 0.028293 -0.019219 -0.008380
# 5 0.005932 -0.007833 -0.016487 -0.019219 0.056637 0.001791
# 6 0.002841 -0.086799 0.029909 -0.008380 0.001791 0.215738
#
#
# Mechanical properties :
#
#
# Convention : Reuss Voigt Hill
#
# Bulk Modulus (GPa) = 24.14515 51.84529 37.99522
# Shear Modulus (GPa) = 11.06867 32.28795 21.67831
#
# Velocity S-wave (km/s) = 2.38360 4.07105 3.33579
# Velocity P-wave (km/s) = 4.46868 6.97927 5.86000
#
# Compressibility (1/GPa) = 0.04141619
#
# Stress axis : x y z
#
# Youngs Moduli (GPa) = 49.30938 20.31723 50.41745
#
# Poissons Ratio (x) = 0.14966 0.12569
# Poissons Ratio (y) = 0.36323 0.71085
# Poissons Ratio (z) = 0.12293 0.28646
#
# Static dielectric constant tensor:
#      x y z
#    x 1.655420 0.018190 0.019510 
#    y 0.018190 1.671580 0.019050 
#    z 0.019510 0.019050 1.749110 
# 
# From -- ./inp_files/19527.got.cif
#   From: 2010.05.17/outbox.cif.g08.bks.cpg/sg2_10_cif.got.tgz:19527.got - 2010.06.03 11:33:40.
