data_PCOD9093533
_publ_section_title
;
Structure prediction by ZEFSAII (Michael W. Deem and Ramdas Pophale) SiO2 
 PCOD9093533
Probable space group: P -1
;
_chemical_formula_sum "Si O2"
_cell_formula_units_Z 16
_cell_length_a 11.233343
_cell_length_b 8.695433
_cell_length_c 14.060571
_cell_angle_alpha 72.703235
_cell_angle_beta 81.661761
_cell_angle_gamma 39.911343
_cell_volume 833.572679
_symmetry_space_group_name_H-M "P -1"
_symmetry_group_IT_number 2
_symmetry_cell_setting 'triclinic'
loop_
_space_group_symop_operation_xyz
x,y,z
-x,-y,-z
loop_
_atom_site_type_symbol
_atom_site_label
_atom_site_fract_x
_atom_site_fract_y
_atom_site_fract_z
Si Si1 0.369098 0.870772 0.730226
Si Si2 0.858059 0.732700 0.146135
Si Si3 0.551635 0.403414 0.903751
Si Si4 0.918771 0.899066 0.930909
Si Si5 0.245935 0.200628 0.169428
Si Si6 0.209625 0.224774 0.531922
Si Si7 0.551651 0.983951 0.641477
Si Si8 0.695320 0.628093 0.046181
O O1 0.433732 0.633249 0.803286
O O2 0.551395 0.791467 0.697736
O O3 0.262812 0.073347 0.790223
O O4 0.238329 0.029830 0.623916
O O5 0.755568 0.693045 0.108150
O O6 0.066394 0.459188 0.198475
O O7 0.891021 0.838209 0.045598
O O8 0.490390 0.279255 0.925731
O O9 0.773535 0.194376 0.897047
O O10 0.500000 0.500000 0.000000
O O11 0.841871 0.856959 0.867255
O O12 0.140026 0.674886 0.928562
O O13 0.399473 0.992479 0.266891
O O14 0.313190 0.262518 0.071561
O O15 0.304135 0.115198 0.438179
O O16 0.000000 0.500000 0.500000
O O17 0.343214 0.211611 0.579223
#
# Coordination Sequence:
#
# PCOD9093533 Si02
#       8
#     2   2   2   2   2   2   2   2
#     4  10  20  33  52  84 107 136 174 217 266 315
#     4   9  17  34  54  76 106 143 188 214 247 302
#     4  12  22  33  48  78 118 145 170 204 264 328
#     4   9  20  35  49  75 111 145 180 213 247 312
#     4   9  17  33  56  78 100 140 189 223 249 299
#     4   9  19  36  54  76 104 130 176 229 267 307
#     4   9  19  33  53  81  99 127 176 225 271 298
#     4   9  21  35  51  75 111 149 178 213 249 307
#
# _framework density 19.194488
#
# number of rings (size 3 to 8) (size 9 to 14) (size 15 to 20)
#    0.750    1.750    1.250    3.000    1.750    1.500 
#    4.500    0.000    0.000    0.750    0.000    5.250 
#    0.000    0.000    0.000    0.000    0.000    0.000 
#
# Total GULP energy -89127.266953 kJ/mol
# GULP energy per Si atom -5570.454185 kJ/mol
# Density = 1.915080 g / cm^3
# Si number density = 19.194488 Si / 1000 Ang^3
#
#
#
# Elastic Constant Matrix: (Units=GPa)
#
#
# Indices 1 2 3 4 5 6 
#
# 1 37.6010 6.5061 16.5303 -0.8655 4.5460 -11.5577
# 2 6.5061 96.4955 22.8649 -9.1735 1.1087 -22.5701
# 3 16.5303 22.8649 100.1278 -3.4024 10.8595 -7.4554
# 4 -0.8655 -9.1735 -3.4024 20.8176 -1.0786 2.0869
# 5 4.5460 1.1087 10.8595 -1.0786 18.5273 -5.8291
# 6 -11.5577 -22.5701 -7.4554 2.0869 -5.8291 24.1135
#
#
#
# Elastic Compliance Matrix: (Units=1/GPa)
#
#
# Indices 1 2 3 4 5 6 
#
# 1 0.033581 0.002969 -0.004918 0.000160 -0.000075 0.017321
# 2 0.002969 0.014882 -0.003164 0.004912 0.005314 0.015234
# 3 -0.004918 -0.003164 0.012013 0.000345 -0.006644 -0.003241
# 4 0.000160 0.004912 0.000345 0.050297 0.002735 0.001090
# 5 -0.000075 0.005314 -0.006644 0.002735 0.063382 0.017969
# 6 0.017321 0.015234 -0.003241 0.001090 0.017969 0.067279
#
#
# Mechanical properties :
#
#
# Convention : Reuss Voigt Hill
#
# Bulk Modulus (GPa) = 19.90109 36.22520 28.06315
# Shear Modulus (GPa) = 18.62834 25.24654 21.93744
#
# Velocity S-wave (km/s) = 3.11867 3.63064 3.38435
# Velocity P-wave (km/s) = 4.83309 6.04062 5.47028
#
# Compressibility (1/GPa) = 0.05024850
#
# Stress axis : x y z
#
# Youngs Moduli (GPa) = 29.77913 67.19669 83.24496
#
# Poissons Ratio (x) = -0.19950 0.40944
# Poissons Ratio (y) = -0.08841 0.26335
# Poissons Ratio (z) = 0.14647 0.21258
#
# Static dielectric constant tensor:
#      x y z
#    x 1.706910 -0.011420 0.024720 
#    y -0.011420 1.741230 -0.008230 
#    z 0.024720 -0.008230 1.668980 
# 
# From -- ./inp_files/306033.got.cif
#   From: 2010.05.17/outbox.cif.g08.bks.cpg/sg2_154_cif.got.tgz:306033.got - 2010.06.03 11:33:40.
