data_PCOD9093101
_publ_section_title
;
Structure prediction by ZEFSAII (Michael W. Deem and Ramdas Pophale) SiO2 
 PCOD9093101
Probable space group: P -1
;
_chemical_formula_sum "Si O2"
_cell_formula_units_Z 16
_cell_length_a 14.135786
_cell_length_b 9.619175
_cell_length_c 7.618871
_cell_angle_alpha 60.138596
_cell_angle_beta 60.234206
_cell_angle_gamma 56.829895
_cell_volume 715.317690
_symmetry_space_group_name_H-M "P -1"
_symmetry_group_IT_number 2
_symmetry_cell_setting 'triclinic'
loop_
_space_group_symop_operation_xyz
x,y,z
-x,-y,-z
loop_
_atom_site_type_symbol
_atom_site_label
_atom_site_fract_x
_atom_site_fract_y
_atom_site_fract_z
Si Si1 0.755927 0.702768 0.295813
Si Si2 0.304704 0.209979 0.324702
Si Si3 0.522127 0.894803 0.226115
Si Si4 0.330851 0.444021 0.827800
Si Si5 0.008730 0.564049 0.253176
Si Si6 0.928979 0.037845 0.779978
Si Si7 0.918911 0.805270 0.636319
Si Si8 0.835135 0.224807 0.087781
O O1 0.713801 0.685916 0.541931
O O2 0.649667 0.868983 0.205967
O O3 0.759058 0.555037 0.247304
O O4 0.884045 0.702135 0.211381
O O5 0.190460 0.167780 0.409175
O O6 0.413789 0.022071 0.360447
O O7 0.320719 0.327824 0.076870
O O8 0.544784 0.692264 0.288472
O O9 0.500000 0.000000 0.000000
O O10 0.290548 0.644717 0.798313
O O11 0.000000 0.500000 0.500000
O O12 0.044666 0.391754 0.211325
O O13 0.106270 0.641715 0.108507
O O14 0.881178 0.945060 0.737488
O O15 0.964531 0.185081 0.564583
O O16 0.062609 0.904093 0.797955
O O17 0.843435 0.111324 0.978141
#
# Coordination Sequence:
#
# PCOD9093101 Si02
#       8
#     2   2   2   2   2   2   2   2
#     4  10  20  31  54  89 117 150 176 252 296 337
#     4  11  18  36  59  82 119 149 194 243 296 331
#     4   8  19  34  52  86 120 143 190 246 298 335
#     4   9  20  33  55  88 110 148 193 247 279 346
#     4  12  20  34  60  91 118 145 204 236 287 351
#     4  10  24  35  53  81 123 161 185 227 307 353
#     4  11  22  38  54  86 120 154 190 245 282 358
#     4  11  20  38  55  82 118 158 190 235 291 355
#
# _framework density 22.367685000000002
#
# number of rings (size 3 to 8) (size 9 to 14) (size 15 to 20)
#    0.750    1.000    3.750    1.125    1.750    1.000 
#    0.000    0.000    0.000    1.500    0.000    0.000 
#    0.000    0.000    0.000    0.000    0.000    0.000 
#
# Total GULP energy -89123.632559 kJ/mol
# GULP energy per Si atom -5570.227035 kJ/mol
# Density = 2.231677 g / cm^3
# Si number density = 22.367685 Si / 1000 Ang^3
#
#
#
# Elastic Constant Matrix: (Units=GPa)
#
#
# Indices 1 2 3 4 5 6 
#
# 1 75.4501 27.2760 7.9086 0.3491 22.7762 -16.9285
# 2 27.2760 140.8610 7.5182 20.2634 8.8167 -7.7482
# 3 7.9086 7.5182 50.9791 10.7294 20.3127 12.7799
# 4 0.3491 20.2634 10.7294 29.3916 5.2899 0.9940
# 5 22.7762 8.8167 20.3127 5.2899 26.8388 5.3147
# 6 -16.9285 -7.7482 12.7799 0.9940 5.3147 42.9097
#
#
#
# Elastic Compliance Matrix: (Units=1/GPa)
#
#
# Indices 1 2 3 4 5 6 
#
# 1 0.024039 -0.003396 0.002714 0.005106 -0.024519 0.010981
# 2 -0.003396 0.008567 0.000011 -0.006097 0.001222 0.000194
# 3 0.002714 0.000011 0.031408 -0.007072 -0.023656 -0.005188
# 4 0.005106 -0.006097 -0.007072 0.041688 -0.005742 0.002765
# 5 -0.024519 0.001222 -0.023656 -0.005742 0.079092 -0.012070
# 6 0.010981 0.000194 -0.005188 0.002765 -0.012070 0.030648
#
#
# Mechanical properties :
#
#
# Convention : Reuss Voigt Hill
#
# Bulk Modulus (GPa) = 15.95596 39.18842 27.57219
# Shear Modulus (GPa) = 21.03717 34.80050 27.91884
#
# Velocity S-wave (km/s) = 3.07011 3.94869 3.53679
# Velocity P-wave (km/s) = 4.44032 6.19255 5.38814
#
# Compressibility (1/GPa) = 0.06267252
#
# Stress axis : x y z
#
# Youngs Moduli (GPa) = 41.59969 116.72241 31.83876
#
# Poissons Ratio (x) = 0.39633 -0.08641
# Poissons Ratio (y) = 0.14125 -0.00034
# Poissons Ratio (z) = -0.11289 -0.00126
#
# Static dielectric constant tensor:
#      x y z
#    x 1.799370 -0.028380 -0.010720 
#    y -0.028380 1.935230 0.047440 
#    z -0.010720 0.047440 1.904040 
# 
# From -- ./inp_files/294814.got.cif
#   From: 2010.05.17/outbox.cif.g08.bks.cpg/sg2_148_cif.got.tgz:294814.got - 2010.06.03 11:33:40.
