data_PCOD9093298
_publ_section_title
;
Structure prediction by ZEFSAII (Michael W. Deem and Ramdas Pophale) SiO2 
 PCOD9093298
Probable space group: P -1
;
_chemical_formula_sum "Si O2"
_cell_formula_units_Z 16
_cell_length_a 16.861886
_cell_length_b 5.454635
_cell_length_c 18.777208
_cell_angle_alpha 62.628540
_cell_angle_beta 31.421052
_cell_angle_gamma 86.279322
_cell_volume 565.219147
_symmetry_space_group_name_H-M "P -1"
_symmetry_group_IT_number 2
_symmetry_cell_setting 'triclinic'
loop_
_space_group_symop_operation_xyz
x,y,z
-x,-y,-z
loop_
_atom_site_type_symbol
_atom_site_label
_atom_site_fract_x
_atom_site_fract_y
_atom_site_fract_z
Si Si1 0.572034 0.806835 0.341018
Si Si2 0.138647 0.686199 0.112263
Si Si3 0.414994 0.153417 0.957323
Si Si4 0.294742 0.389564 0.206720
Si Si5 0.761911 0.562013 0.470438
Si Si6 0.085391 0.723071 0.794817
Si Si7 0.807054 0.576564 0.145326
Si Si8 0.014064 0.947817 0.358342
O O1 0.500000 0.500000 0.500000
O O2 0.420061 0.748590 0.404850
O O3 0.721736 0.773496 0.188971
O O4 0.653733 0.170204 0.275571
O O5 0.024471 0.290841 0.296745
O O6 0.980588 0.736784 0.240734
O O7 0.115956 0.550764 0.067729
O O8 0.369360 0.049329 0.922254
O O9 0.234655 0.137546 0.123171
O O10 0.334991 0.760434 0.105231
O O11 0.642980 0.538114 0.766373
O O12 0.086413 0.985373 0.380540
O O13 0.500000 0.500000 0.000000
O O14 0.752430 0.882494 0.426456
O O15 0.826098 0.578145 0.501626
O O16 0.160146 0.520563 0.789691
O O17 0.025560 0.803180 0.903030
#
# Coordination Sequence:
#
# PCOD9093298 Si02
#       8
#     2   2   2   2   2   2   2   2
#     4  12  24  40  57  81 106 138 177 225 270 321
#     4   9  17  29  48  70  99 134 176 210 265 314
#     4   8  13  22  37  64  94 136 164 208 253 312
#     4   8  12  20  36  58  99 132 167 202 255 305
#     4  10  20  32  55  72 105 139 179 216 269 320
#     4  10  22  37  55  76 103 139 174 223 266 324
#     4  11  26  39  58  80 107 138 180 222 274 319
#     4   8  15  25  39  68  94 137 167 211 254 317
#
# _framework density 28.307603
#
# number of rings (size 3 to 8) (size 9 to 14) (size 15 to 20)
#    0.000    2.500    1.250    1.125    5.250    1.000 
#    0.000    0.000    0.000    0.000    0.000    0.000 
#    0.000    2.000    0.000   11.250    0.000    0.625 
#
# Total GULP energy -89272.807034 kJ/mol
# GULP energy per Si atom -5579.550440 kJ/mol
# Density = 2.824317 g / cm^3
# Si number density = 28.307603 Si / 1000 Ang^3
#
#
#
# Elastic Constant Matrix: (Units=GPa)
#
#
# Indices 1 2 3 4 5 6 
#
# 1 156.0452 40.7857 39.0539 -7.2233 -41.3015 60.1097
# 2 40.7857 115.4641 23.7193 -11.0604 -15.5680 16.3606
# 3 39.0539 23.7193 56.8726 -15.6713 -45.2250 27.7585
# 4 -7.2233 -11.0604 -15.6713 49.5439 23.6271 -14.6218
# 5 -41.3015 -15.5680 -45.2250 23.6271 66.9767 -15.0300
# 6 60.1097 16.3606 27.7585 -14.6218 -15.0300 83.7890
#
#
#
# Elastic Compliance Matrix: (Units=1/GPa)
#
#
# Indices 1 2 3 4 5 6 
#
# 1 0.011341 -0.002690 0.001652 -0.004111 0.007233 -0.007578
# 2 -0.002690 0.010224 -0.004950 0.002213 -0.003090 0.001405
# 3 0.001652 -0.004950 0.047163 -0.003779 0.030574 -0.011018
# 4 -0.004111 0.002213 -0.003779 0.026719 -0.012613 0.006169
# 5 0.007233 -0.003090 0.030574 -0.012613 0.041648 -0.009445
# 6 -0.007578 0.001405 -0.011018 0.006169 -0.009445 0.020129
#
#
# Mechanical properties :
#
#
# Convention : Reuss Voigt Hill
#
# Bulk Modulus (GPa) = 17.62093 59.49998 38.56046
# Shear Modulus (GPa) = 26.57899 55.05011 40.81455
#
# Velocity S-wave (km/s) = 3.06753 4.41467 3.80125
# Velocity P-wave (km/s) = 4.33412 6.85934 5.73738
#
# Compressibility (1/GPa) = 0.05675070
#
# Stress axis : x y z
#
# Youngs Moduli (GPa) = 88.17179 97.80827 21.20329
#
# Poissons Ratio (x) = 0.26313 -0.03503
# Poissons Ratio (y) = 0.23720 0.10496
# Poissons Ratio (z) = -0.14566 0.48419
#
# Static dielectric constant tensor:
#      x y z
#    x 2.303220 0.019660 0.024790 
#    y 0.019660 2.215390 -0.012290 
#    z 0.024790 -0.012290 2.457360 
# 
# From -- ./inp_files/41954.got.cif
#   From: 2010.05.17/outbox.cif.g08.bks.cpg/sg2_21_cif.got.tgz:41954.got - 2010.06.03 11:33:40.
