data_PCOD9093341
_publ_section_title
;
Structure prediction by ZEFSAII (Michael W. Deem and Ramdas Pophale) SiO2 
 PCOD9093341
Probable space group: P -1
;
_chemical_formula_sum "Si O2"
_cell_formula_units_Z 16
_cell_length_a 18.181451
_cell_length_b 7.156724
_cell_length_c 16.194605
_cell_angle_alpha 120.975420
_cell_angle_beta 156.921332
_cell_angle_gamma 52.819206
_cell_volume 652.342726
_symmetry_space_group_name_H-M "P -1"
_symmetry_group_IT_number 2
_symmetry_cell_setting 'triclinic'
loop_
_space_group_symop_operation_xyz
x,y,z
-x,-y,-z
loop_
_atom_site_type_symbol
_atom_site_label
_atom_site_fract_x
_atom_site_fract_y
_atom_site_fract_z
Si Si1 0.520527 0.481734 0.244623
Si Si2 0.768437 0.651453 0.173893
Si Si3 0.555195 0.141416 0.968958
Si Si4 0.106225 0.476966 0.015997
Si Si5 0.527162 0.117321 0.312549
Si Si6 0.151053 0.726776 0.607194
Si Si7 0.687645 0.693284 0.589562
Si Si8 0.328697 0.818446 0.352163
O O1 0.554244 0.291822 0.310322
O O2 0.691402 0.358450 0.324802
O O3 0.551812 0.696033 0.370887
O O4 0.303666 0.533027 0.989791
O O5 0.630327 0.752033 0.134679
O O6 0.002358 0.587211 0.422213
O O7 0.689497 0.876306 0.080418
O O8 0.466961 0.113588 0.783081
O O9 0.707834 0.276038 0.169064
O O10 0.298217 0.243432 0.139909
O O11 0.188436 0.687235 0.147236
O O12 0.000000 0.500000 0.000000
O O13 0.915680 0.508818 0.767514
O O14 0.674486 0.110727 0.539242
O O15 0.000000 0.000000 0.500000
O O16 0.561630 0.655529 0.528465
O O17 0.712078 0.939455 0.683239
#
# Coordination Sequence:
#
# PCOD9093341 Si02
#       8
#     2   2   2   2   2   2   2   2
#     4  10  20  32  56  87 111 149 195 235 283 338
#     4   8  15  30  46  79 117 141 178 232 286 334
#     4   8  16  28  46  79 114 143 175 232 290 331
#     4  12  23  39  61  88 114 148 198 249 288 333
#     4  11  20  37  58  86 117 145 194 247 284 335
#     4   9  16  28  50  81 119 143 178 238 293 330
#     4  11  24  40  61  82 116 161 191 234 295 352
#     4  11  24  44  56  81 123 155 190 240 298 346
#
# _framework density 24.526983000000001
#
# number of rings (size 3 to 8) (size 9 to 14) (size 15 to 20)
#    0.000    2.000    2.500    3.750    5.250    0.000 
#    2.250    0.000    0.000    3.000    0.000    4.375 
#    0.000    0.000    0.000    0.000    0.000    0.000 
#
# Total GULP energy -89436.943486 kJ/mol
# GULP energy per Si atom -5589.808968 kJ/mol
# Density = 2.447116 g / cm^3
# Si number density = 24.526983 Si / 1000 Ang^3
#
#
#
# Elastic Constant Matrix: (Units=GPa)
#
#
# Indices 1 2 3 4 5 6 
#
# 1 81.6194 14.8016 46.7196 14.1370 -6.3591 -11.1410
# 2 14.8016 36.3116 15.3300 8.2489 1.4247 -1.0667
# 3 46.7196 15.3300 169.1772 31.7263 7.4271 -11.4669
# 4 14.1370 8.2489 31.7263 38.1336 -8.8657 -3.9602
# 5 -6.3591 1.4247 7.4271 -8.8657 46.0042 6.4298
# 6 -11.1410 -1.0667 -11.4669 -3.9602 6.4298 27.9349
#
#
#
# Elastic Compliance Matrix: (Units=1/GPa)
#
#
# Indices 1 2 3 4 5 6 
#
# 1 0.016107 -0.004771 -0.003655 -0.000960 0.002207 0.004097
# 2 -0.004771 0.030928 -0.000482 -0.005190 -0.002385 -0.001106
# 3 -0.003655 -0.000482 0.008372 -0.006075 -0.003272 0.001853
# 4 -0.000960 -0.005190 -0.006075 0.034543 0.007657 0.000060
# 5 0.002207 -0.002385 -0.003272 0.007657 0.024845 -0.005187
# 6 0.004097 -0.001106 0.001853 0.000060 -0.005187 0.039352
#
#
# Mechanical properties :
#
#
# Convention : Reuss Voigt Hill
#
# Bulk Modulus (GPa) = 26.60173 48.97894 37.79034
# Shear Modulus (GPa) = 27.10148 36.43167 31.76658
#
# Velocity S-wave (km/s) = 3.32771 3.85823 3.60275
# Velocity P-wave (km/s) = 5.06303 6.31353 5.72254
#
# Compressibility (1/GPa) = 0.03759153
#
# Stress axis : x y z
#
# Youngs Moduli (GPa) = 62.08622 32.33349 119.44111
#
# Poissons Ratio (x) = 0.15425 0.43654
# Poissons Ratio (y) = 0.29619 0.05758
# Poissons Ratio (z) = 0.22691 0.01559
#
# Static dielectric constant tensor:
#      x y z
#    x 1.957500 0.064520 -0.037210 
#    y 0.064520 2.055970 -0.011640 
#    z -0.037210 -0.011640 2.029120 
# 
# From -- ./inp_files/577609.got.cif
#   From: 2010.05.17/outbox.cif.g08.bks.cpg/sg2_289_cif.got.tgz:577609.got - 2010.06.03 11:33:40.
