data_PCOD9093697
_publ_section_title
;
Structure prediction by ZEFSAII (Michael W. Deem and Ramdas Pophale) SiO2 
 PCOD9093697
Probable space group: P -1
;
_chemical_formula_sum "Si O2"
_cell_formula_units_Z 15
_cell_length_a 4.934223
_cell_length_b 17.101056
_cell_length_c 9.334624
_cell_angle_alpha 79.504167
_cell_angle_beta 55.258674
_cell_angle_gamma 54.325366
_cell_volume 512.306615
_symmetry_space_group_name_H-M "P -1"
_symmetry_group_IT_number 2
_symmetry_cell_setting 'triclinic'
loop_
_space_group_symop_operation_xyz
x,y,z
-x,-y,-z
loop_
_atom_site_type_symbol
_atom_site_label
_atom_site_fract_x
_atom_site_fract_y
_atom_site_fract_z
Si Si1 0.677287 0.787646 0.678577
Si Si2 0.312332 0.028523 0.387400
Si Si3 0.734585 0.147934 0.939755
Si Si4 0.500000 0.000000 0.000000
Si Si5 0.955814 0.750788 0.322976
Si Si6 0.744800 0.566026 0.276888
Si Si7 0.920931 0.346282 0.988092
Si Si8 0.543127 0.410978 0.353708
O O1 0.817710 0.858785 0.612189
O O2 0.613503 0.776113 0.534005
O O3 0.033714 0.683793 0.674082
O O4 0.273808 0.841370 0.886039
O O5 0.486394 0.001621 0.180493
O O6 0.500000 0.000000 0.500000
O O7 0.000000 0.000000 0.500000
O O8 0.059630 0.156823 0.757101
O O9 0.310393 0.251599 0.982115
O O10 0.697199 0.063947 0.926201
O O11 0.357639 0.676869 0.319719
O O12 0.047871 0.691973 0.167944
O O13 0.619300 0.494407 0.306952
O O14 0.795059 0.565291 0.434169
O O15 0.064202 0.561103 0.075968
O O16 0.546701 0.381590 0.197195
#
# Coordination Sequence:
#
# PCOD9093697 Si02
#       8
#     2   2   2   1   2   2   2   2
#     4   9  20  40  57  85 117 156 199 251 313 371
#     4  11  25  45  70 100 134 177 224 275 335 400
#     4   9  20  39  55  82 114 154 198 249 309 370
#     4  10  22  44  66  94 130 172 222 276 332 396
#     4  10  20  35  57  83 115 149 197 245 302 370
#     4   9  19  36  56  77 113 152 191 241 298 360
#     4  10  20  33  56  81 109 151 190 243 299 364
#     4   9  18  37  57  78 115 152 191 247 297 363
#
# _framework density 29.279343000000001
#
# number of rings (size 3 to 8) (size 9 to 14) (size 15 to 20)
#    0.000    2.400    0.000    1.200    1.867    2.133 
#   14.400    6.000    0.000    0.000    0.000    0.000 
#    0.000    0.000    0.000    0.000    0.000    0.000 
#
# Total GULP energy -83733.246048 kJ/mol
# GULP energy per Si atom -5582.216403 kJ/mol
# Density = 2.921270 g / cm^3
# Si number density = 29.279343 Si / 1000 Ang^3
#
#
#
# Elastic Constant Matrix: (Units=GPa)
#
#
# Indices 1 2 3 4 5 6 
#
# 1 108.3050 23.7592 65.9830 -11.6899 25.5464 20.1562
# 2 23.7592 145.7394 61.6119 -35.4970 10.3885 25.5457
# 3 65.9830 61.6119 283.7582 6.2541 37.6641 15.0202
# 4 -11.6899 -35.4970 6.2541 57.4305 4.5677 0.5280
# 5 25.5464 10.3885 37.6641 4.5677 53.0918 -0.1229
# 6 20.1562 25.5457 15.0202 0.5280 -0.1229 43.6510
#
#
#
# Elastic Compliance Matrix: (Units=1/GPa)
#
#
# Indices 1 2 3 4 5 6 
#
# 1 0.013289 0.001378 -0.002453 0.004303 -0.005308 -0.006166
# 2 0.001378 0.010533 -0.002203 0.007230 -0.001797 -0.006135
# 3 -0.002453 -0.002203 0.004792 -0.002264 -0.001591 0.000796
# 4 0.004303 0.007230 -0.002264 0.023366 -0.003903 -0.005732
# 5 -0.005308 -0.001797 -0.001591 -0.003903 0.023215 0.004163
# 6 -0.006166 -0.006135 0.000796 -0.005732 0.004163 0.029153
#
#
# Mechanical properties :
#
#
# Convention : Reuss Voigt Hill
#
# Bulk Modulus (GPa) = 45.33870 93.39008 69.36439
# Shear Modulus (GPa) = 42.27997 56.59789 49.43893
#
# Velocity S-wave (km/s) = 3.80415 4.40140 4.11363
# Velocity P-wave (km/s) = 5.90033 7.60231 6.80474
#
# Compressibility (1/GPa) = 0.02205621
#
# Stress axis : x y z
#
# Youngs Moduli (GPa) = 75.24741 94.94167 208.68199
#
# Poissons Ratio (x) = -0.13080 0.51195
# Poissons Ratio (y) = -0.10367 0.45982
# Poissons Ratio (z) = 0.18460 0.20920
#
# Static dielectric constant tensor:
#      x y z
#    x 2.163320 0.218140 -0.339240 
#    y 0.218140 1.533430 0.779340 
#    z -0.339240 0.779340 1.925000 
# 
# From -- ./inp_files/99600.got.cif
#   From: 2010.05.17/outbox.cif.g08.bks.cpg/sg2_50_cif.got.tgz:99600.got - 2010.06.03 11:33:40.
