data_PCOD9093771
_publ_section_title
;
Structure prediction by ZEFSAII (Michael W. Deem and Ramdas Pophale) SiO2 
 PCOD9093771
Probable space group: P -1
;
_chemical_formula_sum "Si O2"
_cell_formula_units_Z 16
_cell_length_a 20.873805
_cell_length_b 15.603384
_cell_length_c 27.668737
_cell_angle_alpha 163.655338
_cell_angle_beta 20.274490
_cell_angle_gamma 162.053612
_cell_volume 747.845143
_symmetry_space_group_name_H-M "P -1"
_symmetry_group_IT_number 2
_symmetry_cell_setting 'triclinic'
loop_
_space_group_symop_operation_xyz
x,y,z
-x,-y,-z
loop_
_atom_site_type_symbol
_atom_site_label
_atom_site_fract_x
_atom_site_fract_y
_atom_site_fract_z
Si Si1 0.772262 0.156617 0.749060
Si Si2 0.094167 0.820878 0.646032
Si Si3 0.004734 0.300972 0.508142
Si Si4 0.743381 0.385378 0.354772
Si Si5 0.536888 0.342053 0.570489
Si Si6 0.501477 0.010291 0.062253
Si Si7 0.437260 0.092222 0.330644
Si Si8 0.920866 0.092552 0.842572
O O1 0.006744 0.485957 0.746959
O O2 0.764017 0.776648 0.548749
O O3 0.715950 0.213661 0.873798
O O4 0.596392 0.087647 0.795176
O O5 0.037401 0.650099 0.646452
O O6 0.000000 0.500000 0.500000
O O7 0.352954 0.059348 0.583236
O O8 0.984523 0.032233 0.817986
O O9 0.228149 0.412558 0.438146
O O10 0.980179 0.035486 0.338599
O O11 0.795770 0.118399 0.591423
O O12 0.591124 0.190074 0.402858
O O13 0.626269 0.144792 0.260868
O O14 0.444459 0.586144 0.749027
O O15 0.666002 0.904723 0.909730
O O16 0.500000 0.000000 0.000000
O O17 0.500000 0.500000 0.500000
O O18 0.000000 0.500000 0.000000
#
# Coordination Sequence:
#
# PCOD9093771 Si02
#       8
#     2   2   2   2   2   2   2   2
#     4   9  19  33  50  82 117 153 197 250 303 352
#     4  10  22  37  57  89 121 163 206 252 311 359
#     4  11  22  37  60  90 125 160 207 257 309 364
#     4   9  17  31  53  79 116 150 194 258 296 346
#     4  11  19  36  58  89 122 157 204 252 308 366
#     4  11  22  36  57  86 125 158 198 251 312 368
#     4  10  20  33  57  88 118 155 204 256 306 351
#     4  11  22  37  57  85 125 162 204 252 304 374
#
# _framework density 21.394803
#
# number of rings (size 3 to 8) (size 9 to 14) (size 15 to 20)
#    0.000    1.750    3.750    1.875    5.250    0.000 
#    0.000    0.000    0.000    0.750    0.000    8.750 
#    0.000    0.000    0.000    0.000    0.000    0.000 
#
# Total GULP energy -89190.804435 kJ/mol
# GULP energy per Si atom -5574.425277 kJ/mol
# Density = 2.134611 g / cm^3
# Si number density = 21.394803 Si / 1000 Ang^3
#
#
#
# Elastic Constant Matrix: (Units=GPa)
#
#
# Indices 1 2 3 4 5 6 
#
# 1 117.2374 29.5908 20.9875 -12.6560 -1.1066 2.5703
# 2 29.5908 105.4899 8.8593 -17.0838 -4.3902 -9.4271
# 3 20.9875 8.8593 28.4752 -5.8388 -2.3501 -7.2815
# 4 -12.6560 -17.0838 -5.8388 19.7841 -7.0980 -1.5241
# 5 -1.1066 -4.3902 -2.3501 -7.0980 28.6806 -0.4107
# 6 2.5703 -9.4271 -7.2815 -1.5241 -0.4107 40.2023
#
#
#
# Elastic Compliance Matrix: (Units=1/GPa)
#
#
# Indices 1 2 3 4 5 6 
#
# 1 0.010727 -0.002172 -0.007285 0.002693 0.000116 -0.002411
# 2 -0.002172 0.012429 0.001556 0.011870 0.004939 0.003836
# 3 -0.007285 0.001556 0.045865 0.013555 0.007209 0.009725
# 4 0.002693 0.011870 0.013555 0.074927 0.021691 0.008128
# 5 0.000116 0.004939 0.007209 0.021691 0.041639 0.003704
# 6 -0.002411 0.003836 0.009725 0.008128 0.003704 0.028035
#
#
# Mechanical properties :
#
#
# Convention : Reuss Voigt Hill
#
# Bulk Modulus (GPa) = 18.79041 41.11973 29.95507
# Shear Modulus (GPa) = 20.22957 30.51770 25.37364
#
# Velocity S-wave (km/s) = 3.07829 3.78088 3.44753
# Velocity P-wave (km/s) = 4.62993 6.19042 5.46615
#
# Compressibility (1/GPa) = 0.05321863
#
# Stress axis : x y z
#
# Youngs Moduli (GPa) = 93.22580 80.45934 21.80305
#
# Poissons Ratio (x) = 0.17473 0.15884
# Poissons Ratio (y) = 0.20246 -0.03393
# Poissons Ratio (z) = 0.67917 -0.12520
#
# Static dielectric constant tensor:
#      x y z
#    x 1.898500 0.032240 -0.045750 
#    y 0.032240 1.827330 -0.011450 
#    z -0.045750 -0.011450 1.806310 
# 
# From -- ./inp_files/620834.got.cif
#   From: 2010.05.17/outbox.cif.g08.bks.cpg/sg2_311_cif.got.tgz:620834.got - 2010.06.03 11:33:40.
