data_PCOD9093665
_publ_section_title
;
Structure prediction by ZEFSAII (Michael W. Deem and Ramdas Pophale) SiO2 
 PCOD9093665
Probable space group: P -1
;
_chemical_formula_sum "Si O2"
_cell_formula_units_Z 16
_cell_length_a 11.152015
_cell_length_b 11.657675
_cell_length_c 18.844277
_cell_angle_alpha 63.208325
_cell_angle_beta 156.045441
_cell_angle_gamma 132.284214
_cell_volume 616.341041
_symmetry_space_group_name_H-M "P -1"
_symmetry_group_IT_number 2
_symmetry_cell_setting 'triclinic'
loop_
_space_group_symop_operation_xyz
x,y,z
-x,-y,-z
loop_
_atom_site_type_symbol
_atom_site_label
_atom_site_fract_x
_atom_site_fract_y
_atom_site_fract_z
Si Si1 0.084489 0.161189 0.759789
Si Si2 0.055689 0.488658 0.222250
Si Si3 0.102573 0.299972 0.873696
Si Si4 0.253068 0.296204 0.109501
Si Si5 0.835061 0.584031 0.548988
Si Si6 0.047984 0.277780 0.574628
Si Si7 0.188285 0.193020 0.247335
Si Si8 0.291952 0.719995 0.094177
O O1 0.966873 0.172178 0.771202
O O2 0.852283 0.177688 0.572299
O O3 0.992797 0.982017 0.759031
O O4 0.595508 0.347462 0.974887
O O5 0.433585 0.548960 0.363047
O O6 0.965109 0.378512 0.276228
O O7 0.188055 0.672311 0.267615
O O8 0.500000 0.500000 0.000000
O O9 0.258855 0.275247 0.035456
O O10 0.623712 0.506304 0.281986
O O11 0.252859 0.185459 0.199607
O O12 0.816787 0.238421 0.904229
O O13 0.080766 0.715709 0.575998
O O14 0.617372 0.383867 0.460034
O O15 0.254417 0.201342 0.691060
O O16 0.867467 0.216899 0.062954
O O17 0.000000 0.500000 0.000000
#
# Coordination Sequence:
#
# PCOD9093665 Si02
#       8
#     2   2   2   2   2   2   2   2
#     4  11  22  33  55  84 113 138 184 228 268 307
#     4  10  21  35  58  83 108 142 182 229 268 325
#     4  10  18  32  54  79 111 143 184 222 263 318
#     4   8  15  29  50  75 100 136 185 214 253 315
#     4  10  20  36  59  81 108 140 185 221 280 325
#     4  10  16  29  55  77 103 140 180 218 259 328
#     4   9  20  32  54  86 106 138 184 231 267 311
#     4   8  14  26  50  77  96 132 183 217 253 306
#
# _framework density 25.959655999999999
#
# number of rings (size 3 to 8) (size 9 to 14) (size 15 to 20)
#    0.750    1.750    3.750    1.500    0.000    2.500 
#    0.000    1.250    2.750    2.250    0.000    0.000 
#    0.000    0.000    0.000    0.000    0.000    0.000 
#
# Total GULP energy -89216.875657 kJ/mol
# GULP energy per Si atom -5576.054729 kJ/mol
# Density = 2.590057 g / cm^3
# Si number density = 25.959656 Si / 1000 Ang^3
#
#
#
# Elastic Constant Matrix: (Units=GPa)
#
#
# Indices 1 2 3 4 5 6 
#
# 1 116.5943 19.8263 48.1510 -12.3562 -38.9535 -1.2354
# 2 19.8263 104.4054 32.7373 -36.2340 -2.8389 6.1181
# 3 48.1510 32.7373 105.1026 -39.0938 -22.0538 15.9039
# 4 -12.3562 -36.2340 -39.0938 41.7004 18.6457 -2.2294
# 5 -38.9535 -2.8389 -22.0538 18.6457 39.6937 -20.3646
# 6 -1.2354 6.1181 15.9039 -2.2294 -20.3646 22.8697
#
#
#
# Elastic Compliance Matrix: (Units=1/GPa)
#
#
# Indices 1 2 3 4 5 6 
#
# 1 -0.010402 0.012568 0.012700 0.037218 -0.044957 -0.049160
# 2 0.012568 0.004667 -0.011153 -0.014232 0.029700 0.032245
# 3 0.012700 -0.011153 0.003050 -0.019528 0.041150 0.036287
# 4 0.037218 -0.014232 -0.019528 -0.029276 0.086341 0.093427
# 5 -0.044957 0.029700 0.041150 0.086341 -0.092391 -0.112844
# 6 -0.049160 0.032245 0.036287 0.093427 -0.112844 -0.084166
#
#
# Mechanical properties :
#
#
# Convention : Reuss Voigt Hill
#
# Bulk Modulus (GPa) = 39.14504 58.61463 48.87983
# Shear Modulus (GPa) = -21.90755 35.87859 6.98552
#
# Velocity S-wave (km/s) = -2.90816 3.72168 1.64218
# Velocity P-wave (km/s) = 1.95841 6.41062 4.73980
#
# Compressibility (1/GPa) = 0.02554602
#
# Stress axis : x y z
#
# Youngs Moduli (GPa) = -96.13828 214.25993 327.82979
#
# Poissons Ratio (x) = -2.69283 -4.16333
# Poissons Ratio (y) = 1.20827 3.65618
# Poissons Ratio (z) = 1.22092 2.38957
#
# Static dielectric constant tensor:
#      x y z
#    x 2.217250 -0.000930 0.053220 
#    y -0.000930 1.977100 -0.047650 
#    z 0.053220 -0.047650 2.160260 
# 
# From -- ./inp_files/568703.got.cif
#   From: 2010.05.17/outbox.cif.g08.bks.cpg/sg2_285_cif.got.tgz:568703.got - 2010.06.03 11:33:40.
