data_PCOD9093939
_publ_section_title
;
Structure prediction by ZEFSAII (Michael W. Deem and Ramdas Pophale) SiO2 
 PCOD9093939
Probable space group: P -1
;
_chemical_formula_sum "Si O2"
_cell_formula_units_Z 16
_cell_length_a 18.848120
_cell_length_b 10.012043
_cell_length_c 8.368931
_cell_angle_alpha 133.836405
_cell_angle_beta 85.126730
_cell_angle_gamma 129.778710
_cell_volume 668.176100
_symmetry_space_group_name_H-M "P -1"
_symmetry_group_IT_number 2
_symmetry_cell_setting 'triclinic'
loop_
_space_group_symop_operation_xyz
x,y,z
-x,-y,-z
loop_
_atom_site_type_symbol
_atom_site_label
_atom_site_fract_x
_atom_site_fract_y
_atom_site_fract_z
Si Si1 0.009824 0.644205 0.342418
Si Si2 0.053365 0.077686 0.880809
Si Si3 0.895902 0.053365 0.763369
Si Si4 0.558687 0.304869 0.607757
Si Si5 0.251477 0.722992 0.928678
Si Si6 0.439009 0.014137 0.899331
Si Si7 0.694322 0.352317 0.831097
Si Si8 0.366325 0.356983 0.455634
O O1 0.088722 0.842046 0.333143
O O2 0.976863 0.358558 0.115554
O O3 0.879880 0.466583 0.193086
O O4 0.061567 0.876773 0.668618
O O5 0.186116 0.439440 0.121026
O O6 0.957440 0.983353 0.708218
O O7 0.000000 0.000000 0.000000
O O8 0.757120 0.786021 0.616108
O O9 0.648075 0.456214 0.864653
O O10 0.594879 0.513880 0.628349
O O11 0.421137 0.028687 0.464920
O O12 0.564393 0.112126 0.363230
O O13 0.267185 0.591614 0.944658
O O14 0.305222 0.778505 0.793017
O O15 0.334568 0.075683 0.245567
O O16 0.532773 0.377321 0.211727
O O17 0.500000 0.000000 0.000000
#
# Coordination Sequence:
#
# PCOD9093939 Si02
#       8
#     2   2   2   2   2   2   2   2
#     4  10  24  41  65  96 125 162 215 267 310 374
#     4  12  26  40  67  92 128 173 210 252 325 386
#     4  10  22  41  65  96 126 159 211 269 310 369
#     4  10  23  40  60  87 128 159 201 258 313 370
#     4  11  21  39  65  91 121 159 207 262 309 372
#     4  10  20  33  62  91 116 161 208 250 304 379
#     4  11  23  40  61  90 124 163 205 259 312 372
#     4  10  21  37  66  91 123 158 205 255 318 374
#
# _framework density 23.945782999999999
#
# number of rings (size 3 to 8) (size 9 to 14) (size 15 to 20)
#    0.000    1.500    3.750    1.500    7.000    0.500 
#    0.000    0.625    0.000    0.000    0.000    0.000 
#    0.000    0.000    0.000    0.000    0.000    0.000 
#
# Total GULP energy -89294.878069 kJ/mol
# GULP energy per Si atom -5580.929879 kJ/mol
# Density = 2.389128 g / cm^3
# Si number density = 23.945783 Si / 1000 Ang^3
#
#
#
# Elastic Constant Matrix: (Units=GPa)
#
#
# Indices 1 2 3 4 5 6 
#
# 1 59.1822 22.9381 13.6115 11.1101 -0.5622 8.2607
# 2 22.9381 152.0273 38.4149 22.8566 5.7931 17.9146
# 3 13.6115 38.4149 66.8079 7.6503 -26.1116 -0.4038
# 4 11.1101 22.8566 7.6503 27.6401 10.7092 11.4975
# 5 -0.5622 5.7931 -26.1116 10.7092 47.3170 4.6966
# 6 8.2607 17.9146 -0.4038 11.4975 4.6966 41.5278
#
#
#
# Elastic Compliance Matrix: (Units=1/GPa)
#
#
# Indices 1 2 3 4 5 6 
#
# 1 0.019223 -0.001285 -0.002378 -0.005426 0.000485 -0.001845
# 2 -0.001285 0.009195 -0.006107 -0.002945 -0.003592 -0.002549
# 3 -0.002378 -0.006107 0.026933 -0.009921 0.017416 0.004147
# 4 -0.005426 -0.002945 -0.009921 0.054465 -0.016417 -0.010969
# 5 0.000485 -0.003592 0.017416 -0.016417 0.034683 0.002245
# 6 -0.001845 -0.002549 0.004147 -0.010969 0.002245 0.028370
#
#
# Mechanical properties :
#
#
# Convention : Reuss Voigt Hill
#
# Bulk Modulus (GPa) = 27.92532 47.54961 37.73746
# Shear Modulus (GPa) = 24.46835 36.83384 30.65110
#
# Velocity S-wave (km/s) = 3.20006 3.92627 3.58162
# Velocity P-wave (km/s) = 5.03399 6.36038 5.73566
#
# Compressibility (1/GPa) = 0.03580980
#
# Stress axis : x y z
#
# Youngs Moduli (GPa) = 52.02197 108.75733 37.12971
#
# Poissons Ratio (x) = 0.13971 0.08830
# Poissons Ratio (y) = 0.06683 0.22676
# Poissons Ratio (z) = 0.12372 0.66422
#
# Static dielectric constant tensor:
#      x y z
#    x 1.889110 -0.014060 0.018260 
#    y -0.014060 1.914870 0.004800 
#    z 0.018260 0.004800 2.152590 
# 
# From -- ./inp_files/346474.got.cif
#   From: 2010.05.17/outbox.cif.g08.bks.cpg/sg2_174_cif.got.tgz:346474.got - 2010.06.03 11:33:40.
