data_PCOD9093485
_publ_section_title
;
Structure prediction by ZEFSAII (Michael W. Deem and Ramdas Pophale) SiO2 
 PCOD9093485
Probable space group: P -1
;
_chemical_formula_sum "Si O2"
_cell_formula_units_Z 16
_cell_length_a 11.950199
_cell_length_b 11.819040
_cell_length_c 8.800933
_cell_angle_alpha 90.688555
_cell_angle_beta 50.735173
_cell_angle_gamma 120.946253
_cell_volume 727.654630
_symmetry_space_group_name_H-M "P -1"
_symmetry_group_IT_number 2
_symmetry_cell_setting 'triclinic'
loop_
_space_group_symop_operation_xyz
x,y,z
-x,-y,-z
loop_
_atom_site_type_symbol
_atom_site_label
_atom_site_fract_x
_atom_site_fract_y
_atom_site_fract_z
Si Si1 0.182597 0.544895 0.539425
Si Si2 0.537926 0.227566 0.123344
Si Si3 0.113618 0.229115 0.352608
Si Si4 0.694633 0.463242 0.245011
Si Si5 0.149469 0.078461 0.589523
Si Si6 0.538918 0.649665 0.093086
Si Si7 0.815292 0.265426 0.690562
Si Si8 0.717029 0.731716 0.250734
O O1 0.205629 0.548557 0.699410
O O2 0.326295 0.524286 0.342273
O O3 0.241395 0.691576 0.409218
O O4 0.972029 0.414134 0.657893
O O5 0.678113 0.376124 0.109980
O O6 0.346059 0.111522 0.383573
O O7 0.480164 0.273313 0.027582
O O8 0.640071 0.171676 0.958330
O O9 0.153808 0.190198 0.478153
O O10 0.939824 0.224958 0.527070
O O11 0.312589 0.367215 0.101812
O O12 0.025529 0.086883 0.317205
O O13 0.778877 0.633562 0.163012
O O14 0.473470 0.370168 0.481638
O O15 0.144099 0.121900 0.764985
O O16 0.644295 0.747144 0.156479
#
# Coordination Sequence:
#
# PCOD9093485 Si02
#       8
#     2   2   2   2   2   2   2   2
#     4   9  19  34  50  73 107 134 163 208 253 302
#     4   9  19  34  52  74 104 137 167 205 252 300
#     4  10  20  34  54  76 100 135 174 208 248 297
#     4   9  17  31  52  77 104 133 165 205 255 303
#     4   9  19  36  54  75 102 131 171 216 248 290
#     4   9  19  33  52  74 101 133 168 207 253 297
#     4  10  20  33  51  76 105 137 168 202 250 305
#     4   9  17  30  53  79 101 130 168 210 253 298
#
# _framework density 21.988454000000001
#
# number of rings (size 3 to 8) (size 9 to 14) (size 15 to 20)
#    0.000    2.750    0.000    0.750    0.000    8.500 
#    0.000    1.250    0.000   12.000    0.000    0.000 
#    0.000    0.000    0.000    0.000    0.000    0.000 
#
# Total GULP energy -89129.787199 kJ/mol
# GULP energy per Si atom -5570.611700 kJ/mol
# Density = 2.193841 g / cm^3
# Si number density = 21.988454 Si / 1000 Ang^3
#
#
#
# Elastic Constant Matrix: (Units=GPa)
#
#
# Indices 1 2 3 4 5 6 
#
# 1 111.2961 23.9504 37.3551 21.2395 13.5843 19.5576
# 2 23.9504 29.8671 37.9609 13.0174 5.7551 10.2620
# 3 37.3551 37.9609 108.3846 17.9860 -8.0158 -1.1738
# 4 21.2395 13.0174 17.9860 27.8623 5.6364 2.9304
# 5 13.5843 5.7551 -8.0158 5.6364 28.9738 18.7076
# 6 19.5576 10.2620 -1.1738 2.9304 18.7076 27.5251
#
#
#
# Elastic Compliance Matrix: (Units=1/GPa)
#
#
# Indices 1 2 3 4 5 6 
#
# 1 0.012941 -0.000289 -0.003370 -0.006623 -0.000265 -0.008346
# 2 -0.000289 0.089366 -0.028394 -0.019616 -0.001499 -0.031215
# 3 -0.003370 -0.028394 0.020989 -0.000127 0.007277 0.008943
# 4 -0.006623 -0.019616 -0.000127 0.051181 -0.012882 0.015321
# 5 -0.000265 -0.001499 0.007277 -0.012882 0.067515 -0.043457
# 6 -0.008346 -0.031215 0.008943 0.015321 -0.043457 0.082185
#
#
# Mechanical properties :
#
#
# Convention : Reuss Voigt Hill
#
# Bulk Modulus (GPa) = 16.89471 49.78671 33.34071
# Shear Modulus (GPa) = 12.25456 26.89097 19.57277
#
# Velocity S-wave (km/s) = 2.36332 3.50088 2.98676
# Velocity P-wave (km/s) = 3.89194 6.24763 5.20481
#
# Compressibility (1/GPa) = 0.05919012
#
# Stress axis : x y z
#
# Youngs Moduli (GPa) = 77.27249 11.18998 47.64493
#
# Poissons Ratio (x) = 0.00324 0.16056
# Poissons Ratio (y) = 0.02234 1.35281
# Poissons Ratio (z) = 0.26040 0.31772
#
# Static dielectric constant tensor:
#      x y z
#    x 1.797220 -0.003300 -0.039590 
#    y -0.003300 1.890900 0.005950 
#    z -0.039590 0.005950 1.876830 
# 
# From -- ./inp_files/179001.got.cif
#   From: 2010.05.17/outbox.cif.g08.bks.cpg/sg2_90_cif.got.tgz:179001.got - 2010.06.03 11:33:40.
