data_PCOD9093709
_publ_section_title
;
Structure prediction by ZEFSAII (Michael W. Deem and Ramdas Pophale) SiO2 
 PCOD9093709
Probable space group: P -1
;
_chemical_formula_sum "Si O2"
_cell_formula_units_Z 14
_cell_length_a 8.583003
_cell_length_b 26.263877
_cell_length_c 20.761766
_cell_angle_alpha 10.862531
_cell_angle_beta 41.048521
_cell_angle_gamma 42.085661
_cell_volume 579.161431
_symmetry_space_group_name_H-M "P -1"
_symmetry_group_IT_number 2
_symmetry_cell_setting 'triclinic'
loop_
_space_group_symop_operation_xyz
x,y,z
-x,-y,-z
loop_
_atom_site_type_symbol
_atom_site_label
_atom_site_fract_x
_atom_site_fract_y
_atom_site_fract_z
Si Si1 0.011119 0.179513 0.588965
Si Si2 0.405139 0.506640 0.224391
Si Si3 0.051003 0.201685 0.040788
Si Si4 0.388452 0.449158 0.710341
Si Si5 0.800054 0.728766 0.289859
Si Si6 0.467437 0.992080 0.354957
Si Si7 0.844076 0.253219 0.331655
O O1 0.844946 0.441580 0.314280
O O2 0.295194 0.190313 0.486163
O O3 0.948526 0.987980 0.786028
O O4 0.921388 0.012608 0.886654
O O5 0.313176 0.332578 0.529643
O O6 0.591448 0.331487 0.345001
O O7 0.174379 0.601821 0.138886
O O8 0.524950 0.785546 0.866573
O O9 0.038895 0.006018 0.349035
O O10 0.289658 0.364883 0.776905
O O11 0.587729 0.673706 0.374257
O O12 0.489037 0.191708 0.038104
O O13 0.000000 0.500000 0.500000
O O14 0.234342 0.818551 0.627621
O O15 0.000000 0.500000 0.000000
#
# Coordination Sequence:
#
# PCOD9093709 Si02
#       7
#     2   2   2   2   2   2   2
#     4  11  20  38  60  85 122 157 190 232 285 346
#     4  10  21  41  60  83 123 155 189 237 291 339
#     4  10  21  38  61  85 116 152 195 240 284 346
#     4  10  20  33  56  84 117 158 193 230 281 335
#     4  11  19  38  59  86 124 160 186 235 284 340
#     4   9  20  39  60  82 121 149 189 246 290 341
#     4  11  24  41  62  88 113 149 199 246 294 345
#
# _framework density 24.172879999999999
#
# number of rings (size 3 to 8) (size 9 to 14) (size 15 to 20)
#    0.000    1.714    4.286    3.000    0.000    1.714 
#    0.000    8.571    0.000    0.000    0.000    0.000 
#    0.000    0.000    0.000    0.000    0.000    0.000 
#
# Total GULP energy -78252.341627 kJ/mol
# GULP energy per Si atom -5589.452973 kJ/mol
# Density = 2.411786 g / cm^3
# Si number density = 24.172880 Si / 1000 Ang^3
#
#
#
# Elastic Constant Matrix: (Units=GPa)
#
#
# Indices 1 2 3 4 5 6 
#
# 1 133.3324 21.4544 20.7932 -6.0633 -5.8960 -30.1352
# 2 21.4544 69.2698 11.8283 -18.7094 2.2540 -3.8159
# 3 20.7932 11.8283 66.2664 -6.6685 -9.3022 -15.5685
# 4 -6.0633 -18.7094 -6.6685 22.1519 -2.2872 -4.1949
# 5 -5.8960 2.2540 -9.3022 -2.2872 26.8234 -0.8680
# 6 -30.1352 -3.8159 -15.5685 -4.1949 -0.8680 19.0112
#
#
#
# Elastic Compliance Matrix: (Units=1/GPa)
#
#
# Indices 1 2 3 4 5 6 
#
# 1 0.014165 -0.000958 0.004377 0.010446 0.006523 0.028448
# 2 -0.000958 0.019874 0.000014 0.017720 -0.000158 0.006384
# 3 0.004377 0.000014 0.024095 0.015461 0.011626 0.030615
# 4 0.010446 0.017720 0.015461 0.078746 0.014528 0.050815
# 5 0.006523 -0.000158 0.011626 0.014528 0.044810 0.025081
# 6 0.028448 0.006384 0.030615 0.050815 0.025081 0.136404
#
#
# Mechanical properties :
#
#
# Convention : Reuss Voigt Hill
#
# Bulk Modulus (GPa) = 15.38487 41.89116 28.63801
# Shear Modulus (GPa) = 15.01977 27.91679 21.46828
#
# Velocity S-wave (km/s) = 2.49539 3.40204 2.98336
# Velocity P-wave (km/s) = 3.83157 5.72707 4.87238
#
# Compressibility (1/GPa) = 0.06499894
#
# Stress axis : x y z
#
# Youngs Moduli (GPa) = 70.59758 50.31806 41.50202
#
# Poissons Ratio (x) = 0.04822 -0.18164
# Poissons Ratio (y) = 0.06765 -0.00059
# Poissons Ratio (z) = -0.30898 -0.00072
#
# Static dielectric constant tensor:
#      x y z
#    x 1.975440 0.008880 -0.070100 
#    y 0.008880 1.892590 0.027050 
#    z -0.070100 0.027050 1.981140 
# 
# From -- ./inp_files/196670.got.cif
#   From: 2010.05.17/outbox.cif.g08.bks.cpg/sg2_99_cif.got.tgz:196670.got - 2010.06.03 11:33:40.
