data_PCOD9093209
_publ_section_title
;
Structure prediction by ZEFSAII (Michael W. Deem and Ramdas Pophale) SiO2 
 PCOD9093209
Probable space group: P -1
;
_chemical_formula_sum "Si O2"
_cell_formula_units_Z 13
_cell_length_a 23.308829
_cell_length_b 5.233649
_cell_length_c 10.082200
_cell_angle_alpha 79.954866
_cell_angle_beta 155.604030
_cell_angle_gamma 96.463000
_cell_volume 496.972914
_symmetry_space_group_name_H-M "P -1"
_symmetry_group_IT_number 2
_symmetry_cell_setting 'triclinic'
loop_
_space_group_symop_operation_xyz
x,y,z
-x,-y,-z
loop_
_atom_site_type_symbol
_atom_site_label
_atom_site_fract_x
_atom_site_fract_y
_atom_site_fract_z
Si Si1 0.105379 0.835790 0.426889
Si Si2 0.771322 0.829189 0.129279
Si Si3 0.594018 0.007207 0.493724
Si Si4 0.167812 0.381838 0.065949
Si Si5 0.556497 0.475383 0.772565
Si Si6 0.112574 0.690850 0.175394
Si Si7 0.000000 0.500000 0.500000
O O1 0.179171 0.750942 0.450483
O O2 0.002856 0.651204 0.305959
O O3 0.197033 0.984846 0.702595
O O4 0.977552 0.050990 0.090646
O O5 0.913583 0.766295 0.354626
O O6 0.651603 0.953998 0.768733
O O7 0.711668 0.567847 0.085448
O O8 0.480253 0.809636 0.238499
O O9 0.529216 0.306405 0.332897
O O10 0.727751 0.881258 0.700948
O O11 0.161036 0.557971 0.905022
O O12 0.191002 0.535096 0.234336
O O13 0.500000 0.500000 0.500000
O O14 0.000000 0.500000 0.000000
#
# Coordination Sequence:
#
# PCOD9093209 Si02
#       7
#     2   2   2   2   2   2   1
#     4  10  20  34  59  85 112 154 196 242 304 345
#     4  10  20  34  56  86 119 149 195 242 287 363
#     4  10  23  37  59  86 120 163 194 237 293 349
#     4  10  21  34  58  85 123 150 193 245 295 365
#     4  10  21  39  56  81 120 165 200 230 285 354
#     4   9  19  38  53  82 115 153 193 239 303 357
#     4  10  20  32  50  92 118 142 178 240 310 340
#
# _framework density 26.158370000000001
#
# number of rings (size 3 to 8) (size 9 to 14) (size 15 to 20)
#    0.000    2.154    1.538    1.846    2.154    8.615 
#    0.000    0.000    0.000    1.846    0.000    0.000 
#    0.000    0.000    0.000    0.000    0.000    0.000 
#
# Total GULP energy -72487.991815 kJ/mol
# GULP energy per Si atom -5575.999370 kJ/mol
# Density = 2.609883 g / cm^3
# Si number density = 26.158370 Si / 1000 Ang^3
#
#
#
# Elastic Constant Matrix: (Units=GPa)
#
#
# Indices 1 2 3 4 5 6 
#
# 1 105.1144 56.9731 44.3695 11.7346 -1.3985 -49.0879
# 2 56.9731 137.3849 46.4908 24.4119 2.2346 -46.4918
# 3 44.3695 46.4908 94.6832 19.8421 23.2628 -22.3171
# 4 11.7346 24.4119 19.8421 58.0638 -13.2752 1.7066
# 5 -1.3985 2.2346 23.2628 -13.2752 44.3928 1.5483
# 6 -49.0879 -46.4918 -22.3171 1.7066 1.5483 73.5930
#
#
#
# Elastic Compliance Matrix: (Units=1/GPa)
#
#
# Indices 1 2 3 4 5 6 
#
# 1 0.017055 -0.002506 -0.005753 0.000124 0.003437 0.007974
# 2 -0.002506 0.011481 -0.002279 -0.003870 -0.000794 0.004997
# 3 -0.005753 -0.002279 0.019148 -0.007264 -0.012306 0.000957
# 4 0.000124 -0.003870 -0.007264 0.024068 0.011390 -0.005363
# 5 0.003437 -0.000794 -0.012306 0.011390 0.032630 -0.002891
# 6 0.007974 0.004997 0.000957 -0.005363 -0.002891 0.022539
#
#
# Mechanical properties :
#
#
# Convention : Reuss Voigt Hill
#
# Bulk Modulus (GPa) = 37.58248 70.31660 53.94954
# Shear Modulus (GPa) = 31.87422 47.83319 39.85370
#
# Velocity S-wave (km/s) = 3.49450 4.28085 3.90751
# Velocity P-wave (km/s) = 5.53900 7.16755 6.40524
#
# Compressibility (1/GPa) = 0.02660814
#
# Stress axis : x y z
#
# Youngs Moduli (GPa) = 58.63219 87.10275 52.22501
#
# Poissons Ratio (x) = 0.21825 0.30046
# Poissons Ratio (y) = 0.14691 0.11903
# Poissons Ratio (z) = 0.33732 0.19852
#
# Static dielectric constant tensor:
#      x y z
#    x 1.482960 -0.335570 -0.113100 
#    y -0.335570 2.154850 -0.088920 
#    z -0.113100 -0.088920 2.281860 
# 
# From -- ./inp_files/32945.got.cif
#   From: 2010.05.17/outbox.cif.g08.bks.cpg/sg2_17_cif.got.tgz:32945.got - 2010.06.03 11:33:40.
