data_PCOD9093720
_publ_section_title
;
Structure prediction by ZEFSAII (Michael W. Deem and Ramdas Pophale) SiO2 
 PCOD9093720
Probable space group: P -1
;
_chemical_formula_sum "Si O2"
_cell_formula_units_Z 16
_cell_length_a 9.257633
_cell_length_b 34.409176
_cell_length_c 15.622576
_cell_angle_alpha 164.577688
_cell_angle_beta 143.311604
_cell_angle_gamma 32.293927
_cell_volume 704.093963
_symmetry_space_group_name_H-M "P -1"
_symmetry_group_IT_number 2
_symmetry_cell_setting 'triclinic'
loop_
_space_group_symop_operation_xyz
x,y,z
-x,-y,-z
loop_
_atom_site_type_symbol
_atom_site_label
_atom_site_fract_x
_atom_site_fract_y
_atom_site_fract_z
Si Si1 0.715125 0.640918 0.570329
Si Si2 0.721552 0.127705 0.029877
Si Si3 0.790757 0.846745 0.587931
Si Si4 0.409835 0.736074 0.257356
Si Si5 0.735489 0.361403 0.201490
Si Si6 0.744292 0.411771 0.837489
Si Si7 0.535569 0.261397 0.055899
Si Si8 0.972123 0.294568 0.883589
O O1 0.560066 0.716948 0.745562
O O2 0.449693 0.675881 0.460140
O O3 0.890987 0.445153 0.231981
O O4 0.939301 0.698264 0.773358
O O5 0.739749 0.139015 0.961947
O O6 0.988606 0.128785 0.198156
O O7 0.696796 0.979421 0.749555
O O8 0.555933 0.843663 0.527141
O O9 0.971623 0.675445 0.262920
O O10 0.364758 0.662692 0.990499
O O11 0.598657 0.589689 0.101584
O O12 0.134747 0.817366 0.354928
O O13 0.659020 0.260632 0.020985
O O14 0.582665 0.550181 0.563747
O O15 0.811996 0.384099 0.910852
O O16 0.281982 0.221569 0.851084
#
# Coordination Sequence:
#
# PCOD9093720 Si02
#       8
#     2   2   2   2   2   2   2   2
#     4   9  18  34  56  79 110 141 174 220 268 322
#     4  10  21  39  56  77 110 150 180 215 273 327
#     4  10  22  37  57  80 108 145 186 219 264 332
#     4  11  20  34  56  82 110 139 181 232 270 313
#     4  10  20  33  56  87 108 138 186 226 269 319
#     4  10  20  35  57  83 111 142 178 228 276 312
#     4  10  20  35  55  80 114 144 177 226 271 320
#     4  10  20  34  57  86 110 138 178 226 278 319
#
# _framework density 22.724240000000002
#
# number of rings (size 3 to 8) (size 9 to 14) (size 15 to 20)
#    0.000    2.000    0.000    5.625    0.000    7.500 
#    0.000    6.250    0.000    6.750    0.000    0.000 
#    0.000    0.000    0.000    0.000    0.000    0.000 
#
# Total GULP energy -89276.043904 kJ/mol
# GULP energy per Si atom -5579.752744 kJ/mol
# Density = 2.267252 g / cm^3
# Si number density = 22.724240 Si / 1000 Ang^3
#
#
#
# Elastic Constant Matrix: (Units=GPa)
#
#
# Indices 1 2 3 4 5 6 
#
# 1 145.8738 39.1287 43.2866 1.1412 48.6282 18.3850
# 2 39.1287 87.5335 20.4080 1.1003 13.9297 26.3632
# 3 43.2866 20.4080 47.4095 -2.0783 26.7241 2.3984
# 4 1.1412 1.1003 -2.0783 13.8663 -0.4644 11.5054
# 5 48.6282 13.9297 26.7241 -0.4644 46.5387 0.9713
# 6 18.3850 26.3632 2.3984 11.5054 0.9713 40.0951
#
#
#
# Elastic Compliance Matrix: (Units=1/GPa)
#
#
# Indices 1 2 3 4 5 6 
#
# 1 0.012566 -0.001468 -0.005061 0.002015 -0.009664 -0.004838
# 2 -0.001468 0.016942 -0.004646 0.008539 -0.000521 -0.012626
# 3 -0.005061 -0.004646 0.035461 0.003498 -0.013702 0.002583
# 4 0.002015 0.008539 0.003498 0.101238 -0.004915 -0.035679
# 5 -0.009664 -0.000521 -0.013702 -0.004915 0.039434 0.006048
# 6 -0.004838 -0.012626 0.002583 -0.035679 0.006048 0.045399
#
#
# Mechanical properties :
#
#
# Convention : Reuss Voigt Hill
#
# Bulk Modulus (GPa) = 23.46408 54.05150 38.75779
# Shear Modulus (GPa) = 17.38546 31.96624 24.67585
#
# Velocity S-wave (km/s) = 2.76898 3.75467 3.29885
# Velocity P-wave (km/s) = 4.53552 6.52949 5.62162
#
# Compressibility (1/GPa) = 0.04261833
#
# Stress axis : x y z
#
# Youngs Moduli (GPa) = 79.57761 59.02557 28.20028
#
# Poissons Ratio (x) = 0.08662 0.14273
# Poissons Ratio (y) = 0.11678 0.13103
# Poissons Ratio (z) = 0.40277 0.27425
#
# Static dielectric constant tensor:
#      x y z
#    x 1.857220 -0.030320 -0.024850 
#    y -0.030320 1.867480 -0.015730 
#    z -0.024850 -0.015730 1.918330 
# 
# From -- ./inp_files/260199.got.cif
#   From: 2010.05.17/outbox.cif.g08.bks.cpg/sg2_131_cif.got.tgz:260199.got - 2010.06.03 11:33:40.
