data_PCOD9093463
_publ_section_title
;
Structure prediction by ZEFSAII (Michael W. Deem and Ramdas Pophale) SiO2 
 PCOD9093463
Probable space group: P -1
;
_chemical_formula_sum "Si O2"
_cell_formula_units_Z 16
_cell_length_a 11.946264
_cell_length_b 16.797757
_cell_length_c 11.941664
_cell_angle_alpha 59.297961
_cell_angle_beta 63.635032
_cell_angle_gamma 21.794897
_cell_volume 761.632935
_symmetry_space_group_name_H-M "P -1"
_symmetry_group_IT_number 2
_symmetry_cell_setting 'triclinic'
loop_
_space_group_symop_operation_xyz
x,y,z
-x,-y,-z
loop_
_atom_site_type_symbol
_atom_site_label
_atom_site_fract_x
_atom_site_fract_y
_atom_site_fract_z
Si Si1 0.023127 0.426315 0.656431
Si Si2 0.662405 0.383371 0.131539
Si Si3 0.425535 0.896962 0.627003
Si Si4 0.086067 0.260096 0.094769
Si Si5 0.406773 0.049294 0.332960
Si Si6 0.334886 0.255641 0.860102
Si Si7 0.791558 0.067048 0.905384
Si Si8 0.919038 0.191905 0.813521
O O1 0.194398 0.366803 0.720996
O O2 0.000000 0.500000 0.500000
O O3 0.674392 0.647281 0.687679
O O4 0.252622 0.187554 0.700868
O O5 0.389372 0.542176 0.222345
O O6 0.799906 0.389996 0.100977
O O7 0.500000 0.500000 0.000000
O O8 0.951320 0.123353 0.167479
O O9 0.593923 0.864178 0.645869
O O10 0.358328 0.989087 0.470823
O O11 0.127841 0.075697 0.700009
O O12 0.169544 0.216235 0.218844
O O13 0.366215 0.009701 0.101277
O O14 0.100153 0.349533 0.963786
O O15 0.468410 0.252022 0.870134
O O16 0.812518 0.158338 0.866741
O O17 0.883982 0.943300 0.062019
#
# Coordination Sequence:
#
# PCOD9093463 Si02
#       8
#     2   2   2   2   2   2   2   2
#     4   9  19  34  53  77 105 135 168 212 261 307
#     4   9  19  34  51  71 104 139 167 208 258 304
#     4  10  20  34  54  78 103 139 176 209 257 312
#     4   9  17  32  55  80 103 133 172 216 261 303
#     4   9  19  36  55  76 106 134 170 222 260 298
#     4   9  17  31  56  81 102 132 173 216 260 305
#     4   9  19  34  50  75 107 135 168 215 257 301
#     4  10  20  33  50  74 105 139 174 206 251 313
#
# _framework density 21.007494000000001
#
# number of rings (size 3 to 8) (size 9 to 14) (size 15 to 20)
#    0.000    2.750    0.000    0.750    0.000    8.000 
#    0.000    2.500    0.000   13.500    0.000    0.000 
#    0.000    0.000    0.000    0.000    0.000    0.000 
#
# Total GULP energy -89253.106817 kJ/mol
# GULP energy per Si atom -5578.319176 kJ/mol
# Density = 2.095968 g / cm^3
# Si number density = 21.007494 Si / 1000 Ang^3
#
#
#
# Elastic Constant Matrix: (Units=GPa)
#
#
# Indices 1 2 3 4 5 6 
#
# 1 65.9747 10.7722 34.5297 -19.3996 23.4396 -13.7726
# 2 10.7722 126.9948 34.2511 21.6982 -2.4491 0.3041
# 3 34.5297 34.2511 86.2047 5.1690 21.2107 -16.4987
# 4 -19.3996 21.6982 5.1690 28.5480 -3.5148 4.6353
# 5 23.4396 -2.4491 21.2107 -3.5148 22.7636 -5.5782
# 6 -13.7726 0.3041 -16.4987 4.6353 -5.5782 28.1555
#
#
#
# Elastic Compliance Matrix: (Units=1/GPa)
#
#
# Indices 1 2 3 4 5 6 
#
# 1 0.040359 -0.007301 -0.006595 0.029606 -0.030386 0.005062
# 2 -0.007301 0.011736 -0.003943 -0.011578 0.010155 -0.002091
# 3 -0.006595 -0.003943 0.020849 -0.008067 -0.012367 0.007912
# 4 0.029606 -0.011578 -0.008067 0.064134 -0.015217 -0.003693
# 5 -0.030386 0.010155 -0.012367 -0.015217 0.084770 -0.002921
# 6 0.005062 -0.002091 0.007912 -0.003693 -0.002921 0.042681
#
#
# Mechanical properties :
#
#
# Convention : Reuss Voigt Hill
#
# Bulk Modulus (GPa) = 26.83372 48.69779 37.76576
# Shear Modulus (GPa) = 15.99332 29.20151 22.59741
#
# Velocity S-wave (km/s) = 2.76219 3.73238 3.28332
# Velocity P-wave (km/s) = 4.79312 6.46574 5.69121
#
# Compressibility (1/GPa) = 0.03726654
#
# Stress axis : x y z
#
# Youngs Moduli (GPa) = 24.77753 85.20672 47.96282
#
# Poissons Ratio (x) = 0.62213 0.31631
# Poissons Ratio (y) = 0.18091 0.18911
# Poissons Ratio (z) = 0.16340 0.33596
#
# Static dielectric constant tensor:
#      x y z
#    x 1.761620 0.050190 -0.006370 
#    y 0.050190 1.848220 0.024280 
#    z -0.006370 0.024280 1.738540 
# 
# From -- ./inp_files/181542.got.cif
#   From: 2010.05.17/outbox.cif.g08.bks.cpg/sg2_91_cif.got.tgz:181542.got - 2010.06.03 11:33:40.
