data_PCOD9093191
_publ_section_title
;
Structure prediction by ZEFSAII (Michael W. Deem and Ramdas Pophale) SiO2 
 PCOD9093191
Probable space group: P -1
;
_chemical_formula_sum "Si O2"
_cell_formula_units_Z 10
_cell_length_a 13.141445
_cell_length_b 7.547731
_cell_length_c 10.452599
_cell_angle_alpha 42.596729
_cell_angle_beta 31.506675
_cell_angle_gamma 54.442574
_cell_volume 363.591824
_symmetry_space_group_name_H-M "P -1"
_symmetry_group_IT_number 2
_symmetry_cell_setting 'triclinic'
loop_
_space_group_symop_operation_xyz
x,y,z
-x,-y,-z
loop_
_atom_site_type_symbol
_atom_site_label
_atom_site_fract_x
_atom_site_fract_y
_atom_site_fract_z
Si Si1 0.204683 0.769661 0.673270
Si Si2 0.869086 0.344095 0.914926
Si Si3 0.380643 0.720783 0.241007
Si Si4 0.037104 0.881422 0.384564
Si Si5 0.312196 0.174482 0.534441
O O1 0.343444 0.023671 0.448514
O O2 0.008681 0.899462 0.781314
O O3 0.274992 0.656675 0.527045
O O4 0.172392 0.585607 0.929257
O O5 0.886174 0.611933 0.674280
O O6 0.091414 0.263919 0.717845
O O7 0.722006 0.072734 0.197771
O O8 0.247248 0.791584 0.227480
O O9 0.450172 0.442006 0.278249
O O10 0.500000 0.000000 0.000000
O O11 0.000000 0.000000 0.500000
#
# Coordination Sequence:
#
# PCOD9093191 Si02
#       5
#     2   2   2   2   2
#     4   9  18  34  56  75  96 133 166 214 252 269
#     4   8  16  33  50  81  98 120 173 218 242 285
#     4  10  20  32  50  77 106 135 164 196 252 314
#     4   9  18  31  55  79  95 128 173 209 246 291
#     4   8  17  33  51  78  98 129 168 210 247 292
#
# _framework density 27.503367000000001
#
# number of rings (size 3 to 8) (size 9 to 14) (size 15 to 20)
#    1.200    2.000    0.000    0.000    0.000   11.200 
#    0.000    0.000    0.000   24.000    0.000    0.000 
#    0.000    0.000    0.000    0.000    0.000    0.000 
#
# Total GULP energy -55744.203292 kJ/mol
# GULP energy per Si atom -5574.420329 kJ/mol
# Density = 2.744077 g / cm^3
# Si number density = 27.503367 Si / 1000 Ang^3
#
#
#
# Elastic Constant Matrix: (Units=GPa)
#
#
# Indices 1 2 3 4 5 6 
#
# 1 87.6885 12.8359 12.0481 -4.4082 -1.2091 18.5517
# 2 12.8359 91.9425 16.0234 -29.7298 -12.3809 16.5107
# 3 12.0481 16.0234 119.5694 -42.5161 -32.7254 8.0782
# 4 -4.4082 -29.7298 -42.5161 53.3442 20.7112 1.2223
# 5 -1.2091 -12.3809 -32.7254 20.7112 39.1162 -7.8078
# 6 18.5517 16.5107 8.0782 1.2223 -7.8078 48.5993
#
#
#
# Elastic Compliance Matrix: (Units=1/GPa)
#
#
# Indices 1 2 3 4 5 6 
#
# 1 0.012690 -0.000822 -0.001243 0.000535 -0.002133 -0.004714
# 2 -0.000822 0.014785 0.001970 0.009850 0.000033 -0.005279
# 3 -0.001243 0.001970 0.013396 0.009129 0.006642 -0.001584
# 4 0.000535 0.009850 0.009129 0.035403 -0.009466 -0.007479
# 5 -0.002133 0.000033 0.006642 -0.009466 0.037261 0.005923
# 6 -0.004714 -0.005279 -0.001584 -0.007479 0.005923 0.025572
#
#
# Mechanical properties :
#
#
# Convention : Reuss Voigt Hill
#
# Bulk Modulus (GPa) = 24.58260 42.33500 33.45880
# Shear Modulus (GPa) = 32.70986 45.43147 39.07066
#
# Velocity S-wave (km/s) = 3.45237 4.06871 3.77314
# Velocity P-wave (km/s) = 4.98490 6.12361 5.58336
#
# Compressibility (1/GPa) = 0.04067917
#
# Stress axis : x y z
#
# Youngs Moduli (GPa) = 78.80176 67.63405 74.65095
#
# Poissons Ratio (x) = 0.05563 0.09281
# Poissons Ratio (y) = 0.06481 -0.14704
# Poissons Ratio (z) = 0.09797 -0.13322
#
# Static dielectric constant tensor:
#      x y z
#    x 2.161450 -0.040800 -0.112230 
#    y -0.040800 2.152900 0.027550 
#    z -0.112230 0.027550 2.263040 
# 
# From -- ./inp_files/117983.got.cif
#   From: 2010.05.17/outbox.cif.g08.bks.cpg/sg2_59_cif.got.tgz:117983.got - 2010.06.03 11:33:40.
