data_PCOD9093450
_publ_section_title
;
Structure prediction by ZEFSAII (Michael W. Deem and Ramdas Pophale) SiO2 
 PCOD9093450
Probable space group: P -1
;
_chemical_formula_sum "Si O2"
_cell_formula_units_Z 16
_cell_length_a 15.072052
_cell_length_b 14.670303
_cell_length_c 15.271086
_cell_angle_alpha 49.801837
_cell_angle_beta 18.938278
_cell_angle_gamma 50.392344
_cell_volume 832.058453
_symmetry_space_group_name_H-M "P -1"
_symmetry_group_IT_number 2
_symmetry_cell_setting 'triclinic'
loop_
_space_group_symop_operation_xyz
x,y,z
-x,-y,-z
loop_
_atom_site_type_symbol
_atom_site_label
_atom_site_fract_x
_atom_site_fract_y
_atom_site_fract_z
Si Si1 0.243510 0.242634 0.355102
Si Si2 0.036123 0.138302 0.239201
Si Si3 0.283427 0.641788 0.673589
Si Si4 0.156934 0.483420 0.732364
Si Si5 0.954962 0.517678 0.706986
Si Si6 0.449718 0.417870 0.181981
Si Si7 0.728449 0.125587 0.874065
Si Si8 0.583166 0.132296 0.815072
O O1 0.377331 0.293687 0.284833
O O2 0.191522 0.353842 0.266838
O O3 0.949627 0.196738 0.672362
O O4 0.446739 0.141004 0.180906
O O5 0.866006 0.225002 0.276085
O O6 0.833187 0.120859 0.520774
O O7 0.146452 0.011052 0.173009
O O8 0.306208 0.194197 0.989779
O O9 0.259540 0.588894 0.630370
O O10 0.595873 0.623685 0.424374
O O11 0.111064 0.560380 0.945706
O O12 0.089490 0.522376 0.673059
O O13 0.188960 0.476034 0.443625
O O14 0.724566 0.424384 0.977652
O O15 0.500000 0.500000 0.000000
O O16 0.670874 0.181782 0.795666
O O17 0.500000 0.000000 0.000000
#
# Coordination Sequence:
#
# PCOD9093450 Si02
#       8
#     2   2   2   2   2   2   2   2
#     4  11  21  34  53  84 114 140 176 223 267 332
#     4  11  21  37  54  74 112 154 181 224 278 309
#     4  10  22  39  55  80 112 143 185 244 265 305
#     4  10  22  38  57  82 107 139 197 230 271 321
#     4  11  21  36  59  80 111 149 179 221 284 335
#     4  10  20  37  54  81 114 144 176 224 279 337
#     4  11  21  32  51  81 109 145 184 213 259 342
#     4  10  20  33  49  74 111 146 186 220 250 323
#
# _framework density 19.229417999999999
#
# number of rings (size 3 to 8) (size 9 to 14) (size 15 to 20)
#    0.000    1.500    0.000    9.000    3.500    0.000 
#    0.000    0.000    0.000    0.000    0.000   17.500 
#    0.000    0.000    0.000    0.000    0.000    0.000 
#
# Total GULP energy -89384.217570 kJ/mol
# GULP energy per Si atom -5586.513598 kJ/mol
# Density = 1.918565 g / cm^3
# Si number density = 19.229418 Si / 1000 Ang^3
#
#
#
# Elastic Constant Matrix: (Units=GPa)
#
#
# Indices 1 2 3 4 5 6 
#
# 1 56.3674 16.6908 13.0877 4.9431 -11.2971 -3.2176
# 2 16.6908 51.1482 8.4103 15.1342 1.5254 -4.5504
# 3 13.0877 8.4103 85.8034 20.6077 -7.9618 7.5111
# 4 4.9431 15.1342 20.6077 29.1187 3.8092 -4.5986
# 5 -11.2971 1.5254 -7.9618 3.8092 30.7455 2.1925
# 6 -3.2176 -4.5504 7.5111 -4.5986 2.1925 17.0301
#
#
#
# Elastic Compliance Matrix: (Units=1/GPa)
#
#
# Indices 1 2 3 4 5 6 
#
# 1 0.021958 -0.007083 -0.002481 0.001164 0.007440 0.002707
# 2 -0.007083 0.025550 0.001160 -0.012307 -0.002183 0.001935
# 3 -0.002481 0.001160 0.017276 -0.015238 0.006298 -0.012704
# 4 0.001164 -0.012307 -0.015238 0.055995 -0.011288 0.020226
# 5 0.007440 -0.002183 0.006298 -0.011288 0.039112 -0.010039
# 6 0.002707 0.001935 -0.012704 0.020226 -0.010039 0.072105
#
#
# Mechanical properties :
#
#
# Convention : Reuss Voigt Hill
#
# Bulk Modulus (GPa) = 20.84414 29.96627 25.40520
# Shear Modulus (GPa) = 18.88245 25.72088 22.30167
#
# Velocity S-wave (km/s) = 3.13702 3.66126 3.40923
# Velocity P-wave (km/s) = 4.89739 5.78710 5.36073
#
# Compressibility (1/GPa) = 0.04797512
#
# Stress axis : x y z
#
# Youngs Moduli (GPa) = 45.54232 39.13851 57.88536
#
# Poissons Ratio (x) = 0.27721 0.14362
# Poissons Ratio (y) = 0.32256 -0.06713
# Poissons Ratio (z) = 0.11300 -0.04539
#
# Static dielectric constant tensor:
#      x y z
#    x 1.693010 0.009900 -0.037660 
#    y 0.009900 1.706890 -0.004670 
#    z -0.037660 -0.004670 1.681360 
# 
# From -- ./inp_files/534314.got.cif
#   From: 2010.05.17/outbox.cif.g08.bks.cpg/sg2_268_cif.got.tgz:534314.got - 2010.06.03 11:33:40.
