data_PCOD9093555
_publ_section_title
;
Structure prediction by ZEFSAII (Michael W. Deem and Ramdas Pophale) SiO2 
 PCOD9093555
Probable space group: P -1
;
_chemical_formula_sum "Si O2"
_cell_formula_units_Z 16
_cell_length_a 7.831258
_cell_length_b 24.470799
_cell_length_c 5.424172
_cell_angle_alpha 120.054789
_cell_angle_beta 139.329801
_cell_angle_gamma 54.163994
_cell_volume 546.009472
_symmetry_space_group_name_H-M "P -1"
_symmetry_group_IT_number 2
_symmetry_cell_setting 'triclinic'
loop_
_space_group_symop_operation_xyz
x,y,z
-x,-y,-z
loop_
_atom_site_type_symbol
_atom_site_label
_atom_site_fract_x
_atom_site_fract_y
_atom_site_fract_z
Si Si1 0.222147 0.988011 0.431893
Si Si2 0.733837 0.773811 0.432237
Si Si3 0.663581 0.265117 0.479340
Si Si4 0.727181 0.136518 0.479552
Si Si5 0.589550 0.390121 0.454952
Si Si6 0.203261 0.353412 0.560278
Si Si7 0.187499 0.520411 0.452250
Si Si8 0.321434 0.104946 0.606164
O O1 0.148702 0.937104 0.419836
O O2 0.538156 0.945595 0.581195
O O3 0.223093 0.064594 0.617540
O O4 0.000000 0.000000 0.000000
O O5 0.523066 0.820594 0.511722
O O6 0.917085 0.703536 0.605140
O O7 0.870738 0.822734 0.555675
O O8 0.527628 0.755759 0.975032
O O9 0.845134 0.194950 0.657393
O O10 0.792527 0.317902 0.622953
O O11 0.436122 0.314565 0.530068
O O12 0.579960 0.119013 0.041346
O O13 0.435252 0.449326 0.618570
O O14 0.706615 0.429115 0.475472
O O15 0.361566 0.370333 0.005668
O O16 0.991735 0.427984 0.418099
O O17 0.000000 0.500000 0.000000
#
# Coordination Sequence:
#
# PCOD9093555 Si02
#       8
#     2   2   2   2   2   2   2   2
#     4  10  20  33  53  80 108 139 180 225 267 318
#     4   8  16  32  53  75 104 140 178 220 268 316
#     4   9  17  32  56  78 104 142 180 222 271 320
#     4   9  17  33  56  78 106 145 181 220 273 323
#     4   9  18  34  53  76 106 140 175 216 268 320
#     4   9  17  32  53  77 105 138 176 220 266 318
#     4   9  18  34  54  76 107 139 172 219 267 316
#     4   9  18  34  54  76 107 145 177 218 271 320
#
# _framework density 29.303518
#
# number of rings (size 3 to 8) (size 9 to 14) (size 15 to 20)
#    0.000    3.000    0.000    0.375    0.000    1.000 
#    0.000   16.875    0.000   27.000    0.000    0.000 
#    0.000    0.000    0.000    0.000    0.000    0.000 
#
# Total GULP energy -89462.781680 kJ/mol
# GULP energy per Si atom -5591.423855 kJ/mol
# Density = 2.923682 g / cm^3
# Si number density = 29.303518 Si / 1000 Ang^3
#
#
#
# Elastic Constant Matrix: (Units=GPa)
#
#
# Indices 1 2 3 4 5 6 
#
# 1 106.0948 41.9461 -6.4859 19.6034 -0.2044 25.4207
# 2 41.9461 266.1339 55.6555 39.0198 6.4275 26.0051
# 3 -6.4859 55.6555 69.7328 -4.8336 4.9434 -7.8051
# 4 19.6034 39.0198 -4.8336 51.2315 1.8353 -1.7650
# 5 -0.2044 6.4275 4.9434 1.8353 35.0023 19.3948
# 6 25.4207 26.0051 -7.8051 -1.7650 19.3948 72.3391
#
#
#
# Elastic Compliance Matrix: (Units=1/GPa)
#
#
# Indices 1 2 3 4 5 6 
#
# 1 0.011703 -0.001149 0.001054 -0.003755 0.002778 -0.004422
# 2 -0.001149 0.006121 -0.005778 -0.004926 0.001587 -0.002965
# 3 0.001054 -0.005778 0.020464 0.006302 -0.005177 0.005457
# 4 -0.003755 -0.004926 0.006302 0.025655 -0.004450 0.005589
# 5 0.002778 0.001587 -0.005177 -0.004450 0.035805 -0.011813
# 6 -0.004422 -0.002965 0.005457 0.005589 -0.011813 0.020336
#
#
# Mechanical properties :
#
#
# Convention : Reuss Voigt Hill
#
# Bulk Modulus (GPa) = 37.67730 69.35479 53.51605
# Shear Modulus (GPa) = 35.54233 55.10429 45.32331
#
# Velocity S-wave (km/s) = 3.48645 4.34114 3.93706
# Velocity P-wave (km/s) = 5.39376 6.98902 6.24256
#
# Compressibility (1/GPa) = 0.02654118
#
# Stress axis : x y z
#
# Youngs Moduli (GPa) = 85.44745 163.38221 48.86540
#
# Poissons Ratio (x) = 0.18778 -0.05149
# Poissons Ratio (y) = 0.09821 0.28233
# Poissons Ratio (z) = -0.09003 0.94399
#
# Static dielectric constant tensor:
#      x y z
#    x 2.491120 0.029000 -0.008780 
#    y 0.029000 2.366420 -0.025860 
#    z -0.008780 -0.025860 2.211950 
# 
# From -- ./inp_files/12780.got.cif
#   From: 2010.05.17/outbox.cif.g08.bks.cpg/sg2_7_cif.got.tgz:12780.got - 2010.06.03 11:33:40.
