data_PCOD9093073
_publ_section_title
;
Structure prediction by ZEFSAII (Michael W. Deem and Ramdas Pophale) SiO2 
 PCOD9093073
Probable space group: P -1
;
_chemical_formula_sum "Si O2"
_cell_formula_units_Z 16
_cell_length_a 17.046635
_cell_length_b 5.231313
_cell_length_c 12.349624
_cell_angle_alpha 112.598792
_cell_angle_beta 58.669883
_cell_angle_gamma 103.379627
_cell_volume 867.782787
_symmetry_space_group_name_H-M "P -1"
_symmetry_group_IT_number 2
_symmetry_cell_setting 'triclinic'
loop_
_space_group_symop_operation_xyz
x,y,z
-x,-y,-z
loop_
_atom_site_type_symbol
_atom_site_label
_atom_site_fract_x
_atom_site_fract_y
_atom_site_fract_z
Si Si1 0.117839 0.357924 0.817209
Si Si2 0.921993 0.192735 0.915485
Si Si3 0.181741 0.309742 0.996511
Si Si4 0.417512 0.155787 0.027266
Si Si5 0.593813 0.000423 0.501795
Si Si6 0.353597 0.642503 0.875467
Si Si7 0.306254 0.567269 0.651417
Si Si8 0.468482 0.590869 0.212648
O O1 0.203018 0.438926 0.693172
O O2 0.029484 0.183530 0.810223
O O3 0.081925 0.648381 0.938791
O O4 0.158275 0.219232 0.874303
O O5 0.871802 0.405062 0.908595
O O6 0.862053 0.913552 0.928013
O O7 0.288810 0.398032 0.933552
O O8 0.395445 0.385815 0.169940
O O9 0.463621 0.298651 0.912645
O O10 0.500000 0.000000 0.000000
O O11 0.347313 0.917643 0.996825
O O12 0.666137 0.189118 0.410866
O O13 0.575280 0.161800 0.652111
O O14 0.500000 0.000000 0.500000
O O15 0.627016 0.691617 0.446180
O O16 0.317520 0.678921 0.785250
O O17 0.460550 0.564650 0.785058
#
# Coordination Sequence:
#
# PCOD9093073 Si02
#       8
#     2   2   2   2   2   2   2   2
#     4   8  19  29  48  64 104 133 173 197 249 298
#     4   9  17  28  46  68  96 139 162 203 248 305
#     4   9  18  26  45  72  97 130 161 204 251 301
#     4   9  20  36  53  73  91 138 173 226 266 289
#     4  12  24  35  51  74 107 142 180 205 249 301
#     4  10  20  31  52  73 107 133 174 213 256 305
#     4  11  24  33  51  77 106 146 169 211 245 306
#     4  10  21  35  54  69 102 139 179 215 256 303
#
# _framework density 18.437795000000001
#
# number of rings (size 3 to 8) (size 9 to 14) (size 15 to 20)
#    0.750    1.500    1.250    1.500    8.750    0.000 
#    0.000    0.000    0.000    0.000    0.000    0.000 
#    0.000    6.000    0.000    0.000    0.000    0.000 
#
# Total GULP energy -89147.555760 kJ/mol
# GULP energy per Si atom -5571.722235 kJ/mol
# Density = 1.839583 g / cm^3
# Si number density = 18.437795 Si / 1000 Ang^3
#
#
#
# Elastic Constant Matrix: (Units=GPa)
#
#
# Indices 1 2 3 4 5 6 
#
# 1 48.1937 18.5621 24.5745 2.7537 -4.5350 13.4837
# 2 18.5621 90.4844 12.0577 3.5355 4.3274 13.3460
# 3 24.5745 12.0577 47.6060 11.0074 4.8111 18.2127
# 4 2.7537 3.5355 11.0074 27.2769 6.6582 3.9074
# 5 -4.5350 4.3274 4.8111 6.6582 21.3624 -1.8046
# 6 13.4837 13.3460 18.2127 3.9074 -1.8046 24.6237
#
#
#
# Elastic Compliance Matrix: (Units=1/GPa)
#
#
# Indices 1 2 3 4 5 6 
#
# 1 0.032354 -0.004663 -0.015826 0.001549 0.010645 -0.002949
# 2 -0.004663 0.012881 0.001992 0.000008 -0.004577 -0.006238
# 3 -0.015826 0.001992 0.040188 -0.008887 -0.011869 -0.021597
# 4 0.001549 0.000008 -0.008887 0.043122 -0.011276 -0.001948
# 5 0.010645 -0.004577 -0.011869 -0.011276 0.057150 0.011408
# 6 -0.002949 -0.006238 -0.021597 -0.001948 0.011408 0.062727
#
#
# Mechanical properties :
#
#
# Convention : Reuss Voigt Hill
#
# Bulk Modulus (GPa) = 20.64881 32.96363 26.80622
# Shear Modulus (GPa) = 16.58059 23.39192 19.98625
#
# Velocity S-wave (km/s) = 3.00204 3.56574 3.29596
# Velocity P-wave (km/s) = 4.82077 5.90506 5.39025
#
# Compressibility (1/GPa) = 0.04842894
#
# Stress axis : x y z
#
# Youngs Moduli (GPa) = 30.90839 77.63092 24.88333
#
# Poissons Ratio (x) = 0.36197 0.39380
# Poissons Ratio (y) = 0.14412 -0.04956
# Poissons Ratio (z) = 0.48915 -0.15461
#
# Static dielectric constant tensor:
#      x y z
#    x 1.695090 -0.015510 -0.017080 
#    y -0.015510 1.709180 0.019480 
#    z -0.017080 0.019480 1.639000 
# 
# From -- ./inp_files/459604.got.cif
#   From: 2010.05.17/outbox.cif.g08.bks.cpg/sg2_230_cif.got.tgz:459604.got - 2010.06.03 11:33:40.
