data_PCOD9093788
_publ_section_title
;
Structure prediction by ZEFSAII (Michael W. Deem and Ramdas Pophale) SiO2 
 PCOD9093788
Probable space group: P -1
;
_chemical_formula_sum "Si O2"
_cell_formula_units_Z 14
_cell_length_a 5.255696
_cell_length_b 12.125080
_cell_length_c 12.867448
_cell_angle_alpha 132.858094
_cell_angle_beta 77.830829
_cell_angle_gamma 100.870672
_cell_volume 586.406817
_symmetry_space_group_name_H-M "P -1"
_symmetry_group_IT_number 2
_symmetry_cell_setting 'triclinic'
loop_
_space_group_symop_operation_xyz
x,y,z
-x,-y,-z
loop_
_atom_site_type_symbol
_atom_site_label
_atom_site_fract_x
_atom_site_fract_y
_atom_site_fract_z
Si Si1 0.583002 0.734577 0.557624
Si Si2 0.857349 0.682864 0.302267
Si Si3 0.231578 0.865987 0.013063
Si Si4 0.333606 0.475497 0.175255
Si Si5 0.241122 0.424398 0.375928
Si Si6 0.737499 0.062559 0.168011
Si Si7 0.933276 0.662479 0.065974
O O1 0.765201 0.772419 0.468130
O O2 0.463441 0.562555 0.445366
O O3 0.720000 0.718914 0.647276
O O4 0.358122 0.846848 0.666977
O O5 0.608090 0.567061 0.224563
O O6 0.908266 0.759950 0.234911
O O7 0.110887 0.596405 0.258252
O O8 0.505182 0.941705 0.076791
O O9 0.143672 0.732019 0.011758
O O10 0.241674 0.828872 0.865800
O O11 0.000652 0.981153 0.112012
O O12 0.243555 0.385279 0.229024
O O13 0.317682 0.371978 0.007752
O O14 0.000000 0.500000 0.500000
O O15 0.000000 0.500000 0.000000
#
# Coordination Sequence:
#
# PCOD9093788 Si02
#       7
#     2   2   2   2   2   2   2
#     4  10  22  36  60  88 130 162 207 258 323 363
#     4  10  21  38  55  92 122 160 201 250 305 390
#     4  10  24  43  63  92 122 161 223 255 304 383
#     4  10  21  35  57  88 128 159 200 251 321 362
#     4  10  20  33  57  94 124 158 210 261 309 374
#     4  10  24  43  64  88 124 170 207 263 311 367
#     4  10  23  41  68  92 129 165 209 262 320 365
#
# _framework density 23.874210999999999
#
# number of rings (size 3 to 8) (size 9 to 14) (size 15 to 20)
#    0.000    2.000    1.429    0.429    4.000    9.143 
#    0.000    1.429    0.000    0.000    0.000    0.000 
#    0.000    0.000    0.000    0.000    0.000    0.000 
#
# Total GULP energy -78214.313400 kJ/mol
# GULP energy per Si atom -5586.736671 kJ/mol
# Density = 2.381987 g / cm^3
# Si number density = 23.874211 Si / 1000 Ang^3
#
#
#
# Elastic Constant Matrix: (Units=GPa)
#
#
# Indices 1 2 3 4 5 6 
#
# 1 102.5869 18.3613 -7.6601 7.5968 -9.7221 -5.4505
# 2 18.3613 87.4705 34.9293 -35.2735 2.0102 5.1821
# 3 -7.6601 34.9293 115.5001 -26.1936 -27.1935 -22.2880
# 4 7.5968 -35.2735 -26.1936 39.5146 2.2794 -1.4950
# 5 -9.7221 2.0102 -27.1935 2.2794 34.4879 3.0753
# 6 -5.4505 5.1821 -22.2880 -1.4950 3.0753 37.3495
#
#
#
# Elastic Compliance Matrix: (Units=1/GPa)
#
#
# Indices 1 2 3 4 5 6 
#
# 1 0.012846 -0.007501 0.004262 -0.006597 0.007446 0.004581
# 2 -0.007501 0.023947 -0.007309 0.018268 -0.009836 -0.007238
# 3 0.004262 -0.007309 0.017501 0.003858 0.014185 0.011066
# 4 -0.006597 0.018268 0.003858 0.045644 -0.002978 0.000877
# 5 0.007446 -0.009836 0.014185 -0.002978 0.042398 0.007306
# 6 0.004581 -0.007238 0.011066 0.000877 0.007306 0.034484
#
#
# Mechanical properties :
#
#
# Convention : Reuss Voigt Hill
#
# Bulk Modulus (GPa) = 30.12345 44.09097 37.10721
# Shear Modulus (GPa) = 23.92513 39.59886 31.76199
#
# Velocity S-wave (km/s) = 3.16908 4.07707 3.65141
# Velocity P-wave (km/s) = 5.10252 6.37741 5.77526
#
# Compressibility (1/GPa) = 0.03319673
#
# Stress axis : x y z
#
# Youngs Moduli (GPa) = 77.84332 41.75832 57.13921
#
# Poissons Ratio (x) = 0.31325 -0.24351
# Poissons Ratio (y) = 0.58393 0.41765
# Poissons Ratio (z) = -0.33174 0.30522
#
# Static dielectric constant tensor:
#      x y z
#    x 1.975190 -0.022150 0.027970 
#    y -0.022150 1.926120 -0.051870 
#    z 0.027970 -0.051870 2.028510 
# 
# From -- ./inp_files/368046.got.cif
#   From: 2010.05.17/outbox.cif.g08.bks.cpg/sg2_185_cif.got.tgz:368046.got - 2010.06.03 11:33:40.
