data_PCOD9093632
_publ_section_title
;
Structure prediction by ZEFSAII (Michael W. Deem and Ramdas Pophale) SiO2 
 PCOD9093632
Probable space group: P -1
;
_chemical_formula_sum "Si O2"
_cell_formula_units_Z 14
_cell_length_a 11.109763
_cell_length_b 12.708824
_cell_length_c 5.529375
_cell_angle_alpha 82.617577
_cell_angle_beta 54.308181
_cell_angle_gamma 57.870057
_cell_volume 517.853697
_symmetry_space_group_name_H-M "P -1"
_symmetry_group_IT_number 2
_symmetry_cell_setting 'triclinic'
loop_
_space_group_symop_operation_xyz
x,y,z
-x,-y,-z
loop_
_atom_site_type_symbol
_atom_site_label
_atom_site_fract_x
_atom_site_fract_y
_atom_site_fract_z
Si Si1 0.868891 0.840468 0.567945
Si Si2 0.364490 0.344887 0.927603
Si Si3 0.983102 0.607749 0.200047
Si Si4 0.421440 0.076793 0.816057
Si Si5 0.109815 0.949097 0.642002
Si Si6 0.644056 0.587884 0.577071
Si Si7 0.180495 0.688667 0.561394
O O1 0.853293 0.736148 0.478570
O O2 0.078568 0.750465 0.408358
O O3 0.795341 0.974615 0.484642
O O4 0.783177 0.880891 0.922965
O O5 0.394416 0.213139 0.837118
O O6 0.440852 0.376043 0.598407
O O7 0.442963 0.324249 0.111020
O O8 0.157117 0.477361 0.155481
O O9 0.836211 0.575713 0.313404
O O10 0.066956 0.660133 0.895324
O O11 0.500000 0.000000 0.500000
O O12 0.500000 0.000000 0.000000
O O13 0.208133 0.797032 0.582763
O O14 0.000000 0.000000 0.500000
O O15 0.000000 0.000000 0.000000
O O16 0.666688 0.455407 0.643612
#
# Coordination Sequence:
#
# PCOD9093632 Si02
#       7
#     2   2   2   2   2   2   2
#     4  11  21  37  59  83 125 151 190 239 284 345
#     4  11  21  36  53  82 113 140 186 234 290 341
#     4  11  19  31  58  87 117 143 177 234 314 342
#     4  12  27  41  57  80 116 164 203 231 277 337
#     4  10  21  34  54  84 123 155 181 223 289 366
#     4  11  20  30  54  86 113 148 171 228 297 352
#     4  10  20  33  54  89 126 143 183 223 304 365
#
# _framework density 27.034663999999999
#
# number of rings (size 3 to 8) (size 9 to 14) (size 15 to 20)
#    0.000    1.143    4.286    4.714    2.000    0.000 
#    0.000    0.000    0.000    0.000    0.000   14.000 
#    0.000    0.000    0.000    0.000    0.000    0.000 
#
# Total GULP energy -78051.736987 kJ/mol
# GULP energy per Si atom -5575.124070 kJ/mol
# Density = 2.697313 g / cm^3
# Si number density = 27.034664 Si / 1000 Ang^3
#
#
#
# Elastic Constant Matrix: (Units=GPa)
#
#
# Indices 1 2 3 4 5 6 
#
# 1 66.2691 46.7668 29.4225 10.0112 15.4497 -3.1399
# 2 46.7668 240.6908 59.8361 12.2042 -0.0837 37.0361
# 3 29.4225 59.8361 187.7004 16.1674 28.4384 15.3001
# 4 10.0112 12.2042 16.1674 35.0211 7.4721 16.7937
# 5 15.4497 -0.0837 28.4384 7.4721 33.3317 3.8862
# 6 -3.1399 37.0361 15.3001 16.7937 3.8862 45.7221
#
#
#
# Elastic Compliance Matrix: (Units=1/GPa)
#
#
# Indices 1 2 3 4 5 6 
#
# 1 0.022939 -0.005435 -0.000573 -0.006893 -0.009723 0.009528
# 2 -0.005435 0.006430 -0.001488 0.002109 0.004055 -0.006203
# 3 -0.000573 -0.001488 0.006811 -0.001241 -0.005246 -0.000211
# 4 -0.006893 0.002109 -0.001241 0.038411 -0.002525 -0.015660
# 5 -0.009723 0.004055 -0.005246 -0.002525 0.040106 -0.004678
# 6 0.009528 -0.006203 -0.000211 -0.015660 -0.004678 0.033770
#
#
# Mechanical properties :
#
#
# Convention : Reuss Voigt Hill
#
# Bulk Modulus (GPa) = 47.19695 85.19013 66.19354
# Shear Modulus (GPa) = 29.32186 46.72399 38.02292
#
# Velocity S-wave (km/s) = 3.29690 4.16179 3.75434
# Velocity P-wave (km/s) = 5.65585 7.39418 6.58265
#
# Compressibility (1/GPa) = 0.02118781
#
# Stress axis : x y z
#
# Youngs Moduli (GPa) = 43.59353 155.53234 146.82389
#
# Poissons Ratio (x) = 0.84525 0.08414
# Poissons Ratio (y) = 0.23691 0.21851
# Poissons Ratio (z) = 0.02498 0.23147
#
# Static dielectric constant tensor:
#      x y z
#    x 2.439560 -0.013100 -0.124290 
#    y -0.013100 2.136600 0.010800 
#    z -0.124290 0.010800 2.282900 
# 
# From -- ./inp_files/93493.got.cif
#   From: 2010.05.17/outbox.cif.g08.bks.cpg/sg2_47_cif.got.tgz:93493.got - 2010.06.03 11:33:40.
