data_PCOD9093999
_publ_section_title
;
Structure prediction by ZEFSAII (Michael W. Deem and Ramdas Pophale) SiO2 
 PCOD9093999
Probable space group: P -1
;
_chemical_formula_sum "Si O2"
_cell_formula_units_Z 13
_cell_length_a 17.639887
_cell_length_b 16.843818
_cell_length_c 8.251098
_cell_angle_alpha 47.136994
_cell_angle_beta 53.161441
_cell_angle_gamma 16.231396
_cell_volume 484.810701
_symmetry_space_group_name_H-M "P -1"
_symmetry_group_IT_number 2
_symmetry_cell_setting 'triclinic'
loop_
_space_group_symop_operation_xyz
x,y,z
-x,-y,-z
loop_
_atom_site_type_symbol
_atom_site_label
_atom_site_fract_x
_atom_site_fract_y
_atom_site_fract_z
Si Si1 0.378943 0.746433 0.529116
Si Si2 0.158973 0.577904 0.615076
Si Si3 0.308332 0.512657 0.032247
Si Si4 0.371537 0.242141 0.123118
Si Si5 0.794711 0.132200 0.000902
Si Si6 0.000000 0.000000 0.500000
Si Si7 0.939762 0.543449 0.208765
O O1 0.542348 0.683814 0.412958
O O2 0.631675 0.392199 0.730969
O O3 0.103666 0.056656 0.567105
O O4 0.215759 0.873562 0.409734
O O5 0.168262 0.519897 0.865965
O O6 0.111188 0.530424 0.621195
O O7 0.419791 0.279613 0.146115
O O8 0.527294 0.345154 0.094710
O O9 0.017868 0.810176 0.085156
O O10 0.221786 0.687548 0.755436
O O11 0.199737 0.318437 0.282324
O O12 0.654857 0.904551 0.136256
O O13 0.000000 0.000000 0.000000
O O14 0.000000 0.500000 0.000000
#
# Coordination Sequence:
#
# PCOD9093999 Si02
#       7
#     2   2   2   2   2   1   2
#     4  11  22  35  58  82 116 153 188 233 289 337
#     4  11  20  34  53  85 117 154 186 223 285 350
#     4  11  23  37  61  84 116 154 188 240 293 340
#     4  11  20  34  54  85 119 153 188 224 288 351
#     4  11  25  42  57  82 114 155 205 239 280 340
#     4  10  22  36  52  90 120 146 182 238 290 354
#     4  10  20  34  51  80 123 160 181 223 277 355
#
# _framework density 26.814588000000001
#
# number of rings (size 3 to 8) (size 9 to 14) (size 15 to 20)
#    0.000    1.231    1.538    7.846    2.154    1.846 
#    0.000    0.000    0.000    0.000    0.000   21.538 
#    0.000    0.000    0.000    0.000    0.000    0.000 
#
# Total GULP energy -72388.875524 kJ/mol
# GULP energy per Si atom -5568.375040 kJ/mol
# Density = 2.675356 g / cm^3
# Si number density = 26.814588 Si / 1000 Ang^3
#
#
#
# Elastic Constant Matrix: (Units=GPa)
#
#
# Indices 1 2 3 4 5 6 
#
# 1 169.2665 94.4498 46.0268 -15.6674 -15.7065 -35.3705
# 2 94.4498 178.2878 39.4618 -37.9476 -27.5906 -27.7211
# 3 46.0268 39.4618 69.2857 -18.0608 -4.4471 -6.9285
# 4 -15.6674 -37.9476 -18.0608 44.9390 -11.0574 -12.8442
# 5 -15.7065 -27.5906 -4.4471 -11.0574 40.5512 -17.1595
# 6 -35.3705 -27.7211 -6.9285 -12.8442 -17.1595 72.4257
#
#
#
# Elastic Compliance Matrix: (Units=1/GPa)
#
#
# Indices 1 2 3 4 5 6 
#
# 1 0.010049 -0.002324 -0.003798 0.002728 0.004879 0.005295
# 2 -0.002324 0.020074 0.001410 0.029112 0.028745 0.018657
# 3 -0.003798 0.001410 0.019625 0.010349 0.006088 0.003840
# 4 0.002728 0.029112 0.010349 0.079046 0.061333 0.042015
# 5 0.004879 0.028745 0.006088 0.061333 0.082260 0.044334
# 6 0.005295 0.018657 0.003840 0.042015 0.044334 0.041856
#
#
# Mechanical properties :
#
#
# Convention : Reuss Voigt Hill
#
# Bulk Modulus (GPa) = 24.79887 86.30187 55.55037
# Shear Modulus (GPa) = 18.13071 47.37663 32.75367
#
# Velocity S-wave (km/s) = 2.60311 4.20792 3.49877
# Velocity P-wave (km/s) = 4.27823 7.47418 6.08961
#
# Compressibility (1/GPa) = 0.04032442
#
# Stress axis : x y z
#
# Youngs Moduli (GPa) = 99.51223 49.81668 50.95416
#
# Poissons Ratio (x) = 0.11577 0.19353
# Poissons Ratio (y) = 0.23125 -0.07186
# Poissons Ratio (z) = 0.37797 -0.07025
#
# Static dielectric constant tensor:
#      x y z
#    x 2.141030 0.112820 0.066810 
#    y 0.112820 2.063980 0.076880 
#    z 0.066810 0.076880 2.132340 
# 
# From -- ./inp_files/371182.got.cif
#   From: 2010.05.17/outbox.cif.g08.bks.cpg/sg2_186_cif.got.tgz:371182.got - 2010.06.03 11:33:40.
