data_PCOD9093454
_publ_section_title
;
Structure prediction by ZEFSAII (Michael W. Deem and Ramdas Pophale) SiO2 
 PCOD9093454
Probable space group: P -1
;
_chemical_formula_sum "Si O2"
_cell_formula_units_Z 16
_cell_length_a 25.633471
_cell_length_b 8.744890
_cell_length_c 26.190922
_cell_angle_alpha 42.820797
_cell_angle_beta 10.865756
_cell_angle_gamma 41.853292
_cell_volume 738.350063
_symmetry_space_group_name_H-M "P -1"
_symmetry_group_IT_number 2
_symmetry_cell_setting 'triclinic'
loop_
_space_group_symop_operation_xyz
x,y,z
-x,-y,-z
loop_
_atom_site_type_symbol
_atom_site_label
_atom_site_fract_x
_atom_site_fract_y
_atom_site_fract_z
Si Si1 0.913270 0.935652 0.374154
Si Si2 0.877860 0.153294 0.630390
Si Si3 0.243515 0.014800 0.607042
Si Si4 0.179127 0.311284 0.160617
Si Si5 0.346769 0.230311 0.868282
Si Si6 0.419965 0.480574 0.349250
Si Si7 0.266129 0.445729 0.157216
Si Si8 0.798637 0.730932 0.120175
O O1 0.834400 0.923640 0.392524
O O2 0.125204 0.704885 0.243384
O O3 0.612877 0.018298 0.669228
O O4 0.081239 0.141673 0.167460
O O5 0.138611 0.279260 0.359338
O O6 0.773529 0.962495 0.812148
O O7 0.598894 0.356063 0.848429
O O8 0.000000 0.000000 0.500000
O O9 0.367621 0.223703 0.459470
O O10 0.496525 0.796246 0.421007
O O11 0.966774 0.941116 0.913928
O O12 0.137503 0.411846 0.233118
O O13 0.893359 0.378089 0.388433
O O14 0.413589 0.428837 0.879945
O O15 0.423000 0.447392 0.770141
O O16 0.275827 0.279815 0.865340
O O17 0.000000 0.500000 0.000000
#
# Coordination Sequence:
#
# PCOD9093454 Si02
#       8
#     2   2   2   2   2   2   2   2
#     4  10  20  37  58  83 112 153 197 246 289 335
#     4  10  20  33  49  85 118 148 192 253 300 345
#     4  10  21  36  61  90 114 148 198 235 278 338
#     4  11  21  33  56  82 119 152 190 242 310 334
#     4  10  23  38  58  86 120 152 192 234 292 348
#     4  12  22  37  58  86 120 153 191 243 291 343
#     4  11  19  33  58  82 113 147 205 250 292 338
#     4  10  21  41  64  88 119 154 188 230 281 343
#
# _framework density 21.669937000000001
#
# number of rings (size 3 to 8) (size 9 to 14) (size 15 to 20)
#    0.000    1.500    1.250    6.375    3.500    0.000 
#    0.000    1.250    0.000   15.000    0.000    0.000 
#    0.000    0.000    0.000    0.000    0.000    0.000 
#
# Total GULP energy -89236.882640 kJ/mol
# GULP energy per Si atom -5577.305165 kJ/mol
# Density = 2.162062 g / cm^3
# Si number density = 21.669937 Si / 1000 Ang^3
#
#
#
# Elastic Constant Matrix: (Units=GPa)
#
#
# Indices 1 2 3 4 5 6 
#
# 1 32.6349 26.8261 22.8956 -9.7366 -11.5873 11.1599
# 2 26.8261 103.7637 25.7959 11.0762 -6.9540 4.3970
# 3 22.8956 25.7959 100.5073 1.9906 -11.7598 7.1822
# 4 -9.7366 11.0762 1.9906 51.2351 8.4229 -10.6508
# 5 -11.5873 -6.9540 -11.7598 8.4229 25.8205 -1.0233
# 6 11.1599 4.3970 7.1822 -10.6508 -1.0233 23.7990
#
#
#
# Elastic Compliance Matrix: (Units=1/GPa)
#
#
# Indices 1 2 3 4 5 6 
#
# 1 0.062012 -0.012977 -0.007448 0.007788 0.017601 -0.020191
# 2 -0.012977 0.013556 -0.000628 -0.004923 -0.000792 0.001533
# 3 -0.007448 -0.000628 0.012262 -0.002442 0.002828 -0.001064
# 4 0.007788 -0.004923 -0.002442 0.025134 -0.006787 0.008951
# 5 0.017601 -0.000792 0.002828 -0.006787 0.049525 -0.009869
# 6 -0.020191 0.001533 -0.001064 0.008951 -0.009869 0.055106
#
#
# Mechanical properties :
#
#
# Convention : Reuss Voigt Hill
#
# Bulk Modulus (GPa) = 21.86949 43.10457 32.48703
# Shear Modulus (GPa) = 18.18570 30.93013 24.55791
#
# Velocity S-wave (km/s) = 2.90006 3.78210 3.37006
# Velocity P-wave (km/s) = 4.61820 6.24556 5.49248
#
# Compressibility (1/GPa) = 0.04572581
#
# Stress axis : x y z
#
# Youngs Moduli (GPa) = 16.12596 73.76942 81.54946
#
# Poissons Ratio (x) = 0.95728 0.60736
# Poissons Ratio (y) = 0.20926 0.05119
# Poissons Ratio (z) = 0.12010 0.04631
#
# Static dielectric constant tensor:
#      x y z
#    x 1.790030 0.038990 -0.003850 
#    y 0.038990 1.756270 0.058980 
#    z -0.003850 0.058980 1.718960 
# 
# From -- ./inp_files/227988.got.cif
#   From: 2010.05.17/outbox.cif.g08.bks.cpg/sg2_114_cif.got.tgz:227988.got - 2010.06.03 11:33:40.
