data_PCOD9093039
_publ_section_title
;
Structure prediction by ZEFSAII (Michael W. Deem and Ramdas Pophale) SiO2 
 PCOD9093039
Probable space group: P -1
;
_chemical_formula_sum "Si O2"
_cell_formula_units_Z 16
_cell_length_a 16.327571
_cell_length_b 27.167621
_cell_length_c 26.887136
_cell_angle_alpha 10.771059
_cell_angle_beta 151.837488
_cell_angle_gamma 153.262946
_cell_volume 1001.487228
_symmetry_space_group_name_H-M "P -1"
_symmetry_group_IT_number 2
_symmetry_cell_setting 'triclinic'
loop_
_space_group_symop_operation_xyz
x,y,z
-x,-y,-z
loop_
_atom_site_type_symbol
_atom_site_label
_atom_site_fract_x
_atom_site_fract_y
_atom_site_fract_z
Si Si1 0.935508 0.160898 0.760542
Si Si2 0.137111 0.377082 0.225759
Si Si3 0.319387 0.170005 0.129329
Si Si4 0.418705 0.213406 0.355409
Si Si5 0.631038 0.809572 0.756473
Si Si6 0.792932 0.005042 0.444811
Si Si7 0.467859 0.792100 0.960720
Si Si8 0.709363 0.390889 0.484301
O O1 0.786755 0.291294 0.574636
O O2 0.109379 0.414095 0.585720
O O3 0.842212 0.953562 0.873082
O O4 0.000000 0.000000 0.000000
O O5 0.196466 0.178118 0.416186
O O6 0.318827 0.627779 0.084694
O O7 0.001465 0.197975 0.372281
O O8 0.000000 0.500000 0.000000
O O9 0.251575 0.133789 0.186511
O O10 0.466478 0.003552 0.367389
O O11 0.431409 0.486766 0.864082
O O12 0.301479 0.169169 0.285258
O O13 0.292613 0.168590 0.380690
O O14 0.500000 0.000000 0.500000
O O15 0.500000 0.500000 0.000000
O O16 0.653588 0.169000 0.189852
O O17 0.593950 0.100849 0.735219
O O18 0.587716 0.592550 0.210094
#
# Coordination Sequence:
#
# PCOD9093039 Si02
#       8
#     2   2   2   2   2   2   2   2
#     4  11  24  33  44  70 100 128 168 210 232 273
#     4   9  20  32  45  67 101 126 156 201 236 291
#     4  10  22  32  50  67  98 131 160 201 244 268
#     4  10  21  30  54  71  91 128 168 192 236 296
#     4   8  16  35  46  69  92 118 160 204 234 279
#     4  10  20  31  47  73  95 127 162 197 240 287
#     4  11  20  34  49  62  93 136 160 192 239 282
#     4  11  23  33  46  64  96 127 173 200 225 280
#
# _framework density 15.976239
#
# number of rings (size 3 to 8) (size 9 to 14) (size 15 to 20)
#    0.000    2.000    2.500    0.750   10.500    0.000 
#    0.000    0.000    0.000    0.000    0.000    0.000 
#    0.000    2.000    0.000    4.750    0.000    2.500 
#
# Total GULP energy -89110.887486 kJ/mol
# GULP energy per Si atom -5569.430468 kJ/mol
# Density = 1.593988 g / cm^3
# Si number density = 15.976239 Si / 1000 Ang^3
#
#
#
# Elastic Constant Matrix: (Units=GPa)
#
#
# Indices 1 2 3 4 5 6 
#
# 1 55.6395 30.3188 1.7055 -3.8191 -10.7708 -3.6724
# 2 30.3188 68.7566 3.2576 -14.7147 -6.4818 0.8685
# 3 1.7055 3.2576 81.4664 -1.8038 7.8894 7.8294
# 4 -3.8191 -14.7147 -1.8038 29.1569 8.9217 -4.5612
# 5 -10.7708 -6.4818 7.8894 8.9217 22.4482 -1.5139
# 6 -3.6724 0.8685 7.8294 -4.5612 -1.5139 31.7712
#
#
#
# Elastic Compliance Matrix: (Units=1/GPa)
#
#
# Indices 1 2 3 4 5 6 
#
# 1 0.026750 -0.011823 -0.001787 -0.005872 0.012626 0.003614
# 2 -0.011823 0.021646 0.000022 0.010377 -0.003598 -0.000645
# 3 -0.001787 0.000022 0.013334 0.002072 -0.006597 -0.003510
# 4 -0.005872 0.010377 0.002072 0.045109 -0.018198 0.004136
# 5 0.012626 -0.003598 -0.006597 -0.018198 0.059347 0.003399
# 6 0.003614 -0.000645 -0.003510 0.004136 0.003399 0.033531
#
#
# Mechanical properties :
#
#
# Convention : Reuss Voigt Hill
#
# Bulk Modulus (GPa) = 28.94059 30.71404 29.82732
# Shear Modulus (GPa) = 20.97229 28.04730 24.50979
#
# Velocity S-wave (km/s) = 3.62707 4.19449 3.92106
# Velocity P-wave (km/s) = 5.97453 6.53643 6.26178
#
# Compressibility (1/GPa) = 0.03455354
#
# Stress axis : x y z
#
# Youngs Moduli (GPa) = 37.38342 46.19767 74.99838
#
# Poissons Ratio (x) = 0.54619 0.13405
# Poissons Ratio (y) = 0.44198 -0.00166
# Poissons Ratio (z) = 0.06682 -0.00102
#
# Static dielectric constant tensor:
#      x y z
#    x 1.574710 0.012970 -0.012530 
#    y 0.012970 1.576960 -0.021890 
#    z -0.012530 -0.021890 1.606710 
# 
# From -- ./inp_files/619580.got.cif
#   From: 2010.05.17/outbox.cif.g08.bks.cpg/sg2_310_cif.got.tgz:619580.got - 2010.06.03 11:33:40.
