data_PCOD9093895
_publ_section_title
;
Structure prediction by ZEFSAII (Michael W. Deem and Ramdas Pophale) SiO2 
 PCOD9093895
Probable space group: P -1
;
_chemical_formula_sum "Si O2"
_cell_formula_units_Z 16
_cell_length_a 12.328445
_cell_length_b 13.704091
_cell_length_c 13.943182
_cell_angle_alpha 30.093033
_cell_angle_beta 69.847864
_cell_angle_gamma 47.762926
_cell_volume 672.926241
_symmetry_space_group_name_H-M "P -1"
_symmetry_group_IT_number 2
_symmetry_cell_setting 'triclinic'
loop_
_space_group_symop_operation_xyz
x,y,z
-x,-y,-z
loop_
_atom_site_type_symbol
_atom_site_label
_atom_site_fract_x
_atom_site_fract_y
_atom_site_fract_z
Si Si1 0.974130 0.194068 0.759484
Si Si2 0.275600 0.738198 0.309889
Si Si3 0.373017 0.472367 0.870046
Si Si4 0.836958 0.571320 0.951362
Si Si5 0.513086 0.681518 0.594291
Si Si6 0.474416 0.811127 0.144559
Si Si7 0.750527 0.845110 0.358550
Si Si8 0.719691 0.654379 0.705036
O O1 0.915871 0.129786 0.746122
O O2 0.808178 0.578395 0.504350
O O3 0.146750 0.106225 0.758959
O O4 0.000000 0.000000 0.000000
O O5 0.386003 0.527518 0.356489
O O6 0.276639 0.969787 0.100080
O O7 0.382792 0.514136 0.560405
O O8 0.379141 0.695661 0.670756
O O9 0.473405 0.274970 0.908534
O O10 0.184454 0.601245 0.836172
O O11 0.530275 0.197273 0.133614
O O12 0.834435 0.509389 0.892886
O O13 0.636137 0.953507 0.700944
O O14 0.000000 0.500000 0.000000
O O15 0.670018 0.539646 0.745858
O O16 0.500000 0.000000 0.000000
O O17 0.811258 0.694297 0.573416
O O18 0.500000 0.000000 0.500000
#
# Coordination Sequence:
#
# PCOD9093895 Si02
#       8
#     2   2   2   2   2   2   2   2
#     4  11  22  37  59  91 133 160 203 265 317 370
#     4  10  20  37  57  88 124 160 208 253 306 381
#     4  11  22  40  67  86 119 170 214 257 319 381
#     4  11  24  42  62  92 129 159 206 273 320 373
#     4  10  20  40  68  88 123 163 215 260 313 382
#     4  10  20  33  60  87 116 162 204 242 310 380
#     4  11  22  38  63  94 122 166 212 262 318 372
#     4  10  20  42  66  92 124 165 219 264 313 373
#
# _framework density 23.776752999999999
#
# number of rings (size 3 to 8) (size 9 to 14) (size 15 to 20)
#    0.000    1.500    3.750    3.000    0.000    3.000 
#    0.000    6.250    0.000    0.000    0.000    0.000 
#    0.000    0.000    0.000    0.000    0.000    0.000 
#
# Total GULP energy -89209.502848 kJ/mol
# GULP energy per Si atom -5575.593928 kJ/mol
# Density = 2.372264 g / cm^3
# Si number density = 23.776753 Si / 1000 Ang^3
#
#
#
# Elastic Constant Matrix: (Units=GPa)
#
#
# Indices 1 2 3 4 5 6 
#
# 1 167.1735 25.7687 33.0431 23.8240 -21.0625 -27.5022
# 2 25.7687 43.2870 13.3029 14.1736 -6.5492 -6.2626
# 3 33.0431 13.3029 60.4937 20.2124 -15.4043 -7.6088
# 4 23.8240 14.1736 20.2124 38.4895 -6.4604 -9.9761
# 5 -21.0625 -6.5492 -15.4043 -6.4604 51.8893 14.6581
# 6 -27.5022 -6.2626 -7.6088 -9.9761 14.6581 42.1235
#
#
#
# Elastic Compliance Matrix: (Units=1/GPa)
#
#
# Indices 1 2 3 4 5 6 
#
# 1 0.007807 -0.002759 -0.002506 -0.001422 0.000886 0.003589
# 2 -0.002759 0.027893 -0.001921 -0.007420 0.000930 -0.000082
# 3 -0.002506 -0.001921 0.022362 -0.009130 0.004719 -0.001687
# 4 -0.001422 -0.007420 -0.009130 0.035516 -0.001263 0.005170
# 5 0.000886 0.000930 0.004719 -0.001263 0.022883 -0.006693
# 6 0.003589 -0.000082 -0.001687 0.005170 -0.006693 0.029320
#
#
# Mechanical properties :
#
#
# Convention : Reuss Voigt Hill
#
# Bulk Modulus (GPa) = 22.88839 46.13151 34.50995
# Shear Modulus (GPa) = 28.61806 39.75642 34.18724
#
# Velocity S-wave (km/s) = 3.47308 4.09353 3.79600
# Velocity P-wave (km/s) = 5.07251 6.46427 5.81021
#
# Compressibility (1/GPa) = 0.04369026
#
# Stress axis : x y z
#
# Youngs Moduli (GPa) = 128.08962 35.85170 44.71935
#
# Poissons Ratio (x) = 0.09890 0.11205
# Poissons Ratio (y) = 0.35336 0.08592
# Poissons Ratio (z) = 0.32095 0.06888
#
# Static dielectric constant tensor:
#      x y z
#    x 2.062770 -0.029040 0.091820 
#    y -0.029040 1.937120 -0.052140 
#    z 0.091820 -0.052140 1.990350 
# 
# From -- ./inp_files/522154.got.cif
#   From: 2010.05.17/outbox.cif.g08.bks.cpg/sg2_262_cif.got.tgz:522154.got - 2010.06.03 11:33:40.
