data_PCOD9093981
_publ_section_title
;
Structure prediction by ZEFSAII (Michael W. Deem and Ramdas Pophale) SiO2 
 PCOD9093981
Probable space group: P -1
;
_chemical_formula_sum "Si O2"
_cell_formula_units_Z 16
_cell_length_a 9.290780
_cell_length_b 5.741733
_cell_length_c 19.494929
_cell_angle_alpha 81.531718
_cell_angle_beta 40.490956
_cell_angle_gamma 72.000951
_cell_volume 635.714113
_symmetry_space_group_name_H-M "P -1"
_symmetry_group_IT_number 2
_symmetry_cell_setting 'triclinic'
loop_
_space_group_symop_operation_xyz
x,y,z
-x,-y,-z
loop_
_atom_site_type_symbol
_atom_site_label
_atom_site_fract_x
_atom_site_fract_y
_atom_site_fract_z
Si Si1 0.721487 0.453792 0.370265
Si Si2 0.722668 0.954205 0.868923
Si Si3 0.219848 0.589049 0.102054
Si Si4 0.950752 0.748026 0.053196
Si Si5 0.278513 0.045544 0.629735
Si Si6 0.680158 0.864058 0.592381
Si Si7 0.680158 0.363406 0.592381
Si Si8 0.402135 0.924490 0.248884
O O1 0.500000 0.500000 0.500000
O O2 0.838456 0.160063 0.341418
O O3 0.585645 0.534193 0.343702
O O4 0.835728 0.661108 0.342056
O O5 0.843113 0.658503 0.843591
O O6 0.843113 0.154794 0.843591
O O7 0.647385 0.018894 0.814828
O O8 0.500000 0.000000 0.000000
O O9 0.107392 0.663102 0.066404
O O10 0.500000 0.500000 0.000000
O O11 0.677790 0.830126 0.161958
O O12 0.000000 0.500000 0.000000
O O13 0.000000 0.000000 0.000000
O O14 0.414356 0.963541 0.656298
O O15 0.500000 0.000000 0.500000
O O16 0.778826 0.592214 0.536749
O O17 0.778698 0.095116 0.531073
O O18 0.686541 0.854024 0.673073
O O19 0.686541 0.286363 0.673073
#
# Coordination Sequence:
#
# PCOD9093981 Si02
#       8
#     2   2   2   2   2   2   2   2
#     4   8  12  20  34  54  83 118 147 167 210 272
#     4  10  20  34  50  66  90 121 152 190 237 282
#     4  10  20  36  50  68  91 115 149 191 237 286
#     4  12  24  36  54  74  91 119 159 203 243 284
#     4   8  12  20  34  54  83 118 147 167 210 272
#     4   8  16  26  40  63  89 118 150 180 229 272
#     4   8  16  26  40  63  89 118 150 180 229 272
#     4  10  22  32  54  68  96 121 161 198 238 280
#
# _framework density 25.168545999999999
#
# number of rings (size 3 to 8) (size 9 to 14) (size 15 to 20)
#    0.750    2.000    0.000    3.750    3.500    0.000 
#    0.000    0.000    0.000    0.000    0.000    0.000 
#    0.000    0.000    0.000    6.750    1.000    0.000 
#
# Total GULP energy -89199.282893 kJ/mol
# GULP energy per Si atom -5574.955181 kJ/mol
# Density = 2.511126 g / cm^3
# Si number density = 25.168546 Si / 1000 Ang^3
#
#
#
# Elastic Constant Matrix: (Units=GPa)
#
#
# Indices 1 2 3 4 5 6 
#
# 1 126.0213 59.4407 45.9379 -10.0767 32.6735 1.8286
# 2 59.4407 293.2283 69.2969 -6.3844 3.8660 68.6405
# 3 45.9379 69.2969 78.1476 -12.7937 31.7096 10.3247
# 4 -10.0767 -6.3844 -12.7937 42.3504 -6.8361 4.8621
# 5 32.6735 3.8660 31.7096 -6.8361 60.3417 -10.1178
# 6 1.8286 68.6405 10.3247 4.8621 -10.1178 62.1356
#
#
#
# Elastic Compliance Matrix: (Units=1/GPa)
#
#
# Indices 1 2 3 4 5 6 
#
# 1 0.011005 -0.001660 -0.003633 0.000514 -0.003637 0.001481
# 2 -0.001660 0.006094 -0.004433 0.000141 0.001907 -0.005647
# 3 -0.003633 -0.004433 0.023647 0.004118 -0.009852 -0.000852
# 4 0.000514 0.000141 0.004118 0.025317 -0.000060 -0.002846
# 5 -0.003637 0.001907 -0.009852 -0.000060 0.024190 0.003581
# 6 0.001481 -0.005647 -0.000852 -0.002846 0.003581 0.023236
#
#
# Mechanical properties :
#
#
# Convention : Reuss Voigt Hill
#
# Bulk Modulus (GPa) = 46.96051 94.08315 70.52183
# Shear Modulus (GPa) = 35.70424 54.48033 45.09229
#
# Velocity S-wave (km/s) = 3.77052 4.65759 4.23734
# Velocity P-wave (km/s) = 6.13634 8.14780 7.21254
#
# Compressibility (1/GPa) = 0.02129449
#
# Stress axis : x y z
#
# Youngs Moduli (GPa) = 90.86859 164.08881 42.28848
#
# Poissons Ratio (x) = 0.27235 0.15364
# Poissons Ratio (y) = 0.15082 0.18746
# Poissons Ratio (z) = 0.33014 0.72740
#
# Static dielectric constant tensor:
#      x y z
#    x 1.915150 -0.037700 0.003030 
#    y -0.037700 1.824320 0.002870 
#    z 0.003030 0.002870 2.033420 
# 
# From -- ./inp_files/585205.got.cif
#   From: 2010.05.17/outbox.cif.g08.bks.cpg/sg2_293_cif.got.tgz:585205.got - 2010.06.03 11:33:40.
