data_PCOD9093346
_publ_section_title
;
Structure prediction by ZEFSAII (Michael W. Deem and Ramdas Pophale) SiO2 
 PCOD9093346
Probable space group: P -1
;
_chemical_formula_sum "Si O2"
_cell_formula_units_Z 12
_cell_length_a 13.558773
_cell_length_b 13.313263
_cell_length_c 13.127545
_cell_angle_alpha 135.925617
_cell_angle_beta 137.070750
_cell_angle_gamma 21.409922
_cell_volume 582.682634
_symmetry_space_group_name_H-M "P -1"
_symmetry_group_IT_number 2
_symmetry_cell_setting 'triclinic'
loop_
_space_group_symop_operation_xyz
x,y,z
-x,-y,-z
loop_
_atom_site_type_symbol
_atom_site_label
_atom_site_fract_x
_atom_site_fract_y
_atom_site_fract_z
Si Si1 0.287453 0.758916 0.601442
Si Si2 0.002792 0.428579 0.118185
Si Si3 0.286954 0.691107 0.783068
Si Si4 0.775380 0.859060 0.130019
Si Si5 0.435584 0.864424 0.118573
Si Si6 0.792196 0.091350 0.832654
O O1 0.500000 0.500000 0.500000
O O2 0.288758 0.683381 0.657738
O O3 0.333422 0.889161 0.749642
O O4 0.000000 0.000000 0.500000
O O5 0.938892 0.645503 0.191693
O O6 0.752763 0.594044 0.123509
O O7 0.288934 0.139435 0.177807
O O8 0.022059 0.326618 0.950387
O O9 0.560504 0.389868 0.822852
O O10 0.291345 0.856493 0.940090
O O11 0.009220 0.854923 0.738914
O O12 0.500000 0.000000 0.000000
O O13 0.372303 0.880496 0.199530
O O14 0.000000 0.000000 0.000000
#
# Coordination Sequence:
#
# PCOD9093346 Si02
#       6
#     2   2   2   2   2   2
#     4  12  28  42  64  94 131 174 217 252 315 384
#     4  11  21  33  61  85 125 153 202 251 319 358
#     4  11  20  37  55  82 133 167 199 259 317 373
#     4  11  24  41  63  90 127 171 209 262 320 366
#     4  11  19  33  56  93 119 157 200 259 317 371
#     4  10  20  32  56  88 123 164 203 253 327 381
#
# _framework density 20.594401999999999
#
# number of rings (size 3 to 8) (size 9 to 14) (size 15 to 20)
#    0.000    1.000    3.333    6.000    7.000    0.000 
#    0.000    0.000    0.000    0.000    0.000   23.333 
#    0.000    0.000    0.000    0.000    0.000    0.000 
#
# Total GULP energy -67010.167535 kJ/mol
# GULP energy per Si atom -5584.180628 kJ/mol
# Density = 2.054753 g / cm^3
# Si number density = 20.594402 Si / 1000 Ang^3
#
#
#
# Elastic Constant Matrix: (Units=GPa)
#
#
# Indices 1 2 3 4 5 6 
#
# 1 121.0488 71.9204 54.4036 10.4384 -41.3515 1.1025
# 2 71.9204 168.5426 37.8379 9.1075 -21.0561 2.0736
# 3 54.4036 37.8379 55.9981 11.0178 -21.5205 -4.3250
# 4 10.4384 9.1075 11.0178 30.7977 -3.6507 -13.4306
# 5 -41.3515 -21.0561 -21.5205 -3.6507 34.7945 -1.0909
# 6 1.1025 2.0736 -4.3250 -13.4306 -1.0909 50.7832
#
#
#
# Elastic Compliance Matrix: (Units=1/GPa)
#
#
# Indices 1 2 3 4 5 6 
#
# 1 0.021784 -0.004608 -0.012093 -0.000315 0.015555 -0.001064
# 2 -0.004608 0.008083 -0.001505 -0.000738 -0.001611 -0.000588
# 3 -0.012093 -0.001505 0.033949 -0.006269 0.005110 0.001667
# 4 -0.000315 -0.000738 -0.006269 0.039322 -0.000262 0.009897
# 5 0.015555 -0.001611 0.005110 -0.000262 0.049421 0.001156
# 6 -0.001064 -0.000588 0.001667 0.009897 0.001156 0.022523
#
#
# Mechanical properties :
#
#
# Convention : Reuss Voigt Hill
#
# Bulk Modulus (GPa) = 36.48833 74.87927 55.68380
# Shear Modulus (GPa) = 22.66254 35.37024 29.01639
#
# Velocity S-wave (km/s) = 3.32086 4.14873 3.75766
# Velocity P-wave (km/s) = 5.69739 7.70631 6.77671
#
# Compressibility (1/GPa) = 0.02740603
#
# Stress axis : x y z
#
# Youngs Moduli (GPa) = 45.90450 123.71661 29.45608
#
# Poissons Ratio (x) = 0.57002 0.35621
# Poissons Ratio (y) = 0.21151 0.04432
# Poissons Ratio (z) = 0.55512 0.18615
#
# Static dielectric constant tensor:
#      x y z
#    x 1.795070 0.018690 -0.055270 
#    y 0.018690 1.688450 0.115750 
#    z -0.055270 0.115750 1.466250 
# 
# From -- ./inp_files/286368.got.cif
#   From: 2010.05.17/outbox.cif.g08.bks.cpg/sg2_144_cif.got.tgz:286368.got - 2010.06.03 11:33:40.
