data_PCOD9093038
_publ_section_title
;
Structure prediction by ZEFSAII (Michael W. Deem and Ramdas Pophale) SiO2 
 PCOD9093038
Probable space group: P -1
;
_chemical_formula_sum "Si O2"
_cell_formula_units_Z 12
_cell_length_a 13.540551
_cell_length_b 16.654215
_cell_length_c 7.624142
_cell_angle_alpha 99.999345
_cell_angle_beta 86.534462
_cell_angle_gamma 21.714560
_cell_volume 497.056259
_symmetry_space_group_name_H-M "P -1"
_symmetry_group_IT_number 2
_symmetry_cell_setting 'triclinic'
loop_
_space_group_symop_operation_xyz
x,y,z
-x,-y,-z
loop_
_atom_site_type_symbol
_atom_site_label
_atom_site_fract_x
_atom_site_fract_y
_atom_site_fract_z
Si Si1 0.759759 0.307521 0.056963
Si Si2 0.339775 0.833380 0.370827
Si Si3 0.167234 0.442483 0.624801
Si Si4 0.913339 0.827857 0.240123
Si Si5 0.106245 0.313894 0.615663
Si Si6 0.816306 0.166497 0.316028
O O1 0.075227 0.999508 0.866571
O O2 0.901097 0.286030 0.994992
O O3 0.500000 0.500000 0.000000
O O4 0.635673 0.369472 0.277849
O O5 0.683402 0.614708 0.267460
O O6 0.154530 0.946858 0.261591
O O7 0.083244 0.102299 0.587840
O O8 0.348885 0.747406 0.465297
O O9 0.002093 0.489604 0.731663
O O10 0.955326 0.650544 0.572013
O O11 0.510392 0.142035 0.373690
O O12 0.047172 0.639578 0.239740
O O13 0.500000 0.000000 0.500000
#
# Coordination Sequence:
#
# PCOD9093038 Si02
#       6
#     2   2   2   2   2   2
#     4  10  20  31  47  69  94 132 160 186 230 279
#     4   8  16  32  48  68  93 129 151 195 238 264
#     4   8  16  28  47  71  93 122 150 191 244 267
#     4   8  17  29  46  71  93 119 158 189 232 273
#     4   9  15  27  46  74  96 113 151 201 231 279
#     4   9  18  34  45  65 102 122 160 193 223 285
#
# _framework density 24.142136000000001
#
# number of rings (size 3 to 8) (size 9 to 14) (size 15 to 20)
#    1.000    2.333    0.000    0.000    2.333    0.000 
#    3.000    2.500    0.000    1.000    0.000    7.000 
#    0.000    0.000    0.000    0.000    0.000    0.000 
#
# Total GULP energy -66814.135638 kJ/mol
# GULP energy per Si atom -5567.844637 kJ/mol
# Density = 2.408719 g / cm^3
# Si number density = 24.142136 Si / 1000 Ang^3
#
#
#
# Elastic Constant Matrix: (Units=GPa)
#
#
# Indices 1 2 3 4 5 6 
#
# 1 168.7737 40.2651 44.7200 -29.2387 -26.1649 13.9393
# 2 40.2651 73.9745 34.3629 -37.8749 -12.7964 5.3420
# 3 44.7200 34.3629 98.2364 -32.8172 -19.8078 17.8964
# 4 -29.2387 -37.8749 -32.8172 39.9579 12.7769 -5.0508
# 5 -26.1649 -12.7964 -19.8078 12.7769 40.4252 -17.0476
# 6 13.9393 5.3420 17.8964 -5.0508 -17.0476 30.0158
#
#
#
# Elastic Compliance Matrix: (Units=1/GPa)
#
#
# Indices 1 2 3 4 5 6 
#
# 1 0.007566 -0.002296 -0.001656 0.001033 0.002909 -0.000291
# 2 -0.002296 0.027066 -0.000707 0.023626 -0.000604 0.000303
# 3 -0.001656 -0.000707 0.015875 0.010166 0.000496 -0.006578
# 4 0.001033 0.023626 0.010166 0.058260 -0.007472 -0.005186
# 5 0.002909 -0.000604 0.000496 -0.007472 0.036627 0.018006
# 6 -0.000291 0.000303 -0.006578 -0.005186 0.018006 0.046673
#
#
# Mechanical properties :
#
#
# Convention : Reuss Voigt Hill
#
# Bulk Modulus (GPa) = 24.27823 64.40895 44.34359
# Shear Modulus (GPa) = 23.24341 36.85557 30.04949
#
# Velocity S-wave (km/s) = 3.10623 3.91142 3.53184
# Velocity P-wave (km/s) = 4.78989 6.86556 5.91942
#
# Compressibility (1/GPa) = 0.04118917
#
# Stress axis : x y z
#
# Youngs Moduli (GPa) = 132.17621 36.94608 62.99072
#
# Poissons Ratio (x) = 0.08481 0.10434
# Poissons Ratio (y) = 0.30343 0.04454
# Poissons Ratio (z) = 0.21895 0.02612
#
# Static dielectric constant tensor:
#      x y z
#    x 1.990760 0.041660 0.016300 
#    y 0.041660 1.953900 0.070900 
#    z 0.016300 0.070900 2.028420 
# 
# From -- ./inp_files/86588.got.cif
#   From: 2010.05.17/outbox.cif.g08.bks.cpg/sg2_44_cif.got.tgz:86588.got - 2010.06.03 11:33:40.
