data_PCOD9093408
_publ_section_title
;
Structure prediction by ZEFSAII (Michael W. Deem and Ramdas Pophale) SiO2 
 PCOD9093408
Probable space group: P -1
;
_chemical_formula_sum "Si O2"
_cell_formula_units_Z 16
_cell_length_a 12.324180
_cell_length_b 10.876998
_cell_length_c 14.491928
_cell_angle_alpha 57.908298
_cell_angle_beta 149.789246
_cell_angle_gamma 102.833040
_cell_volume 688.352088
_symmetry_space_group_name_H-M "P -1"
_symmetry_group_IT_number 2
_symmetry_cell_setting 'triclinic'
loop_
_space_group_symop_operation_xyz
x,y,z
-x,-y,-z
loop_
_atom_site_type_symbol
_atom_site_label
_atom_site_fract_x
_atom_site_fract_y
_atom_site_fract_z
Si Si1 0.298627 0.730795 0.705669
Si Si2 0.221480 0.073670 0.446461
Si Si3 0.155967 0.034477 0.204256
Si Si4 0.226080 0.583747 0.525584
Si Si5 0.433355 0.372064 0.366855
Si Si6 0.022955 0.458932 0.171627
Si Si7 0.889876 0.477605 0.273859
Si Si8 0.207989 0.074426 0.027789
O O1 0.331503 0.624555 0.677657
O O2 0.127265 0.689188 0.659628
O O3 0.170333 0.931318 0.503425
O O4 0.587494 0.639895 0.996993
O O5 0.034847 0.279010 0.241390
O O6 0.251674 0.053724 0.365226
O O7 0.487969 0.018054 0.714550
O O8 0.348185 0.832961 0.394517
O O9 0.136927 0.138027 0.057562
O O10 0.882256 0.055777 0.007571
O O11 0.432166 0.536464 0.614295
O O12 0.119658 0.461941 0.509780
O O13 0.962919 0.765731 0.229565
O O14 0.282028 0.431284 0.328574
O O15 0.214397 0.403166 0.121124
O O16 0.971371 0.499705 0.223797
#
# Coordination Sequence:
#
# PCOD9093408 Si02
#       8
#     2   2   2   2   2   2   2   2
#     4  11  23  43  68  90 113 166 221 259 292 353
#     4  12  21  38  63  90 129 160 201 255 308 358
#     4  10  20  37  60  89 127 159 212 244 288 373
#     4  11  21  41  68  93 119 156 217 260 295 358
#     4  10  21  40  61  93 127 162 202 242 309 375
#     4  11  24  38  61  95 133 164 189 249 324 376
#     4  11  24  43  66  88 123 163 213 256 304 362
#     4  10  20  32  60  96 116 158 202 252 301 355
#
# _framework density 23.243919999999999
#
# number of rings (size 3 to 8) (size 9 to 14) (size 15 to 20)
#    0.000    1.250    6.250    0.750    0.000    2.000 
#    2.250    0.000    0.000    1.500    0.000    0.000 
#    0.000    0.000    0.000    0.000    0.000    0.000 
#
# Total GULP energy -89375.232424 kJ/mol
# GULP energy per Si atom -5585.952026 kJ/mol
# Density = 2.319102 g / cm^3
# Si number density = 23.243920 Si / 1000 Ang^3
#
#
#
# Elastic Constant Matrix: (Units=GPa)
#
#
# Indices 1 2 3 4 5 6 
#
# 1 102.6686 17.2262 5.0300 4.4303 5.7592 24.7401
# 2 17.2262 53.1595 22.6007 14.4356 13.6701 26.6574
# 3 5.0300 22.6007 74.4105 11.4170 -5.1750 10.1225
# 4 4.4303 14.4356 11.4170 27.5265 12.9065 3.2524
# 5 5.7592 13.6701 -5.1750 12.9065 30.0246 3.0802
# 6 24.7401 26.6574 10.1225 3.2524 3.0802 29.6817
#
#
#
# Elastic Compliance Matrix: (Units=1/GPa)
#
#
# Indices 1 2 3 4 5 6 
#
# 1 0.012502 0.003436 -0.000053 -0.001265 -0.002080 -0.013134
# 2 0.003436 0.048963 -0.009083 -0.010141 -0.015955 -0.040973
# 3 -0.000053 -0.009083 0.017845 -0.007699 0.010338 0.001887
# 4 -0.001265 -0.010141 -0.007699 0.053547 -0.020412 0.009039
# 5 -0.002080 -0.015955 0.010338 -0.020412 0.050548 0.009529
# 6 -0.013134 -0.040973 0.001887 0.009039 0.009529 0.078814
#
#
# Mechanical properties :
#
#
# Convention : Reuss Voigt Hill
#
# Bulk Modulus (GPa) = 14.72545 35.55025 25.13785
# Shear Modulus (GPa) = 16.87728 29.80533 23.34130
#
# Velocity S-wave (km/s) = 2.69754 3.58479 3.17233
# Velocity P-wave (km/s) = 4.00640 5.69753 4.92509
#
# Compressibility (1/GPa) = 0.06790966
#
# Stress axis : x y z
#
# Youngs Moduli (GPa) = 79.98453 20.42366 56.03795
#
# Poissons Ratio (x) = -0.07017 0.00294
# Poissons Ratio (y) = -0.27480 0.50902
# Poissons Ratio (z) = 0.00420 0.18552
#
# Static dielectric constant tensor:
#      x y z
#    x 1.930230 0.038160 -0.003980 
#    y 0.038160 1.956000 0.033450 
#    z -0.003980 0.033450 1.846150 
# 
# From -- ./inp_files/270270.got.cif
#   From: 2010.05.17/outbox.cif.g08.bks.cpg/sg2_136_cif.got.tgz:270270.got - 2010.06.03 11:33:40.
