data_PCOD9093383
_publ_section_title
;
Structure prediction by ZEFSAII (Michael W. Deem and Ramdas Pophale) SiO2 
 PCOD9093383
Probable space group: P -1
;
_chemical_formula_sum "Si O2"
_cell_formula_units_Z 15
_cell_length_a 18.371778
_cell_length_b 8.776314
_cell_length_c 11.814905
_cell_angle_alpha 97.196805
_cell_angle_beta 135.736734
_cell_angle_gamma 48.370442
_cell_volume 736.170305
_symmetry_space_group_name_H-M "P -1"
_symmetry_group_IT_number 2
_symmetry_cell_setting 'triclinic'
loop_
_space_group_symop_operation_xyz
x,y,z
-x,-y,-z
loop_
_atom_site_type_symbol
_atom_site_label
_atom_site_fract_x
_atom_site_fract_y
_atom_site_fract_z
Si Si1 0.921495 0.863242 0.711318
Si Si2 0.554354 0.124391 0.355421
Si Si3 0.000000 0.000000 0.000000
Si Si4 0.088386 0.377509 0.961635
Si Si5 0.520423 0.241162 0.596135
Si Si6 0.709307 0.299691 0.910670
Si Si7 0.017464 0.948526 0.383117
Si Si8 0.754252 0.571652 0.532129
O O1 0.076034 0.550387 0.894467
O O2 0.737545 0.987010 0.502310
O O3 0.957399 0.925352 0.649045
O O4 0.893433 0.002334 0.803284
O O5 0.531200 0.190917 0.470322
O O6 0.382373 0.424239 0.138393
O O7 0.598534 0.891480 0.363286
O O8 0.140716 0.862818 0.037036
O O9 0.945648 0.429177 0.754594
O O10 0.000000 0.500000 0.000000
O O11 0.299892 0.066012 0.181105
O O12 0.556850 0.367663 0.696645
O O13 0.323343 0.418687 0.440568
O O14 0.827590 0.106449 0.133999
O O15 0.191004 0.625093 0.514792
O O16 0.000000 0.000000 0.500000
#
# Coordination Sequence:
#
# PCOD9093383 Si02
#       8
#     2   2   1   2   2   2   2   2
#     4  10  22  37  64  91 134 168 222 259 328 389
#     4  11  23  38  60 105 137 167 208 263 336 414
#     4  10  20  32  58  92 124 174 196 258 312 402
#     4  11  21  39  60 103 142 176 201 260 333 410
#     4  12  22  36  65 102 145 170 201 262 339 410
#     4  11  23  38  64  94 133 171 218 262 335 387
#     4  11  26  48  68  88 126 180 236 279 318 377
#     4  11  25  40  64  94 135 175 220 268 324 390
#
# _framework density 20.375720000000001
#
# number of rings (size 3 to 8) (size 9 to 14) (size 15 to 20)
#    0.000    1.067    5.333    1.600    9.333    0.000 
#    0.000    6.000    0.000    0.000    0.000    0.000 
#    0.000    0.000    0.000    0.000    0.000    0.000 
#
# Total GULP energy -83521.046753 kJ/mol
# GULP energy per Si atom -5568.069784 kJ/mol
# Density = 2.032934 g / cm^3
# Si number density = 20.375720 Si / 1000 Ang^3
#
#
#
# Elastic Constant Matrix: (Units=GPa)
#
#
# Indices 1 2 3 4 5 6 
#
# 1 69.2125 51.9025 8.9089 1.4935 -7.4054 5.1685
# 2 51.9025 115.6802 36.4891 -20.0281 -25.5448 2.7715
# 3 8.9089 36.4891 52.5452 -16.1321 -6.7450 -1.3191
# 4 1.4935 -20.0281 -16.1321 25.0181 5.3432 -4.9194
# 5 -7.4054 -25.5448 -6.7450 5.3432 26.9599 5.2738
# 6 5.1685 2.7715 -1.3191 -4.9194 5.2738 30.1631
#
#
#
# Elastic Compliance Matrix: (Units=1/GPa)
#
#
# Indices 1 2 3 4 5 6 
#
# 1 0.025536 -0.014698 0.001518 -0.012505 -0.003185 -0.004441
# 2 -0.014698 0.022657 -0.008241 0.010755 0.013336 -0.000501
# 3 0.001518 -0.008241 0.028167 0.013193 -0.003850 0.004554
# 4 -0.012505 0.010755 0.013193 0.061264 -0.004534 0.012516
# 5 -0.003185 0.013336 -0.003850 -0.004534 0.050837 -0.010476
# 6 -0.004441 -0.000501 0.004554 0.012516 -0.010476 0.038032
#
#
# Mechanical properties :
#
#
# Convention : Reuss Voigt Hill
#
# Bulk Modulus (GPa) = 29.83494 48.00433 38.91963
# Shear Modulus (GPa) = 17.82479 25.77070 21.79775
#
# Velocity S-wave (km/s) = 2.96092 3.56023 3.27431
# Velocity P-wave (km/s) = 5.13455 6.36483 5.78250
#
# Compressibility (1/GPa) = 0.03351775
#
# Stress axis : x y z
#
# Youngs Moduli (GPa) = 39.16109 44.13584 35.50246
#
# Poissons Ratio (x) = 0.64870 -0.05388
# Poissons Ratio (y) = 0.57558 0.29257
# Poissons Ratio (z) = -0.05943 0.36371
#
# Static dielectric constant tensor:
#      x y z
#    x 1.742060 0.104410 0.008120 
#    y 0.104410 1.767360 -0.046160 
#    z 0.008120 -0.046160 1.786490 
# 
# From -- ./inp_files/195652.got.cif
#   From: 2010.05.17/outbox.cif.g08.bks.cpg/sg2_98_cif.got.tgz:195652.got - 2010.06.03 11:33:40.
