data_PCOD9093925
_publ_section_title
;
Structure prediction by ZEFSAII (Michael W. Deem and Ramdas Pophale) SiO2 
 PCOD9093925
Probable space group: P -1
;
_chemical_formula_sum "Si O2"
_cell_formula_units_Z 16
_cell_length_a 25.578727
_cell_length_b 9.388933
_cell_length_c 10.369950
_cell_angle_alpha 53.119677
_cell_angle_beta 141.302131
_cell_angle_gamma 153.329851
_cell_volume 655.556532
_symmetry_space_group_name_H-M "P -1"
_symmetry_group_IT_number 2
_symmetry_cell_setting 'triclinic'
loop_
_space_group_symop_operation_xyz
x,y,z
-x,-y,-z
loop_
_atom_site_type_symbol
_atom_site_label
_atom_site_fract_x
_atom_site_fract_y
_atom_site_fract_z
Si Si1 0.876525 0.145970 0.094298
Si Si2 0.835975 0.506911 0.465227
Si Si3 0.051922 0.388545 0.660982
Si Si4 0.646090 0.144444 0.828363
Si Si5 0.186437 0.917301 0.269795
Si Si6 0.838164 0.800151 0.744086
Si Si7 0.550015 0.210329 0.100599
Si Si8 0.579100 0.647852 0.932785
O O1 0.994498 0.530209 0.114042
O O2 0.997610 0.201422 0.296873
O O3 0.775025 0.965297 0.867013
O O4 0.765993 0.949065 0.111763
O O5 0.878504 0.551914 0.373275
O O6 0.751509 0.167065 0.530311
O O7 0.734436 0.492843 0.311264
O O8 0.000000 0.500000 0.500000
O O9 0.193713 0.623345 0.910902
O O10 0.898633 0.997182 0.621857
O O11 0.703014 0.405815 0.703999
O O12 0.530509 0.980579 0.814271
O O13 0.573120 0.843162 0.775640
O O14 0.215011 0.130937 0.304708
O O15 0.000000 0.000000 0.000000
O O16 0.510531 0.340974 0.912132
O O17 0.500000 0.000000 0.000000
O O18 0.500000 0.500000 0.000000
#
# Coordination Sequence:
#
# PCOD9093925 Si02
#       8
#     2   2   2   2   2   2   2   2
#     4   9  19  38  66  90 128 160 210 262 327 374
#     4  10  20  38  65  93 130 162 217 263 319 376
#     4  11  18  34  66  97 133 161 210 262 321 378
#     4  10  22  40  60  90 129 172 210 258 317 386
#     4   9  19  37  62  94 127 163 209 266 325 373
#     4  10  20  33  61  93 126 168 209 252 320 385
#     4  11  23  40  63  94 125 171 217 261 319 385
#     4  10  22  40  65  89 126 170 210 261 324 377
#
# _framework density 24.406742000000001
#
# number of rings (size 3 to 8) (size 9 to 14) (size 15 to 20)
#    0.750    1.250    2.500    2.250    1.750    0.500 
#    0.000    3.125    8.250    1.500    0.000    0.000 
#    0.000    0.000    0.000    0.000    0.000    0.000 
#
# Total GULP energy -89287.708452 kJ/mol
# GULP energy per Si atom -5580.481778 kJ/mol
# Density = 2.435119 g / cm^3
# Si number density = 24.406742 Si / 1000 Ang^3
#
#
#
# Elastic Constant Matrix: (Units=GPa)
#
#
# Indices 1 2 3 4 5 6 
#
# 1 116.9866 61.3080 38.1238 -12.4565 18.8904 -1.6296
# 2 61.3080 137.0131 29.9090 -34.2461 9.5732 8.5225
# 3 38.1238 29.9090 82.3396 -16.2274 4.4460 7.5602
# 4 -12.4565 -34.2461 -16.2274 26.0767 -0.4625 6.5537
# 5 18.8904 9.5732 4.4460 -0.4625 31.7276 -0.3243
# 6 -1.6296 8.5225 7.5602 6.5537 -0.3243 45.3794
#
#
#
# Elastic Compliance Matrix: (Units=1/GPa)
#
#
# Indices 1 2 3 4 5 6 
#
# 1 0.013969 -0.006407 -0.005334 -0.006021 -0.005689 0.003422
# 2 -0.006407 0.015040 0.001946 0.019445 -0.000776 -0.006193
# 3 -0.005334 0.001946 0.016638 0.011626 0.000376 -0.005005
# 4 -0.006021 0.019445 0.011626 0.072278 -0.003024 -0.016265
# 5 -0.005689 -0.000776 0.000376 -0.003024 0.035049 0.000566
# 6 0.003422 -0.006193 -0.005005 -0.016265 0.000566 0.026509
#
#
# Mechanical properties :
#
#
# Convention : Reuss Voigt Hill
#
# Bulk Modulus (GPa) = 38.37679 66.11341 52.24510
# Shear Modulus (GPa) = 24.06626 34.43663 29.25144
#
# Velocity S-wave (km/s) = 3.14355 3.76033 3.46569
# Velocity P-wave (km/s) = 5.37902 6.78236 6.12104
#
# Compressibility (1/GPa) = 0.02605742
#
# Stress axis : x y z
#
# Youngs Moduli (GPa) = 71.58738 66.48842 60.10208
#
# Poissons Ratio (x) = 0.42596 0.32061
# Poissons Ratio (y) = 0.45863 -0.11695
# Poissons Ratio (z) = 0.38187 -0.12937
#
# Static dielectric constant tensor:
#      x y z
#    x 1.828330 0.038740 0.029220 
#    y 0.038740 1.963520 -0.022580 
#    z 0.029220 -0.022580 1.973000 
# 
# From -- ./inp_files/189341.got.cif
#   From: 2010.05.17/outbox.cif.g08.bks.cpg/sg2_95_cif.got.tgz:189341.got - 2010.06.03 11:33:40.
