data_PCOD9093963
_publ_section_title
;
Structure prediction by ZEFSAII (Michael W. Deem and Ramdas Pophale) SiO2 
 PCOD9093963
Probable space group: P -1
;
_chemical_formula_sum "Si O2"
_cell_formula_units_Z 14
_cell_length_a 8.889105
_cell_length_b 22.309990
_cell_length_c 7.653361
_cell_angle_alpha 66.748953
_cell_angle_beta 65.384254
_cell_angle_gamma 31.562851
_cell_volume 719.722546
_symmetry_space_group_name_H-M "P -1"
_symmetry_group_IT_number 2
_symmetry_cell_setting 'triclinic'
loop_
_space_group_symop_operation_xyz
x,y,z
-x,-y,-z
loop_
_atom_site_type_symbol
_atom_site_label
_atom_site_fract_x
_atom_site_fract_y
_atom_site_fract_z
Si Si1 0.109273 0.465985 0.285780
Si Si2 0.385228 0.634475 0.677069
Si Si3 0.322578 0.869125 0.978511
Si Si4 0.903876 0.720030 0.981836
Si Si5 0.804411 0.703390 0.695492
Si Si6 0.530735 0.323780 0.765116
Si Si7 0.238806 0.612622 0.304424
O O1 0.387811 0.421981 0.213174
O O2 0.217150 0.360095 0.303029
O O3 0.000000 0.500000 0.500000
O O4 0.818846 0.571675 0.193057
O O5 0.382060 0.689214 0.463466
O O6 0.528119 0.522510 0.650274
O O7 0.067258 0.728090 0.805086
O O8 0.337387 0.786444 0.101489
O O9 0.555230 0.829067 0.042556
O O10 0.481954 0.831763 0.758296
O O11 0.000000 0.000000 0.000000
O O12 0.951707 0.653729 0.874409
O O13 0.064269 0.658009 0.156483
O O14 0.002056 0.680915 0.495408
O O15 0.622982 0.360256 0.777676
#
# Coordination Sequence:
#
# PCOD9093963 Si02
#       7
#     2   2   2   2   2   2   2
#     4  10  20  33  64  97 134 157 203 248 323 393
#     4  11  21  38  59 101 138 161 198 261 316 403
#     4  10  25  47  63  87 126 169 228 273 303 364
#     4  10  24  39  64  90 131 170 211 256 318 374
#     4  10  22  42  64  89 137 165 209 255 329 365
#     4  11  21  37  66  90 129 171 205 256 325 370
#     4  12  21  40  62 100 136 165 201 257 323 399
#
# _framework density 19.451938999999999
#
# number of rings (size 3 to 8) (size 9 to 14) (size 15 to 20)
#    0.857    0.571    4.286    2.571    4.000    0.571 
#    0.000    4.286    0.000    0.000    0.000    0.000 
#    0.000    0.000    0.000    0.000    0.000    0.000 
#
# Total GULP energy -77959.520218 kJ/mol
# GULP energy per Si atom -5568.537158 kJ/mol
# Density = 1.940767 g / cm^3
# Si number density = 19.451939 Si / 1000 Ang^3
#
#
#
# Elastic Constant Matrix: (Units=GPa)
#
#
# Indices 1 2 3 4 5 6 
#
# 1 145.3995 43.5851 32.3739 1.9640 -3.7023 -9.9139
# 2 43.5851 74.5961 23.0063 9.7538 -8.7089 -10.5048
# 3 32.3739 23.0063 97.4268 15.5850 -2.0347 -9.1467
# 4 1.9640 9.7538 15.5850 18.8557 2.2526 -3.1954
# 5 -3.7023 -8.7089 -2.0347 2.2526 40.2814 6.3936
# 6 -9.9139 -10.5048 -9.1467 -3.1954 6.3936 19.8694
#
#
#
# Elastic Compliance Matrix: (Units=1/GPa)
#
#
# Indices 1 2 3 4 5 6 
#
# 1 0.008881 -0.004847 -0.002281 0.003856 -0.000833 0.001707
# 2 -0.004847 0.018614 -0.001021 -0.007879 0.003230 0.004646
# 3 -0.002281 -0.001021 0.013060 -0.009616 0.000342 0.002678
# 4 0.003856 -0.007879 -0.009616 0.066473 -0.006523 0.006121
# 5 -0.000833 0.003230 0.000342 -0.006523 0.027152 -0.008337
# 6 0.001707 0.004646 0.002678 0.006121 -0.008337 0.058537
#
#
# Mechanical properties :
#
#
# Convention : Reuss Voigt Hill
#
# Bulk Modulus (GPa) = 41.22321 57.26143 49.24232
# Shear Modulus (GPa) = 23.03084 30.36511 26.69797
#
# Velocity S-wave (km/s) = 3.44464 3.95528 3.70876
# Velocity P-wave (km/s) = 6.08762 7.09650 6.61133
#
# Compressibility (1/GPa) = 0.02425818
#
# Stress axis : x y z
#
# Youngs Moduli (GPa) = 112.59457 53.72307 76.57108
#
# Poissons Ratio (x) = 0.26039 0.17463
# Poissons Ratio (y) = 0.54574 0.07817
# Poissons Ratio (z) = 0.25678 0.05485
#
# Static dielectric constant tensor:
#      x y z
#    x 1.771060 -0.028020 -0.014900 
#    y -0.028020 1.654340 0.009160 
#    z -0.014900 0.009160 1.752370 
# 
# From -- ./inp_files/220729.got.cif
#   From: 2010.05.17/outbox.cif.g08.bks.cpg/sg2_111_cif.got.tgz:220729.got - 2010.06.03 11:33:40.
