data_PCOD9093964
_publ_section_title
;
Structure prediction by ZEFSAII (Michael W. Deem and Ramdas Pophale) SiO2 
 PCOD9093964
Probable space group: P -1
;
_chemical_formula_sum "Si O2"
_cell_formula_units_Z 14
_cell_length_a 5.569117
_cell_length_b 6.784945
_cell_length_c 17.107642
_cell_angle_alpha 72.182272
_cell_angle_beta 112.910415
_cell_angle_gamma 74.187078
_cell_volume 507.211599
_symmetry_space_group_name_H-M "P -1"
_symmetry_group_IT_number 2
_symmetry_cell_setting 'triclinic'
loop_
_space_group_symop_operation_xyz
x,y,z
-x,-y,-z
loop_
_atom_site_type_symbol
_atom_site_label
_atom_site_fract_x
_atom_site_fract_y
_atom_site_fract_z
Si Si1 0.501427 0.895443 0.205300
Si Si2 0.117060 0.964245 0.854740
Si Si3 0.545378 0.357828 0.922835
Si Si4 0.712295 0.101271 0.546323
Si Si5 0.096971 0.523041 0.160290
Si Si6 0.696157 0.678971 0.405191
Si Si7 0.320841 0.815759 0.639836
O O1 0.704097 0.021240 0.199619
O O2 0.430718 0.822553 0.121000
O O3 0.657597 0.671135 0.308141
O O4 0.190906 0.045461 0.188406
O O5 0.018265 0.218467 0.849940
O O6 0.330429 0.779265 0.965364
O O7 0.753713 0.468699 0.904915
O O8 0.197061 0.510853 0.869487
O O9 0.580960 0.273810 0.580974
O O10 0.725595 0.228227 0.451960
O O11 0.500000 0.000000 0.500000
O O12 0.009580 0.876252 0.631691
O O13 0.371526 0.362943 0.267356
O O14 0.000000 0.500000 0.500000
O O15 0.689800 0.932083 0.381170
#
# Coordination Sequence:
#
# PCOD9093964 Si02
#       7
#     2   2   2   2   2   2   2
#     4  10  21  36  62  93 129 167 208 267 327 375
#     4  10  20  38  64  96 128 164 221 270 321 380
#     4  10  20  37  65  98 125 165 219 274 317 381
#     4   9  22  42  64  85 126 165 222 261 319 383
#     4  10  20  33  66  91 126 158 216 263 325 369
#     4  11  26  41  63  92 135 169 213 268 329 388
#     4  10  23  41  63  91 124 175 216 267 316 392
#
# _framework density 27.601893
#
# number of rings (size 3 to 8) (size 9 to 14) (size 15 to 20)
#    0.000    2.000    0.000    4.286   10.000    6.286 
#    0.000    0.000    0.000    9.429    0.000    0.000 
#    0.000    0.000    0.000    0.000    0.000    0.000 
#
# Total GULP energy -78359.528560 kJ/mol
# GULP energy per Si atom -5597.109183 kJ/mol
# Density = 2.753907 g / cm^3
# Si number density = 27.601893 Si / 1000 Ang^3
#
#
#
# Elastic Constant Matrix: (Units=GPa)
#
#
# Indices 1 2 3 4 5 6 
#
# 1 199.4342 5.9324 59.9252 -7.2127 19.6085 -35.1911
# 2 5.9324 86.1386 21.6593 -8.7536 14.3186 -22.3636
# 3 59.9252 21.6593 197.3688 -19.6109 12.8165 -22.7823
# 4 -7.2127 -8.7536 -19.6109 53.7356 -7.1690 19.4607
# 5 19.6085 14.3186 12.8165 -7.1690 51.8332 -0.5103
# 6 -35.1911 -22.3636 -22.7823 19.4607 -0.5103 39.2638
#
#
#
# Elastic Compliance Matrix: (Units=1/GPa)
#
#
# Indices 1 2 3 4 5 6 
#
# 1 0.007011 0.002211 -0.001507 -0.002524 -0.003162 0.007878
# 2 0.002211 0.015190 -0.000953 -0.002280 -0.005002 0.011145
# 3 -0.001507 -0.000953 0.005892 0.001447 -0.000415 0.000802
# 4 -0.002524 -0.002280 0.001447 0.024358 0.004451 -0.014737
# 5 -0.003162 -0.005002 -0.000415 0.004451 0.022512 -0.007837
# 6 0.007878 0.011145 0.000802 -0.014737 -0.007837 0.046545
#
#
# Mechanical properties :
#
#
# Convention : Reuss Voigt Hill
#
# Bulk Modulus (GPa) = 36.24103 73.10839 54.67471
# Shear Modulus (GPa) = 38.10778 55.32816 46.71797
#
# Velocity S-wave (km/s) = 3.71970 4.48203 4.11854
# Velocity P-wave (km/s) = 5.62198 7.30267 6.51673
#
# Compressibility (1/GPa) = 0.02759303
#
# Stress axis : x y z
#
# Youngs Moduli (GPa) = 142.63122 65.83275 169.71299
#
# Poissons Ratio (x) = -0.14553 0.25582
# Poissons Ratio (y) = -0.31530 0.16180
# Poissons Ratio (z) = 0.21500 0.06276
#
# Static dielectric constant tensor:
#      x y z
#    x 2.387740 0.059200 -0.094920 
#    y 0.059200 2.314370 -0.031930 
#    z -0.094920 -0.031930 2.093240 
# 
# From -- ./inp_files/89996.got.cif
#   From: 2010.05.17/outbox.cif.g08.bks.cpg/sg2_45_cif.got.tgz:89996.got - 2010.06.03 11:33:40.
