data_PCOD9093297
_publ_section_title
;
Structure prediction by ZEFSAII (Michael W. Deem and Ramdas Pophale) SiO2 
 PCOD9093297
Probable space group: P -1
;
_chemical_formula_sum "Si O2"
_cell_formula_units_Z 14
_cell_length_a 12.390355
_cell_length_b 7.991868
_cell_length_c 7.762853
_cell_angle_alpha 84.621596
_cell_angle_beta 86.661797
_cell_angle_gamma 123.790165
_cell_volume 630.350660
_symmetry_space_group_name_H-M "P -1"
_symmetry_group_IT_number 2
_symmetry_cell_setting 'triclinic'
loop_
_space_group_symop_operation_xyz
x,y,z
-x,-y,-z
loop_
_atom_site_type_symbol
_atom_site_label
_atom_site_fract_x
_atom_site_fract_y
_atom_site_fract_z
Si Si1 0.076203 0.239318 0.463921
Si Si2 0.585240 0.724053 0.710243
Si Si3 0.903533 0.324439 0.276191
Si Si4 0.352702 0.866561 0.462773
Si Si5 0.667202 0.517369 0.448127
Si Si6 0.805392 0.787274 0.883092
Si Si7 0.005160 0.759199 0.072118
O O1 0.176868 0.336296 0.601484
O O2 0.162198 0.295670 0.278427
O O3 0.980988 0.308663 0.429271
O O4 0.000000 0.000000 0.500000
O O5 0.629946 0.651498 0.546600
O O6 0.428550 0.587476 0.698454
O O7 0.653409 0.703510 0.875117
O O8 0.649336 0.966515 0.667349
O O9 0.755863 0.214397 0.368944
O O10 0.971423 0.555639 0.187218
O O11 0.919797 0.218107 0.118269
O O12 0.343984 0.665597 0.421325
O O13 0.500000 0.000000 0.500000
O O14 0.896207 0.034357 0.852754
O O15 0.871647 0.738246 0.032633
#
# Coordination Sequence:
#
# PCOD9093297 Si02
#       7
#     2   2   2   2   2   2   2
#     4  10  20  32  54  94 115 141 186 245 307 350
#     4   9  18  36  57  83 114 154 189 238 293 348
#     4  10  20  35  55  83 119 147 196 236 285 348
#     4  10  21  36  58  87 113 151 192 237 300 350
#     4   9  19  33  53  85 117 148 180 231 306 344
#     4   9  18  35  55  81 114 150 199 230 285 348
#     4   9  20  35  54  85 112 162 191 236 280 336
#
# _framework density 22.209859999999999
#
# number of rings (size 3 to 8) (size 9 to 14) (size 15 to 20)
#    0.000    2.571    0.000    1.714    4.000    0.571 
#    2.571    0.000    0.000    6.857    0.000    0.000 
#    0.000    0.000    0.000    0.000    0.000    0.000 
#
# Total GULP energy -77956.385959 kJ/mol
# GULP energy per Si atom -5568.313283 kJ/mol
# Density = 2.215931 g / cm^3
# Si number density = 22.209860 Si / 1000 Ang^3
#
#
#
# Elastic Constant Matrix: (Units=GPa)
#
#
# Indices 1 2 3 4 5 6 
#
# 1 135.3067 54.2281 38.7773 -0.1047 27.8892 20.8806
# 2 54.2281 117.9510 15.5272 8.4800 23.5626 13.5770
# 3 38.7773 15.5272 62.4384 8.4238 12.6103 16.5132
# 4 -0.1047 8.4800 8.4238 29.4975 -2.1797 5.6614
# 5 27.8892 23.5626 12.6103 -2.1797 35.7377 4.8041
# 6 20.8806 13.5770 16.5132 5.6614 4.8041 53.0068
#
#
#
# Elastic Compliance Matrix: (Units=1/GPa)
#
#
# Indices 1 2 3 4 5 6 
#
# 1 0.011573 -0.003748 -0.005256 0.002659 -0.004294 -0.001856
# 2 -0.003748 0.011459 0.001311 -0.003877 -0.005197 -0.000982
# 3 -0.005256 0.001311 0.021695 -0.006141 -0.004257 -0.003982
# 4 0.002659 -0.003877 -0.006141 0.037679 0.005303 -0.002646
# 5 -0.004294 -0.005197 -0.004257 0.005303 0.036521 0.000472
# 6 -0.001856 -0.000982 -0.003982 -0.002646 0.000472 0.021329
#
#
# Mechanical properties :
#
#
# Convention : Reuss Voigt Hill
#
# Bulk Modulus (GPa) = 34.08303 59.19572 46.63937
# Shear Modulus (GPa) = 30.22578 37.45931 33.84254
#
# Velocity S-wave (km/s) = 3.69306 4.11129 3.90777
# Velocity P-wave (km/s) = 5.79346 7.01767 6.43474
#
# Compressibility (1/GPa) = 0.02934011
#
# Stress axis : x y z
#
# Youngs Moduli (GPa) = 86.41119 87.26912 46.09258
#
# Poissons Ratio (x) = 0.32712 0.24224
# Poissons Ratio (y) = 0.32391 -0.06041
# Poissons Ratio (z) = 0.45414 -0.11438
#
# Static dielectric constant tensor:
#      x y z
#    x 1.964130 -0.020300 0.066580 
#    y -0.020300 1.865990 -0.019690 
#    z 0.066580 -0.019690 1.947900 
# 
# From -- ./inp_files/238512.got.cif
#   From: 2010.05.17/outbox.cif.g08.bks.cpg/sg2_120_cif.got.tgz:238512.got - 2010.06.03 11:33:40.
