data_PCOD9093794
_publ_section_title
;
Structure prediction by ZEFSAII (Michael W. Deem and Ramdas Pophale) SiO2 
 PCOD9093794
Probable space group: P -1
;
_chemical_formula_sum "Si O2"
_cell_formula_units_Z 14
_cell_length_a 14.594666
_cell_length_b 13.382297
_cell_length_c 9.991259
_cell_angle_alpha 33.102355
_cell_angle_beta 125.569039
_cell_angle_gamma 138.099945
_cell_volume 707.033535
_symmetry_space_group_name_H-M "P -1"
_symmetry_group_IT_number 2
_symmetry_cell_setting 'triclinic'
loop_
_space_group_symop_operation_xyz
x,y,z
-x,-y,-z
loop_
_atom_site_type_symbol
_atom_site_label
_atom_site_fract_x
_atom_site_fract_y
_atom_site_fract_z
Si Si1 0.770901 0.451450 0.542377
Si Si2 0.792903 0.656009 0.045555
Si Si3 0.288769 0.011579 0.374157
Si Si4 0.036802 0.503736 0.682311
Si Si5 0.464602 0.602896 0.471637
Si Si6 0.476039 0.667896 0.991680
Si Si7 0.520871 0.981003 0.243867
O O1 0.799980 0.604141 0.265937
O O2 0.697516 0.501202 0.539311
O O3 0.643302 0.201969 0.669812
O O4 0.902732 0.459758 0.689801
O O5 0.918926 0.665271 0.073051
O O6 0.651742 0.452467 0.084501
O O7 0.785705 0.866733 0.792574
O O8 0.388190 0.139054 0.188583
O O9 0.389670 0.035159 0.548879
O O10 0.171449 0.751166 0.545640
O O11 0.000000 0.500000 0.500000
O O12 0.500000 0.500000 0.500000
O O13 0.542360 0.872132 0.252264
O O14 0.499529 0.514360 0.731842
O O15 0.449161 0.778639 0.970441
#
# Coordination Sequence:
#
# PCOD9093794 Si02
#       7
#     2   2   2   2   2   2   2
#     4   9  19  38  48  81 118 137 173 221 264 320
#     4  11  18  32  54  82 112 141 172 213 273 324
#     4  12  19  32  57  85 111 141 175 212 271 337
#     4  10  22  32  49  82 123 142 163 211 275 338
#     4  10  22  38  56  76 105 142 189 232 259 298
#     4  12  18  32  58  82 109 136 182 225 262 319
#     4  10  20  33  58  81 105 140 177 222 271 313
#
# _framework density 19.801041000000001
#
# number of rings (size 3 to 8) (size 9 to 14) (size 15 to 20)
#    0.857    0.571    5.714    2.571    0.000    2.857 
#    2.571    0.000    0.000    1.714    0.000    0.000 
#    0.000    0.000    0.000    0.000    0.000    0.000 
#
# Total GULP energy -77965.528189 kJ/mol
# GULP energy per Si atom -5568.966299 kJ/mol
# Density = 1.975597 g / cm^3
# Si number density = 19.801041 Si / 1000 Ang^3
#
#
#
# Elastic Constant Matrix: (Units=GPa)
#
#
# Indices 1 2 3 4 5 6 
#
# 1 129.6197 33.3367 25.3973 6.3218 37.7958 5.2812
# 2 33.3367 64.0456 7.2929 -1.0071 6.8925 0.2561
# 3 25.3973 7.2929 62.6183 0.2029 33.6664 2.0726
# 4 6.3218 -1.0071 0.2029 18.7439 -1.2517 17.7363
# 5 37.7958 6.8925 33.6664 -1.2517 33.5955 0.2458
# 6 5.2812 0.2561 2.0726 17.7363 0.2458 34.7578
#
#
#
# Elastic Compliance Matrix: (Units=1/GPa)
#
#
# Indices 1 2 3 4 5 6 
#
# 1 0.014987 -0.006278 0.006879 -0.008980 -0.022816 0.002102
# 2 -0.006278 0.018618 -0.003116 0.005193 0.006573 -0.001694
# 3 0.006879 -0.003116 0.037936 -0.006036 -0.045342 0.000117
# 4 -0.008980 0.005193 -0.006036 0.109379 0.019558 -0.054266
# 5 -0.022816 0.006573 -0.045342 0.019558 0.100286 -0.004567
# 6 0.002102 -0.001694 0.000117 -0.054266 -0.004567 0.056180
#
#
# Mechanical properties :
#
#
# Convention : Reuss Voigt Hill
#
# Bulk Modulus (GPa) = 15.03536 43.14858 29.09197
# Shear Modulus (GPa) = 13.71415 30.10322 21.90868
#
# Velocity S-wave (km/s) = 2.63458 3.90331 3.32993
# Velocity P-wave (km/s) = 4.10663 6.49252 5.43218
#
# Compressibility (1/GPa) = 0.06650990
#
# Stress axis : x y z
#
# Youngs Moduli (GPa) = 66.72434 53.71189 26.36020
#
# Poissons Ratio (x) = 0.33723 -0.18134
# Poissons Ratio (y) = 0.41893 0.08215
# Poissons Ratio (z) = -0.45901 0.16738
#
# Static dielectric constant tensor:
#      x y z
#    x 1.798000 -0.023360 0.014580 
#    y -0.023360 1.685680 0.011250 
#    z 0.014580 0.011250 1.707790 
# 
# From -- ./inp_files/303284.got.cif
#   From: 2010.05.17/outbox.cif.g08.bks.cpg/sg2_152_cif.got.tgz:303284.got - 2010.06.03 11:33:40.
