data_PCOD9093998
_publ_section_title
;
Structure prediction by ZEFSAII (Michael W. Deem and Ramdas Pophale) SiO2 
 PCOD9093998
Probable space group: P -1
;
_chemical_formula_sum "Si O2"
_cell_formula_units_Z 16
_cell_length_a 18.925522
_cell_length_b 11.385100
_cell_length_c 18.906028
_cell_angle_alpha 36.155390
_cell_angle_beta 159.023837
_cell_angle_gamma 146.578656
_cell_volume 795.020247
_symmetry_space_group_name_H-M "P -1"
_symmetry_group_IT_number 2
_symmetry_cell_setting 'triclinic'
loop_
_space_group_symop_operation_xyz
x,y,z
-x,-y,-z
loop_
_atom_site_type_symbol
_atom_site_label
_atom_site_fract_x
_atom_site_fract_y
_atom_site_fract_z
Si Si1 0.642151 0.164142 0.401899
Si Si2 0.185812 0.176349 0.985196
Si Si3 0.833342 0.547752 0.038254
Si Si4 0.573372 0.141961 0.083417
Si Si5 0.295240 0.641859 0.477642
Si Si6 0.755752 0.852467 0.329092
Si Si7 0.698556 0.441357 0.190214
Si Si8 0.727688 0.821553 0.714569
O O1 0.711454 0.275907 0.489159
O O2 0.756324 0.335067 0.364228
O O3 0.690798 0.946510 0.550663
O O4 0.387101 0.115705 0.182670
O O5 0.243164 0.314420 0.043620
O O6 0.156277 0.338168 0.820024
O O7 0.961387 0.982670 0.880189
O O8 0.726563 0.309217 0.086674
O O9 0.086952 0.630670 0.245080
O O10 0.755021 0.595617 0.865420
O O11 0.628707 0.260227 0.151994
O O12 0.624832 0.930061 0.226953
O O13 0.337768 0.107098 0.853103
O O14 0.283278 0.397590 0.585227
O O15 0.513383 0.793661 0.570817
O O16 0.000000 0.000000 0.500000
O O17 0.500000 0.500000 0.000000
#
# Coordination Sequence:
#
# PCOD9093998 Si02
#       8
#     2   2   2   2   2   2   2   2
#     4  11  22  36  57  85 123 157 189 228 289 355
#     4  10  20  34  51  79 115 160 180 230 291 339
#     4  11  20  33  52  82 122 146 184 236 291 342
#     4  10  21  40  59  88 118 149 189 248 293 335
#     4  12  22  34  55  90 118 149 191 245 288 344
#     4  11  21  37  63  87 114 148 199 245 298 332
#     4   9  20  40  59  84 125 154 191 235 283 354
#     4  12  22  33  53  83 123 152 190 235 289 355
#
# _framework density 20.125274999999998
#
# number of rings (size 3 to 8) (size 9 to 14) (size 15 to 20)
#    0.000    1.250    5.000    3.000    0.000    0.500 
#    0.000    1.250    0.000    0.750    0.000    5.250 
#    0.000    0.000    0.000    0.000    0.000    0.000 
#
# Total GULP energy -89162.757118 kJ/mol
# GULP energy per Si atom -5572.672320 kJ/mol
# Density = 2.007947 g / cm^3
# Si number density = 20.125275 Si / 1000 Ang^3
#
#
#
# Elastic Constant Matrix: (Units=GPa)
#
#
# Indices 1 2 3 4 5 6 
#
# 1 50.7312 31.2573 24.9744 -9.1668 -7.2962 13.1307
# 2 31.2573 83.5190 24.8499 4.1718 -0.2171 12.1144
# 3 24.9744 24.8499 136.5582 -6.9286 -10.9904 10.9215
# 4 -9.1668 4.1718 -6.9286 42.8932 9.2316 6.0176
# 5 -7.2962 -0.2171 -10.9904 9.2316 26.8454 -7.9756
# 6 13.1307 12.1144 10.9215 6.0176 -7.9756 31.0117
#
#
#
# Elastic Compliance Matrix: (Units=1/GPa)
#
#
# Indices 1 2 3 4 5 6 
#
# 1 0.031360 -0.009974 -0.002596 0.008242 0.001683 -0.009634
# 2 -0.009974 0.016538 -0.001411 -0.003155 -0.002604 -0.001797
# 3 -0.002596 -0.001411 0.008329 0.000555 0.002262 -0.000809
# 4 0.008242 -0.003155 0.000555 0.029356 -0.010908 -0.010954
# 5 0.001683 -0.002604 0.002262 -0.010908 0.046391 0.013555
# 6 -0.009634 -0.001797 -0.000809 -0.010954 0.013555 0.042924
#
#
# Mechanical properties :
#
#
# Convention : Reuss Voigt Hill
#
# Bulk Modulus (GPa) = 35.38036 48.10797 41.74417
# Shear Modulus (GPa) = 23.55358 32.79852 28.17605
#
# Velocity S-wave (km/s) = 3.42475 4.04136 3.74576
# Velocity P-wave (km/s) = 5.76687 6.76261 6.28449
#
# Compressibility (1/GPa) = 0.02826427
#
# Stress axis : x y z
#
# Youngs Moduli (GPa) = 31.88764 60.46814 120.05759
#
# Poissons Ratio (x) = 0.60312 0.31168
# Poissons Ratio (y) = 0.31805 0.16942
# Poissons Ratio (z) = 0.08278 0.08533
#
# Static dielectric constant tensor:
#      x y z
#    x 1.694080 0.039730 -0.020330 
#    y 0.039730 1.745520 -0.021160 
#    z -0.020330 -0.021160 1.811920 
# 
# From -- ./inp_files/431532.got.cif
#   From: 2010.05.17/outbox.cif.g08.bks.cpg/sg2_216_cif.got.tgz:431532.got - 2010.06.03 11:33:40.
