data_PCOD9093275
_publ_section_title
;
Structure prediction by ZEFSAII (Michael W. Deem and Ramdas Pophale) SiO2 
 PCOD9093275
Probable space group: P -1
;
_chemical_formula_sum "Si O2"
_cell_formula_units_Z 14
_cell_length_a 11.518613
_cell_length_b 5.195626
_cell_length_c 26.382883
_cell_angle_alpha 78.628539
_cell_angle_beta 160.191687
_cell_angle_gamma 98.684491
_cell_volume 521.714794
_symmetry_space_group_name_H-M "P -1"
_symmetry_group_IT_number 2
_symmetry_cell_setting 'triclinic'
loop_
_space_group_symop_operation_xyz
x,y,z
-x,-y,-z
loop_
_atom_site_type_symbol
_atom_site_label
_atom_site_fract_x
_atom_site_fract_y
_atom_site_fract_z
Si Si1 0.270308 0.148329 0.073293
Si Si2 0.101187 0.377332 0.808583
Si Si3 0.554485 0.327863 0.910861
Si Si4 0.268121 0.093993 0.646945
Si Si5 0.290559 0.098906 0.346006
Si Si6 0.295947 0.816619 0.268499
Si Si7 0.900814 0.400507 0.573384
O O1 0.206496 0.451779 0.018207
O O2 0.354742 0.951818 0.068154
O O3 0.587807 0.125447 0.244896
O O4 0.000000 0.000000 0.000000
O O5 0.953827 0.680047 0.734158
O O6 0.044098 0.303391 0.846906
O O7 0.465804 0.311588 0.934440
O O8 0.841867 0.180993 0.685745
O O9 0.179719 0.434384 0.729324
O O10 0.585238 0.172909 0.740212
O O11 0.091963 0.321309 0.602043
O O12 0.000000 0.000000 0.500000
O O13 0.678832 0.164015 0.509171
O O14 0.262110 0.099938 0.271980
O O15 0.614865 0.641210 0.433964
#
# Coordination Sequence:
#
# PCOD9093275 Si02
#       7
#     2   2   2   2   2   2   2
#     4  11  26  45  64  91 119 159 201 251 308 357
#     4   9  19  35  52  84 116 165 198 241 295 356
#     4  11  23  39  64  82 118 162 209 244 292 370
#     4  11  19  36  64  91 124 156 202 251 300 359
#     4   9  18  31  48  82 128 155 191 243 299 351
#     4   9  19  32  51  87 125 156 191 247 300 349
#     4  10  20  32  53  90 127 161 201 243 305 354
#
# _framework density 26.834581
#
# number of rings (size 3 to 8) (size 9 to 14) (size 15 to 20)
#    0.857    1.143    1.429    2.571    2.000    4.000 
#    0.000    0.000    0.000    1.714    0.000    0.000 
#    0.000    0.000    0.000    0.000    0.000    0.000 
#
# Total GULP energy -78234.777291 kJ/mol
# GULP energy per Si atom -5588.198378 kJ/mol
# Density = 2.677350 g / cm^3
# Si number density = 26.834581 Si / 1000 Ang^3
#
#
#
# Elastic Constant Matrix: (Units=GPa)
#
#
# Indices 1 2 3 4 5 6 
#
# 1 148.7969 34.9780 43.8776 -5.9161 26.4634 -11.3600
# 2 34.9780 112.2700 22.7315 7.0556 -6.1654 -4.4194
# 3 43.8776 22.7315 72.8170 14.3090 5.1095 6.1889
# 4 -5.9161 7.0556 14.3090 45.3074 1.8017 7.9501
# 5 26.4634 -6.1654 5.1095 1.8017 39.8334 -0.3706
# 6 -11.3600 -4.4194 6.1889 7.9501 -0.3706 37.5699
#
#
#
# Elastic Compliance Matrix: (Units=1/GPa)
#
#
# Indices 1 2 3 4 5 6 
#
# 1 0.010733 -0.002573 -0.006129 0.003458 -0.006870 0.003153
# 2 -0.002573 0.010408 -0.001704 -0.001762 0.003629 0.001136
# 3 -0.006129 -0.001704 0.019368 -0.006020 0.001560 -0.003955
# 4 0.003458 -0.001762 -0.006020 0.025446 -0.002982 -0.003584
# 5 -0.006870 0.003629 0.001560 -0.002982 0.030156 -0.000979
# 6 0.003153 0.001136 -0.003955 -0.003584 -0.000979 0.029104
#
#
# Mechanical properties :
#
#
# Convention : Reuss Voigt Hill
#
# Bulk Modulus (GPa) = 50.76969 59.67313 55.22141
# Shear Modulus (GPa) = 32.76677 40.02863 36.39770
#
# Velocity S-wave (km/s) = 3.49817 3.86642 3.68689
# Velocity P-wave (km/s) = 5.93943 6.49753 6.22474
#
# Compressibility (1/GPa) = 0.01969679
#
# Stress axis : x y z
#
# Youngs Moduli (GPa) = 93.17166 96.07545 51.63164
#
# Poissons Ratio (x) = 0.24723 0.31648
# Poissons Ratio (y) = 0.23975 0.08796
# Poissons Ratio (z) = 0.57109 0.16367
#
# Static dielectric constant tensor:
#      x y z
#    x 2.107180 0.047850 -0.020780 
#    y 0.047850 2.074980 0.023080 
#    z -0.020780 0.023080 2.167750 
# 
# From -- ./inp_files/622840.got.cif
#   From: 2010.05.17/outbox.cif.g08.bks.cpg/sg2_312_cif.got.tgz:622840.got - 2010.06.03 11:33:40.
