data_PCOD9093423
_publ_section_title
;
Structure prediction by ZEFSAII (Michael W. Deem and Ramdas Pophale) SiO2 
 PCOD9093423
Probable space group: P -1
;
_chemical_formula_sum "Si O2"
_cell_formula_units_Z 16
_cell_length_a 12.805006
_cell_length_b 7.974050
_cell_length_c 11.607929
_cell_angle_alpha 75.663952
_cell_angle_beta 141.660844
_cell_angle_gamma 120.941141
_cell_volume 603.010361
_symmetry_space_group_name_H-M "P -1"
_symmetry_group_IT_number 2
_symmetry_cell_setting 'triclinic'
loop_
_space_group_symop_operation_xyz
x,y,z
-x,-y,-z
loop_
_atom_site_type_symbol
_atom_site_label
_atom_site_fract_x
_atom_site_fract_y
_atom_site_fract_z
Si Si1 0.717986 0.471037 0.086113
Si Si2 0.283174 0.893148 0.768422
Si Si3 0.811286 0.580732 0.527312
Si Si4 0.067919 0.359071 0.137816
Si Si5 0.753996 0.765457 0.230343
Si Si6 0.602728 0.522815 0.743465
Si Si7 0.659549 0.103304 0.453693
Si Si8 0.746271 0.992428 0.788130
O O1 0.805573 0.345661 0.239340
O O2 0.806754 0.702707 0.166549
O O3 0.486341 0.354602 0.945073
O O4 0.709818 0.466096 0.943137
O O5 0.306428 0.930278 0.644298
O O6 0.184988 0.008819 0.721133
O O7 0.500000 0.000000 0.000000
O O8 0.963054 0.671530 0.748649
O O9 0.836438 0.669876 0.407247
O O10 0.628678 0.604197 0.408864
O O11 0.742638 0.344039 0.498310
O O12 0.304643 0.483170 0.295490
O O13 0.000000 0.500000 0.000000
O O14 0.949392 0.147392 0.002485
O O15 0.670903 0.757474 0.779674
O O16 0.751812 0.042670 0.648623
O O17 0.424716 0.983990 0.302050
#
# Coordination Sequence:
#
# PCOD9093423 Si02
#       8
#     2   2   2   2   2   2   2   2
#     4   9  18  37  58  92 127 154 214 262 311 362
#     4  10  20  32  62  98 124 156 211 265 312 368
#     4  10  20  39  64  90 129 165 207 261 311 378
#     4  12  24  40  59  93 127 163 212 259 318 367
#     4   9  18  32  59  92 120 164 203 262 309 369
#     4  10  23  40  64  90 125 171 205 259 312 382
#     4  10  20  40  62  95 126 163 207 265 313 372
#     4  10  23  39  63  88 126 169 207 254 318 378
#
# _framework density 26.533539999999999
#
# number of rings (size 3 to 8) (size 9 to 14) (size 15 to 20)
#    0.000    2.000    2.500    0.750    7.000    3.000 
#    0.000    0.000    0.000    5.250    0.000    0.000 
#    0.000    0.000    0.000    0.000    0.000    0.000 
#
# Total GULP energy -89567.647642 kJ/mol
# GULP energy per Si atom -5597.977978 kJ/mol
# Density = 2.647315 g / cm^3
# Si number density = 26.533540 Si / 1000 Ang^3
#
#
#
# Elastic Constant Matrix: (Units=GPa)
#
#
# Indices 1 2 3 4 5 6 
#
# 1 85.5785 19.0304 26.7707 -0.7458 -31.0399 4.0088
# 2 19.0304 116.1971 25.5395 -28.9138 -14.1449 -17.1921
# 3 26.7707 25.5395 100.5374 -21.0474 -19.3596 -4.9185
# 4 -0.7458 -28.9138 -21.0474 42.0433 9.2748 -1.7402
# 5 -31.0399 -14.1449 -19.3596 9.2748 51.3877 -2.8499
# 6 4.0088 -17.1921 -4.9185 -1.7402 -2.8499 34.4697
#
#
#
# Elastic Compliance Matrix: (Units=1/GPa)
#
#
# Indices 1 2 3 4 5 6 
#
# 1 0.016642 -0.002740 -0.003314 -0.005333 0.008828 -0.003314
# 2 -0.002740 0.012287 -0.000180 0.008484 0.000510 0.006892
# 3 -0.003314 -0.000180 0.012557 0.005818 0.001770 0.002527
# 4 -0.005333 0.008484 0.005818 0.033696 -0.004386 0.007020
# 5 0.008828 0.000510 0.001770 -0.004386 0.026472 0.001447
# 6 -0.003314 0.006892 0.002527 0.007020 0.001447 0.033669
#
#
# Mechanical properties :
#
#
# Convention : Reuss Voigt Hill
#
# Bulk Modulus (GPa) = 34.46081 49.44381 41.95231
# Shear Modulus (GPa) = 31.75353 40.97830 36.36592
#
# Velocity S-wave (km/s) = 3.46313 3.93414 3.70613
# Velocity P-wave (km/s) = 5.38581 6.26989 5.84459
#
# Compressibility (1/GPa) = 0.02901847
#
# Stress axis : x y z
#
# Youngs Moduli (GPa) = 60.08903 81.38455 79.63648
#
# Poissons Ratio (x) = 0.22298 0.26391
# Poissons Ratio (y) = 0.16463 0.01435
# Poissons Ratio (z) = 0.19913 0.01467
#
# Static dielectric constant tensor:
#      x y z
#    x 2.076320 -0.007770 0.100920 
#    y -0.007770 2.065270 0.083300 
#    z 0.100920 0.083300 2.136880 
# 
# From -- ./inp_files/445940.got.cif
#   From: 2010.05.17/outbox.cif.g08.bks.cpg/sg2_223_cif.got.tgz:445940.got - 2010.06.03 11:33:40.
