data_PCOD9093562
_publ_section_title
;
Structure prediction by ZEFSAII (Michael W. Deem and Ramdas Pophale) SiO2 
 PCOD9093562
Probable space group: P -1
;
_chemical_formula_sum "Si O2"
_cell_formula_units_Z 14
_cell_length_a 10.511825
_cell_length_b 10.871121
_cell_length_c 8.915008
_cell_angle_alpha 102.916760
_cell_angle_beta 137.243747
_cell_angle_gamma 90.935977
_cell_volume 648.564189
_symmetry_space_group_name_H-M "P -1"
_symmetry_group_IT_number 2
_symmetry_cell_setting 'triclinic'
loop_
_space_group_symop_operation_xyz
x,y,z
-x,-y,-z
loop_
_atom_site_type_symbol
_atom_site_label
_atom_site_fract_x
_atom_site_fract_y
_atom_site_fract_z
Si Si1 0.592257 0.529692 0.251479
Si Si2 0.710363 0.839284 0.512493
Si Si3 0.748714 0.518136 0.838097
Si Si4 0.132302 0.847943 0.972780
Si Si5 0.476329 0.991648 0.801992
Si Si6 0.047597 0.441408 0.269510
Si Si7 0.358323 0.788273 0.415090
O O1 0.650151 0.687076 0.367953
O O2 0.434700 0.463476 0.225107
O O3 0.794672 0.495753 0.452041
O O4 0.500000 0.500000 0.000000
O O5 0.666128 0.926290 0.363089
O O6 0.558655 0.845993 0.513686
O O7 0.929876 0.879086 0.772984
O O8 0.830121 0.594930 0.777829
O O9 0.693689 0.367201 0.692696
O O10 0.921315 0.529336 0.111174
O O11 0.097393 0.696589 0.844861
O O12 0.312553 0.942122 0.069258
O O13 0.197423 0.839966 0.199473
O O14 0.391529 0.845339 0.624537
O O15 0.500000 0.000000 0.000000
#
# Coordination Sequence:
#
# PCOD9093562 Si02
#       7
#     2   2   2   2   2   2   2
#     4  10  20  33  53  81 112 141 170 212 266 317
#     4   9  19  37  56  75 104 142 178 214 257 308
#     4   9  18  35  55  79 108 138 178 217 252 306
#     4   9  18  36  57  77 102 138 182 216 255 313
#     4  11  23  36  53  80 109 136 173 221 269 314
#     4   9  18  34  56  78 104 140 178 216 256 308
#     4   9  19  35  57  79 102 140 180 212 254 311
#
# _framework density 21.586144000000001
#
# number of rings (size 3 to 8) (size 9 to 14) (size 15 to 20)
#    0.000    2.571    0.000    3.000    0.000    4.571 
#    0.000    8.571    0.000    0.000    0.000    0.000 
#    0.000    0.000    0.000    0.000    0.000    0.000 
#
# Total GULP energy -78194.317910 kJ/mol
# GULP energy per Si atom -5585.308422 kJ/mol
# Density = 2.153701 g / cm^3
# Si number density = 21.586144 Si / 1000 Ang^3
#
#
#
# Elastic Constant Matrix: (Units=GPa)
#
#
# Indices 1 2 3 4 5 6 
#
# 1 36.1578 14.0727 49.1338 2.3739 0.0374 1.5547
# 2 14.0727 47.9793 29.7300 -6.2637 -4.3984 2.0819
# 3 49.1338 29.7300 187.1668 -19.8186 -0.9708 -6.7342
# 4 2.3739 -6.2637 -19.8186 30.3448 -1.6420 9.5843
# 5 0.0374 -4.3984 -0.9708 -1.6420 43.0808 -3.6295
# 6 1.5547 2.0819 -6.7342 9.5843 -3.6295 19.6286
#
#
#
# Elastic Compliance Matrix: (Units=1/GPa)
#
#
# Indices 1 2 3 4 5 6 
#
# 1 0.050023 -0.008364 -0.013346 -0.014106 -0.001829 -0.001104
# 2 -0.008364 0.025455 -0.001300 0.006898 0.002384 -0.005411
# 3 -0.013346 -0.001300 0.009823 0.006795 0.000472 0.001334
# 4 -0.014106 0.006898 0.006795 0.046180 0.000974 -0.019651
# 5 -0.001829 0.002384 0.000472 0.000974 0.023841 0.003987
# 6 -0.001104 -0.005411 0.001334 -0.019651 0.003987 0.062398
#
#
# Mechanical properties :
#
#
# Convention : Reuss Voigt Hill
#
# Bulk Modulus (GPa) = 25.45731 50.79743 38.12737
# Shear Modulus (GPa) = 18.06158 30.50201 24.28180
#
# Velocity S-wave (km/s) = 2.89575 3.76312 3.35756
# Velocity P-wave (km/s) = 4.79578 6.51651 5.72120
#
# Compressibility (1/GPa) = 0.03928145
#
# Stress axis : x y z
#
# Youngs Moduli (GPa) = 19.99086 39.28573 101.80428
#
# Poissons Ratio (x) = 0.32857 1.35869
# Poissons Ratio (y) = 0.16720 0.13230
# Poissons Ratio (z) = 0.26680 0.05106
#
# Static dielectric constant tensor:
#      x y z
#    x 1.791770 -0.013970 0.025340 
#    y -0.013970 1.824780 0.006320 
#    z 0.025340 0.006320 1.806820 
# 
# From -- ./inp_files/251333.got.cif
#   From: 2010.05.17/outbox.cif.g08.bks.cpg/sg2_126_cif.got.tgz:251333.got - 2010.06.03 11:33:40.
