data_PCOD9093134
_publ_section_title
;
Structure prediction by ZEFSAII (Michael W. Deem and Ramdas Pophale) SiO2 
 PCOD9093134
Probable space group: P -1
;
_chemical_formula_sum "Si O2"
_cell_formula_units_Z 14
_cell_length_a 6.831481
_cell_length_b 10.015485
_cell_length_c 11.100365
_cell_angle_alpha 136.798348
_cell_angle_beta 101.089354
_cell_angle_gamma 66.653099
_cell_volume 471.690042
_symmetry_space_group_name_H-M "P -1"
_symmetry_group_IT_number 2
_symmetry_cell_setting 'triclinic'
loop_
_space_group_symop_operation_xyz
x,y,z
-x,-y,-z
loop_
_atom_site_type_symbol
_atom_site_label
_atom_site_fract_x
_atom_site_fract_y
_atom_site_fract_z
Si Si1 0.671264 0.593293 0.434665
Si Si2 0.124600 0.431221 0.136580
Si Si3 0.557616 0.045504 0.671196
Si Si4 0.194062 0.769919 0.610265
Si Si5 0.067779 0.173305 0.756110
Si Si6 0.614402 0.330954 0.040637
Si Si7 0.253681 0.037584 0.016633
O O1 0.706802 0.812195 0.582379
O O2 0.419843 0.661111 0.492119
O O3 0.810618 0.425521 0.439896
O O4 0.680841 0.496465 0.236434
O O5 0.369029 0.385433 0.093719
O O6 0.139409 0.289610 0.162325
O O7 0.014285 0.680125 0.273435
O O8 0.995669 0.336785 0.966860
O O9 0.500000 0.000000 0.500000
O O10 0.325290 0.099833 0.741190
O O11 0.608249 0.253688 0.849187
O O12 0.031951 0.958232 0.629973
O O13 0.209420 0.920374 0.819324
O O14 0.758728 0.101823 0.964632
O O15 0.500000 0.000000 0.000000
#
# Coordination Sequence:
#
# PCOD9093134 Si02
#       7
#     2   2   2   2   2   2   2
#     4   9  16  28  45  66  90 112 143 184 218 256
#     4   8  13  23  43  69  93 112 135 177 228 269
#     4  10  20  32  45  62  87 120 155 182 208 253
#     4   8  14  24  40  64  92 111 134 178 224 261
#     4   8  14  26  43  66  92 116 141 174 222 265
#     4   9  17  28  45  68  87 114 148 178 220 261
#     4   8  12  21  40  66  91 113 138 168 214 270
#
# _framework density 29.680506000000001
#
# number of rings (size 3 to 8) (size 9 to 14) (size 15 to 20)
#    0.000    3.429    0.000    2.571    0.000    1.714 
#    0.000    2.857    0.000    0.857    0.000   25.000 
#    0.000    0.000    0.000    0.000    0.000    0.000 
#
# Total GULP energy -78170.443615 kJ/mol
# GULP energy per Si atom -5583.603115 kJ/mol
# Density = 2.961295 g / cm^3
# Si number density = 29.680506 Si / 1000 Ang^3
#
#
#
# Elastic Constant Matrix: (Units=GPa)
#
#
# Indices 1 2 3 4 5 6 
#
# 1 104.4126 8.9921 47.3508 14.7541 -3.5330 -0.1768
# 2 8.9921 167.1204 49.7483 75.1885 2.8821 4.9557
# 3 47.3508 49.7483 239.0643 3.9106 38.6319 1.5827
# 4 14.7541 75.1885 3.9106 50.5304 4.9545 -7.4490
# 5 -3.5330 2.8821 38.6319 4.9545 38.9456 6.9821
# 6 -0.1768 4.9557 1.5827 -7.4490 6.9821 31.1059
#
#
#
# Elastic Compliance Matrix: (Units=1/GPa)
#
#
# Indices 1 2 3 4 5 6 
#
# 1 0.016849 0.015479 -0.008373 -0.030619 0.014844 -0.012609
# 2 0.015479 0.046212 -0.015972 -0.079713 0.029746 -0.032228
# 3 -0.008373 -0.015972 0.011312 0.028829 -0.016721 0.012579
# 4 -0.030619 -0.079713 0.028829 0.159853 -0.056949 0.062122
# 5 0.014844 0.029746 -0.016721 -0.056949 0.053952 -0.029552
# 6 -0.012609 -0.032228 0.012579 0.062122 -0.029552 0.058081
#
#
# Mechanical properties :
#
#
# Convention : Reuss Voigt Hill
#
# Bulk Modulus (GPa) = 17.65477 80.30884 48.98181
# Shear Modulus (GPa) = 13.05928 51.08346 32.07137
#
# Velocity S-wave (km/s) = 2.09988 4.15313 3.29074
# Velocity P-wave (km/s) = 3.44101 7.07916 5.56574
#
# Compressibility (1/GPa) = 0.05664190
#
# Stress axis : x y z
#
# Youngs Moduli (GPa) = 59.35106 21.63963 88.39929
#
# Poissons Ratio (x) = -0.33497 0.74015
# Poissons Ratio (y) = -0.91872 1.41191
# Poissons Ratio (z) = 0.49694 0.34563
#
# Static dielectric constant tensor:
#      x y z
#    x 2.320810 0.017560 -0.049070 
#    y 0.017560 2.529390 -0.121130 
#    z -0.049070 -0.121130 2.312190 
# 
# From -- ./inp_files/238306.got.cif
#   From: 2010.05.17/outbox.cif.g08.bks.cpg/sg2_120_cif.got.tgz:238306.got - 2010.06.03 11:33:40.
