data_PCOD9093262
_publ_section_title
;
Structure prediction by ZEFSAII (Michael W. Deem and Ramdas Pophale) SiO2 
 PCOD9093262
Probable space group: P -1
;
_chemical_formula_sum "Si O2"
_cell_formula_units_Z 16
_cell_length_a 14.450631
_cell_length_b 8.004142
_cell_length_c 9.363533
_cell_angle_alpha 46.753313
_cell_angle_beta 99.909262
_cell_angle_gamma 69.552862
_cell_volume 589.778978
_symmetry_space_group_name_H-M "P -1"
_symmetry_group_IT_number 2
_symmetry_cell_setting 'triclinic'
loop_
_space_group_symop_operation_xyz
x,y,z
-x,-y,-z
loop_
_atom_site_type_symbol
_atom_site_label
_atom_site_fract_x
_atom_site_fract_y
_atom_site_fract_z
Si Si1 0.267756 0.602370 0.397018
Si Si2 0.325825 0.329855 0.151115
Si Si3 0.604524 0.410898 0.192097
Si Si4 0.879129 0.256680 0.460184
Si Si5 0.511908 0.645438 0.583540
Si Si6 0.006174 0.597781 0.786471
Si Si7 0.788919 0.813306 0.441358
Si Si8 0.872487 0.081006 0.104329
O O1 0.228057 0.676792 0.506681
O O2 0.393360 0.518645 0.424877
O O3 0.276177 0.315582 0.544400
O O4 0.162603 0.855599 0.108498
O O5 0.409815 0.326989 0.295025
O O6 0.386942 0.990867 0.330506
O O7 0.338082 0.451676 0.936609
O O8 0.191042 0.592199 0.029470
O O9 0.528182 0.522643 0.251047
O O10 0.706919 0.051307 0.406509
O O11 0.500000 0.500000 0.000000
O O12 0.876317 0.488001 0.221782
O O13 0.926538 0.959686 0.560945
O O14 0.986942 0.146452 0.670736
O O15 0.927404 0.557521 0.686636
O O16 0.000000 0.500000 0.000000
O O17 0.803444 0.974517 0.223440
#
# Coordination Sequence:
#
# PCOD9093262 Si02
#       8
#     2   2   2   2   2   2   2   2
#     4  11  20  31  51  81 112 134 163 215 271 315
#     4   8  14  25  42  67 101 133 163 200 245 300
#     4   9  15  27  46  74 106 132 165 211 256 305
#     4  10  22  37  54  77 104 137 176 215 261 315
#     4   9  16  25  42  71 104 133 158 195 254 308
#     4  10  22  40  56  72 100 143 186 216 250 305
#     4  10  20  32  53  82 105 135 177 216 259 309
#     4   9  18  31  50  78 107 134 169 218 266 305
#
# _framework density 27.128806999999998
#
# number of rings (size 3 to 8) (size 9 to 14) (size 15 to 20)
#    0.000    2.500    0.000    4.875    0.000    3.000 
#    0.000    0.000    0.000    0.750    0.000   26.250 
#    0.000    0.000    0.000    0.000    0.000    0.000 
#
# Total GULP energy -89498.932460 kJ/mol
# GULP energy per Si atom -5593.683279 kJ/mol
# Density = 2.706706 g / cm^3
# Si number density = 27.128807 Si / 1000 Ang^3
#
#
#
# Elastic Constant Matrix: (Units=GPa)
#
#
# Indices 1 2 3 4 5 6 
#
# 1 144.9248 22.3941 7.8078 5.9761 -21.0138 -38.9848
# 2 22.3941 80.2249 26.7004 32.1028 -15.6582 -22.2123
# 3 7.8078 26.7004 102.3090 21.8430 -15.8011 -15.2904
# 4 5.9761 32.1028 21.8430 47.3175 -6.5887 -8.9831
# 5 -21.0138 -15.6582 -15.8011 -6.5887 42.8626 16.7063
# 6 -38.9848 -22.2123 -15.2904 -8.9831 16.7063 40.7755
#
#
#
# Elastic Compliance Matrix: (Units=1/GPa)
#
#
# Indices 1 2 3 4 5 6 
#
# 1 0.009428 -0.000468 0.000787 0.000599 0.001491 0.008575
# 2 -0.000468 0.019742 -0.001434 -0.011146 0.002249 0.006392
# 3 0.000787 -0.001434 0.011645 -0.003670 0.002636 0.002449
# 4 0.000599 -0.011146 -0.003670 0.030245 -0.000475 -0.000017
# 5 0.001491 0.002249 0.002636 -0.000475 0.029042 -0.008364
# 6 0.008575 0.006392 0.002449 -0.000017 -0.008364 0.040547
#
#
# Mechanical properties :
#
#
# Convention : Reuss Voigt Hill
#
# Bulk Modulus (GPa) = 25.91731 49.02925 37.47328
# Shear Modulus (GPa) = 32.10435 44.22821 38.16628
#
# Velocity S-wave (km/s) = 3.44380 4.04208 3.75487
# Velocity P-wave (km/s) = 5.03857 6.31637 5.71331
#
# Compressibility (1/GPa) = 0.03858425
#
# Stress axis : x y z
#
# Youngs Moduli (GPa) = 106.06315 50.65346 85.87178
#
# Poissons Ratio (x) = 0.02371 -0.06755
# Poissons Ratio (y) = 0.04965 0.12315
# Poissons Ratio (z) = -0.08343 0.07264
#
# Static dielectric constant tensor:
#      x y z
#    x 2.228700 -0.019260 0.073710 
#    y -0.019260 2.137840 0.015050 
#    z 0.073710 0.015050 2.183730 
# 
# From -- ./inp_files/327113.got.cif
#   From: 2010.05.17/outbox.cif.g08.bks.cpg/sg2_164_cif.got.tgz:327113.got - 2010.06.03 11:33:40.
