data_PCOD9093689
_publ_section_title
;
Structure prediction by ZEFSAII (Michael W. Deem and Ramdas Pophale) SiO2 
 PCOD9093689
Probable space group: P -1
;
_chemical_formula_sum "Si O2"
_cell_formula_units_Z 14
_cell_length_a 14.467297
_cell_length_b 12.633602
_cell_length_c 15.986923
_cell_angle_alpha 132.287651
_cell_angle_beta 161.209630
_cell_angle_gamma 55.108880
_cell_volume 669.889379
_symmetry_space_group_name_H-M "P -1"
_symmetry_group_IT_number 2
_symmetry_cell_setting 'triclinic'
loop_
_space_group_symop_operation_xyz
x,y,z
-x,-y,-z
loop_
_atom_site_type_symbol
_atom_site_label
_atom_site_fract_x
_atom_site_fract_y
_atom_site_fract_z
Si Si1 0.347243 0.781967 0.058435
Si Si2 0.036525 0.424154 0.904191
Si Si3 0.541791 0.772562 0.785691
Si Si4 0.197192 0.765318 0.643894
Si Si5 0.337806 0.575404 0.801685
Si Si6 0.797820 0.449524 0.060568
Si Si7 0.000958 0.932402 0.710074
O O1 0.167177 0.692052 0.934282
O O2 0.649089 0.904415 0.407288
O O3 0.463096 0.658009 0.038869
O O4 0.142533 0.845646 0.854467
O O5 0.724670 0.309842 0.547890
O O6 0.295943 0.342019 0.094818
O O7 0.127060 0.539673 0.966422
O O8 0.000000 0.500000 0.000000
O O9 0.385637 0.836062 0.762419
O O10 0.796642 0.899325 0.027635
O O11 0.384109 0.707625 0.844088
O O12 0.043419 0.869548 0.620014
O O13 0.982307 0.608183 0.342864
O O14 0.464324 0.455457 0.799210
O O15 0.000000 0.500000 0.500000
#
# Coordination Sequence:
#
# PCOD9093689 Si02
#       7
#     2   2   2   2   2   2   2
#     4  11  22  33  56  87 129 163 194 231 289 361
#     4  11  25  44  69  88 109 152 209 269 307 331
#     4  11  23  42  62  86 123 155 201 248 298 360
#     4  10  20  33  55  88 124 164 197 235 290 356
#     4  11  18  31  51  86 128 158 187 235 292 350
#     4  11  20  36  57  89 123 153 206 251 293 335
#     4  11  23  36  56  88 129 168 191 221 294 380
#
# _framework density 20.898973000000002
#
# number of rings (size 3 to 8) (size 9 to 14) (size 15 to 20)
#    0.000    1.143    4.286    3.857    0.000    0.000 
#    0.000    4.286    0.000    5.143    0.000    0.000 
#    0.000    0.000    0.000    0.000    0.000    0.000 
#
# Total GULP energy -78142.943839 kJ/mol
# GULP energy per Si atom -5581.638846 kJ/mol
# Density = 2.085141 g / cm^3
# Si number density = 20.898973 Si / 1000 Ang^3
#
#
#
# Elastic Constant Matrix: (Units=GPa)
#
#
# Indices 1 2 3 4 5 6 
#
# 1 107.6205 19.7999 31.4793 3.7613 -17.3460 25.5396
# 2 19.7999 22.7466 3.6025 1.3928 -5.7717 16.6864
# 3 31.4793 3.6025 105.4069 -2.6494 1.3262 3.8641
# 4 3.7613 1.3928 -2.6494 21.8789 6.6484 5.5347
# 5 -17.3460 -5.7717 1.3262 6.6484 26.3092 -3.1177
# 6 25.5396 16.6864 3.8641 5.5347 -3.1177 21.9097
#
#
#
# Elastic Compliance Matrix: (Units=1/GPa)
#
#
# Indices 1 2 3 4 5 6 
#
# 1 0.015983 0.002479 -0.004369 -0.001833 0.009642 -0.017914
# 2 0.002479 0.106723 -0.001177 0.010302 0.012455 -0.084793
# 3 -0.004369 -0.001177 0.010845 0.002642 -0.004017 0.002837
# 4 -0.001833 0.010302 0.002642 0.056278 -0.015989 -0.022668
# 5 0.009642 0.012455 -0.004017 -0.015989 0.050297 -0.008821
# 6 -0.017914 -0.084793 0.002837 -0.022668 -0.008821 0.135072
#
#
# Mechanical properties :
#
#
# Convention : Reuss Voigt Hill
#
# Bulk Modulus (GPa) = 7.84820 38.39302 23.12061
# Shear Modulus (GPa) = 11.79791 26.07904 18.93847
#
# Velocity S-wave (km/s) = 2.37854 3.53634 3.01357
# Velocity P-wave (km/s) = 3.36255 5.92325 4.81621
#
# Compressibility (1/GPa) = 0.12741782
#
# Stress axis : x y z
#
# Youngs Moduli (GPa) = 62.56691 9.37006 92.20936
#
# Poissons Ratio (x) = -0.02323 0.40283
# Poissons Ratio (y) = -0.15513 0.10855
# Poissons Ratio (z) = 0.27333 0.01103
#
# Static dielectric constant tensor:
#      x y z
#    x 1.739940 -0.003240 0.032660 
#    y -0.003240 1.810290 -0.020610 
#    z 0.032660 -0.020610 1.834710 
# 
# From -- ./inp_files/65571.got.cif
#   From: 2010.05.17/outbox.cif.g08.bks.cpg/sg2_33_cif.got.tgz:65571.got - 2010.06.03 11:33:40.
