data_PCOD9093428
_publ_section_title
;
Structure prediction by ZEFSAII (Michael W. Deem and Ramdas Pophale) SiO2 
 PCOD9093428
Probable space group: P -1
;
_chemical_formula_sum "Si O2"
_cell_formula_units_Z 13
_cell_length_a 11.643705
_cell_length_b 14.306517
_cell_length_c 15.068632
_cell_angle_alpha 27.340022
_cell_angle_beta 151.078536
_cell_angle_gamma 148.641443
_cell_volume 523.486943
_symmetry_space_group_name_H-M "P -1"
_symmetry_group_IT_number 2
_symmetry_cell_setting 'triclinic'
loop_
_space_group_symop_operation_xyz
x,y,z
-x,-y,-z
loop_
_atom_site_type_symbol
_atom_site_label
_atom_site_fract_x
_atom_site_fract_y
_atom_site_fract_z
Si Si1 0.696854 0.711848 0.502364
Si Si2 0.722198 0.518138 0.287065
Si Si3 0.101814 0.293901 0.935606
Si Si4 0.157578 0.714072 0.710636
Si Si5 0.122732 0.125961 0.768675
Si Si6 0.468999 0.819617 0.425939
Si Si7 0.500000 0.000000 0.000000
O O1 0.500000 0.500000 0.500000
O O2 0.631698 0.725902 0.548729
O O3 0.974804 0.707764 0.675130
O O4 0.650317 0.908919 0.254068
O O5 0.725882 0.613340 0.111645
O O6 0.710682 0.689838 0.208115
O O7 0.543546 0.285085 0.397289
O O8 0.000000 0.500000 0.500000
O O9 0.176207 0.480432 0.903149
O O10 0.812331 0.252923 0.743362
O O11 0.080575 0.059717 0.154816
O O12 0.009924 0.761657 0.485001
O O13 0.406218 0.922845 0.707045
O O14 0.296497 0.022081 0.919162
#
# Coordination Sequence:
#
# PCOD9093428 Si02
#       7
#     2   2   2   2   2   2   1
#     4  11  19  39  63  88 123 163 201 253 312 363
#     4  10  21  40  66  88 120 174 207 247 310 366
#     4  11  22  43  61  90 123 169 205 252 310 361
#     4  11  23  38  63  94 126 158 207 258 306 373
#     4  11  20  41  65  88 128 160 209 255 309 367
#     4  11  21  40  63  90 127 162 206 254 310 366
#     4  10  20  32  64  94 110 162 202 246 310 364
#
# _framework density 24.833475
#
# number of rings (size 3 to 8) (size 9 to 14) (size 15 to 20)
#    0.000    1.231    6.154    1.846    0.000    0.615 
#    2.769    0.769    0.000    7.385    0.000    0.000 
#    0.000    0.000    0.000    0.000    0.000    0.000 
#
# Total GULP energy -72565.268714 kJ/mol
# GULP energy per Si atom -5581.943747 kJ/mol
# Density = 2.477695 g / cm^3
# Si number density = 24.833475 Si / 1000 Ang^3
#
#
#
# Elastic Constant Matrix: (Units=GPa)
#
#
# Indices 1 2 3 4 5 6 
#
# 1 90.7367 8.7778 7.3065 6.8384 -12.7662 20.0683
# 2 8.7778 140.7668 -0.9369 -1.9833 4.9064 5.6142
# 3 7.3065 -0.9369 43.2318 -3.7368 5.3024 7.9107
# 4 6.8384 -1.9833 -3.7368 24.0042 4.9228 -3.2774
# 5 -12.7662 4.9064 5.3024 4.9228 21.7489 -5.3019
# 6 20.0683 5.6142 7.9107 -3.2774 -5.3019 29.6161
#
#
#
# Elastic Compliance Matrix: (Units=1/GPa)
#
#
# Indices 1 2 3 4 5 6 
#
# 1 0.015189 -0.001076 -0.002910 -0.007997 0.009612 -0.008475
# 2 -0.001076 0.007369 0.001130 0.001572 -0.003262 -0.001380
# 3 -0.002910 0.001130 0.026887 0.006573 -0.011660 -0.006784
# 4 -0.007997 0.001572 0.006573 0.049250 -0.016364 0.005886
# 5 0.009612 -0.003262 -0.011660 -0.016364 0.060421 0.006225
# 6 -0.008475 -0.001380 -0.006784 0.005886 0.006225 0.043348
#
#
# Mechanical properties :
#
#
# Convention : Reuss Voigt Hill
#
# Bulk Modulus (GPa) = 22.86583 33.89223 28.37903
# Shear Modulus (GPa) = 22.44625 32.37969 27.41297
#
# Velocity S-wave (km/s) = 3.00971 3.61484 3.32606
# Velocity P-wave (km/s) = 4.61578 5.57675 5.11887
#
# Compressibility (1/GPa) = 0.04373339
#
# Stress axis : x y z
#
# Youngs Moduli (GPa) = 65.83782 135.69567 37.19279
#
# Poissons Ratio (x) = 0.14603 0.10822
# Poissons Ratio (y) = 0.07085 -0.04203
# Poissons Ratio (z) = 0.19157 -0.15333
#
# Static dielectric constant tensor:
#      x y z
#    x 2.008100 0.030020 0.012650 
#    y 0.030020 1.975410 0.019470 
#    z 0.012650 0.019470 1.959090 
# 
# From -- ./inp_files/385300.got.cif
#   From: 2010.05.17/outbox.cif.g08.bks.cpg/sg2_193_cif.got.tgz:385300.got - 2010.06.03 11:33:40.
