data_PCOD9093306
_publ_section_title
;
Structure prediction by ZEFSAII (Michael W. Deem and Ramdas Pophale) SiO2 
 PCOD9093306
Probable space group: P -1
;
_chemical_formula_sum "Si O2"
_cell_formula_units_Z 16
_cell_length_a 29.823700
_cell_length_b 20.422632
_cell_length_c 9.052278
_cell_angle_alpha 129.609104
_cell_angle_beta 129.504008
_cell_angle_gamma 10.267516
_cell_volume 755.574553
_symmetry_space_group_name_H-M "P -1"
_symmetry_group_IT_number 2
_symmetry_cell_setting 'triclinic'
loop_
_space_group_symop_operation_xyz
x,y,z
-x,-y,-z
loop_
_atom_site_type_symbol
_atom_site_label
_atom_site_fract_x
_atom_site_fract_y
_atom_site_fract_z
Si Si1 0.775505 0.105736 0.086938
Si Si2 0.050541 0.546031 0.761144
Si Si3 0.817534 0.816621 0.357623
Si Si4 0.248248 0.256615 0.261088
Si Si5 0.515378 0.523663 0.720810
Si Si6 0.042825 0.787141 0.925890
Si Si7 0.532282 0.692607 0.910300
Si Si8 0.432966 0.075001 0.685600
O O1 0.697971 0.217662 0.254921
O O2 0.500000 0.500000 0.000000
O O3 0.918723 0.813213 0.941825
O O4 0.951330 0.919964 0.096262
O O5 0.882183 0.765784 0.577707
O O6 0.070708 0.436730 0.751526
O O7 0.334060 0.161759 0.741582
O O8 0.970313 0.645849 0.302238
O O9 0.539600 0.210082 0.274808
O O10 0.399319 0.067103 0.455606
O O11 0.302420 0.253427 0.250592
O O12 0.348741 0.025010 0.075288
O O13 0.500000 0.500000 0.500000
O O14 0.494496 0.655422 0.852106
O O15 0.793439 0.117853 0.789288
O O16 0.237463 0.432614 0.795807
O O17 0.189417 0.662999 0.006973
#
# Coordination Sequence:
#
# PCOD9093306 Si02
#       8
#     2   2   2   2   2   2   2   2
#     4   9  19  37  63  82 111 155 193 233 289 345
#     4   9  18  35  55  80 113 151 196 232 284 340
#     4  10  20  32  55  82 117 151 190 238 281 343
#     4   9  17  31  52  84 111 147 182 228 282 332
#     4  11  24  38  63  89 111 147 200 245 290 343
#     4   9  20  41  61  82 120 155 186 238 296 342
#     4  11  22  36  58  84 122 150 193 240 295 343
#     4   8  16  32  58  78 113 149 184 226 282 339
#
# _framework density 21.175939
#
# number of rings (size 3 to 8) (size 9 to 14) (size 15 to 20)
#    0.000    2.500    0.000    1.500    7.000    0.000 
#    0.000    7.500   13.750    0.000    0.000    0.000 
#    0.000    0.000    0.000    0.000    0.000    0.000 
#
# Total GULP energy -89190.779836 kJ/mol
# GULP energy per Si atom -5574.423740 kJ/mol
# Density = 2.112774 g / cm^3
# Si number density = 21.175939 Si / 1000 Ang^3
#
#
#
# Elastic Constant Matrix: (Units=GPa)
#
#
# Indices 1 2 3 4 5 6 
#
# 1 43.5987 11.3451 23.8157 -5.1948 -12.7066 -10.0650
# 2 11.3451 42.8542 11.4366 -8.5180 -15.2560 -11.1586
# 3 23.8157 11.4366 62.0970 6.0200 -13.1088 -17.5652
# 4 -5.1948 -8.5180 6.0200 16.3983 -8.9989 -0.2419
# 5 -12.7066 -15.2560 -13.1088 -8.9989 28.8782 5.5639
# 6 -10.0650 -11.1586 -17.5652 -0.2419 5.5639 23.1687
#
#
#
# Elastic Compliance Matrix: (Units=1/GPa)
#
#
# Indices 1 2 3 4 5 6 
#
# 1 0.044198 0.015484 -0.014986 0.046171 0.033733 0.007678
# 2 0.015484 0.056216 -0.007155 0.064461 0.050070 0.017026
# 3 -0.014986 -0.007155 0.027245 -0.022297 -0.007309 0.012222
# 4 0.046171 0.064461 -0.022297 0.169302 0.094446 0.013286
# 5 0.033733 0.050070 -0.007309 0.094446 0.100073 0.010181
# 6 0.007678 0.017026 0.012222 0.013286 0.010181 0.061656
#
#
# Mechanical properties :
#
#
# Convention : Reuss Voigt Hill
#
# Bulk Modulus (GPa) = 8.74552 26.86054 17.80303
# Shear Modulus (GPa) = 9.80160 20.48589 15.14374
#
# Velocity S-wave (km/s) = 2.15376 3.11370 2.67711
# Velocity P-wave (km/s) = 3.21307 5.06348 4.24044
#
# Compressibility (1/GPa) = 0.11434425
#
# Stress axis : x y z
#
# Youngs Moduli (GPa) = 22.62524 17.78852 36.70434
#
# Poissons Ratio (x) = -0.27543 0.55005
# Poissons Ratio (y) = -0.35032 0.26263
# Poissons Ratio (z) = 0.33906 0.12728
#
# Static dielectric constant tensor:
#      x y z
#    x 1.803320 -0.042330 -0.005990 
#    y -0.042330 1.797060 -0.043870 
#    z -0.005990 -0.043870 1.771310 
# 
# From -- ./inp_files/199438.got.cif
#   From: 2010.05.17/outbox.cif.g08.bks.cpg/sg2_100_cif.got.tgz:199438.got - 2010.06.03 11:33:40.
