data_PCOD9093075
_publ_section_title
;
Structure prediction by ZEFSAII (Michael W. Deem and Ramdas Pophale) SiO2 
 PCOD9093075
Probable space group: P -1
;
_chemical_formula_sum "Si O2"
_cell_formula_units_Z 16
_cell_length_a 11.291382
_cell_length_b 21.606369
_cell_length_c 8.873602
_cell_angle_alpha 146.992810
_cell_angle_beta 52.639988
_cell_angle_gamma 106.729664
_cell_volume 806.020225
_symmetry_space_group_name_H-M "P -1"
_symmetry_group_IT_number 2
_symmetry_cell_setting 'triclinic'
loop_
_space_group_symop_operation_xyz
x,y,z
-x,-y,-z
loop_
_atom_site_type_symbol
_atom_site_label
_atom_site_fract_x
_atom_site_fract_y
_atom_site_fract_z
Si Si1 0.128603 0.300440 0.101966
Si Si2 0.996016 0.879857 0.833872
Si Si3 0.258259 0.442148 0.082879
Si Si4 0.597631 0.637254 0.525006
Si Si5 0.232398 0.233146 0.226740
Si Si6 0.882146 0.380195 0.951328
Si Si7 0.285622 0.624535 0.639572
Si Si8 0.964043 0.136091 0.874396
O O1 0.231696 0.336408 0.978165
O O2 0.205194 0.274780 0.158331
O O3 0.932971 0.427208 0.523843
O O4 0.108748 0.177006 0.817095
O O5 0.124481 0.741368 0.369765
O O6 0.810800 0.884666 0.971012
O O7 0.045857 0.867375 0.944752
O O8 0.000000 0.000000 0.000000
O O9 0.358448 0.492500 0.215238
O O10 0.344041 0.393321 0.756082
O O11 0.600334 0.767468 0.841466
O O12 0.420120 0.637268 0.666815
O O13 0.735779 0.517789 0.278605
O O14 0.926899 0.654834 0.319716
O O15 0.858097 0.374394 0.136004
O O16 0.203823 0.746765 0.838019
O O17 0.000000 0.000000 0.500000
#
# Coordination Sequence:
#
# PCOD9093075 Si02
#       8
#     2   2   2   2   2   2   2   2
#     4   9  18  33  53  82 101 140 186 224 261 312
#     4   9  19  35  59  83 101 137 191 231 258 307
#     4  10  20  31  52  76 113 141 177 223 272 321
#     4  12  21  34  53  82 117 144 176 226 274 326
#     4   9  20  33  55  78 108 138 189 218 264 314
#     4  10  20  34  55  79 109 147 186 216 263 320
#     4  11  23  35  52  83 114 146 175 221 283 324
#     4  10  20  36  58  81 108 137 185 229 267 322
#
# _framework density 19.850617
#
# number of rings (size 3 to 8) (size 9 to 14) (size 15 to 20)
#    0.750    1.250    1.250    3.375    5.250    0.000 
#    0.000    0.000    0.000   11.250    0.000    0.000 
#    0.000    0.000    0.000    0.000    0.000    0.000 
#
# Total GULP energy -89209.085936 kJ/mol
# GULP energy per Si atom -5575.567871 kJ/mol
# Density = 1.980544 g / cm^3
# Si number density = 19.850617 Si / 1000 Ang^3
#
#
#
# Elastic Constant Matrix: (Units=GPa)
#
#
# Indices 1 2 3 4 5 6 
#
# 1 73.2859 15.5708 13.6052 12.9676 28.8331 7.2436
# 2 15.5708 115.4844 33.9322 19.5444 14.2634 -8.2228
# 3 13.6052 33.9322 57.2840 13.0228 32.1158 0.6003
# 4 12.9676 19.5444 13.0228 33.9882 3.3537 8.7371
# 5 28.8331 14.2634 32.1158 3.3537 29.1312 0.1026
# 6 7.2436 -8.2228 0.6003 8.7371 0.1026 23.1267
#
#
#
# Elastic Compliance Matrix: (Units=1/GPa)
#
#
# Indices 1 2 3 4 5 6 
#
# 1 0.057595 -0.008329 0.066819 -0.027589 -0.123375 -0.011766
# 2 -0.008329 0.013199 -0.017221 -0.002050 0.020973 0.008430
# 3 0.066819 -0.017221 0.134611 -0.043984 -0.200998 -0.013038
# 4 -0.027589 -0.002050 -0.043984 0.054009 0.070624 -0.011664
# 5 -0.123375 0.020973 -0.200998 0.070624 0.359550 0.023042
# 6 -0.011766 0.008430 -0.013038 -0.011664 0.023042 0.054565
#
#
# Mechanical properties :
#
#
# Convention : Reuss Voigt Hill
#
# Bulk Modulus (GPa) = 3.47291 41.36340 22.41815
# Shear Modulus (GPa) = 7.27830 29.44561 18.36196
#
# Velocity S-wave (km/s) = 1.91690 3.85562 3.04469
# Velocity P-wave (km/s) = 2.57927 6.37994 4.86602
#
# Compressibility (1/GPa) = 0.28794294
#
# Stress axis : x y z
#
# Youngs Moduli (GPa) = 17.36274 75.76288 7.42879
#
# Poissons Ratio (x) = 0.63107 -0.49639
# Poissons Ratio (y) = 0.14462 0.12793
# Poissons Ratio (z) = -1.16017 1.30472
#
# Static dielectric constant tensor:
#      x y z
#    x 1.742740 0.038550 0.017410 
#    y 0.038550 1.695910 0.008770 
#    z 0.017410 0.008770 1.697190 
# 
# From -- ./inp_files/282538.got.cif
#   From: 2010.05.17/outbox.cif.g08.bks.cpg/sg2_142_cif.got.tgz:282538.got - 2010.06.03 11:33:40.
