data_PCOD9093442
_publ_section_title
;
Structure prediction by ZEFSAII (Michael W. Deem and Ramdas Pophale) SiO2 
 PCOD9093442
Probable space group: P -1
;
_chemical_formula_sum "Si O2"
_cell_formula_units_Z 16
_cell_length_a 12.433275
_cell_length_b 12.194439
_cell_length_c 9.996170
_cell_angle_alpha 126.786650
_cell_angle_beta 34.715691
_cell_angle_gamma 102.212393
_cell_volume 544.840663
_symmetry_space_group_name_H-M "P -1"
_symmetry_group_IT_number 2
_symmetry_cell_setting 'triclinic'
loop_
_space_group_symop_operation_xyz
x,y,z
-x,-y,-z
loop_
_atom_site_type_symbol
_atom_site_label
_atom_site_fract_x
_atom_site_fract_y
_atom_site_fract_z
Si Si1 0.386036 0.249120 0.295321
Si Si2 0.037138 0.823037 0.542467
Si Si3 0.407374 0.331403 0.610967
Si Si4 0.747614 0.472048 0.725031
Si Si5 0.081056 0.718096 0.143574
Si Si6 0.936325 0.360284 0.172287
Si Si7 0.755426 0.043551 0.228690
Si Si8 0.455650 0.847123 0.214165
O O1 0.521432 0.223122 0.275279
O O2 0.289538 0.437736 0.476900
O O3 0.147123 0.279005 0.604914
O O4 0.493490 0.121360 0.964365
O O5 0.123854 0.628972 0.343979
O O6 0.032837 0.844160 0.404120
O O7 0.242968 0.833564 0.390638
O O8 0.813495 0.938802 0.955277
O O9 0.576889 0.240868 0.499355
O O10 0.308692 0.524104 0.810903
O O11 0.177357 0.339287 0.886760
O O12 0.905310 0.342734 0.346545
O O13 0.500000 0.500000 0.000000
O O14 0.682145 0.657844 0.898118
O O15 0.082706 0.745601 0.002992
O O16 0.638747 0.027797 0.469454
O O17 0.000000 0.000000 0.000000
#
# Coordination Sequence:
#
# PCOD9093442 Si02
#       8
#     2   2   2   2   2   2   2   2
#     4   8  16  33  57  80 101 130 174 216 258 312
#     4  10  20  33  48  75 107 136 172 216 256 300
#     4   9  17  34  57  76 100 139 175 210 258 312
#     4   9  17  32  53  76 103 134 170 213 256 301
#     4   9  17  33  57  82 103 128 170 222 261 302
#     4   8  16  32  55  81 105 131 170 214 261 312
#     4  10  21  36  50  70 106 145 176 209 254 311
#     4   9  18  35  53  72 101 139 174 212 258 310
#
# _framework density 29.366382000000002
#
# number of rings (size 3 to 8) (size 9 to 14) (size 15 to 20)
#    0.000    3.000    0.000    2.250    0.000    2.000 
#    0.000   26.250    0.000    0.000    0.000    0.000 
#    0.000    0.000    0.000    0.000    0.000    0.000 
#
# Total GULP energy -89613.304912 kJ/mol
# GULP energy per Si atom -5600.831557 kJ/mol
# Density = 2.929954 g / cm^3
# Si number density = 29.366382 Si / 1000 Ang^3
#
#
#
# Elastic Constant Matrix: (Units=GPa)
#
#
# Indices 1 2 3 4 5 6 
#
# 1 159.8245 34.2303 54.5369 -11.9941 31.9681 -32.9132
# 2 34.2303 105.6143 39.7801 -3.0865 1.6898 -30.8364
# 3 54.5369 39.7801 159.2505 -35.4872 43.7470 -17.9115
# 4 -11.9941 -3.0865 -35.4872 58.2927 -13.3999 7.8348
# 5 31.9681 1.6898 43.7470 -13.3999 63.2608 -15.6684
# 6 -32.9132 -30.8364 -17.9115 7.8348 -15.6684 49.5532
#
#
#
# Elastic Compliance Matrix: (Units=1/GPa)
#
#
# Indices 1 2 3 4 5 6 
#
# 1 0.008168 -0.000948 -0.001642 -0.000348 -0.002144 0.003619
# 2 -0.000948 0.013385 -0.003701 -0.001833 0.004275 0.008003
# 3 -0.001642 -0.003701 0.010087 0.004617 -0.005628 -0.002257
# 4 -0.000348 -0.001833 0.004617 0.020313 0.000665 -0.002704
# 5 -0.002144 0.004275 -0.005628 0.000665 0.022336 0.006159
# 6 0.003619 0.008003 -0.002257 -0.002704 0.006159 0.029123
#
#
# Mechanical properties :
#
#
# Convention : Reuss Voigt Hill
#
# Bulk Modulus (GPa) = 52.47415 75.75378 64.11397
# Shear Modulus (GPa) = 40.86727 53.96413 47.41570
#
# Velocity S-wave (km/s) = 3.73451 4.29139 4.02260
# Velocity P-wave (km/s) = 6.04177 7.09978 6.59203
#
# Compressibility (1/GPa) = 0.01905700
#
# Stress axis : x y z
#
# Youngs Moduli (GPa) = 122.42524 74.71310 99.13423
#
# Poissons Ratio (x) = 0.07084 0.16278
# Poissons Ratio (y) = 0.11608 0.36693
# Poissons Ratio (z) = 0.20102 0.27654
#
# Static dielectric constant tensor:
#      x y z
#    x 2.258600 0.022930 0.047380 
#    y 0.022930 2.225100 0.038960 
#    z 0.047380 0.038960 2.337420 
# 
# From -- ./inp_files/279673.got.cif
#   From: 2010.05.17/outbox.cif.g08.bks.cpg/sg2_140_cif.got.tgz:279673.got - 2010.06.03 11:33:40.
