data_PCOD9093017
_publ_section_title
;
Structure prediction by ZEFSAII (Michael W. Deem and Ramdas Pophale) SiO2 
 PCOD9093017
Probable space group: P -1
;
_chemical_formula_sum "Si O2"
_cell_formula_units_Z 16
_cell_length_a 14.008916
_cell_length_b 7.757067
_cell_length_c 25.856095
_cell_angle_alpha 133.115572
_cell_angle_beta 21.207929
_cell_angle_gamma 140.514577
_cell_volume 638.346331
_symmetry_space_group_name_H-M "P -1"
_symmetry_group_IT_number 2
_symmetry_cell_setting 'triclinic'
loop_
_space_group_symop_operation_xyz
x,y,z
-x,-y,-z
loop_
_atom_site_type_symbol
_atom_site_label
_atom_site_fract_x
_atom_site_fract_y
_atom_site_fract_z
Si Si1 0.459631 0.883827 0.189580
Si Si2 0.767320 0.337036 0.900745
Si Si3 0.803956 0.403692 0.405263
Si Si4 0.340278 0.234467 0.392320
Si Si5 0.101853 0.177255 0.867664
Si Si6 0.085881 0.022096 0.184183
Si Si7 0.743598 0.679643 0.074701
Si Si8 0.616384 0.197069 0.354070
O O1 0.453737 0.690325 0.200411
O O2 0.127342 0.695520 0.292628
O O3 0.518531 0.165139 0.244645
O O4 0.753688 0.969103 0.022252
O O5 0.033022 0.557618 0.777404
O O6 0.836954 0.096765 0.828865
O O7 0.425981 0.236364 0.035143
O O8 0.798061 0.489702 0.970540
O O9 0.663104 0.484827 0.540968
O O10 0.553469 0.274016 0.458467
O O11 0.901698 0.177515 0.317994
O O12 0.434298 0.193994 0.394581
O O13 0.000000 0.000000 0.500000
O O14 0.244177 0.393952 0.887134
O O15 0.061571 0.202940 0.832883
O O16 0.333353 0.059211 0.726969
O O17 0.000000 0.000000 0.000000
#
# Coordination Sequence:
#
# PCOD9093017 Si02
#       8
#     2   2   2   2   2   2   2   2
#     4  10  16  31  52  82 103 134 172 217 264 308
#     4  11  20  34  55  80 110 144 168 212 271 324
#     4  10  20  33  52  77 108 137 175 221 253 305
#     4  10  21  33  52  80 104 136 179 224 259 302
#     4  10  18  31  55  83 105 133 172 225 265 306
#     4  10  22  34  50  84 115 137 170 211 270 317
#     4  10  16  29  50  76 101 130 171 209 257 302
#     4  11  18  33  55  80 103 136 179 217 265 307
#
# _framework density 25.064762999999999
#
# number of rings (size 3 to 8) (size 9 to 14) (size 15 to 20)
#    0.000    1.750    5.000    1.875    0.000    2.500 
#    0.000    0.625    0.000    0.000    3.250    7.875 
#    0.000    0.000    0.000    0.000    0.000    0.000 
#
# Total GULP energy -89230.251988 kJ/mol
# GULP energy per Si atom -5576.890749 kJ/mol
# Density = 2.500771 g / cm^3
# Si number density = 25.064763 Si / 1000 Ang^3
#
#
#
# Elastic Constant Matrix: (Units=GPa)
#
#
# Indices 1 2 3 4 5 6 
#
# 1 98.6991 29.7882 42.1165 12.3911 -2.1897 48.6838
# 2 29.7882 58.5614 30.7068 23.0196 11.0910 30.6195
# 3 42.1165 30.7068 99.4716 23.1594 -3.5453 10.3979
# 4 12.3911 23.0196 23.1594 51.2613 7.4762 1.7505
# 5 -2.1897 11.0910 -3.5453 7.4762 33.2855 6.7026
# 6 48.6838 30.6195 10.3979 1.7505 6.7026 40.7175
#
#
#
# Elastic Compliance Matrix: (Units=1/GPa)
#
#
# Indices 1 2 3 4 5 6 
#
# 1 0.049003 0.028379 -0.017470 -0.015663 0.010846 -0.076581
# 2 0.028379 0.058630 -0.017148 -0.023004 0.000311 -0.072704
# 3 -0.017470 -0.017148 0.019241 0.002201 0.000336 0.028719
# 4 -0.015663 -0.023004 0.002201 0.032525 -0.007546 0.035308
# 5 0.010846 0.000311 0.000336 -0.007546 0.036194 -0.018921
# 6 -0.076581 -0.072704 0.028719 0.035308 -0.018921 0.165059
#
#
# Mechanical properties :
#
#
# Convention : Reuss Voigt Hill
#
# Bulk Modulus (GPa) = 8.74162 51.32833 30.03498
# Shear Modulus (GPa) = 12.15771 35.32756 23.74264
#
# Velocity S-wave (km/s) = 2.20478 3.75834 3.08108
# Velocity P-wave (km/s) = 3.15857 6.27345 4.96653
#
# Compressibility (1/GPa) = 0.11439528
#
# Stress axis : x y z
#
# Youngs Moduli (GPa) = 20.40702 17.05619 51.97246
#
# Poissons Ratio (x) = -0.48403 0.90795
# Poissons Ratio (y) = -0.57912 0.89121
# Poissons Ratio (z) = 0.35651 0.29248
#
# Static dielectric constant tensor:
#      x y z
#    x 2.116300 -0.042770 0.009700 
#    y -0.042770 2.035280 -0.030570 
#    z 0.009700 -0.030570 2.054120 
# 
# From -- ./inp_files/351717.got.cif
#   From: 2010.05.17/outbox.cif.g08.bks.cpg/sg2_176_cif.got.tgz:351717.got - 2010.06.03 11:33:40.
