data_PCOD9093365
_publ_section_title
;
Structure prediction by ZEFSAII (Michael W. Deem and Ramdas Pophale) SiO2 
 PCOD9093365
Probable space group: P -1
;
_chemical_formula_sum "Si O2"
_cell_formula_units_Z 16
_cell_length_a 16.680533
_cell_length_b 8.100477
_cell_length_c 8.900412
_cell_angle_alpha 85.452499
_cell_angle_beta 71.714034
_cell_angle_gamma 33.594741
_cell_volume 592.675324
_symmetry_space_group_name_H-M "P -1"
_symmetry_group_IT_number 2
_symmetry_cell_setting 'triclinic'
loop_
_space_group_symop_operation_xyz
x,y,z
-x,-y,-z
loop_
_atom_site_type_symbol
_atom_site_label
_atom_site_fract_x
_atom_site_fract_y
_atom_site_fract_z
Si Si1 0.810674 0.525018 0.757318
Si Si2 0.051305 0.245231 0.403901
Si Si3 0.366375 0.503699 0.227633
Si Si4 0.328000 0.441884 0.586003
Si Si5 0.583404 0.147309 0.668900
Si Si6 0.331261 0.835694 0.885842
Si Si7 0.794833 0.723135 0.312869
Si Si8 0.066104 0.056353 0.883490
O O1 0.713853 0.512811 0.817894
O O2 0.941548 0.298254 0.558407
O O3 0.912944 0.388808 0.858135
O O4 0.686799 0.875799 0.751571
O O5 0.000000 0.500000 0.500000
O O6 0.980554 0.403124 0.270656
O O7 0.229935 0.875847 0.299936
O O8 0.391548 0.391688 0.389997
O O9 0.536102 0.288147 0.077523
O O10 0.461159 0.225910 0.653480
O O11 0.262630 0.367050 0.627254
O O12 0.187974 0.799725 0.696673
O O13 0.470649 0.489401 0.750297
O O14 0.706092 0.984203 0.472387
O O15 0.251764 0.121883 0.825675
O O16 0.178080 0.965349 0.945119
O O17 0.000000 0.000000 0.000000
#
# Coordination Sequence:
#
# PCOD9093365 Si02
#       8
#     2   2   2   2   2   2   2   2
#     4  11  21  38  62  90 125 160 199 249 304 368
#     4  11  21  30  52  92 130 160 187 236 305 378
#     4  12  20  36  62  98 127 150 193 255 325 365
#     4  11  20  36  62  91 129 156 195 246 314 369
#     4  10  20  32  57  96 129 154 187 239 315 376
#     4  11  24  37  61  91 130 162 194 254 304 368
#     4  11  19  32  55  94 130 155 187 238 316 377
#     4  11  26  46  62  81 118 173 217 248 293 356
#
# _framework density 26.996231999999999
#
# number of rings (size 3 to 8) (size 9 to 14) (size 15 to 20)
#    0.000    1.000    5.000    4.875    3.500    0.000 
#    0.000    3.750    0.000    0.000    0.000    0.000 
#    0.000    0.000    0.000    0.000    0.000    0.000 
#
# Total GULP energy -89398.948646 kJ/mol
# GULP energy per Si atom -5587.434290 kJ/mol
# Density = 2.693479 g / cm^3
# Si number density = 26.996232 Si / 1000 Ang^3
#
#
#
# Elastic Constant Matrix: (Units=GPa)
#
#
# Indices 1 2 3 4 5 6 
#
# 1 129.7465 57.4223 49.2012 30.4737 -41.9210 -7.4385
# 2 57.4223 199.3057 44.4469 -5.7395 -3.5320 -22.3816
# 3 49.2012 44.4469 75.1001 -5.2983 5.8475 -6.1196
# 4 30.4737 -5.7395 -5.2983 14.3348 28.6602 -18.2105
# 5 -41.9210 -3.5320 5.8475 28.6602 38.2178 19.8075
# 6 -7.4385 -22.3816 -6.1196 -18.2105 19.8075 43.7249
#
#
#
# Elastic Compliance Matrix: (Units=1/GPa)
#
#
# Indices 1 2 3 4 5 6 
#
# 1 0.004636 -0.000077 -0.001321 0.009515 -0.005491 0.007014
# 2 -0.000077 0.005933 -0.003689 -0.001897 0.002040 0.000793
# 3 -0.001321 -0.003689 0.015120 -0.007463 0.004054 -0.004942
# 4 0.009515 -0.001897 -0.007463 -0.002321 0.018100 -0.009563
# 5 -0.005491 0.002040 0.004054 0.018100 0.002456 0.007103
# 6 0.007014 0.000793 -0.004942 -0.009563 0.007103 0.016577
#
#
# Mechanical properties :
#
#
# Convention : Reuss Voigt Hill
#
# Bulk Modulus (GPa) = 64.45750 78.47700 71.46725
# Shear Modulus (GPa) = 86.58536 36.12764 61.35650
#
# Velocity S-wave (km/s) = 5.66946 3.66217 4.77254
# Velocity P-wave (km/s) = 8.17223 6.85673 7.54321
#
# Compressibility (1/GPa) = 0.01551410
#
# Stress axis : x y z
#
# Youngs Moduli (GPa) = 215.71605 168.55493 66.13858
#
# Poissons Ratio (x) = 0.01290 0.08740
# Poissons Ratio (y) = 0.01651 0.24399
# Poissons Ratio (z) = 0.28505 0.62182
#
# Static dielectric constant tensor:
#      x y z
#    x 2.194840 -0.068850 -0.022680 
#    y -0.068850 2.075820 0.011560 
#    z -0.022680 0.011560 2.167330 
# 
# From -- ./inp_files/181465.got.cif
#   From: 2010.05.17/outbox.cif.g08.bks.cpg/sg2_91_cif.got.tgz:181465.got - 2010.06.03 11:33:40.
