data_PCOD9093585
_publ_section_title
;
Structure prediction by ZEFSAII (Michael W. Deem and Ramdas Pophale) SiO2 
 PCOD9093585
Probable space group: P -1
;
_chemical_formula_sum "Si O2"
_cell_formula_units_Z 14
_cell_length_a 7.008537
_cell_length_b 18.926231
_cell_length_c 14.176730
_cell_angle_alpha 158.121071
_cell_angle_beta 74.106313
_cell_angle_gamma 92.280443
_cell_volume 540.159565
_symmetry_space_group_name_H-M "P -1"
_symmetry_group_IT_number 2
_symmetry_cell_setting 'triclinic'
loop_
_space_group_symop_operation_xyz
x,y,z
-x,-y,-z
loop_
_atom_site_type_symbol
_atom_site_label
_atom_site_fract_x
_atom_site_fract_y
_atom_site_fract_z
Si Si1 0.020869 0.931520 0.760024
Si Si2 0.376210 0.777745 0.138910
Si Si3 0.977673 0.330881 0.377738
Si Si4 0.541709 0.312005 0.187957
Si Si5 0.695729 0.181975 0.595371
Si Si6 0.070322 0.359156 0.097083
Si Si7 0.150952 0.318057 0.833901
O O1 0.057351 0.785800 0.668830
O O2 0.214123 0.765573 0.446028
O O3 0.058868 0.127343 0.036993
O O4 0.751467 0.068904 0.913265
O O5 0.295273 0.738037 0.201011
O O6 0.216560 0.059444 0.495430
O O7 0.364178 0.678355 0.917382
O O8 0.655042 0.699637 0.014136
O O9 0.740841 0.576825 0.667300
O O10 0.097526 0.438273 0.552997
O O11 0.500000 0.500000 0.500000
O O12 0.418235 0.265511 0.729357
O O13 0.866046 0.896326 0.214614
O O14 0.993267 0.434706 0.094537
O O15 0.000000 0.500000 0.000000
#
# Coordination Sequence:
#
# PCOD9093585 Si02
#       7
#     2   2   2   2   2   2   2
#     4  10  20  33  54  76 108 137 172 217 261 303
#     4   8  16  32  51  72 102 134 172 211 253 313
#     4   9  19  36  53  75 102 142 177 210 253 319
#     4   9  18  34  54  73 100 144 176 201 258 316
#     4   9  18  34  50  78 105 133 170 219 265 301
#     4   8  16  33  53  69 101 136 172 209 257 311
#     4   9  17  30  52  76 100 135 172 210 259 312
#
# _framework density 25.918268000000001
#
# number of rings (size 3 to 8) (size 9 to 14) (size 15 to 20)
#    0.000    3.143    0.000    1.714    2.000    1.143 
#    5.143    6.429    0.000    0.857    0.000    0.000 
#    0.000    0.000    0.000    0.000    0.000    0.000 
#
# Total GULP energy -78017.498110 kJ/mol
# GULP energy per Si atom -5572.678436 kJ/mol
# Density = 2.585928 g / cm^3
# Si number density = 25.918268 Si / 1000 Ang^3
#
#
#
# Elastic Constant Matrix: (Units=GPa)
#
#
# Indices 1 2 3 4 5 6 
#
# 1 38.0012 5.2084 2.4322 0.6784 -9.7250 -6.8421
# 2 5.2084 205.3822 57.6286 -41.1775 5.1377 -4.7724
# 3 2.4322 57.6286 108.4653 -18.1762 17.9128 -1.5458
# 4 0.6784 -41.1775 -18.1762 67.9848 -8.4834 -0.6824
# 5 -9.7250 5.1377 17.9128 -8.4834 30.8412 -5.0114
# 6 -6.8421 -4.7724 -1.5458 -0.6824 -5.0114 35.9764
#
#
#
# Elastic Compliance Matrix: (Units=1/GPa)
#
#
# Indices 1 2 3 4 5 6 
#
# 1 0.031089 -0.000097 -0.002530 0.000614 0.012688 0.007570
# 2 -0.000097 0.006380 -0.003120 0.003263 0.001780 0.001004
# 3 -0.002530 -0.003120 0.012226 0.000456 -0.007482 -0.001403
# 4 0.000614 0.003263 0.000456 0.017367 0.004408 0.001513
# 5 0.012688 0.001780 -0.007482 0.004408 0.043053 0.008408
# 6 0.007570 0.001004 -0.001403 0.001513 0.008408 0.030508
#
#
# Mechanical properties :
#
#
# Convention : Reuss Voigt Hill
#
# Bulk Modulus (GPa) = 26.17773 53.59859 39.88816
# Shear Modulus (GPa) = 30.33030 46.06578 38.19804
#
# Velocity S-wave (km/s) = 3.42457 4.22043 3.84316
# Velocity P-wave (km/s) = 5.07533 6.66890 5.92592
#
# Compressibility (1/GPa) = 0.03820042
#
# Stress axis : x y z
#
# Youngs Moduli (GPa) = 32.16549 156.73946 81.79154
#
# Poissons Ratio (x) = 0.01518 0.20696
# Poissons Ratio (y) = 0.00312 0.25522
# Poissons Ratio (z) = 0.08139 0.48908
#
# Static dielectric constant tensor:
#      x y z
#    x 2.227360 0.036930 -0.016680 
#    y 0.036930 2.083680 -0.044080 
#    z -0.016680 -0.044080 2.060040 
# 
# From -- ./inp_files/172682.got.cif
#   From: 2010.05.17/outbox.cif.g08.bks.cpg/sg2_87_cif.got.tgz:172682.got - 2010.06.03 11:33:40.
