data_PCOD9093470
_publ_section_title
;
Structure prediction by ZEFSAII (Michael W. Deem and Ramdas Pophale) SiO2 
 PCOD9093470
Probable space group: P -1
;
_chemical_formula_sum "Si O2"
_cell_formula_units_Z 16
_cell_length_a 16.991786
_cell_length_b 24.908874
_cell_length_c 14.212066
_cell_angle_alpha 19.122154
_cell_angle_beta 159.650089
_cell_angle_gamma 158.917707
_cell_volume 623.620108
_symmetry_space_group_name_H-M "P -1"
_symmetry_group_IT_number 2
_symmetry_cell_setting 'triclinic'
loop_
_space_group_symop_operation_xyz
x,y,z
-x,-y,-z
loop_
_atom_site_type_symbol
_atom_site_label
_atom_site_fract_x
_atom_site_fract_y
_atom_site_fract_z
Si Si1 0.055744 0.046220 0.094970
Si Si2 0.699238 0.463219 0.545722
Si Si3 0.553877 0.378012 0.139354
Si Si4 0.585388 0.171237 0.681353
Si Si5 0.619485 0.726153 0.169683
Si Si6 0.191501 0.693033 0.619994
Si Si7 0.598107 0.827234 0.179966
Si Si8 0.894379 0.089648 0.313272
O O1 0.337700 0.176332 0.212211
O O2 0.910531 0.856599 0.294327
O O3 0.905977 0.162690 0.762654
O O4 0.000000 0.000000 0.000000
O O5 0.628354 0.564972 0.384111
O O6 0.594818 0.266253 0.797391
O O7 0.988053 0.563480 0.679346
O O8 0.560482 0.491058 0.250886
O O9 0.616074 0.350191 0.361961
O O10 0.776731 0.407893 0.268860
O O11 0.310059 0.061116 0.600029
O O12 0.768561 0.194754 0.935884
O O13 0.640749 0.035509 0.895334
O O14 0.505437 0.731943 0.133860
O O15 0.451481 0.785628 0.812900
O O16 0.851035 0.801817 0.526123
O O17 0.000000 0.000000 0.500000
#
# Coordination Sequence:
#
# PCOD9093470 Si02
#       8
#     2   2   2   2   2   2   2   2
#     4  11  18  30  50  78 114 146 190 239 276 317
#     4  10  23  38  50  83 125 160 188 228 271 339
#     4  10  21  36  58  83 113 150 190 234 284 334
#     4  10  21  39  66  91 105 141 195 239 289 347
#     4  11  21  33  54  81 116 162 196 226 273 336
#     4  10  20  33  50  77 119 153 193 233 273 324
#     4  11  23  37  59  83 118 154 190 234 289 331
#     4   9  21  42  64  88 114 136 183 251 296 333
#
# _framework density 25.656645999999999
#
# number of rings (size 3 to 8) (size 9 to 14) (size 15 to 20)
#    0.000    1.750    3.750    2.250    1.750    6.500 
#    0.000    0.625    0.000    7.500    0.000    0.000 
#    0.000    0.000    0.000    0.000    0.000    0.000 
#
# Total GULP energy -89364.568983 kJ/mol
# GULP energy per Si atom -5585.285561 kJ/mol
# Density = 2.559825 g / cm^3
# Si number density = 25.656646 Si / 1000 Ang^3
#
#
#
# Elastic Constant Matrix: (Units=GPa)
#
#
# Indices 1 2 3 4 5 6 
#
# 1 174.6662 16.1083 22.8261 3.6585 -14.1822 -0.4875
# 2 16.1083 43.6502 2.7761 5.3423 -0.2250 4.7026
# 3 22.8261 2.7761 51.5435 1.9399 -7.2827 -4.5103
# 4 3.6585 5.3423 1.9399 29.7780 5.8615 -2.9359
# 5 -14.1822 -0.2250 -7.2827 5.8615 41.7130 1.0016
# 6 -0.4875 4.7026 -4.5103 -2.9359 1.0016 37.0648
#
#
#
# Elastic Compliance Matrix: (Units=1/GPa)
#
#
# Indices 1 2 3 4 5 6 
#
# 1 0.006401 -0.002118 -0.002443 -0.000611 0.001825 -0.000042
# 2 -0.002118 0.024660 -0.000529 -0.004489 0.000037 -0.003578
# 3 -0.002443 -0.000529 0.021198 -0.001336 0.002997 0.002428
# 4 -0.000611 -0.004489 -0.001336 0.035988 -0.005604 0.003401
# 5 0.001825 0.000037 0.002997 -0.005604 0.025923 -0.000760
# 6 -0.000042 -0.003578 0.002428 0.003401 -0.000760 0.028018
#
#
# Mechanical properties :
#
#
# Convention : Reuss Voigt Hill
#
# Bulk Modulus (GPa) = 23.76567 39.25344 31.50955
# Shear Modulus (GPa) = 30.04919 36.92111 33.48515
#
# Velocity S-wave (km/s) = 3.42600 3.79759 3.61657
# Velocity P-wave (km/s) = 4.99330 5.87892 5.45411
#
# Compressibility (1/GPa) = 0.04207751
#
# Stress axis : x y z
#
# Youngs Moduli (GPa) = 156.23309 40.55197 47.17474
#
# Poissons Ratio (x) = 0.08589 0.11526
# Poissons Ratio (y) = 0.33090 0.02496
# Poissons Ratio (z) = 0.38173 0.02145
#
# Static dielectric constant tensor:
#      x y z
#    x 2.041590 -0.008150 -0.016920 
#    y -0.008150 2.029430 -0.050350 
#    z -0.016920 -0.050350 2.053680 
# 
# From -- ./inp_files/100010.got.cif
#   From: 2010.05.17/outbox.cif.g08.bks.cpg/sg2_51_cif.got.tgz:100010.got - 2010.06.03 11:33:40.
