data_PCOD9093641
_publ_section_title
;
Structure prediction by ZEFSAII (Michael W. Deem and Ramdas Pophale) SiO2 
 PCOD9093641
Probable space group: P -1
;
_chemical_formula_sum "Si O2"
_cell_formula_units_Z 16
_cell_length_a 22.538871
_cell_length_b 16.679707
_cell_length_c 12.855679
_cell_angle_alpha 131.955936
_cell_angle_beta 151.984152
_cell_angle_gamma 26.782690
_cell_volume 844.131856
_symmetry_space_group_name_H-M "P -1"
_symmetry_group_IT_number 2
_symmetry_cell_setting 'triclinic'
loop_
_space_group_symop_operation_xyz
x,y,z
-x,-y,-z
loop_
_atom_site_type_symbol
_atom_site_label
_atom_site_fract_x
_atom_site_fract_y
_atom_site_fract_z
Si Si1 0.697385 0.113317 0.648781
Si Si2 0.107453 0.510612 0.046035
Si Si3 0.873887 0.316321 0.939156
Si Si4 0.660408 0.277310 0.161235
Si Si5 0.705833 0.213022 0.523904
Si Si6 0.821398 0.997146 0.315878
Si Si7 0.437415 0.665589 0.165009
Si Si8 0.992734 0.358028 0.764182
O O1 0.410588 0.281160 0.338028
O O2 0.747920 0.136376 0.638769
O O3 0.682828 0.207690 0.804211
O O4 0.911795 0.870697 0.806748
O O5 0.058084 0.634584 0.987875
O O6 0.975265 0.646618 0.066553
O O7 0.018466 0.455646 0.836740
O O8 0.826599 0.242909 0.733468
O O9 0.594776 0.548676 0.752981
O O10 0.452020 0.524921 0.060793
O O11 0.918337 0.154797 0.467740
O O12 0.619738 0.214290 0.126477
O O13 0.682507 0.212463 0.024181
O O14 0.809691 0.051714 0.461177
O O15 0.820706 0.870072 0.191075
O O16 0.712273 0.517608 0.456798
#
# Coordination Sequence:
#
# PCOD9093641 Si02
#       8
#     2   2   2   2   2   2   2   2
#     4  10  20  36  57  80 109 145 182 226 267 314
#     4   9  20  38  57  80 112 139 186 224 267 321
#     4  10  21  35  57  80 108 147 183 224 268 316
#     4   9  19  31  52  83 111 139 172 218 287 327
#     4  10  22  35  54  85 109 143 182 225 268 323
#     4  10  20  33  55  78 112 146 172 219 279 328
#     4   9  18  33  53  82 112 136 175 230 268 326
#     4   9  19  37  55  79 110 145 173 228 272 318
#
# _framework density 18.954384999999998
#
# number of rings (size 3 to 8) (size 9 to 14) (size 15 to 20)
#    0.000    2.500    0.000    1.125   12.250    0.000 
#    6.750    4.375    0.000    1.500    0.000    0.000 
#    0.000    0.000    0.000    0.000    0.000    0.000 
#
# Total GULP energy -89154.519858 kJ/mol
# GULP energy per Si atom -5572.157491 kJ/mol
# Density = 1.891124 g / cm^3
# Si number density = 18.954385 Si / 1000 Ang^3
#
#
#
# Elastic Constant Matrix: (Units=GPa)
#
#
# Indices 1 2 3 4 5 6 
#
# 1 98.4561 64.0822 29.1943 9.1568 -9.9632 20.5055
# 2 64.0822 110.0699 42.3762 13.6135 3.6053 17.1295
# 3 29.1943 42.3762 39.2282 0.5556 -8.4291 7.3736
# 4 9.1568 13.6135 0.5556 36.5559 5.1260 0.0978
# 5 -9.9632 3.6053 -8.4291 5.1260 23.2964 -4.1051
# 6 20.5055 17.1295 7.3736 0.0978 -4.1051 26.7990
#
#
#
# Elastic Compliance Matrix: (Units=1/GPa)
#
#
# Indices 1 2 3 4 5 6 
#
# 1 0.019397 -0.010164 -0.000170 -0.002329 0.009105 -0.006895
# 2 -0.010164 0.025483 -0.022510 -0.004298 -0.016336 -0.004804
# 3 -0.000170 -0.022510 0.054146 0.004430 0.022567 0.003061
# 4 -0.002329 -0.004298 0.004430 0.030157 -0.004933 0.002445
# 5 0.009105 -0.016336 0.022567 -0.004933 0.059731 0.006434
# 6 -0.006895 -0.004804 0.003061 0.002445 0.006434 0.045796
#
#
# Mechanical properties :
#
#
# Convention : Reuss Voigt Hill
#
# Bulk Modulus (GPa) = 29.99686 57.67329 43.83508
# Shear Modulus (GPa) = 16.05074 24.80369 20.42722
#
# Velocity S-wave (km/s) = 2.91316 3.62138 3.28640
# Velocity P-wave (km/s) = 5.21301 6.92671 6.13004
#
# Compressibility (1/GPa) = 0.03333683
#
# Stress axis : x y z
#
# Youngs Moduli (GPa) = 51.55459 39.24110 18.46863
#
# Poissons Ratio (x) = 0.39887 0.00314
# Poissons Ratio (y) = 0.52403 0.41573
# Poissons Ratio (z) = 0.00877 0.88332
#
# Static dielectric constant tensor:
#      x y z
#    x 1.661950 -0.004840 -0.000560 
#    y -0.004840 1.720070 -0.056750 
#    z -0.000560 -0.056750 1.690610 
# 
# From -- ./inp_files/436604.got.cif
#   From: 2010.05.17/outbox.cif.g08.bks.cpg/sg2_219_cif.got.tgz:436604.got - 2010.06.03 11:33:40.
