data_PCOD9093159
_publ_section_title
;
Structure prediction by ZEFSAII (Michael W. Deem and Ramdas Pophale) SiO2 
 PCOD9093159
Probable space group: P -1
;
_chemical_formula_sum "Si O2"
_cell_formula_units_Z 16
_cell_length_a 5.964073
_cell_length_b 18.837572
_cell_length_c 10.933869
_cell_angle_alpha 147.060084
_cell_angle_beta 63.969829
_cell_angle_gamma 114.183562
_cell_volume 598.046575
_symmetry_space_group_name_H-M "P -1"
_symmetry_group_IT_number 2
_symmetry_cell_setting 'triclinic'
loop_
_space_group_symop_operation_xyz
x,y,z
-x,-y,-z
loop_
_atom_site_type_symbol
_atom_site_label
_atom_site_fract_x
_atom_site_fract_y
_atom_site_fract_z
Si Si1 0.255725 0.596057 0.576431
Si Si2 0.735700 0.916939 0.801213
Si Si3 0.796195 0.871261 0.978040
Si Si4 0.472719 0.636479 0.082631
Si Si5 0.677002 0.972655 0.634418
Si Si6 0.256697 0.614593 0.342716
Si Si7 0.742063 0.430876 0.201794
Si Si8 0.154434 0.177648 0.836448
O O1 0.256306 0.678991 0.570637
O O2 0.496587 0.512749 0.390963
O O3 0.256852 0.653255 0.794783
O O4 0.000000 0.500000 0.500000
O O5 0.727697 0.878532 0.603853
O O6 0.764422 0.819930 0.770935
O O7 0.963734 0.026611 0.921241
O O8 0.500000 0.000000 0.000000
O O9 0.803389 0.787811 0.980527
O O10 0.569629 0.959302 0.180820
O O11 0.327665 0.689340 0.309271
O O12 0.758896 0.692303 0.071399
O O13 0.514341 0.481405 0.850396
O O14 0.307892 0.656897 0.032219
O O15 0.662223 0.909936 0.412787
O O16 0.901038 0.087431 0.750428
O O17 0.986727 0.532953 0.276964
#
# Coordination Sequence:
#
# PCOD9093159 Si02
#       8
#     2   2   2   2   2   2   2   2
#     4   8  15  29  52  74  94 125 162 201 247 297
#     4   8  15  29  52  74  94 125 162 201 247 297
#     4   9  16  30  52  73  94 126 164 202 249 297
#     4  10  20  32  48  73 102 131 167 207 246 293
#     4   9  18  33  51  72 100 133 165 203 249 295
#     4   9  18  33  51  72 100 133 165 203 249 295
#     4   9  16  30  52  73  94 126 164 202 249 297
#     4  10  20  32  48  73 102 131 167 207 246 293
#
# _framework density 26.753768999999998
#
# number of rings (size 3 to 8) (size 9 to 14) (size 15 to 20)
#    0.000    3.000    0.000    0.750    0.000    1.000 
#    0.000    1.250    0.000   46.500    0.000    0.000 
#    0.000    0.000    0.000    0.000    0.000    0.000 
#
# Total GULP energy -89288.316201 kJ/mol
# GULP energy per Si atom -5580.519763 kJ/mol
# Density = 2.669288 g / cm^3
# Si number density = 26.753769 Si / 1000 Ang^3
#
#
#
# Elastic Constant Matrix: (Units=GPa)
#
#
# Indices 1 2 3 4 5 6 
#
# 1 100.6416 49.3320 26.2196 -20.5363 12.6739 13.2137
# 2 49.3320 150.5759 60.0853 -55.1955 14.8802 -2.1102
# 3 26.2196 60.0853 89.5580 -28.5702 24.1096 -11.7333
# 4 -20.5363 -55.1955 -28.5702 45.4407 -11.3482 -0.7885
# 5 12.6739 14.8802 24.1096 -11.3482 34.3063 -12.7750
# 6 13.2137 -2.1102 -11.7333 -0.7885 -12.7750 36.9319
#
#
#
# Elastic Compliance Matrix: (Units=1/GPa)
#
#
# Indices 1 2 3 4 5 6 
#
# 1 0.013636 -0.003841 -0.001112 -0.000726 -0.005585 -0.007399
# 2 -0.003841 0.014662 -0.005058 0.013955 0.004095 0.002319
# 3 -0.001112 -0.005058 0.018457 0.002967 -0.008192 0.003202
# 4 -0.000726 0.013955 0.002967 0.042700 0.008424 0.005826
# 5 -0.005585 0.004095 -0.008192 0.008424 0.043514 0.014861
# 6 -0.007399 0.002319 0.003202 0.005826 0.014861 0.036139
#
#
# Mechanical properties :
#
#
# Convention : Reuss Voigt Hill
#
# Bulk Modulus (GPa) = 37.41171 68.00546 52.70859
# Shear Modulus (GPa) = 25.24725 37.01169 31.12947
#
# Velocity S-wave (km/s) = 3.07529 3.72347 3.41479
# Velocity P-wave (km/s) = 5.15984 6.63022 5.94070
#
# Compressibility (1/GPa) = 0.02672960
#
# Stress axis : x y z
#
# Youngs Moduli (GPa) = 73.33756 68.20554 54.18062
#
# Poissons Ratio (x) = 0.26201 0.06026
# Poissons Ratio (y) = 0.28172 0.27407
# Poissons Ratio (z) = 0.08157 0.34501
#
# Static dielectric constant tensor:
#      x y z
#    x 2.169480 -0.110290 0.010080 
#    y -0.110290 2.241070 -0.046660 
#    z 0.010080 -0.046660 2.114230 
# 
# From -- ./inp_files/369077.got.cif
#   From: 2010.05.17/outbox.cif.g08.bks.cpg/sg2_185_cif.got.tgz:369077.got - 2010.06.03 11:33:40.
