data_PCOD9093333
_publ_section_title
;
Structure prediction by ZEFSAII (Michael W. Deem and Ramdas Pophale) SiO2 
 PCOD9093333
Probable space group: P -1
;
_chemical_formula_sum "Si O2"
_cell_formula_units_Z 16
_cell_length_a 17.448307
_cell_length_b 7.675336
_cell_length_c 8.567722
_cell_angle_alpha 124.992301
_cell_angle_beta 126.110609
_cell_angle_gamma 39.813133
_cell_volume 577.119929
_symmetry_space_group_name_H-M "P -1"
_symmetry_group_IT_number 2
_symmetry_cell_setting 'triclinic'
loop_
_space_group_symop_operation_xyz
x,y,z
-x,-y,-z
loop_
_atom_site_type_symbol
_atom_site_label
_atom_site_fract_x
_atom_site_fract_y
_atom_site_fract_z
Si Si1 0.573274 0.166764 0.511557
Si Si2 0.007408 0.682733 0.232458
Si Si3 0.180243 0.263524 0.768912
Si Si4 0.468533 0.791761 0.860929
Si Si5 0.511650 0.782368 0.240305
Si Si6 0.806074 0.128144 0.759508
Si Si7 0.753983 0.601719 0.768314
Si Si8 0.083065 0.779237 0.782781
O O1 0.590792 0.883579 0.391668
O O2 0.707177 0.085068 0.639832
O O3 0.503109 0.310659 0.336013
O O4 0.489873 0.331493 0.652565
O O5 0.155336 0.496773 0.318691
O O6 0.929822 0.737389 0.320791
O O7 0.953366 0.986631 0.263584
O O8 0.000000 0.500000 0.000000
O O9 0.319527 0.972623 0.783787
O O10 0.153254 0.452093 0.686029
O O11 0.180568 0.411950 0.999939
O O12 0.532224 0.639791 0.025253
O O13 0.500000 0.000000 0.000000
O O14 0.371141 0.082566 0.221198
O O15 0.748699 0.361841 0.676444
O O16 0.823915 0.219962 0.993157
O O17 0.951762 0.894235 0.764582
#
# Coordination Sequence:
#
# PCOD9093333 Si02
#       8
#     2   2   2   2   2   2   2   2
#     4  10  20  32  56  83 105 141 190 228 274 333
#     4   9  16  26  50  82 106 144 190 221 274 340
#     4   9  17  30  53  77 103 154 186 216 294 331
#     4   9  19  37  56  79 113 143 184 238 275 331
#     4   9  19  34  55  81 105 143 186 226 278 334
#     4   9  17  29  49  77 111 143 174 231 279 319
#     4   8  16  29  48  77 106 139 180 221 275 332
#     4   9  18  30  48  84 116 142 188 232 272 342
#
# _framework density 27.723873999999999
#
# number of rings (size 3 to 8) (size 9 to 14) (size 15 to 20)
#    0.000    3.000    0.000    2.250    7.000    0.500 
#    0.000    0.625    2.750    2.250    0.000    0.000 
#    0.000    0.000    0.000    0.000    0.000    0.000 
#
# Total GULP energy -89366.396296 kJ/mol
# GULP energy per Si atom -5585.399769 kJ/mol
# Density = 2.766077 g / cm^3
# Si number density = 27.723874 Si / 1000 Ang^3
#
#
#
# Elastic Constant Matrix: (Units=GPa)
#
#
# Indices 1 2 3 4 5 6 
#
# 1 191.7900 44.7694 77.3102 -4.1868 13.4220 1.3024
# 2 44.7694 89.3017 27.7912 -17.0268 1.3555 2.0892
# 3 77.3102 27.7912 166.2389 -2.1050 -11.1546 1.4818
# 4 -4.1868 -17.0268 -2.1050 37.3267 -1.7597 -5.3295
# 5 13.4220 1.3555 -11.1546 -1.7597 48.2041 -10.0605
# 6 1.3024 2.0892 1.4818 -5.3295 -10.0605 46.8689
#
#
#
# Elastic Compliance Matrix: (Units=1/GPa)
#
#
# Indices 1 2 3 4 5 6 
#
# 1 0.007315 -0.002799 -0.003131 -0.000866 -0.002859 -0.000692
# 2 -0.002799 0.014044 -0.000942 0.006099 0.000446 0.000271
# 3 -0.003131 -0.000942 0.007811 -0.000142 0.002798 0.000466
# 4 -0.000866 0.006099 -0.000142 0.030067 0.001882 0.003579
# 5 -0.002859 0.000446 0.002798 0.001882 0.023328 0.005193
# 6 -0.000692 0.000271 0.000466 0.003579 0.005193 0.022850
#
#
# Mechanical properties :
#
#
# Convention : Reuss Voigt Hill
#
# Bulk Modulus (GPa) = 64.81818 83.00802 73.91310
# Shear Modulus (GPa) = 40.22551 46.31061 43.26806
#
# Velocity S-wave (km/s) = 3.81325 4.09152 3.95483
# Velocity P-wave (km/s) = 6.54358 7.23372 6.89729
#
# Compressibility (1/GPa) = 0.01542777
#
# Stress axis : x y z
#
# Youngs Moduli (GPa) = 136.70333 71.20605 128.03157
#
# Poissons Ratio (x) = 0.19927 0.40083
# Poissons Ratio (y) = 0.38257 0.12055
# Poissons Ratio (z) = 0.42798 0.06705
#
# Static dielectric constant tensor:
#      x y z
#    x 2.209160 0.076920 -0.004880 
#    y 0.076920 2.159740 0.078190 
#    z -0.004880 0.078190 2.280840 
# 
# From -- ./inp_files/215789.got.cif
#   From: 2010.05.17/outbox.cif.g08.bks.cpg/sg2_108_cif.got.tgz:215789.got - 2010.06.03 11:33:40.
