data_PCOD9093020
_publ_section_title
;
Structure prediction by ZEFSAII (Michael W. Deem and Ramdas Pophale) SiO2 
 PCOD9093020
Probable space group: P -1
;
_chemical_formula_sum "Si O2"
_cell_formula_units_Z 16
_cell_length_a 8.380722
_cell_length_b 7.654276
_cell_length_c 11.426989
_cell_angle_alpha 81.001286
_cell_angle_beta 117.219125
_cell_angle_gamma 118.920241
_cell_volume 568.581170
_symmetry_space_group_name_H-M "P -1"
_symmetry_group_IT_number 2
_symmetry_cell_setting 'triclinic'
loop_
_space_group_symop_operation_xyz
x,y,z
-x,-y,-z
loop_
_atom_site_type_symbol
_atom_site_label
_atom_site_fract_x
_atom_site_fract_y
_atom_site_fract_z
Si Si1 0.449743 0.267043 0.978054
Si Si2 0.254000 0.396079 0.181622
Si Si3 0.933801 0.834038 0.632817
Si Si4 0.755050 0.318450 0.252748
Si Si5 0.605349 0.903091 0.467506
Si Si6 0.066330 0.263032 0.876456
Si Si7 0.340930 0.812600 0.170814
Si Si8 0.647240 0.462692 0.419903
O O1 0.208910 0.168948 0.883640
O O2 0.575373 0.216216 0.925931
O O3 0.500000 0.500000 0.000000
O O4 0.530329 0.209324 0.129004
O O5 0.160621 0.226401 0.263431
O O6 0.206311 0.574432 0.179685
O O7 0.496524 0.488297 0.273609
O O8 0.161394 0.325609 0.031783
O O9 0.847940 0.987799 0.551191
O O10 0.814183 0.661878 0.513191
O O11 0.136180 0.815897 0.717593
O O12 0.873928 0.538945 0.206169
O O13 0.743093 0.356525 0.381544
O O14 0.527386 0.896032 0.312730
O O15 0.485809 0.678119 0.504482
O O16 0.500000 0.000000 0.500000
O O17 0.828543 0.126679 0.843614
#
# Coordination Sequence:
#
# PCOD9093020 Si02
#       8
#     2   2   2   2   2   2   2   2
#     4  10  20  30  53  93 126 150 186 244 298 363
#     4  11  16  32  53  88 121 146 181 240 297 345
#     4  11  21  33  59  88 116 152 198 248 296 345
#     4  11  19  31  53  92 126 143 185 243 310 349
#     4  11  25  43  59  79 116 165 207 242 292 354
#     4  11  20  31  57  94 130 149 182 244 308 356
#     4  12  19  36  59  84 121 159 197 234 296 351
#     4  11  20  35  58  86 121 148 193 253 296 347
#
# _framework density 28.140222999999999
#
# number of rings (size 3 to 8) (size 9 to 14) (size 15 to 20)
#    0.000    1.000    7.500    3.000    0.000    0.000 
#    0.000    0.625    0.000    7.500    0.000    0.000 
#    0.000    0.000    0.000    0.000    0.000    0.000 
#
# Total GULP energy -89374.383360 kJ/mol
# GULP energy per Si atom -5585.898960 kJ/mol
# Density = 2.807617 g / cm^3
# Si number density = 28.140223 Si / 1000 Ang^3
#
#
#
# Elastic Constant Matrix: (Units=GPa)
#
#
# Indices 1 2 3 4 5 6 
#
# 1 212.8863 46.2053 54.4324 -13.7617 14.6931 -18.7817
# 2 46.2053 75.8393 19.6789 2.5947 -6.4077 -20.0001
# 3 54.4324 19.6789 132.8484 -21.3651 -14.9840 4.4182
# 4 -13.7617 2.5947 -21.3651 27.6086 -20.6891 -2.3012
# 5 14.6931 -6.4077 -14.9840 -20.6891 44.0833 -7.0791
# 6 -18.7817 -20.0001 4.4182 -2.3012 -7.0791 52.8642
#
#
#
# Elastic Compliance Matrix: (Units=1/GPa)
#
#
# Indices 1 2 3 4 5 6 
#
# 1 0.006410 -0.003276 -0.003046 -0.002269 -0.004621 0.000575
# 2 -0.003276 0.017406 -0.001122 -0.000751 0.003851 0.005998
# 3 -0.003046 -0.001122 0.014137 0.021344 0.015730 0.000347
# 4 -0.002269 -0.000751 0.021344 0.091383 0.052087 0.008079
# 5 -0.004621 0.003851 0.015730 0.052087 0.055902 0.008254
# 6 0.000575 0.005998 0.000347 0.008079 0.008254 0.022818
#
#
# Mechanical properties :
#
#
# Convention : Reuss Voigt Hill
#
# Bulk Modulus (GPa) = 43.35731 73.57859 58.46795
# Shear Modulus (GPa) = 21.67955 44.99504 33.33729
#
# Velocity S-wave (km/s) = 2.77864 4.00304 3.44566
# Velocity P-wave (km/s) = 5.07302 6.89707 6.05414
#
# Compressibility (1/GPa) = 0.02306416
#
# Stress axis : x y z
#
# Youngs Moduli (GPa) = 155.99832 57.45242 70.73628
#
# Poissons Ratio (x) = 0.18822 0.21550
# Poissons Ratio (y) = 0.51107 0.07935
# Poissons Ratio (z) = 0.47525 0.06445
#
# Static dielectric constant tensor:
#      x y z
#    x 2.399650 0.034390 0.062110 
#    y 0.034390 2.351780 -0.085900 
#    z 0.062110 -0.085900 2.147170 
# 
# From -- ./inp_files/382419.got.cif
#   From: 2010.05.17/outbox.cif.g08.bks.cpg/sg2_192_cif.got.tgz:382419.got - 2010.06.03 11:33:40.
