data_PCOD9093745
_publ_section_title
;
Structure prediction by ZEFSAII (Michael W. Deem and Ramdas Pophale) SiO2 
 PCOD9093745
Probable space group: P -1
;
_chemical_formula_sum "Si O2"
_cell_formula_units_Z 12
_cell_length_a 10.747351
_cell_length_b 8.764217
_cell_length_c 12.743017
_cell_angle_alpha 122.647885
_cell_angle_beta 53.687173
_cell_angle_gamma 78.633903
_cell_volume 528.008971
_symmetry_space_group_name_H-M "P -1"
_symmetry_group_IT_number 2
_symmetry_cell_setting 'triclinic'
loop_
_space_group_symop_operation_xyz
x,y,z
-x,-y,-z
loop_
_atom_site_type_symbol
_atom_site_label
_atom_site_fract_x
_atom_site_fract_y
_atom_site_fract_z
Si Si1 0.299907 0.793938 0.603011
Si Si2 0.741247 0.901201 0.853354
Si Si3 0.147594 0.257193 0.482533
Si Si4 0.986718 0.334704 0.816885
Si Si5 0.681379 0.673038 0.269792
Si Si6 0.520772 0.234391 0.285686
O O1 0.564919 0.609707 0.361740
O O2 0.306472 0.572734 0.514225
O O3 0.304757 0.867520 0.744849
O O4 0.118287 0.063392 0.720032
O O5 0.809437 0.902211 0.702156
O O6 0.944680 0.583287 0.673331
O O7 0.500000 0.000000 0.000000
O O8 0.670031 0.101999 0.054700
O O9 0.049496 0.249444 0.633085
O O10 0.388734 0.160048 0.343977
O O11 0.089053 0.445481 0.833344
O O12 0.729241 0.579864 0.090532
O O13 0.500000 0.000000 0.500000
#
# Coordination Sequence:
#
# PCOD9093745 Si02
#       6
#     2   2   2   2   2   2
#     4  10  21  35  54  89 120 148 179 219 287 339
#     4   9  21  37  58  80 108 147 193 237 276 320
#     4  10  20  37  60  84 105 146 197 234 272 326
#     4  10  20  33  57  83 113 146 186 231 273 329
#     4   9  19  32  51  80 114 144 179 218 276 327
#     4  10  21  36  57  83 121 150 180 225 278 339
#
# _framework density 22.726884999999999
#
# number of rings (size 3 to 8) (size 9 to 14) (size 15 to 20)
#    0.000    2.333    1.667    0.000    7.000    2.667 
#    0.000    4.167    0.000   10.000    0.000    0.000 
#    0.000    0.000    0.000    0.000    0.000    0.000 
#
# Total GULP energy -66928.277941 kJ/mol
# GULP energy per Si atom -5577.356495 kJ/mol
# Density = 2.267516 g / cm^3
# Si number density = 22.726885 Si / 1000 Ang^3
#
#
#
# Elastic Constant Matrix: (Units=GPa)
#
#
# Indices 1 2 3 4 5 6 
#
# 1 31.2282 28.9467 30.1793 -11.4559 19.4726 -13.8328
# 2 28.9467 118.4340 58.4911 -14.6182 30.9874 -31.0738
# 3 30.1793 58.4911 138.0731 -33.8016 44.3900 -31.7373
# 4 -11.4559 -14.6182 -33.8016 49.0180 -17.0598 9.6497
# 5 19.4726 30.9874 44.3900 -17.0598 32.6028 -15.9958
# 6 -13.8328 -31.0738 -31.7373 9.6497 -15.9958 27.8001
#
#
#
# Elastic Compliance Matrix: (Units=1/GPa)
#
#
# Indices 1 2 3 4 5 6 
#
# 1 0.055583 -0.005138 -0.000356 0.001626 -0.023274 0.007552
# 2 -0.005138 0.013804 -0.001681 -0.001447 -0.004039 0.009132
# 3 -0.000356 -0.001681 0.014468 0.003694 -0.013223 0.005571
# 4 0.001626 -0.001447 0.003694 0.026046 0.008695 -0.000629
# 5 -0.023274 -0.004039 -0.013223 0.008695 0.075492 0.009229
# 6 0.007552 0.009132 0.005571 -0.000629 0.009229 0.061824
#
#
# Mechanical properties :
#
#
# Convention : Reuss Voigt Hill
#
# Bulk Modulus (GPa) = 14.38751 58.10772 36.24762
# Shear Modulus (GPa) = 17.56004 33.22539 25.39271
#
# Velocity S-wave (km/s) = 2.78268 3.82768 3.34623
# Velocity P-wave (km/s) = 4.08274 6.71999 5.55999
#
# Compressibility (1/GPa) = 0.06950471
#
# Stress axis : x y z
#
# Youngs Moduli (GPa) = 17.99096 72.44478 69.11604
#
# Poissons Ratio (x) = 0.37220 0.02463
# Poissons Ratio (y) = 0.09243 0.11621
# Poissons Ratio (z) = 0.00641 0.12181
#
# Static dielectric constant tensor:
#      x y z
#    x 1.924580 -0.021980 -0.015180 
#    y -0.021980 1.851930 -0.038480 
#    z -0.015180 -0.038480 1.922690 
# 
# From -- ./inp_files/36533.got.cif
#   From: 2010.05.17/outbox.cif.g08.bks.cpg/sg2_19_cif.got.tgz:36533.got - 2010.06.03 11:33:40.
