data_PCOD9093481
_publ_section_title
;
Structure prediction by ZEFSAII (Michael W. Deem and Ramdas Pophale) SiO2 
 PCOD9093481
Probable space group: P -1
;
_chemical_formula_sum "Si O2"
_cell_formula_units_Z 14
_cell_length_a 5.176236
_cell_length_b 25.600070
_cell_length_c 11.190970
_cell_angle_alpha 37.393459
_cell_angle_beta 84.796743
_cell_angle_gamma 106.170006
_cell_volume 730.840406
_symmetry_space_group_name_H-M "P -1"
_symmetry_group_IT_number 2
_symmetry_cell_setting 'triclinic'
loop_
_space_group_symop_operation_xyz
x,y,z
-x,-y,-z
loop_
_atom_site_type_symbol
_atom_site_label
_atom_site_fract_x
_atom_site_fract_y
_atom_site_fract_z
Si Si1 0.215032 0.121421 0.813976
Si Si2 0.162331 0.707548 0.962322
Si Si3 0.262697 0.516589 0.551671
Si Si4 0.689432 0.739811 0.067529
Si Si5 0.443590 0.128164 0.555588
Si Si6 0.614920 0.074585 0.042842
Si Si7 0.872528 0.960390 0.709907
O O1 0.372809 0.177686 0.579484
O O2 0.463605 0.124175 0.886170
O O3 0.974022 0.136878 0.865739
O O4 0.000000 0.000000 0.000000
O O5 0.453980 0.728720 0.992530
O O6 0.931672 0.581916 0.171502
O O7 0.956856 0.732995 0.006137
O O8 0.297260 0.783048 0.705380
O O9 0.500000 0.500000 0.500000
O O10 0.479095 0.640686 0.346403
O O11 0.000000 0.500000 0.500000
O O12 0.835798 0.851257 0.919104
O O13 0.129267 0.047638 0.634250
O O14 0.528427 0.049459 0.747386
O O15 0.473151 0.065839 0.197315
O O16 0.000000 0.000000 0.500000
#
# Coordination Sequence:
#
# PCOD9093481 Si02
#       7
#     2   2   2   2   2   2   2
#     4  10  20  36  54  68  97 136 185 214 240 284
#     4  10  20  33  51  74 101 134 170 213 250 288
#     4   8  16  33  50  66  94 135 176 204 236 291
#     4  10  21  33  48  72 107 141 166 196 248 316
#     4  11  22  33  54  77 107 134 171 215 255 298
#     4  11  22  37  51  71 103 141 174 210 242 306
#     4  12  23  33  49  79 115 140 161 196 262 322
#
# _framework density 19.156030000000001
#
# number of rings (size 3 to 8) (size 9 to 14) (size 15 to 20)
#    0.000    1.714    4.286    2.571    2.000    1.143 
#    0.000    0.000    0.000    0.000    0.000    2.000 
#    0.000    1.571    0.000    0.000    0.000    0.000 
#
# Total GULP energy -77970.157536 kJ/mol
# GULP energy per Si atom -5569.296967 kJ/mol
# Density = 1.911243 g / cm^3
# Si number density = 19.156030 Si / 1000 Ang^3
#
#
#
# Elastic Constant Matrix: (Units=GPa)
#
#
# Indices 1 2 3 4 5 6 
#
# 1 125.7478 28.6298 25.0524 9.2540 -8.9964 -14.3891
# 2 28.6298 60.2194 46.0781 16.5357 -10.5874 -12.6134
# 3 25.0524 46.0781 141.7877 -4.4075 -19.8265 -11.9516
# 4 9.2540 16.5357 -4.4075 30.0737 -6.6960 -1.0652
# 5 -8.9964 -10.5874 -19.8265 -6.6960 21.9743 4.0700
# 6 -14.3891 -12.6134 -11.9516 -1.0652 4.0700 23.8750
#
#
#
# Elastic Compliance Matrix: (Units=1/GPa)
#
#
# Indices 1 2 3 4 5 6 
#
# 1 0.009247 -0.003065 -0.000185 -0.000784 0.001233 0.003616
# 2 -0.003065 0.032568 -0.010091 -0.018573 -0.002151 0.009846
# 3 -0.000185 -0.010091 0.011811 0.009240 0.008644 -0.000591
# 4 -0.000784 -0.018573 0.009240 0.048154 0.014860 -0.006045
# 5 0.001233 -0.002151 0.008644 0.014860 0.058293 -0.005340
# 6 0.003616 0.009846 -0.000591 -0.006045 -0.005340 0.049610
#
#
# Mechanical properties :
#
#
# Convention : Reuss Voigt Hill
#
# Bulk Modulus (GPa) = 37.11313 58.58616 47.84964
# Shear Modulus (GPa) = 20.37940 30.38424 25.38182
#
# Velocity S-wave (km/s) = 3.26523 3.98696 3.64401
# Velocity P-wave (km/s) = 5.79930 7.20032 6.53745
#
# Compressibility (1/GPa) = 0.02694464
#
# Stress axis : x y z
#
# Youngs Moduli (GPa) = 108.14516 30.70466 84.66806
#
# Poissons Ratio (x) = 0.09411 0.01565
# Poissons Ratio (y) = 0.33148 0.85436
# Poissons Ratio (z) = 0.01999 0.30983
#
# Static dielectric constant tensor:
#      x y z
#    x 1.752080 0.014880 -0.007610 
#    y 0.014880 1.718870 0.022090 
#    z -0.007610 0.022090 1.728060 
# 
# From -- ./inp_files/117618.got.cif
#   From: 2010.05.17/outbox.cif.g08.bks.cpg/sg2_59_cif.got.tgz:117618.got - 2010.06.03 11:33:40.
