data_PCOD9093008
_publ_section_title
;
Structure prediction by ZEFSAII (Michael W. Deem and Ramdas Pophale) SiO2 
 PCOD9093008
Probable space group: P -1
;
_chemical_formula_sum "Si O2"
_cell_formula_units_Z 14
_cell_length_a 14.085771
_cell_length_b 14.055782
_cell_length_c 11.496993
_cell_angle_alpha 158.660837
_cell_angle_beta 66.789921
_cell_angle_gamma 112.611038
_cell_volume 760.232672
_symmetry_space_group_name_H-M "P -1"
_symmetry_group_IT_number 2
_symmetry_cell_setting 'triclinic'
loop_
_space_group_symop_operation_xyz
x,y,z
-x,-y,-z
loop_
_atom_site_type_symbol
_atom_site_label
_atom_site_fract_x
_atom_site_fract_y
_atom_site_fract_z
Si Si1 0.102819 0.038157 0.074179
Si Si2 0.471001 0.259307 0.878733
Si Si3 0.930843 0.240303 0.770755
Si Si4 0.334112 0.535483 0.066292
Si Si5 0.848473 0.796646 0.159328
Si Si6 0.922730 0.369597 0.166453
Si Si7 0.273082 0.046523 0.815152
O O1 0.104728 0.341487 0.455575
O O2 0.097790 0.844981 0.967305
O O3 0.204760 0.985157 0.890375
O O4 0.000000 0.000000 0.000000
O O5 0.583291 0.403675 0.007310
O O6 0.500000 0.000000 0.500000
O O7 0.387822 0.182919 0.931754
O O8 0.403637 0.414818 0.996624
O O9 0.870077 0.098119 0.532136
O O10 0.871802 0.300886 0.987407
O O11 0.000000 0.000000 0.500000
O O12 0.000000 0.500000 0.000000
O O13 0.292926 0.793257 0.439191
O O14 0.236330 0.337992 0.866586
O O15 0.798094 0.784368 0.041942
O O16 0.953495 0.644679 0.931591
#
# Coordination Sequence:
#
# PCOD9093008 Si02
#       7
#     2   2   2   2   2   2   2
#     4  12  23  34  52  75 111 147 180 212 253 325
#     4   8  16  31  47  74 107 131 163 218 268 327
#     4  10  22  37  55  73 104 143 186 229 263 300
#     4   9  17  30  51  75 106 129 172 216 273 321
#     4  10  20  32  53  76 102 140 179 225 265 308
#     4  11  23  37  50  76 109 148 183 214 257 308
#     4  10  20  30  51  78 108 140 174 212 272 319
#
# _framework density 18.415414999999999
#
# number of rings (size 3 to 8) (size 9 to 14) (size 15 to 20)
#    0.000    2.000    1.429    3.000    8.000    0.000 
#    0.000    0.000    0.000    0.000    0.000    2.000 
#    0.000    0.000    0.000    0.000    0.000    0.000 
#
# Total GULP energy -77954.634558 kJ/mol
# GULP energy per Si atom -5568.188183 kJ/mol
# Density = 1.837350 g / cm^3
# Si number density = 18.415415 Si / 1000 Ang^3
#
#
#
# Elastic Constant Matrix: (Units=GPa)
#
#
# Indices 1 2 3 4 5 6 
#
# 1 44.4746 41.8771 15.7714 -1.7317 -8.5581 24.8690
# 2 41.8771 136.9300 22.4733 6.1713 7.4156 28.9831
# 3 15.7714 22.4733 70.0301 9.4665 -4.0998 6.4919
# 4 -1.7317 6.1713 9.4665 30.8059 1.1946 -0.8259
# 5 -8.5581 7.4156 -4.0998 1.1946 24.0324 6.1866
# 6 24.8690 28.9831 6.4919 -0.8259 6.1866 41.9283
#
#
#
# Elastic Compliance Matrix: (Units=1/GPa)
#
#
# Indices 1 2 3 4 5 6 
#
# 1 0.060038 -0.013030 -0.005404 0.005590 0.032022 -0.030381
# 2 -0.013030 0.011851 -0.001135 -0.002399 -0.008612 0.000936
# 3 -0.005404 -0.001135 0.016524 -0.005170 0.001205 0.001152
# 4 0.005590 -0.002399 -0.005170 0.034833 0.000168 -0.000195
# 5 0.032022 -0.008612 0.001205 0.000168 0.061612 -0.022314
# 6 -0.030381 0.000936 0.001152 -0.000195 -0.022314 0.044334
#
#
# Mechanical properties :
#
#
# Convention : Reuss Voigt Hill
#
# Bulk Modulus (GPa) = 20.29491 45.74203 33.01847
# Shear Modulus (GPa) = 17.55902 30.77418 24.16660
#
# Velocity S-wave (km/s) = 3.09122 4.09236 3.62650
# Velocity P-wave (km/s) = 4.87703 6.87188 5.95853
#
# Compressibility (1/GPa) = 0.04927343
#
# Stress axis : x y z
#
# Youngs Moduli (GPa) = 16.65620 84.38387 60.51972
#
# Poissons Ratio (x) = 1.09950 0.32706
# Poissons Ratio (y) = 0.21703 0.06870
# Poissons Ratio (z) = 0.09001 0.09580
#
# Static dielectric constant tensor:
#      x y z
#    x 1.703950 0.019590 0.004610 
#    y 0.019590 1.726360 0.050940 
#    z 0.004610 0.050940 1.674400 
# 
# From -- ./inp_files/74454.got.cif
#   From: 2010.05.17/outbox.cif.g08.bks.cpg/sg2_38_cif.got.tgz:74454.got - 2010.06.03 11:33:40.
