data_PCOD9093056
_publ_section_title
;
Structure prediction by ZEFSAII (Michael W. Deem and Ramdas Pophale) SiO2 
 PCOD9093056
Probable space group: P -1
;
_chemical_formula_sum "Si O2"
_cell_formula_units_Z 16
_cell_length_a 16.169252
_cell_length_b 14.499821
_cell_length_c 5.318339
_cell_angle_alpha 52.812592
_cell_angle_beta 59.218578
_cell_angle_gamma 45.390893
_cell_volume 698.754048
_symmetry_space_group_name_H-M "P -1"
_symmetry_group_IT_number 2
_symmetry_cell_setting 'triclinic'
loop_
_space_group_symop_operation_xyz
x,y,z
-x,-y,-z
loop_
_atom_site_type_symbol
_atom_site_label
_atom_site_fract_x
_atom_site_fract_y
_atom_site_fract_z
Si Si1 0.831997 0.893482 0.667592
Si Si2 0.094219 0.269390 0.675205
Si Si3 0.850216 0.487981 0.480350
Si Si4 0.742473 0.207728 0.338247
Si Si5 0.326825 0.207277 0.929433
Si Si6 0.487776 0.431918 0.381984
Si Si7 0.318072 0.288721 0.313849
Si Si8 0.767261 0.343698 0.572889
O O1 0.883462 0.839544 0.398986
O O2 0.811841 0.040881 0.512634
O O3 0.905886 0.787756 0.956501
O O4 0.711451 0.899268 0.837406
O O5 0.207170 0.276376 0.484091
O O6 0.974039 0.414141 0.543940
O O7 0.797502 0.633939 0.170768
O O8 0.748242 0.548795 0.757973
O O9 0.860736 0.373907 0.463054
O O10 0.602985 0.274089 0.465428
O O11 0.774726 0.269526 0.421858
O O12 0.760813 0.258949 0.957615
O O13 0.392452 0.196824 0.589701
O O14 0.383497 0.221810 0.064554
O O15 0.500000 0.500000 0.500000
O O16 0.351389 0.494718 0.500115
O O17 0.500000 0.500000 0.000000
#
# Coordination Sequence:
#
# PCOD9093056 Si02
#       8
#     2   2   2   2   2   2   2   2
#     4  10  20  34  50  72  96 135 176 197 232 290
#     4  10  20  31  50  74  97 135 172 201 234 284
#     4  10  21  31  51  74 106 125 165 208 252 278
#     4  10  20  37  54  72 101 129 165 202 243 297
#     4   8  18  29  49  70  94 126 168 207 238 277
#     4   8  16  33  54  75  91 120 165 206 241 286
#     4   8  17  29  46  69  95 125 167 203 238 273
#     4  10  21  33  55  78  99 126 159 206 256 291
#
# _framework density 22.897901000000001
#
# number of rings (size 3 to 8) (size 9 to 14) (size 15 to 20)
#    0.750    2.000    0.000    1.125    3.500    1.000 
#    0.000    3.750    0.000    0.750    0.000    1.750 
#    0.000    0.000    0.000    0.000    0.000    0.000 
#
# Total GULP energy -89104.558217 kJ/mol
# GULP energy per Si atom -5569.034889 kJ/mol
# Density = 2.284578 g / cm^3
# Si number density = 22.897901 Si / 1000 Ang^3
#
#
#
# Elastic Constant Matrix: (Units=GPa)
#
#
# Indices 1 2 3 4 5 6 
#
# 1 93.9132 15.0880 -1.5610 9.8928 23.5379 34.3691
# 2 15.0880 84.2322 56.1163 4.0140 -1.9674 33.3110
# 3 -1.5610 56.1163 130.6916 13.4578 13.8570 17.5992
# 4 9.8928 4.0140 13.4578 36.9166 23.5350 8.9075
# 5 23.5379 -1.9674 13.8570 23.5350 32.1680 12.3607
# 6 34.3691 33.3110 17.5992 8.9075 12.3607 39.3519
#
#
#
# Elastic Compliance Matrix: (Units=1/GPa)
#
#
# Indices 1 2 3 4 5 6 
#
# 1 0.019111 -0.000451 0.003268 0.006583 -0.014596 -0.014676
# 2 -0.000451 0.030423 -0.011228 -0.006875 0.021920 -0.025666
# 3 0.003268 -0.011228 0.012995 0.002162 -0.011819 0.004061
# 4 0.006583 -0.006875 0.002162 0.054765 -0.046774 0.001400
# 5 -0.014596 0.021920 -0.011819 -0.046774 0.089334 -0.017995
# 6 -0.014676 -0.025666 0.004061 0.001400 -0.017995 0.063474
#
#
# Mechanical properties :
#
#
# Convention : Reuss Voigt Hill
#
# Bulk Modulus (GPa) = 21.87902 49.79150 35.83526
# Shear Modulus (GPa) = 16.54749 37.63356 27.09052
#
# Velocity S-wave (km/s) = 2.69116 4.05845 3.44335
# Velocity P-wave (km/s) = 4.38546 6.61465 5.61186
#
# Compressibility (1/GPa) = 0.04570588
#
# Stress axis : x y z
#
# Youngs Moduli (GPa) = 52.32716 32.87009 76.95074
#
# Poissons Ratio (x) = 0.01483 -0.25147
# Poissons Ratio (y) = 0.02360 0.86402
# Poissons Ratio (z) = -0.17100 0.36907
#
# Static dielectric constant tensor:
#      x y z
#    x 1.912040 0.011890 0.028790 
#    y 0.011890 1.878590 0.073470 
#    z 0.028790 0.073470 1.957720 
# 
# From -- ./inp_files/67296.got.cif
#   From: 2010.05.17/outbox.cif.g08.bks.cpg/sg2_34_cif.got.tgz:67296.got - 2010.06.03 11:33:40.
