data_PCOD9093610
_publ_section_title
;
Structure prediction by ZEFSAII (Michael W. Deem and Ramdas Pophale) SiO2 
 PCOD9093610
Probable space group: P -1
;
_chemical_formula_sum "Si O2"
_cell_formula_units_Z 16
_cell_length_a 12.147349
_cell_length_b 15.554167
_cell_length_c 17.838372
_cell_angle_alpha 150.057744
_cell_angle_beta 36.662236
_cell_angle_gamma 155.638278
_cell_volume 692.585961
_symmetry_space_group_name_H-M "P -1"
_symmetry_group_IT_number 2
_symmetry_cell_setting 'triclinic'
loop_
_space_group_symop_operation_xyz
x,y,z
-x,-y,-z
loop_
_atom_site_type_symbol
_atom_site_label
_atom_site_fract_x
_atom_site_fract_y
_atom_site_fract_z
Si Si1 0.516025 0.929994 0.059085
Si Si2 0.493941 0.519633 0.607048
Si Si3 0.696984 0.250787 0.763381
Si Si4 0.215029 0.237522 0.230051
Si Si5 0.068914 0.682352 0.761822
Si Si6 0.849517 0.370218 0.089500
Si Si7 0.261039 0.220349 0.950343
Si Si8 0.438557 0.723025 0.502326
O O1 0.227402 0.751837 0.043321
O O2 0.584669 0.776971 0.914784
O O3 0.640696 0.106548 0.195901
O O4 0.717306 0.139768 0.042997
O O5 0.500000 0.500000 0.500000
O O6 0.305161 0.553671 0.754516
O O7 0.424881 0.295002 0.517799
O O8 0.767591 0.743571 0.673812
O O9 0.423828 0.172770 0.859581
O O10 0.878975 0.453407 0.750920
O O11 0.857436 0.393417 0.860608
O O12 0.633374 0.011336 0.595496
O O13 0.346221 0.505749 0.334257
O O14 0.930565 0.990059 0.167315
O O15 0.154293 0.620155 0.600335
O O16 0.924773 0.769512 0.895107
O O17 0.500000 0.500000 0.000000
#
# Coordination Sequence:
#
# PCOD9093610 Si02
#       8
#     2   2   2   2   2   2   2   2
#     4   8  14  30  53  76  98 142 182 219 263 313
#     4   9  17  31  52  80 109 140 176 220 270 317
#     4  10  20  33  54  82 110 142 180 221 270 320
#     4   8  18  32  53  82 107 139 185 218 269 328
#     4   9  18  36  59  76 105 143 185 225 269 315
#     4   9  16  28  52  76 101 143 181 214 266 317
#     4   9  18  36  59  80 104 144 187 223 265 318
#     4  10  21  34  53  85 108 142 178 220 277 324
#
# _framework density 23.101825000000002
#
# number of rings (size 3 to 8) (size 9 to 14) (size 15 to 20)
#    0.750    2.250    0.000    2.250    0.000    1.500 
#    0.000    3.125    0.000   12.000    0.000    0.000 
#    0.000    0.000    0.000    0.000    0.000    0.000 
#
# Total GULP energy -89124.148850 kJ/mol
# GULP energy per Si atom -5570.259303 kJ/mol
# Density = 2.304924 g / cm^3
# Si number density = 23.101825 Si / 1000 Ang^3
#
#
#
# Elastic Constant Matrix: (Units=GPa)
#
#
# Indices 1 2 3 4 5 6 
#
# 1 90.5595 28.1176 35.5649 13.8951 5.2755 26.3053
# 2 28.1176 95.1867 31.8129 25.7729 2.2626 24.8026
# 3 35.5649 31.8129 152.0522 17.4964 -25.0097 12.5988
# 4 13.8951 25.7729 17.4964 38.4540 4.4172 1.9860
# 5 5.2755 2.2626 -25.0097 4.4172 38.2022 7.1912
# 6 26.3053 24.8026 12.5988 1.9860 7.1912 37.9476
#
#
#
# Elastic Compliance Matrix: (Units=1/GPa)
#
#
# Indices 1 2 3 4 5 6 
#
# 1 0.015482 -0.000312 -0.002688 -0.003489 -0.001759 -0.009120
# 2 -0.000312 0.016135 -0.001160 -0.009822 0.001285 -0.009674
# 3 -0.002688 -0.001160 0.009097 -0.003119 0.007052 -0.001572
# 4 -0.003489 -0.009822 -0.003119 0.035573 -0.006844 0.009309
# 5 -0.001759 0.001285 0.007052 -0.006844 0.033239 -0.007902
# 6 -0.009120 -0.009674 -0.001572 0.009309 -0.007902 0.040529
#
#
# Mechanical properties :
#
#
# Convention : Reuss Voigt Hill
#
# Bulk Modulus (GPa) = 30.86972 58.75433 44.81203
# Shear Modulus (GPa) = 29.55541 39.07428 34.31485
#
# Velocity S-wave (km/s) = 3.58069 4.11712 3.85824
# Velocity P-wave (km/s) = 5.52146 6.93461 6.26799
#
# Compressibility (1/GPa) = 0.03239420
#
# Stress axis : x y z
#
# Youngs Moduli (GPa) = 64.59145 61.97732 109.92313
#
# Poissons Ratio (x) = 0.01934 0.29549
# Poissons Ratio (y) = 0.02016 0.12748
# Poissons Ratio (z) = 0.17363 0.07188
#
# Static dielectric constant tensor:
#      x y z
#    x 1.957790 -0.028220 0.008670 
#    y -0.028220 1.886490 0.032900 
#    z 0.008670 0.032900 1.892600 
# 
# From -- ./inp_files/619860.got.cif
#   From: 2010.05.17/outbox.cif.g08.bks.cpg/sg2_310_cif.got.tgz:619860.got - 2010.06.03 11:33:40.
