data_PCOD9093336
_publ_section_title
;
Structure prediction by ZEFSAII (Michael W. Deem and Ramdas Pophale) SiO2 
 PCOD9093336
Probable space group: P -1
;
_chemical_formula_sum "Si O2"
_cell_formula_units_Z 16
_cell_length_a 12.843578
_cell_length_b 10.687687
_cell_length_c 8.643879
_cell_angle_alpha 71.662630
_cell_angle_beta 103.653746
_cell_angle_gamma 144.865300
_cell_volume 647.683665
_symmetry_space_group_name_H-M "P -1"
_symmetry_group_IT_number 2
_symmetry_cell_setting 'triclinic'
loop_
_space_group_symop_operation_xyz
x,y,z
-x,-y,-z
loop_
_atom_site_type_symbol
_atom_site_label
_atom_site_fract_x
_atom_site_fract_y
_atom_site_fract_z
Si Si1 0.920920 0.720890 0.186780
Si Si2 0.939688 0.153417 0.314694
Si Si3 0.850582 0.458643 0.522301
Si Si4 0.654448 0.246801 0.029020
Si Si5 0.257878 0.371460 0.131109
Si Si6 0.568401 0.962311 0.697302
Si Si7 0.726669 0.869689 0.647058
Si Si8 0.156226 0.786075 0.028615
O O1 0.822094 0.550142 0.358321
O O2 0.101319 0.952896 0.242823
O O3 0.983922 0.670497 0.106389
O O4 0.808515 0.705508 0.041633
O O5 0.813270 0.957055 0.472694
O O6 0.055535 0.377056 0.363226
O O7 0.083915 0.209734 0.247721
O O8 0.822696 0.107972 0.159441
O O9 0.668085 0.194849 0.588435
O O10 0.000000 0.500000 0.500000
O O11 0.621204 0.200669 0.219746
O O12 0.646792 0.391563 0.922831
O O13 0.824247 0.344562 0.969260
O O14 0.500000 0.000000 0.000000
O O15 0.369002 0.358884 0.241582
O O16 0.606541 0.881346 0.624298
O O17 0.689549 0.036716 0.858473
#
# Coordination Sequence:
#
# PCOD9093336 Si02
#       8
#     2   2   2   2   2   2   2   2
#     4   9  20  34  56  85 108 135 173 220 273 315
#     4  10  20  32  56  84 106 131 176 225 271 312
#     4  11  18  33  57  79 109 137 165 225 284 305
#     4  10  22  35  53  78 105 141 183 220 259 311
#     4  11  22  34  56  80 107 143 180 216 260 319
#     4  10  20  36  53  74 108 146 175 212 262 317
#     4  10  20  36  54  79 112 140 171 221 268 311
#     4   9  18  33  55  79 104 134 174 222 264 309
#
# _framework density 24.703416000000001
#
# number of rings (size 3 to 8) (size 9 to 14) (size 15 to 20)
#    0.000    2.000    3.750    2.250    1.750    2.000 
#    0.000    2.500    0.000    3.000    0.000    0.000 
#    0.000    0.000    0.000    0.000    0.000    0.000 
#
# Total GULP energy -89354.159190 kJ/mol
# GULP energy per Si atom -5584.634949 kJ/mol
# Density = 2.464719 g / cm^3
# Si number density = 24.703416 Si / 1000 Ang^3
#
#
#
# Elastic Constant Matrix: (Units=GPa)
#
#
# Indices 1 2 3 4 5 6 
#
# 1 55.6699 14.3443 35.3141 -23.4569 1.6961 -8.2243
# 2 14.3443 57.7439 13.7946 -18.8242 3.8393 -6.0238
# 3 35.3141 13.7946 178.4011 -29.8905 6.2778 -6.8786
# 4 -23.4569 -18.8242 -29.8905 49.8531 -5.4242 -0.2548
# 5 1.6961 3.8393 6.2778 -5.4242 34.2314 -8.0855
# 6 -8.2243 -6.0238 -6.8786 -0.2548 -8.0855 26.7491
#
#
#
# Elastic Compliance Matrix: (Units=1/GPa)
#
#
# Indices 1 2 3 4 5 6 
#
# 1 0.025572 -0.001798 -0.003078 0.009858 0.002862 0.007625
# 2 -0.001798 0.020439 0.000101 0.006936 -0.000156 0.004095
# 3 -0.003078 0.000101 0.006676 0.002539 -0.000525 0.000659
# 4 0.009858 0.006936 0.002539 0.029369 0.004552 0.006901
# 5 0.002862 -0.000156 -0.000525 0.004552 0.032397 0.010546
# 6 0.007625 0.004095 0.000659 0.006901 0.010546 0.044074
#
#
# Mechanical properties :
#
#
# Convention : Reuss Voigt Hill
#
# Bulk Modulus (GPa) = 23.18211 46.52453 34.85332
# Shear Modulus (GPa) = 27.40383 37.39085 32.39734
#
# Velocity S-wave (km/s) = 3.33425 3.89471 3.62533
# Velocity P-wave (km/s) = 4.92214 6.25293 5.62702
#
# Compressibility (1/GPa) = 0.04313671
#
# Stress axis : x y z
#
# Youngs Moduli (GPa) = 39.10552 48.92589 149.78889
#
# Poissons Ratio (x) = 0.08798 0.46103
# Poissons Ratio (y) = 0.07032 -0.01513
# Poissons Ratio (z) = 0.12036 -0.00494
#
# Static dielectric constant tensor:
#      x y z
#    x 2.065120 0.093020 0.004530 
#    y 0.093020 2.148280 0.016740 
#    z 0.004530 0.016740 1.984580 
# 
# From -- ./inp_files/302883.got.cif
#   From: 2010.05.17/outbox.cif.g08.bks.cpg/sg2_152_cif.got.tgz:302883.got - 2010.06.03 11:33:40.
