data_PCOD9093023
_publ_section_title
;
Structure prediction by ZEFSAII (Michael W. Deem and Ramdas Pophale) SiO2 
 PCOD9093023
Probable space group: P -1
;
_chemical_formula_sum "Si O2"
_cell_formula_units_Z 14
_cell_length_a 7.977093
_cell_length_b 14.303777
_cell_length_c 7.377411
_cell_angle_alpha 74.068359
_cell_angle_beta 80.555420
_cell_angle_gamma 39.315437
_cell_volume 511.245722
_symmetry_space_group_name_H-M "P -1"
_symmetry_group_IT_number 2
_symmetry_cell_setting 'triclinic'
loop_
_space_group_symop_operation_xyz
x,y,z
-x,-y,-z
loop_
_atom_site_type_symbol
_atom_site_label
_atom_site_fract_x
_atom_site_fract_y
_atom_site_fract_z
Si Si1 0.142305 0.060274 0.147730
Si Si2 0.752930 0.728654 0.594941
Si Si3 0.917964 0.698638 0.981138
Si Si4 0.812418 0.510055 0.640196
Si Si5 0.070291 0.149731 0.522820
Si Si6 0.256889 0.810115 0.147460
Si Si7 0.396451 0.524851 0.738773
O O1 0.199300 0.145108 0.025928
O O2 0.138092 0.068265 0.363305
O O3 0.325328 0.891463 0.136582
O O4 0.862530 0.154483 0.050789
O O5 0.607955 0.691231 0.595461
O O6 0.771749 0.727392 0.809139
O O7 0.022875 0.573415 0.530040
O O8 0.725126 0.851563 0.466229
O O9 0.212393 0.596335 0.908799
O O10 0.969922 0.597507 0.179376
O O11 0.642892 0.487985 0.712181
O O12 0.986852 0.114769 0.715332
O O13 0.808106 0.327712 0.431322
O O14 0.491193 0.631650 0.232429
#
# Coordination Sequence:
#
# PCOD9093023 Si02
#       7
#     2   2   2   2   2   2   2
#     4   9  20  30  49  73 102 132 166 194 257 291
#     4   9  20  30  49  73 102 132 166 194 257 291
#     4  10  20  34  50  77 101 129 163 211 247 292
#     4  11  18  32  48  75 105 129 160 210 244 299
#     4  10  20  34  50  77 101 129 163 211 247 292
#     4  11  18  32  48  75 105 129 160 210 244 299
#     4  10  20  30  54  78 104 126 164 208 260 284
#
# _framework density 27.38409
#
# number of rings (size 3 to 8) (size 9 to 14) (size 15 to 20)
#    0.000    2.286    2.857    1.714    4.000    0.000 
#    0.000    0.000    0.000    0.000    0.000   48.000 
#    0.000    0.286    0.000    0.000    0.000    0.000 
#
# Total GULP energy -78179.023844 kJ/mol
# GULP energy per Si atom -5584.215989 kJ/mol
# Density = 2.732176 g / cm^3
# Si number density = 27.384090 Si / 1000 Ang^3
#
#
#
# Elastic Constant Matrix: (Units=GPa)
#
#
# Indices 1 2 3 4 5 6 
#
# 1 53.8735 52.4044 21.0833 10.2643 -6.3504 42.9616
# 2 52.4044 137.0033 24.4644 -11.5350 -2.1185 36.3748
# 3 21.0833 24.4644 111.4659 7.4120 -27.2291 4.2449
# 4 10.2643 -11.5350 7.4120 29.3355 14.7403 3.2302
# 5 -6.3504 -2.1185 -27.2291 14.7403 31.5540 -5.9522
# 6 42.9616 36.3748 4.2449 3.2302 -5.9522 54.4635
#
#
#
# Elastic Compliance Matrix: (Units=1/GPa)
#
#
# Indices 1 2 3 4 5 6 
#
# 1 0.125119 -0.037688 0.004897 -0.078810 0.051698 -0.063582
# 2 -0.037688 0.023368 -0.007870 0.037739 -0.028671 0.009363
# 3 0.004897 -0.007870 0.018056 -0.023974 0.028082 0.004477
# 4 -0.078810 0.037739 -0.023974 0.124371 -0.087995 0.021837
# 5 0.051698 -0.028671 0.028082 -0.087995 0.104149 -0.007219
# 6 -0.063582 0.009363 0.004477 0.021837 -0.007219 0.059829
#
#
# Mechanical properties :
#
#
# Convention : Reuss Voigt Hill
#
# Bulk Modulus (GPa) = 11.73421 55.36079 33.54750
# Shear Modulus (GPa) = 8.85549 36.69663 22.77606
#
# Velocity S-wave (km/s) = 1.80023 3.66467 2.88709
# Velocity P-wave (km/s) = 2.93521 6.17792 4.83643
#
# Compressibility (1/GPa) = 0.08522088
#
# Stress axis : x y z
#
# Youngs Moduli (GPa) = 7.99240 42.79287 55.38291
#
# Poissons Ratio (x) = 1.61276 -0.27120
# Poissons Ratio (y) = 0.30122 0.43588
# Poissons Ratio (z) = -0.03914 0.33679
#
# Static dielectric constant tensor:
#      x y z
#    x 2.549670 0.040900 -0.026550 
#    y 0.040900 2.143240 0.008810 
#    z -0.026550 0.008810 2.148920 
# 
# From -- ./inp_files/200756.got.cif
#   From: 2010.05.17/outbox.cif.g08.bks.cpg/sg2_101_cif.got.tgz:200756.got - 2010.06.03 11:33:40.
