data_PCOD9093510
_publ_section_title
;
Structure prediction by ZEFSAII (Michael W. Deem and Ramdas Pophale) SiO2 
 PCOD9093510
Probable space group: P -1
;
_chemical_formula_sum "Si O2"
_cell_formula_units_Z 14
_cell_length_a 17.401805
_cell_length_b 18.618259
_cell_length_c 11.417922
_cell_angle_alpha 142.902431
_cell_angle_beta 148.265014
_cell_angle_gamma 16.208732
_cell_volume 538.543356
_symmetry_space_group_name_H-M "P -1"
_symmetry_group_IT_number 2
_symmetry_cell_setting 'triclinic'
loop_
_space_group_symop_operation_xyz
x,y,z
-x,-y,-z
loop_
_atom_site_type_symbol
_atom_site_label
_atom_site_fract_x
_atom_site_fract_y
_atom_site_fract_z
Si Si1 0.294237 0.958149 0.306973
Si Si2 0.326127 0.867400 0.741877
Si Si3 0.645785 0.082658 0.403666
Si Si4 0.257094 0.599421 0.178106
Si Si5 0.616471 0.490284 0.026343
Si Si6 0.098222 0.359736 0.798470
Si Si7 0.068685 0.408057 0.341366
O O1 0.553170 0.874473 0.546669
O O2 0.990669 0.221683 0.187677
O O3 0.250427 0.946847 0.370840
O O4 0.443871 0.741547 0.145169
O O5 0.241694 0.921146 0.565096
O O6 0.486731 0.633800 0.699610
O O7 0.033277 0.122175 0.773579
O O8 0.605567 0.765159 0.969249
O O9 0.258561 0.349130 0.241168
O O10 0.803466 0.838348 0.281962
O O11 0.100867 0.588809 0.913805
O O12 0.417921 0.534290 0.182822
O O13 0.500000 0.500000 0.000000
O O14 0.027499 0.416339 0.642522
O O15 0.000000 0.500000 0.500000
#
# Coordination Sequence:
#
# PCOD9093510 Si02
#       7
#     2   2   2   2   2   2   2
#     4  11  23  40  64  94 119 161 203 245 311 358
#     4  11  21  37  57  87 124 162 201 243 290 361
#     4  11  21  36  59  85 126 160 202 244 288 361
#     4  11  24  38  61  92 122 163 199 242 310 358
#     4  12  26  45  65  86 121 161 207 258 301 366
#     4  10  20  33  51  89 124 173 196 223 296 368
#     4  10  20  36  58  93 133 156 189 249 303 366
#
# _framework density 25.996051999999999
#
# number of rings (size 3 to 8) (size 9 to 14) (size 15 to 20)
#    0.000    1.143    1.429    7.286    2.000    1.714 
#    0.000    0.000    0.000    5.143    0.000    0.000 
#    0.000    0.000    0.000    0.000    0.000    0.000 
#
# Total GULP energy -78421.265134 kJ/mol
# GULP energy per Si atom -5601.518938 kJ/mol
# Density = 2.593688 g / cm^3
# Si number density = 25.996052 Si / 1000 Ang^3
#
#
#
# Elastic Constant Matrix: (Units=GPa)
#
#
# Indices 1 2 3 4 5 6 
#
# 1 180.6899 45.4878 22.2879 3.1804 -44.8617 16.3510
# 2 45.4878 179.3347 33.1417 12.4981 -11.9938 10.2171
# 3 22.2879 33.1417 56.1511 6.1214 -6.2160 2.0040
# 4 3.1804 12.4981 6.1214 34.2869 -0.0529 -10.9632
# 5 -44.8617 -11.9938 -6.2160 -0.0529 46.2931 1.1243
# 6 16.3510 10.2171 2.0040 -10.9632 1.1243 26.6806
#
#
#
# Elastic Compliance Matrix: (Units=1/GPa)
#
#
# Indices 1 2 3 4 5 6 
#
# 1 0.008485 -0.000851 -0.001547 -0.002092 0.007937 -0.005952
# 2 -0.000851 0.006786 -0.003193 -0.002785 0.000575 -0.003006
# 3 -0.001547 -0.003193 0.020648 -0.002517 0.000454 -0.000433
# 4 -0.002092 -0.002785 -0.002517 0.036468 -0.003474 0.017669
# 5 0.007937 0.000575 0.000454 -0.003474 0.029688 -0.007797
# 6 -0.005952 -0.003006 -0.000433 0.017669 -0.007797 0.049900
#
#
# Mechanical properties :
#
#
# Convention : Reuss Voigt Hill
#
# Bulk Modulus (GPa) = 40.42395 68.66782 54.54589
# Shear Modulus (GPa) = 29.17101 42.46935 35.82018
#
# Velocity S-wave (km/s) = 3.35346 4.04627 3.71605
# Velocity P-wave (km/s) = 5.52974 6.94995 6.28012
#
# Compressibility (1/GPa) = 0.02473781
#
# Stress axis : x y z
#
# Youngs Moduli (GPa) = 117.84999 147.36694 48.43149
#
# Poissons Ratio (x) = 0.12537 0.07492
# Poissons Ratio (y) = 0.10026 0.15464
# Poissons Ratio (z) = 0.18230 0.47054
#
# Static dielectric constant tensor:
#      x y z
#    x 2.191080 -0.027860 0.010070 
#    y -0.027860 1.976600 -0.012320 
#    z 0.010070 -0.012320 2.052600 
# 
# From -- ./inp_files/454987.got.cif
#   From: 2010.05.17/outbox.cif.g08.bks.cpg/sg2_228_cif.got.tgz:454987.got - 2010.06.03 11:33:40.
