data_PCOD9093418
_publ_section_title
;
Structure prediction by ZEFSAII (Michael W. Deem and Ramdas Pophale) SiO2 
 PCOD9093418
Probable space group: P -1
;
_chemical_formula_sum "Si O2"
_cell_formula_units_Z 14
_cell_length_a 14.306065
_cell_length_b 7.504863
_cell_length_c 8.402386
_cell_angle_alpha 65.232131
_cell_angle_beta 122.847452
_cell_angle_gamma 77.755912
_cell_volume 562.598279
_symmetry_space_group_name_H-M "P -1"
_symmetry_group_IT_number 2
_symmetry_cell_setting 'triclinic'
loop_
_space_group_symop_operation_xyz
x,y,z
-x,-y,-z
loop_
_atom_site_type_symbol
_atom_site_label
_atom_site_fract_x
_atom_site_fract_y
_atom_site_fract_z
Si Si1 0.863466 0.604251 0.734214
Si Si2 0.942181 0.452148 0.279121
Si Si3 0.597246 0.055101 0.477729
Si Si4 0.413482 0.207195 0.972144
Si Si5 0.069998 0.888800 0.779106
Si Si6 0.150973 0.667755 0.442595
Si Si7 0.252454 0.014022 0.066256
O O1 0.725685 0.816184 0.605161
O O2 0.855160 0.400740 0.718615
O O3 0.901350 0.699536 0.576831
O O4 0.000000 0.500000 0.000000
O O5 0.868166 0.384157 0.108980
O O6 0.918031 0.398626 0.454720
O O7 0.878856 0.730090 0.094008
O O8 0.659232 0.133259 0.642153
O O9 0.500000 0.000000 0.500000
O O10 0.506786 0.217625 0.186271
O O11 0.332660 0.106887 0.016358
O O12 0.307964 0.473909 0.706260
O O13 0.500000 0.000000 0.000000
O O14 0.000000 0.000000 0.500000
O O15 0.940025 0.046070 0.718947
O O16 0.191403 0.903304 0.945232
#
# Coordination Sequence:
#
# PCOD9093418 Si02
#       7
#     2   2   2   2   2   2   2
#     4  12  20  34  62  91 117 155 197 253 299 352
#     4  10  21  35  63  90 119 154 192 250 312 347
#     4  10  21  37  58  89 120 162 203 239 304 364
#     4  10  20  32  62  88 109 170 208 235 295 364
#     4  10  21  34  60  94 119 154 195 254 310 352
#     4  10  20  35  55  89 123 144 203 243 291 354
#     4  10  20  39  59  87 126 151 203 254 298 358
#
# _framework density 24.884540000000001
#
# number of rings (size 3 to 8) (size 9 to 14) (size 15 to 20)
#    0.000    1.714    4.286    0.429    6.000    0.000 
#    0.000    2.857    0.000   36.857    0.000    0.000 
#    0.000    0.000    0.000    0.000    0.000    0.000 
#
# Total GULP energy -78083.402923 kJ/mol
# GULP energy per Si atom -5577.385923 kJ/mol
# Density = 2.482790 g / cm^3
# Si number density = 24.884540 Si / 1000 Ang^3
#
#
#
# Elastic Constant Matrix: (Units=GPa)
#
#
# Indices 1 2 3 4 5 6 
#
# 1 68.4059 23.4298 17.1668 -4.2223 10.9569 -22.0786
# 2 23.4298 91.2224 52.9702 41.5194 14.2680 -5.6759
# 3 17.1668 52.9702 204.1095 30.3187 19.5449 4.2034
# 4 -4.2223 41.5194 30.3187 49.6992 5.1782 9.1714
# 5 10.9569 14.2680 19.5449 5.1782 27.7308 -3.7090
# 6 -22.0786 -5.6759 4.2034 9.1714 -3.7090 50.2038
#
#
#
# Elastic Compliance Matrix: (Units=1/GPa)
#
#
# Indices 1 2 3 4 5 6 
#
# 1 0.020526 -0.007111 -0.000681 0.007345 -0.004459 0.006609
# 2 -0.007111 0.023600 -0.002410 -0.019008 -0.003691 0.002942
# 3 -0.000681 -0.002410 0.006046 -0.001263 -0.002655 -0.001044
# 4 0.007345 -0.019008 -0.001263 0.038498 -0.000204 -0.005861
# 5 -0.004459 -0.003691 -0.002655 -0.000204 0.041761 0.000967
# 6 0.006609 0.002942 -0.001044 -0.005861 0.000967 0.024387
#
#
# Mechanical properties :
#
#
# Convention : Reuss Voigt Hill
#
# Bulk Modulus (GPa) = 33.59418 61.20793 47.40106
# Shear Modulus (GPa) = 27.00608 43.53815 35.27212
#
# Velocity S-wave (km/s) = 3.29790 4.18737 3.76896
# Velocity P-wave (km/s) = 5.29441 6.93029 6.16684
#
# Compressibility (1/GPa) = 0.02976706
#
# Stress axis : x y z
#
# Youngs Moduli (GPa) = 48.71969 42.37322 165.41225
#
# Poissons Ratio (x) = 0.30130 0.11266
# Poissons Ratio (y) = 0.34643 0.39868
# Poissons Ratio (z) = 0.03318 0.10213
#
# Static dielectric constant tensor:
#      x y z
#    x 2.209530 0.078030 -0.109070 
#    y 0.078030 2.128360 -0.045630 
#    z -0.109070 -0.045630 2.141590 
# 
# From -- ./inp_files/327622.got.cif
#   From: 2010.05.17/outbox.cif.g08.bks.cpg/sg2_164_cif.got.tgz:327622.got - 2010.06.03 11:33:40.
