data_PCOD9093713
_publ_section_title
;
Structure prediction by ZEFSAII (Michael W. Deem and Ramdas Pophale) SiO2 
 PCOD9093713
Probable space group: P -1
;
_chemical_formula_sum "Si O2"
_cell_formula_units_Z 14
_cell_length_a 15.932793
_cell_length_b 16.474481
_cell_length_c 12.788905
_cell_angle_alpha 154.724932
_cell_angle_beta 40.415134
_cell_angle_gamma 142.795612
_cell_volume 855.572553
_symmetry_space_group_name_H-M "P -1"
_symmetry_group_IT_number 2
_symmetry_cell_setting 'triclinic'
loop_
_space_group_symop_operation_xyz
x,y,z
-x,-y,-z
loop_
_atom_site_type_symbol
_atom_site_label
_atom_site_fract_x
_atom_site_fract_y
_atom_site_fract_z
Si Si1 0.845960 0.350073 0.930362
Si Si2 0.154033 0.077882 0.497613
Si Si3 0.836664 0.925926 0.104502
Si Si4 0.080485 0.234008 0.962696
Si Si5 0.333400 0.401448 0.537556
Si Si6 0.080506 0.655707 0.384357
Si Si7 0.170180 0.196356 0.248749
O O1 0.853195 0.351844 0.799974
O O2 0.818323 0.122474 0.730791
O O3 0.734156 0.433953 0.178110
O O4 0.000000 0.500000 0.000000
O O5 0.265840 0.221520 0.477393
O O6 0.146773 0.197319 0.749233
O O7 0.000000 0.000000 0.500000
O O8 0.825825 0.779600 0.043203
O O9 0.825805 0.135582 0.399223
O O10 0.760589 0.824155 0.951337
O O11 0.000000 0.000000 0.000000
O O12 0.933972 0.033569 0.882090
O O13 0.059932 0.447754 0.223329
O O14 0.500000 0.500000 0.500000
O O15 0.277324 0.307388 0.367587
O O16 0.934001 0.682965 0.531425
#
# Coordination Sequence:
#
# PCOD9093713 Si02
#       7
#     2   2   2   2   2   2   2
#     4  12  19  34  60  85 109 145 190 233 272 330
#     4  12  19  34  60  85 109 145 190 233 272 330
#     4   8  18  30  46  82 117 137 171 237 280 315
#     4  10  16  29  55  87 104 136 189 231 268 324
#     4  12  26  38  54  86 120 148 183 234 289 331
#     4  10  16  29  55  87 104 136 189 231 268 324
#     4  10  20  34  50  78 119 145 173 230 283 325
#
# _framework density 16.363310999999999
#
# number of rings (size 3 to 8) (size 9 to 14) (size 15 to 20)
#    0.000    1.714    8.571    0.000    0.000    5.714 
#    0.000    0.000    0.000    1.714    0.000    0.000 
#    0.000    0.000    0.000    0.000    0.000    0.000 
#
# Total GULP energy -78032.967083 kJ/mol
# GULP energy per Si atom -5573.783363 kJ/mol
# Density = 1.632607 g / cm^3
# Si number density = 16.363311 Si / 1000 Ang^3
#
#
#
# Elastic Constant Matrix: (Units=GPa)
#
#
# Indices 1 2 3 4 5 6 
#
# 1 98.9899 57.0840 74.8769 -0.7636 21.4268 -13.9333
# 2 57.0840 86.5666 52.9015 10.5154 -4.4458 -9.9712
# 3 74.8769 52.9015 119.0471 13.8340 3.4209 -17.8596
# 4 -0.7636 10.5154 13.8340 33.1522 -18.3692 -10.3431
# 5 21.4268 -4.4458 3.4209 -18.3692 38.9373 -5.0779
# 6 -13.9333 -9.9712 -17.8596 -10.3431 -5.0779 25.8902
#
#
#
# Elastic Compliance Matrix: (Units=1/GPa)
#
#
# Indices 1 2 3 4 5 6 
#
# 1 0.032510 -0.014056 -0.013885 0.000825 -0.017976 -0.000691
# 2 -0.014056 0.022256 -0.000959 -0.000560 0.010377 0.002157
# 3 -0.013885 -0.000959 0.018516 -0.003800 0.004677 0.004330
# 4 0.000825 -0.000560 -0.003800 0.056716 0.029982 0.026146
# 5 -0.017976 0.010377 0.004677 0.029982 0.053093 0.019940
# 6 -0.000691 0.002157 0.004330 0.026146 0.019940 0.056426
#
#
# Mechanical properties :
#
#
# Convention : Reuss Voigt Hill
#
# Bulk Modulus (GPa) = 64.58634 74.92538 69.75586
# Shear Modulus (GPa) = 16.53008 27.57867 22.05437
#
# Velocity S-wave (km/s) = 3.18180 4.10981 3.67521
# Velocity P-wave (km/s) = 7.28384 8.27096 7.79305
#
# Compressibility (1/GPa) = 0.01548315
#
# Stress axis : x y z
#
# Youngs Moduli (GPa) = 30.75934 44.93178 54.00689
#
# Poissons Ratio (x) = 0.63156 0.74989
# Poissons Ratio (y) = 0.43235 0.05178
# Poissons Ratio (z) = 0.42709 0.04308
#
# Static dielectric constant tensor:
#      x y z
#    x 1.577600 -0.029370 0.033050 
#    y -0.029370 1.531260 0.007690 
#    z 0.033050 0.007690 1.573570 
# 
# From -- ./inp_files/253364.got.cif
#   From: 2010.05.17/outbox.cif.g08.bks.cpg/sg2_127_cif.got.tgz:253364.got - 2010.06.03 11:33:40.
