data_PCOD9093436
_publ_section_title
;
Structure prediction by ZEFSAII (Michael W. Deem and Ramdas Pophale) SiO2 
 PCOD9093436
Probable space group: P -1
;
_chemical_formula_sum "Si O2"
_cell_formula_units_Z 14
_cell_length_a 19.665536
_cell_length_b 15.615866
_cell_length_c 11.402292
_cell_angle_alpha 148.266424
_cell_angle_beta 26.631459
_cell_angle_gamma 161.244030
_cell_volume 504.480086
_symmetry_space_group_name_H-M "P -1"
_symmetry_group_IT_number 2
_symmetry_cell_setting 'triclinic'
loop_
_space_group_symop_operation_xyz
x,y,z
-x,-y,-z
loop_
_atom_site_type_symbol
_atom_site_label
_atom_site_fract_x
_atom_site_fract_y
_atom_site_fract_z
Si Si1 0.324449 0.930414 0.020447
Si Si2 0.136429 0.249836 0.718197
Si Si3 0.060160 0.626192 0.718721
Si Si4 0.815656 0.649126 0.491415
Si Si5 0.767363 0.565178 0.732316
Si Si6 0.681781 0.488683 0.017624
Si Si7 0.306202 0.971415 0.361296
O O1 0.263011 0.656780 0.452034
O O2 0.464694 0.173927 0.003490
O O3 0.454630 0.861877 0.732724
O O4 0.378719 0.046625 0.203066
O O5 0.284347 0.411013 0.557394
O O6 0.934681 0.222556 0.021844
O O7 0.291595 0.388654 0.760896
O O8 0.984969 0.956239 0.601082
O O9 0.954772 0.624474 0.761076
O O10 0.828182 0.319349 0.759111
O O11 0.029952 0.694058 0.198718
O O12 0.693310 0.527330 0.667691
O O13 0.649889 0.543063 0.003832
O O14 0.060167 0.867680 0.642194
#
# Coordination Sequence:
#
# PCOD9093436 Si02
#       7
#     2   2   2   2   2   2   2
#     4   9  15  27  49  71  95 118 157 192 240 260
#     4   9  20  33  46  68 100 126 160 186 238 274
#     4   7  15  29  48  71  89 122 151 194 221 281
#     4  10  20  33  47  70  96 131 152 198 227 283
#     4   9  16  30  53  72  91 123 161 188 235 277
#     4   9  17  30  52  72  94 122 154 199 230 281
#     4   7  14  27  45  75  92 118 146 202 224 277
#
# _framework density 27.751342000000001
#
# number of rings (size 3 to 8) (size 9 to 14) (size 15 to 20)
#    1.714    1.714    0.000    0.429    0.000    1.714 
#    0.000    0.000    0.000   10.286    0.000    0.000 
#    0.000    0.000    0.000    0.000    0.000    0.000 
#
# Total GULP energy -77951.591663 kJ/mol
# GULP energy per Si atom -5567.970833 kJ/mol
# Density = 2.768818 g / cm^3
# Si number density = 27.751342 Si / 1000 Ang^3
#
#
#
# Elastic Constant Matrix: (Units=GPa)
#
#
# Indices 1 2 3 4 5 6 
#
# 1 169.6928 36.0434 73.7656 11.0249 57.0717 10.4127
# 2 36.0434 48.9282 22.5893 2.7376 15.6778 9.0818
# 3 73.7656 22.5893 138.1232 -3.8000 49.4348 -2.7622
# 4 11.0249 2.7376 -3.8000 33.4276 -14.8428 7.3983
# 5 57.0717 15.6778 49.4348 -14.8428 64.9515 -2.1750
# 6 10.4127 9.0818 -2.7622 7.3983 -2.1750 45.0634
#
#
#
# Elastic Compliance Matrix: (Units=1/GPa)
#
#
# Indices 1 2 3 4 5 6 
#
# 1 0.011293 -0.003690 -0.002480 -0.007369 -0.008869 -0.001236
# 2 -0.003690 0.025393 -0.001551 -0.001013 -0.002082 -0.004294
# 3 -0.002480 -0.001551 0.010934 -0.000735 -0.005889 0.001392
# 4 -0.007369 -0.001013 -0.000735 0.040514 0.016403 -0.003998
# 5 -0.008869 -0.002082 -0.005889 0.016403 0.031955 0.000957
# 6 -0.001236 -0.004294 0.001392 -0.003998 0.000957 0.024130
#
#
# Mechanical properties :
#
#
# Convention : Reuss Voigt Hill
#
# Bulk Modulus (GPa) = 31.07824 69.06010 50.06917
# Shear Modulus (GPa) = 29.34517 43.64490 36.49503
#
# Velocity S-wave (km/s) = 3.25535 3.97005 3.63033
# Velocity P-wave (km/s) = 5.03516 6.77897 5.97106
#
# Compressibility (1/GPa) = 0.03217686
#
# Stress axis : x y z
#
# Youngs Moduli (GPa) = 88.55339 39.38062 91.46120
#
# Poissons Ratio (x) = 0.14531 0.22687
# Poissons Ratio (y) = 0.32675 0.14185
# Poissons Ratio (z) = 0.21966 0.06108
#
# Static dielectric constant tensor:
#      x y z
#    x 2.352030 0.112630 -0.140390 
#    y 0.112630 2.124970 0.014150 
#    z -0.140390 0.014150 2.278690 
# 
# From -- ./inp_files/348915.got.cif
#   From: 2010.05.17/outbox.cif.g08.bks.cpg/sg2_175_cif.got.tgz:348915.got - 2010.06.03 11:33:40.
