data_PCOD9093597
_publ_section_title
;
Structure prediction by ZEFSAII (Michael W. Deem and Ramdas Pophale) SiO2 
 PCOD9093597
Probable space group: P -1
;
_chemical_formula_sum "Si O2"
_cell_formula_units_Z 16
_cell_length_a 7.811067
_cell_length_b 11.476298
_cell_length_c 13.101337
_cell_angle_alpha 127.775395
_cell_angle_beta 131.565602
_cell_angle_gamma 74.497013
_cell_volume 675.049132
_symmetry_space_group_name_H-M "P -1"
_symmetry_group_IT_number 2
_symmetry_cell_setting 'triclinic'
loop_
_space_group_symop_operation_xyz
x,y,z
-x,-y,-z
loop_
_atom_site_type_symbol
_atom_site_label
_atom_site_fract_x
_atom_site_fract_y
_atom_site_fract_z
Si Si1 0.778073 0.612823 0.573891
Si Si2 0.896445 0.097211 0.596220
Si Si3 0.243016 0.808115 0.781216
Si Si4 0.864743 0.327805 0.545851
Si Si5 0.587895 0.573117 0.256029
Si Si6 0.540912 0.146917 0.727680
Si Si7 0.614829 0.768532 0.063550
Si Si8 0.890885 0.950617 0.820819
O O1 0.772046 0.480863 0.582208
O O2 0.625513 0.558239 0.383991
O O3 0.738674 0.775943 0.678822
O O4 0.053370 0.658701 0.669580
O O5 0.824164 0.235095 0.583511
O O6 0.106385 0.169980 0.792932
O O7 0.669653 0.974192 0.475311
O O8 0.000000 0.000000 0.500000
O O9 0.258513 0.780969 0.653479
O O10 0.097892 0.931191 0.816901
O O11 0.475382 0.828485 0.950075
O O12 0.148080 0.365541 0.654604
O O13 0.438691 0.697147 0.240313
O O14 0.462883 0.412912 0.073017
O O15 0.470518 0.181543 0.834472
O O16 0.753152 0.067861 0.786153
O O17 0.000000 0.000000 0.000000
#
# Coordination Sequence:
#
# PCOD9093597 Si02
#       8
#     2   2   2   2   2   2   2   2
#     4   9  19  32  56  84 106 139 185 240 278 303
#     4  10  23  34  52  83 122 152 167 220 292 341
#     4   9  18  32  58  85 104 135 186 243 269 306
#     4  11  17  36  58  82 113 138 192 231 282 312
#     4  11  18  32  59  84 107 136 192 242 269 313
#     4  11  22  36  51  82 125 149 171 218 293 342
#     4  11  18  33  58  87 106 136 193 236 269 311
#     4  10  20  33  54  80 114 146 182 229 274 334
#
# _framework density 23.701976999999999
#
# number of rings (size 3 to 8) (size 9 to 14) (size 15 to 20)
#    0.750    1.000    6.250    1.125    0.000    0.500 
#    0.000    3.125    2.750    0.750    0.000    0.000 
#    0.000    1.000    0.000    0.000    0.000    0.000 
#
# Total GULP energy -89516.379974 kJ/mol
# GULP energy per Si atom -5594.773748 kJ/mol
# Density = 2.364803 g / cm^3
# Si number density = 23.701977 Si / 1000 Ang^3
#
#
#
# Elastic Constant Matrix: (Units=GPa)
#
#
# Indices 1 2 3 4 5 6 
#
# 1 48.1438 43.7070 38.6164 7.0171 -3.4394 -10.2399
# 2 43.7070 210.0751 66.8176 -8.8194 4.2769 -30.2675
# 3 38.6164 66.8176 187.4287 -7.4282 -2.5163 -14.1850
# 4 7.0171 -8.8194 -7.4282 37.4618 -4.9349 5.2094
# 5 -3.4394 4.2769 -2.5163 -4.9349 18.4210 -5.5810
# 6 -10.2399 -30.2675 -14.1850 5.2094 -5.5810 25.9103
#
#
#
# Elastic Compliance Matrix: (Units=1/GPa)
#
#
# Indices 1 2 3 4 5 6 
#
# 1 0.031898 -0.004516 -0.004602 -0.008180 0.006569 0.007871
# 2 -0.004516 0.006867 -0.001073 0.001442 -0.000614 0.005228
# 3 -0.004602 -0.001073 0.006794 0.002025 0.000998 0.000455
# 4 -0.008180 0.001442 0.002025 0.030375 0.004887 -0.005494
# 5 0.006569 -0.000614 0.000998 0.004887 0.061555 0.014701
# 6 0.007871 0.005228 0.000455 -0.005494 0.014701 0.052332
#
#
# Mechanical properties :
#
#
# Convention : Reuss Voigt Hill
#
# Bulk Modulus (GPa) = 39.71929 82.65885 61.18907
# Shear Modulus (GPa) = 22.87318 36.12572 29.49945
#
# Velocity S-wave (km/s) = 3.10987 3.90829 3.53171
# Velocity P-wave (km/s) = 5.44878 7.43749 6.51941
#
# Compressibility (1/GPa) = 0.02517669
#
# Stress axis : x y z
#
# Youngs Moduli (GPa) = 31.34999 145.61694 147.18191
#
# Poissons Ratio (x) = 0.65756 0.67740
# Poissons Ratio (y) = 0.14157 0.15796
# Poissons Ratio (z) = 0.14429 0.15628
#
# Static dielectric constant tensor:
#      x y z
#    x 1.945230 0.002680 0.012980 
#    y 0.002680 1.911190 0.014560 
#    z 0.012980 0.014560 1.834950 
# 
# From -- ./inp_files/568839.got.cif
#   From: 2010.05.17/outbox.cif.g08.bks.cpg/sg2_285_cif.got.tgz:568839.got - 2010.06.03 11:33:40.
