data_PCOD9093549
_publ_section_title
;
Structure prediction by ZEFSAII (Michael W. Deem and Ramdas Pophale) SiO2 
 PCOD9093549
Probable space group: P -1
;
_chemical_formula_sum "Si O2"
_cell_formula_units_Z 16
_cell_length_a 16.253045
_cell_length_b 12.642636
_cell_length_c 8.890773
_cell_angle_alpha 32.998467
_cell_angle_beta 127.636441
_cell_angle_gamma 137.061733
_cell_volume 677.744708
_symmetry_space_group_name_H-M "P -1"
_symmetry_group_IT_number 2
_symmetry_cell_setting 'triclinic'
loop_
_space_group_symop_operation_xyz
x,y,z
-x,-y,-z
loop_
_atom_site_type_symbol
_atom_site_label
_atom_site_fract_x
_atom_site_fract_y
_atom_site_fract_z
Si Si1 0.913489 0.047056 0.659861
Si Si2 0.620146 0.496982 0.486661
Si Si3 0.752384 0.145188 0.797073
Si Si4 0.751335 0.456108 0.928652
Si Si5 0.115556 0.579076 0.639355
Si Si6 0.877646 0.268410 0.100169
Si Si7 0.187947 0.215836 0.853309
Si Si8 0.505417 0.799517 0.047698
O O1 0.885512 0.228702 0.489754
O O2 0.882618 0.065084 0.431276
O O3 0.056185 0.142836 0.725681
O O4 0.838330 0.830907 0.942148
O O5 0.703921 0.548897 0.372775
O O6 0.544587 0.622106 0.247112
O O7 0.527313 0.253875 0.747000
O O8 0.717024 0.603076 0.607845
O O9 0.780431 0.323554 0.485384
O O10 0.848960 0.239764 0.927072
O O11 0.773781 0.957892 0.962502
O O12 0.619719 0.033425 0.852007
O O13 0.859435 0.564760 0.038950
O O14 0.777270 0.308989 0.015409
O O15 0.624253 0.278591 0.076042
O O16 0.000000 0.500000 0.500000
O O17 0.000000 0.500000 0.000000
#
# Coordination Sequence:
#
# PCOD9093549 Si02
#       8
#     2   2   2   2   2   2   2   2
#     4   9  19  33  50  76 104 140 173 212 270 312
#     4   8  15  32  55  77  97 136 176 212 266 302
#     4  10  20  33  53  79 102 134 181 221 256 314
#     4   9  18  33  54  74 105 144 168 215 263 313
#     4  10  20  34  51  78 111 140 176 215 258 320
#     4  11  21  33  51  76 109 141 172 215 268 319
#     4   9  17  33  55  73 102 139 174 222 263 307
#     4   8  17  33  54  79  99 136 177 224 253 310
#
# _framework density 23.607710000000001
#
# number of rings (size 3 to 8) (size 9 to 14) (size 15 to 20)
#    0.750    2.000    0.000    2.250    0.000    1.500 
#    0.000    6.250    0.000    0.750    0.000    0.000 
#    0.000    0.000    0.000    0.000    0.000    0.000 
#
# Total GULP energy -89138.402143 kJ/mol
# GULP energy per Si atom -5571.150134 kJ/mol
# Density = 2.355398 g / cm^3
# Si number density = 23.607710 Si / 1000 Ang^3
#
#
#
# Elastic Constant Matrix: (Units=GPa)
#
#
# Indices 1 2 3 4 5 6 
#
# 1 121.5817 16.1193 26.4980 -10.5562 -14.7374 31.8775
# 2 16.1193 43.5039 14.5214 -0.4644 -3.0202 10.6505
# 3 26.4980 14.5214 88.0545 8.7379 -15.2462 7.6207
# 4 -10.5562 -0.4644 8.7379 34.3837 11.0100 -7.1442
# 5 -14.7374 -3.0202 -15.2462 11.0100 36.1102 -5.1470
# 6 31.8775 10.6505 7.6207 -7.1442 -5.1470 42.2843
#
#
#
# Elastic Compliance Matrix: (Units=1/GPa)
#
#
# Indices 1 2 3 4 5 6 
#
# 1 0.011189 -0.001466 -0.002392 0.001968 0.001825 -0.007080
# 2 -0.001466 0.025844 -0.003502 -0.000027 -0.000598 -0.004850
# 3 -0.002392 -0.003502 0.014534 -0.006728 0.006886 -0.000233
# 4 0.001968 -0.000027 -0.006728 0.036299 -0.012488 0.004349
# 5 0.001825 -0.000598 0.006886 -0.012488 0.035059 -0.000308
# 6 -0.007080 -0.004850 -0.000233 0.004349 -0.000308 0.030948
#
#
# Mechanical properties :
#
#
# Convention : Reuss Voigt Hill
#
# Bulk Modulus (GPa) = 27.13921 40.82417 33.98169
# Shear Modulus (GPa) = 27.64327 35.62241 31.63284
#
# Velocity S-wave (km/s) = 3.42562 3.88871 3.66449
# Velocity P-wave (km/s) = 5.21223 6.12316 5.68596
#
# Compressibility (1/GPa) = 0.03684706
#
# Stress axis : x y z
#
# Youngs Moduli (GPa) = 89.37328 38.69318 68.80461
#
# Poissons Ratio (x) = 0.05674 0.16457
# Poissons Ratio (y) = 0.13106 0.24095
# Poissons Ratio (z) = 0.21376 0.13550
#
# Static dielectric constant tensor:
#      x y z
#    x 1.897080 0.010850 -0.015770 
#    y 0.010850 1.955220 -0.059570 
#    z -0.015770 -0.059570 2.023620 
# 
# From -- ./inp_files/334668.got.cif
#   From: 2010.05.17/outbox.cif.g08.bks.cpg/sg2_168_cif.got.tgz:334668.got - 2010.06.03 11:33:40.
