data_PCOD9093576
_publ_section_title
;
Structure prediction by ZEFSAII (Michael W. Deem and Ramdas Pophale) SiO2 
 PCOD9093576
Probable space group: P -1
;
_chemical_formula_sum "Si O2"
_cell_formula_units_Z 16
_cell_length_a 7.998483
_cell_length_b 18.517204
_cell_length_c 15.023356
_cell_angle_alpha 152.715832
_cell_angle_beta 93.181443
_cell_angle_gamma 67.045954
_cell_volume 680.137655
_symmetry_space_group_name_H-M "P -1"
_symmetry_group_IT_number 2
_symmetry_cell_setting 'triclinic'
loop_
_space_group_symop_operation_xyz
x,y,z
-x,-y,-z
loop_
_atom_site_type_symbol
_atom_site_label
_atom_site_fract_x
_atom_site_fract_y
_atom_site_fract_z
Si Si1 0.664889 0.890046 0.177147
Si Si2 0.546191 0.713530 0.521657
Si Si3 0.989445 0.413293 0.580242
Si Si4 0.894391 0.827610 0.292633
Si Si5 0.623276 0.304218 0.859596
Si Si6 0.626365 0.431364 0.523202
Si Si7 0.097527 0.186568 0.521927
Si Si8 0.705200 0.272370 0.007714
O O1 0.603904 0.102757 0.363089
O O2 0.393167 0.016336 0.334653
O O3 0.823544 0.776478 0.149163
O O4 0.798183 0.693016 0.889492
O O5 0.368516 0.741459 0.614967
O O6 0.731486 0.715476 0.570178
O O7 0.736685 0.438986 0.196082
O O8 0.881719 0.352084 0.446720
O O9 0.988429 0.343498 0.603677
O O10 0.973834 0.714093 0.269945
O O11 0.107570 0.799029 0.235348
O O12 0.653892 0.106347 0.610756
O O13 0.512174 0.388815 0.046908
O O14 0.500000 0.500000 0.000000
O O15 0.500000 0.500000 0.500000
O O16 0.431985 0.666095 0.836552
O O17 0.085399 0.005027 0.309921
#
# Coordination Sequence:
#
# PCOD9093576 Si02
#       8
#     2   2   2   2   2   2   2   2
#     4  11  20  39  58  91 129 165 206 256 310 364
#     4   9  22  39  65  93 121 161 205 256 312 381
#     4  11  23  39  68  89 126 172 199 258 324 363
#     4  10  22  31  55  88 122 168 214 246 295 363
#     4  10  20  33  53  86 122 163 211 253 301 363
#     4  10  23  44  68  94 120 158 212 264 320 378
#     4  10  22  38  59  91 128 168 214 252 300 368
#     4   9  19  41  61  84 128 159 202 264 303 359
#
# _framework density 23.524650999999999
#
# number of rings (size 3 to 8) (size 9 to 14) (size 15 to 20)
#    0.750    1.250    1.250    1.875    1.750    5.000 
#    0.000    1.250    0.000    0.000    0.000    0.000 
#    0.000    0.000    0.000    0.000    0.000    0.000 
#
# Total GULP energy -89177.553571 kJ/mol
# GULP energy per Si atom -5573.597098 kJ/mol
# Density = 2.347111 g / cm^3
# Si number density = 23.524651 Si / 1000 Ang^3
#
#
#
# Elastic Constant Matrix: (Units=GPa)
#
#
# Indices 1 2 3 4 5 6 
#
# 1 75.9281 9.1061 9.3420 9.8968 19.5460 -13.7931
# 2 9.1061 93.7708 18.6052 -5.6881 28.2128 -11.7437
# 3 9.3420 18.6052 32.0774 9.0467 16.7692 1.3607
# 4 9.8968 -5.6881 9.0467 23.3056 8.6371 7.4843
# 5 19.5460 28.2128 16.7692 8.6371 26.6482 0.8900
# 6 -13.7931 -11.7437 1.3607 7.4843 0.8900 32.4763
#
#
#
# Elastic Compliance Matrix: (Units=1/GPa)
#
#
# Indices 1 2 3 4 5 6 
#
# 1 0.020389 0.004949 0.002946 -0.004684 -0.020930 0.011978
# 2 0.004949 0.020899 -0.002442 0.011956 -0.028354 0.007783
# 3 0.002946 -0.002442 0.048821 -0.011472 -0.026636 0.001696
# 4 -0.004684 0.011956 -0.011472 0.064239 -0.022444 -0.011374
# 5 -0.020930 -0.028354 -0.026636 -0.022444 0.107461 -0.015799
# 6 0.011978 0.007783 0.001696 -0.011374 -0.015799 0.041677
#
#
# Mechanical properties :
#
#
# Convention : Reuss Voigt Hill
#
# Bulk Modulus (GPa) = 9.89949 30.65366 20.27658
# Shear Modulus (GPa) = 15.32558 27.46755 21.39657
#
# Velocity S-wave (km/s) = 2.55516 3.42073 3.01913
# Velocity P-wave (km/s) = 3.59477 5.35356 4.55977
#
# Compressibility (1/GPa) = 0.10101525
#
# Stress axis : x y z
#
# Youngs Moduli (GPa) = 49.04629 47.84857 20.48294
#
# Poissons Ratio (x) = -0.23679 -0.06035
# Poissons Ratio (y) = -0.24272 0.05002
# Poissons Ratio (z) = -0.14451 0.11685
#
# Static dielectric constant tensor:
#      x y z
#    x 2.013570 0.005650 -0.036790 
#    y 0.005650 1.893400 0.004750 
#    z -0.036790 0.004750 1.951560 
# 
# From -- ./inp_files/507346.got.cif
#   From: 2010.05.17/outbox.cif.g08.bks.cpg/sg2_254_cif.got.tgz:507346.got - 2010.06.03 11:33:40.
