data_PCOD9093752
_publ_section_title
;
Structure prediction by ZEFSAII (Michael W. Deem and Ramdas Pophale) SiO2 
 PCOD9093752
Probable space group: P -1
;
_chemical_formula_sum "Si O2"
_cell_formula_units_Z 16
_cell_length_a 13.530045
_cell_length_b 11.104470
_cell_length_c 10.248042
_cell_angle_alpha 54.327756
_cell_angle_beta 65.592931
_cell_angle_gamma 108.786093
_cell_volume 738.872745
_symmetry_space_group_name_H-M "P -1"
_symmetry_group_IT_number 2
_symmetry_cell_setting 'triclinic'
loop_
_space_group_symop_operation_xyz
x,y,z
-x,-y,-z
loop_
_atom_site_type_symbol
_atom_site_label
_atom_site_fract_x
_atom_site_fract_y
_atom_site_fract_z
Si Si1 0.766059 0.213353 0.763055
Si Si2 0.271076 0.821547 0.480241
Si Si3 0.468875 0.752796 0.096450
Si Si4 0.340757 0.363925 0.265979
Si Si5 0.087513 0.834387 0.769924
Si Si6 0.849507 0.271287 0.961308
Si Si7 0.790245 0.547521 0.920532
Si Si8 0.481447 0.839879 0.514415
O O1 0.830269 0.280622 0.536064
O O2 0.679501 0.283273 0.785209
O O3 0.875865 0.290383 0.779383
O O4 0.608556 0.934969 0.013491
O O5 0.168083 0.781678 0.678932
O O6 0.356005 0.758755 0.518861
O O7 0.429415 0.092439 0.187939
O O8 0.405399 0.522646 0.255617
O O9 0.222995 0.354288 0.253805
O O10 0.229469 0.107192 0.524378
O O11 0.500000 0.500000 0.000000
O O12 0.039473 0.712772 0.011777
O O13 0.935595 0.731571 0.828761
O O14 0.664373 0.005761 0.253977
O O15 0.822992 0.414169 0.933302
O O16 0.616933 0.376430 0.204656
O O17 0.500000 0.000000 0.500000
#
# Coordination Sequence:
#
# PCOD9093752 Si02
#       8
#     2   2   2   2   2   2   2   2
#     4   9  17  32  59  87 114 141 189 250 274 328
#     4  10  17  32  56  86 116 139 191 231 290 322
#     4   9  16  32  57  85 111 140 189 242 278 320
#     4  12  21  37  59  87 111 153 190 238 286 341
#     4  12  24  35  55  88 123 150 184 235 287 349
#     4  11  19  36  60  88 112 148 195 238 285 325
#     4  11  23  36  55  83 126 147 187 233 291 335
#     4  10  16  29  56  83 108 140 190 242 270 320
#
# _framework density 21.654608
#
# number of rings (size 3 to 8) (size 9 to 14) (size 15 to 20)
#    0.750    0.750    6.250    2.250    0.000    0.000 
#    0.000    1.250    0.000    1.500    0.000    7.875 
#    0.000    0.000    0.000    0.000    0.000    0.000 
#
# Total GULP energy -89286.859555 kJ/mol
# GULP energy per Si atom -5580.428722 kJ/mol
# Density = 2.160532 g / cm^3
# Si number density = 21.654608 Si / 1000 Ang^3
#
#
#
# Elastic Constant Matrix: (Units=GPa)
#
#
# Indices 1 2 3 4 5 6 
#
# 1 81.4459 29.8184 15.3314 -10.4171 14.4604 23.8034
# 2 29.8184 108.2121 29.9424 -14.9986 14.7578 20.4012
# 3 15.3314 29.9424 77.4947 -3.5124 16.7529 3.5075
# 4 -10.4171 -14.9986 -3.5124 35.8521 3.5159 3.1979
# 5 14.4604 14.7578 16.7529 3.5159 33.3988 7.5332
# 6 23.8034 20.4012 3.5075 3.1979 7.5332 31.2958
#
#
#
# Elastic Compliance Matrix: (Units=1/GPa)
#
#
# Indices 1 2 3 4 5 6 
#
# 1 0.018180 -0.000670 -0.001464 0.006453 -0.004640 -0.012769
# 2 -0.000670 0.013037 -0.003761 0.005809 -0.002490 -0.007562
# 3 -0.001464 -0.003761 0.015876 -0.000113 -0.006409 0.003340
# 4 0.006453 0.005809 -0.000113 0.033765 -0.006474 -0.010574
# 5 -0.004640 -0.002490 -0.006409 -0.006474 0.037510 -0.002497
# 6 -0.012769 -0.007562 0.003340 -0.010574 -0.002497 0.047902
#
#
# Mechanical properties :
#
#
# Convention : Reuss Voigt Hill
#
# Bulk Modulus (GPa) = 28.32629 46.37079 37.34854
# Shear Modulus (GPa) = 26.33974 32.91336 29.62655
#
# Velocity S-wave (km/s) = 3.49142 3.90285 3.70285
# Velocity P-wave (km/s) = 5.41873 6.46297 5.96375
#
# Compressibility (1/GPa) = 0.03530290
#
# Stress axis : x y z
#
# Youngs Moduli (GPa) = 55.00523 76.70666 62.98746
#
# Poissons Ratio (x) = 0.05138 0.09224
# Poissons Ratio (y) = 0.03685 0.23688
# Poissons Ratio (z) = 0.08055 0.28847
#
# Static dielectric constant tensor:
#      x y z
#    x 1.821190 0.056110 -0.042740 
#    y 0.056110 1.799670 -0.014980 
#    z -0.042740 -0.014980 1.847920 
# 
# From -- ./inp_files/449760.got.cif
#   From: 2010.05.17/outbox.cif.g08.bks.cpg/sg2_225_cif.got.tgz:449760.got - 2010.06.03 11:33:40.
