data_PCOD9093439
_publ_section_title
;
Structure prediction by ZEFSAII (Michael W. Deem and Ramdas Pophale) SiO2 
 PCOD9093439
Probable space group: P -1
;
_chemical_formula_sum "Si O2"
_cell_formula_units_Z 16
_cell_length_a 14.422002
_cell_length_b 27.052986
_cell_length_c 27.424694
_cell_angle_alpha 10.464273
_cell_angle_beta 150.139749
_cell_angle_gamma 150.929810
_cell_volume 940.586335
_symmetry_space_group_name_H-M "P -1"
_symmetry_group_IT_number 2
_symmetry_cell_setting 'triclinic'
loop_
_space_group_symop_operation_xyz
x,y,z
-x,-y,-z
loop_
_atom_site_type_symbol
_atom_site_label
_atom_site_fract_x
_atom_site_fract_y
_atom_site_fract_z
Si Si1 0.796701 0.787371 0.627428
Si Si2 0.819359 0.582715 0.732591
Si Si3 0.512921 0.813177 0.759922
Si Si4 0.747306 0.297796 0.158557
Si Si5 0.311057 0.026537 0.781014
Si Si6 0.344929 0.867190 0.099209
Si Si7 0.279940 0.642580 0.720238
Si Si8 0.862930 0.763290 0.405191
O O1 0.748466 0.597356 0.741657
O O2 0.682202 0.016608 0.369064
O O3 0.793056 0.574066 0.877459
O O4 0.000000 0.000000 0.500000
O O5 0.715944 0.773207 0.468902
O O6 0.049099 0.702903 0.722356
O O7 0.774494 0.283799 0.976243
O O8 0.406590 0.717719 0.854285
O O9 0.365911 0.713644 0.744678
O O10 0.588742 0.142728 0.465923
O O11 0.689211 0.664278 0.978474
O O12 0.531166 0.069722 0.856457
O O13 0.194644 0.109768 0.693426
O O14 0.276257 0.538366 0.376951
O O15 0.500000 0.000000 0.000000
O O16 0.174287 0.023028 0.860818
O O17 0.070663 0.699303 0.566355
#
# Coordination Sequence:
#
# PCOD9093439 Si02
#       8
#     2   2   2   2   2   2   2   2
#     4  10  20  34  49  72 102 134 169 207 245 297
#     4  11  20  31  49  73 101 132 166 200 241 297
#     4  10  21  34  50  74 102 132 170 213 241 280
#     4  11  20  34  52  71 103 141 170 198 251 298
#     4  11  20  31  49  73 101 131 167 200 240 298
#     4  10  20  33  48  71 100 131 167 205 242 294
#     4  10  21  35  50  73 103 132 171 212 242 279
#     4  11  20  34  51  69 101 140 167 196 249 295
#
# _framework density 17.010666000000001
#
# number of rings (size 3 to 8) (size 9 to 14) (size 15 to 20)
#    0.000    1.500    0.000    9.750    0.000    3.000 
#    0.000    0.000    0.000    0.000    0.000    0.000 
#    0.000   70.000    0.000    0.000    0.000    0.000 
#
# Total GULP energy -89206.731856 kJ/mol
# GULP energy per Si atom -5575.420741 kJ/mol
# Density = 1.697195 g / cm^3
# Si number density = 17.010666 Si / 1000 Ang^3
#
#
#
# Elastic Constant Matrix: (Units=GPa)
#
#
# Indices 1 2 3 4 5 6 
#
# 1 76.3105 30.0741 22.4542 5.4140 -2.5224 -6.3261
# 2 30.0741 73.5813 23.5429 6.3777 12.8422 -7.5849
# 3 22.4542 23.5429 92.3710 3.9107 6.2483 -8.4692
# 4 5.4140 6.3777 3.9107 39.2586 -6.3663 6.9127
# 5 -2.5224 12.8422 6.2483 -6.3663 30.2747 3.1878
# 6 -6.3261 -7.5849 -8.4692 6.9127 3.1878 17.2782
#
#
#
# Elastic Compliance Matrix: (Units=1/GPa)
#
#
# Indices 1 2 3 4 5 6 
#
# 1 0.016765 -0.006643 -0.002543 -0.000487 0.004496 0.001341
# 2 -0.006643 0.020305 -0.001644 -0.005787 -0.011101 0.010039
# 3 -0.002543 -0.001644 0.012738 -0.002252 -0.003259 0.006093
# 4 -0.000487 -0.005787 -0.002252 0.031870 0.011550 -0.018704
# 5 0.004496 -0.011101 -0.003259 0.011550 0.043047 -0.017388
# 6 0.001341 0.010039 0.006093 -0.018704 -0.017388 0.076452
#
#
# Mechanical properties :
#
#
# Convention : Reuss Voigt Hill
#
# Bulk Modulus (GPa) = 35.52616 43.82280 39.67448
# Shear Modulus (GPa) = 21.53136 28.44173 24.98655
#
# Velocity S-wave (km/s) = 3.56161 4.09344 3.83675
# Velocity P-wave (km/s) = 6.15170 6.93971 6.55755
#
# Compressibility (1/GPa) = 0.02814827
#
# Stress axis : x y z
#
# Youngs Moduli (GPa) = 59.64883 49.24778 78.50828
#
# Poissons Ratio (x) = 0.32714 0.19963
# Poissons Ratio (y) = 0.39624 0.12908
# Poissons Ratio (z) = 0.15168 0.08097
#
# Static dielectric constant tensor:
#      x y z
#    x 1.589510 -0.003840 0.010970 
#    y -0.003840 1.580490 0.014690 
#    z 0.010970 0.014690 1.597850 
# 
# From -- ./inp_files/533130.got.cif
#   From: 2010.05.17/outbox.cif.g08.bks.cpg/sg2_267_cif.got.tgz:533130.got - 2010.06.03 11:33:40.
