data_PCOD9093787
_publ_section_title
;
Structure prediction by ZEFSAII (Michael W. Deem and Ramdas Pophale) SiO2 
 PCOD9093787
Probable space group: P -1
;
_chemical_formula_sum "Si O2"
_cell_formula_units_Z 16
_cell_length_a 13.783151
_cell_length_b 13.605071
_cell_length_c 9.739241
_cell_angle_alpha 111.464313
_cell_angle_beta 28.530377
_cell_angle_gamma 125.717473
_cell_volume 655.379639
_symmetry_space_group_name_H-M "P -1"
_symmetry_group_IT_number 2
_symmetry_cell_setting 'triclinic'
loop_
_space_group_symop_operation_xyz
x,y,z
-x,-y,-z
loop_
_atom_site_type_symbol
_atom_site_label
_atom_site_fract_x
_atom_site_fract_y
_atom_site_fract_z
Si Si1 0.271822 0.588941 0.353059
Si Si2 0.295050 0.243335 0.929625
Si Si3 0.543152 0.605185 0.763007
Si Si4 0.740800 0.623496 0.181258
Si Si5 0.038775 0.990477 0.281523
Si Si6 0.509679 0.187081 0.210646
Si Si7 0.079025 0.752308 0.070721
Si Si8 0.914195 0.295918 0.547583
O O1 0.196871 0.680217 0.436137
O O2 0.053008 0.436384 0.525484
O O3 0.415522 0.636281 0.340634
O O4 0.488905 0.619305 0.992238
O O5 0.247487 0.118576 0.001827
O O6 0.090892 0.253953 0.267649
O O7 0.258712 0.257721 0.820456
O O8 0.311353 0.461526 0.932540
O O9 0.521195 0.701021 0.742564
O O10 0.823462 0.648053 0.420465
O O11 0.500000 0.500000 0.500000
O O12 0.986405 0.688941 0.002412
O O13 0.773977 0.939873 0.511825
O O14 0.096180 0.884120 0.133668
O O15 0.000000 0.000000 0.500000
O O16 0.687040 0.190556 0.874460
O O17 0.671489 0.222573 0.165239
#
# Coordination Sequence:
#
# PCOD9093787 Si02
#       8
#     2   2   2   2   2   2   2   2
#     4  10  20  34  58  94 126 147 190 256 309 367
#     4  12  23  38  63  89 124 167 196 247 308 347
#     4   9  18  38  59  92 125 151 202 251 306 368
#     4  10  23  40  61  89 122 162 210 245 294 365
#     4  11  24  42  64  92 121 155 206 250 297 369
#     4  10  21  37  64  89 123 160 190 250 316 347
#     4  10  22  40  60  85 120 165 205 250 287 354
#     4  10  20  33  57  94 123 148 191 249 310 364
#
# _framework density 24.413330999999999
#
# number of rings (size 3 to 8) (size 9 to 14) (size 15 to 20)
#    0.000    1.750    1.250    4.125    3.500    4.000 
#    0.000    4.375    0.000    0.000    0.000    0.000 
#    0.000    0.000    0.000    0.000    0.000    0.000 
#
# Total GULP energy -89333.724423 kJ/mol
# GULP energy per Si atom -5583.357776 kJ/mol
# Density = 2.435777 g / cm^3
# Si number density = 24.413331 Si / 1000 Ang^3
#
#
#
# Elastic Constant Matrix: (Units=GPa)
#
#
# Indices 1 2 3 4 5 6 
#
# 1 151.9256 13.8023 30.6373 -12.2441 -33.0071 -3.4847
# 2 13.8023 67.3827 11.6058 -14.2840 -1.7170 -10.3792
# 3 30.6373 11.6058 81.3476 -12.7215 -16.7948 1.3184
# 4 -12.2441 -14.2840 -12.7215 32.4536 -5.6428 3.6348
# 5 -33.0071 -1.7170 -16.7948 -5.6428 49.7651 -11.8735
# 6 -3.4847 -10.3792 1.3184 3.6348 -11.8735 24.2249
#
#
#
# Elastic Compliance Matrix: (Units=1/GPa)
#
#
# Indices 1 2 3 4 5 6 
#
# 1 0.008680 -0.000016 -0.001432 0.003404 0.006627 0.004057
# 2 -0.000016 0.017835 -0.000935 0.007096 0.003029 0.008110
# 3 -0.001432 -0.000935 0.014814 0.005664 0.004666 0.000024
# 4 0.003404 0.007096 0.005664 0.038837 0.009282 0.001944
# 5 0.006627 0.003029 0.004666 0.009282 0.030989 0.015793
# 6 0.004057 0.008110 0.000024 0.001944 0.015793 0.052786
#
#
# Mechanical properties :
#
#
# Convention : Reuss Voigt Hill
#
# Bulk Modulus (GPa) = 27.34947 45.86076 36.60512
# Shear Modulus (GPa) = 27.64030 37.59608 32.61819
#
# Velocity S-wave (km/s) = 3.36844 3.92852 3.65921
# Velocity P-wave (km/s) = 5.13376 6.27723 5.73407
#
# Compressibility (1/GPa) = 0.03656378
#
# Stress axis : x y z
#
# Youngs Moduli (GPa) = 115.21367 56.06796 67.50295
#
# Poissons Ratio (x) = 0.00089 0.09665
# Poissons Ratio (y) = 0.00182 0.06312
# Poissons Ratio (z) = 0.16497 0.05243
#
# Static dielectric constant tensor:
#      x y z
#    x 2.024150 0.011750 0.050520 
#    y 0.011750 2.032580 0.049060 
#    z 0.050520 0.049060 1.970000 
# 
# From -- ./inp_files/454826.got.cif
#   From: 2010.05.17/outbox.cif.g08.bks.cpg/sg2_228_cif.got.tgz:454826.got - 2010.06.03 11:33:40.
