data_PCOD9093505
_publ_section_title
;
Structure prediction by ZEFSAII (Michael W. Deem and Ramdas Pophale) SiO2 
 PCOD9093505
Probable space group: P -1
;
_chemical_formula_sum "Si O2"
_cell_formula_units_Z 14
_cell_length_a 31.699103
_cell_length_b 5.152132
_cell_length_c 19.405515
_cell_angle_alpha 74.675812
_cell_angle_beta 165.712068
_cell_angle_gamma 109.754050
_cell_volume 708.313648
_symmetry_space_group_name_H-M "P -1"
_symmetry_group_IT_number 2
_symmetry_cell_setting 'triclinic'
loop_
_space_group_symop_operation_xyz
x,y,z
-x,-y,-z
loop_
_atom_site_type_symbol
_atom_site_label
_atom_site_fract_x
_atom_site_fract_y
_atom_site_fract_z
Si Si1 0.423187 0.804984 0.046153
Si Si2 0.315448 0.972977 0.666202
Si Si3 0.177148 0.766297 0.780589
Si Si4 0.317625 0.737367 0.154959
Si Si5 0.279954 0.131463 0.190120
Si Si6 0.084603 0.309361 0.347751
Si Si7 0.795330 0.802556 0.314690
O O1 0.773277 0.808698 0.457415
O O2 0.622128 0.947062 0.320040
O O3 0.357810 0.756111 0.025629
O O4 0.339608 0.506871 0.896139
O O5 0.169252 0.652089 0.457449
O O6 0.687464 0.989476 0.165336
O O7 0.500000 0.000000 0.000000
O O8 0.000000 0.500000 0.500000
O O9 0.142153 0.035284 0.669683
O O10 0.217148 0.764682 0.924091
O O11 0.235761 0.419552 0.081954
O O12 0.529455 0.775253 0.473991
O O13 0.318901 0.988864 0.191299
O O14 0.115060 0.879542 0.982188
O O15 0.070350 0.224239 0.412476
#
# Coordination Sequence:
#
# PCOD9093505 Si02
#       7
#     2   2   2   2   2   2   2
#     4  10  22  34  49  83 113 143 183 215 287 336
#     4  12  20  34  55  82 116 152 179 238 286 325
#     4  10  23  36  58  84 113 151 179 231 285 343
#     4  10  22  41  60  81 120 146 188 237 281 331
#     4  10  23  39  60  87 107 153 194 233 276 333
#     4  12  21  34  59  81 117 146 191 233 276 339
#     4  10  20  33  51  82 110 146 176 225 271 345
#
# _framework density 19.765253000000001
#
# number of rings (size 3 to 8) (size 9 to 14) (size 15 to 20)
#    0.857    0.571    2.857    3.000    4.000    0.571 
#    0.000    0.000    0.000    1.714    0.000    0.000 
#    0.000    0.000    0.000    0.000    0.000    0.000 
#
# Total GULP energy -78000.524638 kJ/mol
# GULP energy per Si atom -5571.466046 kJ/mol
# Density = 1.972027 g / cm^3
# Si number density = 19.765253 Si / 1000 Ang^3
#
#
#
# Elastic Constant Matrix: (Units=GPa)
#
#
# Indices 1 2 3 4 5 6 
#
# 1 85.1150 7.7860 14.1909 -6.9317 6.5012 -7.6799
# 2 7.7860 104.9837 16.0136 24.5349 -9.2645 -0.0477
# 3 14.1909 16.0136 73.8988 19.6200 0.6810 21.5802
# 4 -6.9317 24.5349 19.6200 29.7956 0.7484 8.2404
# 5 6.5012 -9.2645 0.6810 0.7484 26.0473 1.8924
# 6 -7.6799 -0.0477 21.5802 8.2404 1.8924 52.6773
#
#
#
# Elastic Compliance Matrix: (Units=1/GPa)
#
#
# Indices 1 2 3 4 5 6 
#
# 1 0.014142 -0.002566 -0.005157 0.008067 -0.004763 0.003082
# 2 -0.002566 0.012934 0.000507 -0.012028 0.005492 0.001114
# 3 -0.005157 0.000507 0.019818 -0.012795 0.001821 -0.006934
# 4 0.008067 -0.012028 -0.012795 0.054465 -0.007388 -0.001848
# 5 -0.004763 0.005492 0.001821 -0.007388 0.041828 -0.001782
# 6 0.003082 0.001114 -0.006934 -0.001848 -0.001782 0.022627
#
#
# Mechanical properties :
#
#
# Convention : Reuss Voigt Hill
#
# Bulk Modulus (GPa) = 30.80537 37.77540 34.29038
# Shear Modulus (GPa) = 26.16864 36.77116 31.46990
#
# Velocity S-wave (km/s) = 3.64259 4.31791 3.99455
# Velocity P-wave (km/s) = 5.77155 6.63420 6.21785
#
# Compressibility (1/GPa) = 0.03246188
#
# Stress axis : x y z
#
# Youngs Moduli (GPa) = 70.71001 77.31347 50.45998
#
# Poissons Ratio (x) = 0.19841 0.26024
# Poissons Ratio (y) = 0.18147 -0.02561
# Poissons Ratio (z) = 0.36468 -0.03924
#
# Static dielectric constant tensor:
#      x y z
#    x 1.742330 0.012480 0.058420 
#    y 0.012480 1.715350 -0.004080 
#    z 0.058420 -0.004080 1.735750 
# 
# From -- ./inp_files/65526.got.cif
#   From: 2010.05.17/outbox.cif.g08.bks.cpg/sg2_33_cif.got.tgz:65526.got - 2010.06.03 11:33:40.
