data_PCOD9093973
_publ_section_title
;
Structure prediction by ZEFSAII (Michael W. Deem and Ramdas Pophale) SiO2 
 PCOD9093973
Probable space group: P -1
;
_chemical_formula_sum "Si O2"
_cell_formula_units_Z 16
_cell_length_a 13.595231
_cell_length_b 12.355980
_cell_length_c 14.079572
_cell_angle_alpha 65.886332
_cell_angle_beta 20.721242
_cell_angle_gamma 67.246416
_cell_volume 763.727031
_symmetry_space_group_name_H-M "P -1"
_symmetry_group_IT_number 2
_symmetry_cell_setting 'triclinic'
loop_
_space_group_symop_operation_xyz
x,y,z
-x,-y,-z
loop_
_atom_site_type_symbol
_atom_site_label
_atom_site_fract_x
_atom_site_fract_y
_atom_site_fract_z
Si Si1 0.260453 0.413930 0.276134
Si Si2 0.703673 0.669691 0.934753
Si Si3 0.020591 0.280978 0.834014
Si Si4 0.478364 0.409523 0.282020
Si Si5 0.814537 0.179811 0.574336
Si Si6 0.216018 0.900921 0.042741
Si Si7 0.788078 0.939718 0.582720
Si Si8 0.711371 0.943468 0.252887
O O1 0.368248 0.360393 0.296920
O O2 0.000000 0.500000 0.500000
O O3 0.500000 0.500000 0.000000
O O4 0.222249 0.342480 0.239989
O O5 0.599524 0.540574 0.110142
O O6 0.446852 0.756218 0.162329
O O7 0.989914 0.727342 0.691883
O O8 0.203728 0.393016 0.598138
O O9 0.222585 0.195207 0.743305
O O10 0.730928 0.327858 0.121312
O O11 0.915024 0.202447 0.867191
O O12 0.013288 0.117750 0.495849
O O13 0.718973 0.072818 0.632134
O O14 0.498553 0.871140 0.854966
O O15 0.326333 0.005354 0.836451
O O16 0.973339 0.938642 0.320460
O O17 0.500000 0.000000 0.500000
O O18 0.000000 0.000000 0.000000
#
# Coordination Sequence:
#
# PCOD9093973 Si02
#       8
#     2   2   2   2   2   2   2   2
#     4  10  20  34  48  74 112 148 190 228 256 331
#     4  11  22  38  58  78 116 161 191 237 291 326
#     4  11  22  35  57  87 122 147 184 233 279 357
#     4  11  22  35  53  86 114 154 196 219 278 360
#     4  11  24  40  58  82 116 152 201 254 283 314
#     4  11  22  38  61  85 115 155 187 235 300 349
#     4  11  24  40  59  86 111 149 208 245 283 343
#     4  10  20  38  56  86 119 149 184 233 293 356
#
# _framework density 20.949894
#
# number of rings (size 3 to 8) (size 9 to 14) (size 15 to 20)
#    0.000    1.250    0.000    9.000    5.250    2.000 
#    0.000    0.000    0.000    0.000    0.000   17.500 
#    0.000    0.000    0.000    0.000    0.000    0.000 
#
# Total GULP energy -89238.268984 kJ/mol
# GULP energy per Si atom -5577.391812 kJ/mol
# Density = 2.090221 g / cm^3
# Si number density = 20.949894 Si / 1000 Ang^3
#
#
#
# Elastic Constant Matrix: (Units=GPa)
#
#
# Indices 1 2 3 4 5 6 
#
# 1 29.4960 12.8520 11.5280 3.9185 -3.0578 -5.6281
# 2 12.8520 98.1801 34.1461 9.1491 2.8728 9.5976
# 3 11.5280 34.1461 151.8128 17.4724 -5.2541 1.3149
# 4 3.9185 9.1491 17.4724 46.4823 -4.7119 -2.8503
# 5 -3.0578 2.8728 -5.2541 -4.7119 20.4739 0.7286
# 6 -5.6281 9.5976 1.3149 -2.8503 0.7286 28.0969
#
#
#
# Elastic Compliance Matrix: (Units=1/GPa)
#
#
# Indices 1 2 3 4 5 6 
#
# 1 0.039525 -0.005720 -0.001546 -0.000433 0.005862 0.009748
# 2 -0.005720 0.012512 -0.002242 -0.001815 -0.003410 -0.005410
# 3 -0.001546 -0.002242 0.007505 -0.002103 0.001531 -0.000148
# 4 -0.000433 -0.001815 -0.002103 0.023374 0.004927 0.002875
# 5 0.005862 -0.003410 0.001531 0.004927 0.051673 0.001427
# 6 0.009748 -0.005410 -0.000148 0.002875 0.001427 0.039653
#
#
# Mechanical properties :
#
#
# Convention : Reuss Voigt Hill
#
# Bulk Modulus (GPa) = 24.67652 44.06013 34.36833
# Shear Modulus (GPa) = 24.18178 33.74147 28.96163
#
# Velocity S-wave (km/s) = 3.40114 4.01756 3.72213
# Velocity P-wave (km/s) = 5.21805 6.52670 5.90872
#
# Compressibility (1/GPa) = 0.04052435
#
# Stress axis : x y z
#
# Youngs Moduli (GPa) = 25.30055 79.92472 133.24219
#
# Poissons Ratio (x) = 0.45718 0.20606
# Poissons Ratio (y) = 0.14472 0.29874
# Poissons Ratio (z) = 0.03913 0.17920
#
# Static dielectric constant tensor:
#      x y z
#    x 1.859640 -0.064920 0.008940 
#    y -0.064920 1.842260 -0.014520 
#    z 0.008940 -0.014520 1.731630 
# 
# From -- ./inp_files/532516.got.cif
#   From: 2010.05.17/outbox.cif.g08.bks.cpg/sg2_267_cif.got.tgz:532516.got - 2010.06.03 11:33:40.
