data_PCOD9093249
_publ_section_title
;
Structure prediction by ZEFSAII (Michael W. Deem and Ramdas Pophale) SiO2 
 PCOD9093249
Probable space group: P -1
;
_chemical_formula_sum "Si O2"
_cell_formula_units_Z 16
_cell_length_a 8.565162
_cell_length_b 10.905854
_cell_length_c 13.635549
_cell_angle_alpha 117.342602
_cell_angle_beta 46.658375
_cell_angle_gamma 125.130209
_cell_volume 753.148139
_symmetry_space_group_name_H-M "P -1"
_symmetry_group_IT_number 2
_symmetry_cell_setting 'triclinic'
loop_
_space_group_symop_operation_xyz
x,y,z
-x,-y,-z
loop_
_atom_site_type_symbol
_atom_site_label
_atom_site_fract_x
_atom_site_fract_y
_atom_site_fract_z
Si Si1 0.406090 0.323610 0.356137
Si Si2 0.494226 0.924892 0.664997
Si Si3 0.038668 0.929770 0.561880
Si Si4 0.513563 0.744202 0.924706
Si Si5 0.825654 0.586573 0.231927
Si Si6 0.217315 0.883673 0.209183
Si Si7 0.968264 0.855964 0.896002
Si Si8 0.161930 0.417660 0.998819
O O1 0.476880 0.227528 0.370549
O O2 0.478579 0.282933 0.203276
O O3 0.568191 0.500600 0.356806
O O4 0.122939 0.247743 0.441741
O O5 0.682653 0.009161 0.529769
O O6 0.222639 0.885427 0.752327
O O7 0.596030 0.038988 0.756286
O O8 0.913921 0.006704 0.715981
O O9 0.000000 0.000000 0.500000
O O10 0.766447 0.823379 0.891862
O O11 0.356766 0.838006 0.048892
O O12 0.384251 0.578141 0.968876
O O13 0.001395 0.725855 0.269534
O O14 0.945882 0.467464 0.125135
O O15 0.824891 0.638247 0.138429
O O16 0.876563 0.711236 0.954103
O O17 0.000000 0.000000 0.000000
#
# Coordination Sequence:
#
# PCOD9093249 Si02
#       8
#     2   2   2   2   2   2   2   2
#     4   9  17  33  55  75  99 138 172 211 258 298
#     4  10  20  36  50  73 109 140 175 210 254 303
#     4   8  18  33  51  72 104 140 170 221 249 291
#     4  10  20  32  52  82 104 133 166 215 270 305
#     4   9  16  30  55  81  98 133 170 221 256 296
#     4   9  17  30  50  78 108 121 173 214 256 295
#     4  12  22  33  51  78 109 141 171 204 259 319
#     4   9  19  33  49  74 114 134 163 211 267 306
#
# _framework density 21.244160999999998
#
# number of rings (size 3 to 8) (size 9 to 14) (size 15 to 20)
#    0.000    2.750    2.500    1.125    0.000    4.000 
#    0.000    6.250    0.000    0.000    0.000    3.500 
#    0.000    0.000    0.000    0.000    0.000    0.000 
#
# Total GULP energy -89173.677157 kJ/mol
# GULP energy per Si atom -5573.354822 kJ/mol
# Density = 2.119581 g / cm^3
# Si number density = 21.244161 Si / 1000 Ang^3
#
#
#
# Elastic Constant Matrix: (Units=GPa)
#
#
# Indices 1 2 3 4 5 6 
#
# 1 55.9003 27.5228 41.2553 -16.0822 -18.8356 20.6944
# 2 27.5228 106.5799 32.6002 -35.5030 -8.1933 18.6163
# 3 41.2553 32.6002 82.9708 -24.7220 -18.7832 2.9544
# 4 -16.0822 -35.5030 -24.7220 39.1808 13.6802 -6.3970
# 5 -18.8356 -8.1933 -18.7832 13.6802 28.3919 -11.0666
# 6 20.6944 18.6163 2.9544 -6.3970 -11.0666 33.3733
#
#
#
# Elastic Compliance Matrix: (Units=1/GPa)
#
#
# Indices 1 2 3 4 5 6 
#
# 1 0.042378 -0.001601 -0.018458 -0.002016 0.008044 -0.021470
# 2 -0.001601 0.015888 -0.002974 0.013360 -0.007865 -0.007654
# 3 -0.018458 -0.002974 0.024971 0.005618 0.006174 0.014018
# 4 -0.002016 0.013360 0.005618 0.045770 -0.017239 -0.003643
# 5 0.008044 -0.007865 0.006174 -0.017239 0.056209 0.014187
# 6 -0.021470 -0.007654 0.014018 -0.003643 0.014187 0.050312
#
#
# Mechanical properties :
#
#
# Convention : Reuss Voigt Hill
#
# Bulk Modulus (GPa) = 26.90192 49.80083 38.35138
# Shear Modulus (GPa) = 17.00773 29.79406 23.40089
#
# Velocity S-wave (km/s) = 2.83253 3.74900 3.32252
# Velocity P-wave (km/s) = 4.83615 6.49870 5.72806
#
# Compressibility (1/GPa) = 0.03717207
#
# Stress axis : x y z
#
# Youngs Moduli (GPa) = 23.59724 62.93933 40.04640
#
# Poissons Ratio (x) = 0.10076 0.73916
# Poissons Ratio (y) = 0.03778 0.11910
# Poissons Ratio (z) = 0.43555 0.18718
#
# Static dielectric constant tensor:
#      x y z
#    x 1.745410 0.041910 -0.005210 
#    y 0.041910 1.834250 -0.034810 
#    z -0.005210 -0.034810 1.872580 
# 
# From -- ./inp_files/314836.got.cif
#   From: 2010.05.17/outbox.cif.g08.bks.cpg/sg2_158_cif.got.tgz:314836.got - 2010.06.03 11:33:40.
