data_PCOD9093002
_publ_section_title
;
Structure prediction by ZEFSAII (Michael W. Deem and Ramdas Pophale) SiO2 
 PCOD9093002
Probable space group: P -1
;
_chemical_formula_sum "Si O2"
_cell_formula_units_Z 16
_cell_length_a 13.804133
_cell_length_b 12.330807
_cell_length_c 24.423883
_cell_angle_alpha 152.392154
_cell_angle_beta 28.867820
_cell_angle_gamma 133.760797
_cell_volume 861.457069
_symmetry_space_group_name_H-M "P -1"
_symmetry_group_IT_number 2
_symmetry_cell_setting 'triclinic'
loop_
_space_group_symop_operation_xyz
x,y,z
-x,-y,-z
loop_
_atom_site_type_symbol
_atom_site_label
_atom_site_fract_x
_atom_site_fract_y
_atom_site_fract_z
Si Si1 0.540702 0.004102 0.076917
Si Si2 0.240886 0.493853 0.188462
Si Si3 0.703766 0.494188 0.957105
Si Si4 0.757878 0.897258 0.318625
Si Si5 0.137047 0.112579 0.388056
Si Si6 0.608385 0.267114 0.063828
Si Si7 0.096846 0.459902 0.009870
Si Si8 0.872102 0.328433 0.507674
O O1 0.359772 0.146631 0.275566
O O2 0.651699 0.154257 0.052884
O O3 0.708700 0.749614 0.906580
O O4 0.401056 0.931208 0.066141
O O5 0.262608 0.414987 0.078882
O O6 0.009713 0.711910 0.413234
O O7 0.446366 0.578686 0.134615
O O8 0.791921 0.187235 0.772486
O O9 0.829195 0.570012 0.977398
O O10 0.834163 0.791886 0.172894
O O11 0.500000 0.000000 0.500000
O O12 0.852880 0.110902 0.381270
O O13 0.856713 0.657612 0.203965
O O14 0.977899 0.198529 0.453482
O O15 0.766993 0.391765 0.019552
O O16 0.370530 0.479826 0.276954
O O17 0.000000 0.500000 0.500000
#
# Coordination Sequence:
#
# PCOD9093002 Si02
#       8
#     2   2   2   2   2   2   2   2
#     4  10  20  30  49  82 117 143 186 229 286 340
#     4  10  20  32  51  79 117 150 194 236 287 332
#     4  10  20  35  52  77 111 155 196 236 279 342
#     4  11  24  37  54  84 118 152 195 231 288 359
#     4  11  18  32  49  80 113 146 185 233 286 336
#     4  11  19  34  53  81 120 154 179 234 288 346
#     4  11  21  38  57  78 119 155 189 233 291 344
#     4  12  21  34  58  86 119 154 186 235 295 348
#
# _framework density 18.573183
#
# number of rings (size 3 to 8) (size 9 to 14) (size 15 to 20)
#    0.000    1.250    7.500    0.375    1.750    0.000 
#    0.000    0.000    0.000    0.000    0.000    8.750 
#    0.000    0.125    0.000    0.000    0.000    0.000 
#
# Total GULP energy -89284.917611 kJ/mol
# GULP energy per Si atom -5580.307351 kJ/mol
# Density = 1.853091 g / cm^3
# Si number density = 18.573183 Si / 1000 Ang^3
#
#
#
# Elastic Constant Matrix: (Units=GPa)
#
#
# Indices 1 2 3 4 5 6 
#
# 1 85.5024 12.0450 11.1641 2.4206 10.5720 -8.8325
# 2 12.0450 54.5622 6.9621 2.0360 4.6420 -8.5128
# 3 11.1641 6.9621 100.6872 -11.2199 0.0946 4.5958
# 4 2.4206 2.0360 -11.2199 19.2249 1.0141 -0.1412
# 5 10.5720 4.6420 0.0946 1.0141 23.5936 1.4609
# 6 -8.8325 -8.5128 4.5958 -0.1412 1.4609 29.4134
#
#
#
# Elastic Compliance Matrix: (Units=1/GPa)
#
#
# Indices 1 2 3 4 5 6 
#
# 1 0.013356 -0.001490 -0.001811 -0.002242 -0.005844 0.004142
# 2 -0.001490 0.020204 -0.001804 -0.002775 -0.003543 0.005844
# 3 -0.001811 -0.001804 0.011149 0.006852 0.001002 -0.002825
# 4 -0.002242 -0.002775 0.006852 0.056615 -0.000772 -0.002237
# 5 -0.005844 -0.003543 0.001002 -0.000772 0.046053 -0.005228
# 6 0.004142 0.005844 -0.002825 -0.002237 -0.005228 0.037624
#
#
# Mechanical properties :
#
#
# Convention : Reuss Voigt Hill
#
# Bulk Modulus (GPa) = 28.98827 33.45490 31.22159
# Shear Modulus (GPa) = 24.18830 28.48508 26.33669
#
# Velocity S-wave (km/s) = 3.61269 3.92046 3.76971
# Velocity P-wave (km/s) = 5.74835 6.20845 5.98282
#
# Compressibility (1/GPa) = 0.03449671
#
# Stress axis : x y z
#
# Youngs Moduli (GPa) = 74.87291 49.49572 89.69477
#
# Poissons Ratio (x) = 0.07376 0.16246
# Poissons Ratio (y) = 0.11158 0.16185
# Poissons Ratio (z) = 0.13562 0.08931
#
# Static dielectric constant tensor:
#      x y z
#    x 1.668280 0.005370 0.001350 
#    y 0.005370 1.671620 -0.007700 
#    z 0.001350 -0.007700 1.714090 
# 
# From -- ./inp_files/431409.got.cif
#   From: 2010.05.17/outbox.cif.g08.bks.cpg/sg2_216_cif.got.tgz:431409.got - 2010.06.03 11:33:40.
