data_PCOD9093231
_publ_section_title
;
Structure prediction by ZEFSAII (Michael W. Deem and Ramdas Pophale) SiO2 
 PCOD9093231
Probable space group: P -1
;
_chemical_formula_sum "Si O2"
_cell_formula_units_Z 14
_cell_length_a 7.311044
_cell_length_b 10.481540
_cell_length_c 8.354067
_cell_angle_alpha 111.276683
_cell_angle_beta 65.135890
_cell_angle_gamma 91.049554
_cell_volume 534.381993
_symmetry_space_group_name_H-M "P -1"
_symmetry_group_IT_number 2
_symmetry_cell_setting 'triclinic'
loop_
_space_group_symop_operation_xyz
x,y,z
-x,-y,-z
loop_
_atom_site_type_symbol
_atom_site_label
_atom_site_fract_x
_atom_site_fract_y
_atom_site_fract_z
Si Si1 0.654284 0.885526 0.205514
Si Si2 0.198891 0.615250 0.705895
Si Si3 0.888083 0.174251 0.900149
Si Si4 0.626994 0.190747 0.454150
Si Si5 0.769000 0.699857 0.763673
Si Si6 0.925388 0.909917 0.628429
Si Si7 0.609923 0.428987 0.081577
O O1 0.500080 0.815534 0.339123
O O2 0.868865 0.856130 0.210123
O O3 0.583639 0.052567 0.309748
O O4 0.700566 0.808467 0.984304
O O5 0.375297 0.653853 0.542621
O O6 0.257210 0.519168 0.797852
O O7 0.981392 0.605116 0.700001
O O8 0.158905 0.765835 0.879853
O O9 0.804136 0.033736 0.835342
O O10 0.772564 0.299117 0.895043
O O11 0.864424 0.153421 0.395465
O O12 0.805225 0.781151 0.624124
O O13 0.578263 0.622175 0.781068
O O14 0.000000 0.000000 0.500000
O O15 0.500000 0.500000 0.000000
#
# Coordination Sequence:
#
# PCOD9093231 Si02
#       7
#     2   2   2   2   2   2   2
#     4   9  17  31  53  83 109 147 173 211 275 336
#     4   8  18  36  52  78 105 142 181 226 263 323
#     4   8  18  35  50  78 113 140 175 225 265 322
#     4   9  17  30  53  78 118 145 170 213 276 332
#     4  10  20  35  58  79 110 148 177 219 279 323
#     4  10  20  32  51  87 119 140 172 219 273 340
#     4  10  22  37  57  80 103 145 196 233 261 307
#
# _framework density 26.198488999999999
#
# number of rings (size 3 to 8) (size 9 to 14) (size 15 to 20)
#    0.857    2.000    0.000    0.857    2.000    8.000 
#    0.000    0.000    0.000    4.286    0.000    0.000 
#    0.000    0.000    0.000    0.000    0.000    0.000 
#
# Total GULP energy -77971.677685 kJ/mol
# GULP energy per Si atom -5569.405549 kJ/mol
# Density = 2.613886 g / cm^3
# Si number density = 26.198489 Si / 1000 Ang^3
#
#
#
# Elastic Constant Matrix: (Units=GPa)
#
#
# Indices 1 2 3 4 5 6 
#
# 1 74.8757 30.0960 3.3641 9.3255 3.5341 -31.7557
# 2 30.0960 66.4157 27.9969 -1.2725 5.3440 -36.9959
# 3 3.3641 27.9969 73.9110 0.9680 3.8659 -1.9290
# 4 9.3255 -1.2725 0.9680 30.9607 -0.9368 7.1778
# 5 3.5341 5.3440 3.8659 -0.9368 31.0403 0.9944
# 6 -31.7557 -36.9959 -1.9290 7.1778 0.9944 48.1711
#
#
#
# Elastic Compliance Matrix: (Units=1/GPa)
#
#
# Indices 1 2 3 4 5 6 
#
# 1 0.021558 -0.001938 0.000410 -0.009987 -0.002931 0.014288
# 2 -0.001938 0.036892 -0.012834 -0.003983 -0.005526 0.027249
# 3 0.000410 -0.012834 0.018115 0.000875 0.000221 -0.008996
# 4 -0.009987 -0.003983 0.000875 0.038802 0.003380 -0.015459
# 5 -0.002931 -0.005526 0.000221 0.003380 0.033812 -0.007369
# 6 0.014288 0.027249 -0.008996 -0.015459 -0.007369 0.053202
#
#
# Mechanical properties :
#
#
# Convention : Reuss Voigt Hill
#
# Bulk Modulus (GPa) = 20.90271 37.56848 29.23559
# Shear Modulus (GPa) = 20.23864 32.28410 26.26137
#
# Velocity S-wave (km/s) = 2.78242 3.51421 3.16951
# Velocity P-wave (km/s) = 4.28000 5.55313 4.95760
#
# Compressibility (1/GPa) = 0.04784070
#
# Stress axis : x y z
#
# Youngs Moduli (GPa) = 46.38617 27.10602 55.20392
#
# Poissons Ratio (x) = 0.05254 -0.02263
# Poissons Ratio (y) = 0.08991 0.70848
# Poissons Ratio (z) = -0.01902 0.34787
#
# Static dielectric constant tensor:
#      x y z
#    x 2.028710 -0.011530 0.063120 
#    y -0.011530 2.183030 -0.015250 
#    z 0.063120 -0.015250 2.204660 
# 
# From -- ./inp_files/178561.got.cif
#   From: 2010.05.17/outbox.cif.g08.bks.cpg/sg2_90_cif.got.tgz:178561.got - 2010.06.03 11:33:40.
