data_PCOD9093108
_publ_section_title
;
Structure prediction by ZEFSAII (Michael W. Deem and Ramdas Pophale) SiO2 
 PCOD9093108
Probable space group: P -1
;
_chemical_formula_sum "Si O2"
_cell_formula_units_Z 16
_cell_length_a 15.586043
_cell_length_b 27.937892
_cell_length_c 11.914463
_cell_angle_alpha 27.614557
_cell_angle_beta 154.770617
_cell_angle_gamma 162.187623
_cell_volume 664.070252
_symmetry_space_group_name_H-M "P -1"
_symmetry_group_IT_number 2
_symmetry_cell_setting 'triclinic'
loop_
_space_group_symop_operation_xyz
x,y,z
-x,-y,-z
loop_
_atom_site_type_symbol
_atom_site_label
_atom_site_fract_x
_atom_site_fract_y
_atom_site_fract_z
Si Si1 0.331846 0.328146 0.125368
Si Si2 0.930250 0.262631 0.038816
Si Si3 0.667793 0.690275 0.232434
Si Si4 0.177917 0.720579 0.371155
Si Si5 0.200595 0.127546 0.191259
Si Si6 0.474542 0.576931 0.470573
Si Si7 0.917427 0.892275 0.525149
Si Si8 0.944652 0.449965 0.815097
O O1 0.003907 0.558385 0.563062
O O2 0.382692 0.277908 0.180715
O O3 0.346887 0.269565 0.380144
O O4 0.983340 0.234285 0.883578
O O5 0.852429 0.113084 0.225868
O O6 0.292994 0.388423 0.239562
O O7 0.813050 0.289818 0.943964
O O8 0.865783 0.300562 0.770736
O O9 0.696912 0.709019 0.361564
O O10 0.722728 0.593153 0.463011
O O11 0.856611 0.836749 0.067044
O O12 0.298685 0.568096 0.030884
O O13 0.532171 0.852464 0.554214
O O14 0.500000 0.500000 0.000000
O O15 0.924197 0.967012 0.268271
O O16 0.262801 0.579318 0.273167
O O17 0.000000 0.000000 0.500000
#
# Coordination Sequence:
#
# PCOD9093108 Si02
#       8
#     2   2   2   2   2   2   2   2
#     4  10  22  32  57  86 115 145 183 227 282 341
#     4  10  22  33  52  83 111 143 190 221 285 339
#     4   9  20  36  56  80 109 149 195 227 284 329
#     4  10  22  31  53  85 115 144 179 224 289 338
#     4  10  21  39  55  78 117 153 186 229 276 342
#     4  10  20  36  55  82 113 143 187 249 276 322
#     4   9  21  39  55  80 118 156 183 222 284 346
#     4  10  20  31  55  83 112 145 181 235 285 331
#
# _framework density 24.093836
#
# number of rings (size 3 to 8) (size 9 to 14) (size 15 to 20)
#    0.000    2.250    0.000    1.500   15.750    3.000 
#    0.000    1.875    0.000    0.750    0.000    0.000 
#    0.000    0.000    0.000    0.000    0.000    0.000 
#
# Total GULP energy -89163.483151 kJ/mol
# GULP energy per Si atom -5572.717697 kJ/mol
# Density = 2.403900 g / cm^3
# Si number density = 24.093836 Si / 1000 Ang^3
#
#
#
# Elastic Constant Matrix: (Units=GPa)
#
#
# Indices 1 2 3 4 5 6 
#
# 1 127.5484 12.4348 27.9007 -17.2972 27.3448 2.1549
# 2 12.4348 51.7276 17.7099 -26.8072 -5.4715 9.9585
# 3 27.9007 17.7099 77.6932 -21.7500 4.6865 5.8280
# 4 -17.2972 -26.8072 -21.7500 40.8542 17.7077 -5.3994
# 5 27.3448 -5.4715 4.6865 17.7077 56.4226 -6.2618
# 6 2.1549 9.9585 5.8280 -5.3994 -6.2618 30.5091
#
#
#
# Elastic Compliance Matrix: (Units=1/GPa)
#
#
# Indices 1 2 3 4 5 6 
#
# 1 0.010699 0.001358 -0.001449 0.007751 -0.007486 -0.001087
# 2 0.001358 0.031684 -0.000543 0.022433 -0.005411 -0.007475
# 3 -0.001449 -0.000543 0.016471 0.009191 -0.003828 -0.002026
# 4 0.007751 0.022433 0.009191 0.055624 -0.020238 -0.003935
# 5 -0.007486 -0.005411 -0.003828 -0.020238 0.028074 0.005206
# 6 -0.001087 -0.007475 -0.002026 -0.003935 0.005206 0.036053
#
#
# Mechanical properties :
#
#
# Convention : Reuss Voigt Hill
#
# Bulk Modulus (GPa) = 17.36488 41.45111 29.40799
# Shear Modulus (GPa) = 25.11714 38.81876 31.96795
#
# Velocity S-wave (km/s) = 3.23224 4.01827 3.64649
# Velocity P-wave (km/s) = 4.59920 6.22656 5.47369
#
# Compressibility (1/GPa) = 0.05758750
#
# Stress axis : x y z
#
# Youngs Moduli (GPa) = 93.46508 31.56180 60.71315
#
# Poissons Ratio (x) = -0.04287 0.08796
# Poissons Ratio (y) = -0.12696 0.03295
# Poissons Ratio (z) = 0.13541 0.01713
#
# Static dielectric constant tensor:
#      x y z
#    x 1.965850 -0.024150 -0.001860 
#    y -0.024150 2.114040 0.017230 
#    z -0.001860 0.017230 1.944080 
# 
# From -- ./inp_files/458373.got.cif
#   From: 2010.05.17/outbox.cif.g08.bks.cpg/sg2_230_cif.got.tgz:458373.got - 2010.06.03 11:33:40.
