data_PCOD9093750
_publ_section_title
;
Structure prediction by ZEFSAII (Michael W. Deem and Ramdas Pophale) SiO2 
 PCOD9093750
Probable space group: P -1
;
_chemical_formula_sum "Si O2"
_cell_formula_units_Z 14
_cell_length_a 10.416184
_cell_length_b 12.280973
_cell_length_c 8.489253
_cell_angle_alpha 35.994418
_cell_angle_beta 123.268656
_cell_angle_gamma 125.994563
_cell_volume 510.234900
_symmetry_space_group_name_H-M "P -1"
_symmetry_group_IT_number 2
_symmetry_cell_setting 'triclinic'
loop_
_space_group_symop_operation_xyz
x,y,z
-x,-y,-z
loop_
_atom_site_type_symbol
_atom_site_label
_atom_site_fract_x
_atom_site_fract_y
_atom_site_fract_z
Si Si1 0.401404 0.733467 0.659270
Si Si2 0.150052 0.424550 0.529979
Si Si3 0.411276 0.729011 0.020363
Si Si4 0.883840 0.084496 0.713392
Si Si5 0.821373 0.697586 0.972164
Si Si6 0.508689 0.641174 0.512413
Si Si7 0.922570 0.311273 0.066518
O O1 0.250453 0.819164 0.429600
O O2 0.501142 0.750803 0.543221
O O3 0.474157 0.800401 0.804153
O O4 0.322693 0.500539 0.908718
O O5 0.340775 0.462341 0.614529
O O6 0.138683 0.621672 0.218264
O O7 0.028637 0.259676 0.535677
O O8 0.099663 0.369459 0.739527
O O9 0.506436 0.769427 0.204217
O O10 0.371225 0.490894 0.269796
O O11 0.247616 0.791296 0.849065
O O12 0.794389 0.897357 0.772332
O O13 0.000000 0.000000 0.000000
O O14 0.933428 0.758830 0.822560
O O15 0.000000 0.500000 0.000000
#
# Coordination Sequence:
#
# PCOD9093750 Si02
#       7
#     2   2   2   2   2   2   2
#     4  11  20  39  62  84 117 150 191 240 286 339
#     4   9  18  33  53  78 111 141 187 229 282 334
#     4  10  20  35  58  91 112 149 205 224 283 353
#     4  10  21  32  58  93 112 144 197 234 288 350
#     4  10  20  33  57  85 112 147 181 235 298 325
#     4   9  21  34  62  84 111 161 190 235 283 335
#     4  11  18  31  56  82 114 142 181 240 285 336
#
# _framework density 27.438344000000001
#
# number of rings (size 3 to 8) (size 9 to 14) (size 15 to 20)
#    0.000    2.000    2.857    0.857   10.000    0.000 
#    0.000    2.857    0.000   14.571    0.000    0.000 
#    0.000    0.000    0.000    0.000    0.000    0.000 
#
# Total GULP energy -77945.022122 kJ/mol
# GULP energy per Si atom -5567.501580 kJ/mol
# Density = 2.737589 g / cm^3
# Si number density = 27.438344 Si / 1000 Ang^3
#
#
#
# Elastic Constant Matrix: (Units=GPa)
#
#
# Indices 1 2 3 4 5 6 
#
# 1 133.5898 61.0636 25.2087 1.0833 -0.9770 -26.0337
# 2 61.0636 105.5047 32.2101 18.5300 -8.6618 -20.7213
# 3 25.2087 32.2101 117.1480 32.0209 -0.9674 -13.5790
# 4 1.0833 18.5300 32.0209 41.9570 -13.9031 -13.1626
# 5 -0.9770 -8.6618 -0.9674 -13.9031 41.4701 9.1574
# 6 -26.0337 -20.7213 -13.5790 -13.1626 9.1574 54.0479
#
#
#
# Elastic Compliance Matrix: (Units=1/GPa)
#
#
# Indices 1 2 3 4 5 6 
#
# 1 0.011324 -0.006164 -0.001594 0.004765 -0.000323 0.003906
# 2 -0.006164 0.014528 -0.001288 -0.004605 0.001101 0.000969
# 3 -0.001594 -0.001288 0.011786 -0.009462 -0.003190 -0.000065
# 4 0.004765 -0.004605 -0.009462 0.038225 0.010490 0.005684
# 5 -0.000323 0.001101 -0.003190 0.010490 0.028395 -0.002791
# 6 0.003906 0.000969 -0.000065 0.005684 -0.002791 0.022596
#
#
# Mechanical properties :
#
#
# Convention : Reuss Voigt Hill
#
# Bulk Modulus (GPa) = 51.16068 65.91193 58.53631
# Shear Modulus (GPa) = 33.01156 43.34569 38.17862
#
# Velocity S-wave (km/s) = 3.47236 3.97892 3.73424
# Velocity P-wave (km/s) = 5.89598 6.72183 6.32240
#
# Compressibility (1/GPa) = 0.01954626
#
# Stress axis : x y z
#
# Youngs Moduli (GPa) = 88.30799 68.83066 84.84670
#
# Poissons Ratio (x) = 0.42424 0.13528
# Poissons Ratio (y) = 0.54429 0.10929
# Poissons Ratio (z) = 0.14080 0.08866
#
# Static dielectric constant tensor:
#      x y z
#    x 2.327080 0.005670 0.004540 
#    y 0.005670 2.275990 0.046890 
#    z 0.004540 0.046890 2.347290 
# 
# From -- ./inp_files/246557.got.cif
#   From: 2010.05.17/outbox.cif.g08.bks.cpg/sg2_124_cif.got.tgz:246557.got - 2010.06.03 11:33:40.
