data_PCOD9093314
_publ_section_title
;
Structure prediction by ZEFSAII (Michael W. Deem and Ramdas Pophale) SiO2 
 PCOD9093314
Probable space group: P -1
;
_chemical_formula_sum "Si O2"
_cell_formula_units_Z 12
_cell_length_a 10.892367
_cell_length_b 7.848486
_cell_length_c 10.208673
_cell_angle_alpha 67.761361
_cell_angle_beta 139.174970
_cell_angle_gamma 87.959870
_cell_volume 447.135991
_symmetry_space_group_name_H-M "P -1"
_symmetry_group_IT_number 2
_symmetry_cell_setting 'triclinic'
loop_
_space_group_symop_operation_xyz
x,y,z
-x,-y,-z
loop_
_atom_site_type_symbol
_atom_site_label
_atom_site_fract_x
_atom_site_fract_y
_atom_site_fract_z
Si Si1 0.368857 0.378917 0.285683
Si Si2 0.951000 0.369061 0.837692
Si Si3 0.560609 0.691019 0.922471
Si Si4 0.328780 0.958398 0.162095
Si Si5 0.964563 0.696590 0.579505
Si Si6 0.238780 0.871350 0.848405
O O1 0.461110 0.391498 0.214748
O O2 0.239226 0.574213 0.228695
O O3 0.557610 0.178082 0.577157
O O4 0.167216 0.345713 0.091068
O O5 0.863081 0.580632 0.612290
O O6 0.067764 0.142789 0.920706
O O7 0.552801 0.911117 0.818803
O O8 0.612641 0.257118 0.119523
O O9 0.806238 0.513487 0.223549
O O10 0.351450 0.821736 0.092837
O O11 0.040133 0.825836 0.699421
O O12 0.837462 0.877951 0.315077
#
# Coordination Sequence:
#
# PCOD9093314 Si02
#       6
#     2   2   2   2   2   2
#     4   9  18  34  58  80 103 137 177 217 260 310
#     4   9  18  35  57  78 104 139 178 213 258 315
#     4  10  20  35  57  78 104 140 175 215 263 314
#     4  10  20  32  55  85 105 131 176 227 262 296
#     4   9  21  36  52  75 108 147 174 206 263 321
#     4  11  21  35  54  80 109 137 175 219 263 310
#
# _framework density 26.837472999999999
#
# number of rings (size 3 to 8) (size 9 to 14) (size 15 to 20)
#    0.000    2.667    0.000    4.000    0.000    6.667 
#    0.000    3.333    0.000   28.000    0.000    0.000 
#    0.000    0.000    0.000    0.000    0.000    0.000 
#
# Total GULP energy -67159.064403 kJ/mol
# GULP energy per Si atom -5596.588700 kJ/mol
# Density = 2.677639 g / cm^3
# Si number density = 26.837473 Si / 1000 Ang^3
#
#
#
# Elastic Constant Matrix: (Units=GPa)
#
#
# Indices 1 2 3 4 5 6 
#
# 1 152.1440 55.1596 64.6071 -10.5251 -36.9188 -17.0333
# 2 55.1596 112.0020 21.9983 -6.9866 -5.8119 -24.5805
# 3 64.6071 21.9983 138.1159 -19.8712 -23.7976 -7.0913
# 4 -10.5251 -6.9866 -19.8712 26.4415 -3.0903 2.5926
# 5 -36.9188 -5.8119 -23.7976 -3.0903 32.6294 -3.5441
# 6 -17.0333 -24.5805 -7.0913 2.5926 -3.5441 41.9502
#
#
#
# Elastic Compliance Matrix: (Units=1/GPa)
#
#
# Indices 1 2 3 4 5 6 
#
# 1 0.012811 -0.004274 -0.002526 0.003230 0.012537 0.003130
# 2 -0.004274 0.012092 0.000125 0.000854 -0.001951 0.005153
# 3 -0.002526 0.000125 0.010489 0.007484 0.005613 0.000832
# 4 0.003230 0.000854 0.007484 0.046435 0.013812 0.001374
# 5 0.012537 -0.001951 0.005613 0.013812 0.050792 0.008334
# 6 0.003130 0.005153 0.000832 0.001374 0.008334 0.028888
#
#
# Mechanical properties :
#
#
# Convention : Reuss Voigt Hill
#
# Bulk Modulus (GPa) = 45.37137 76.19910 60.78524
# Shear Modulus (GPa) = 27.44159 37.57067 32.50613
#
# Velocity S-wave (km/s) = 3.20114 3.74563 3.48404
# Velocity P-wave (km/s) = 5.53225 6.86737 6.23564
#
# Compressibility (1/GPa) = 0.02204033
#
# Stress axis : x y z
#
# Youngs Moduli (GPa) = 78.05612 82.69986 95.34010
#
# Poissons Ratio (x) = 0.35348 0.24087
# Poissons Ratio (y) = 0.33363 -0.01190
# Poissons Ratio (z) = 0.19720 -0.01032
#
# Static dielectric constant tensor:
#      x y z
#    x 2.098490 -0.008320 0.008640 
#    y -0.008320 2.150940 -0.054420 
#    z 0.008640 -0.054420 2.079210 
# 
# From -- ./inp_files/459938.got.cif
#   From: 2010.05.17/outbox.cif.g08.bks.cpg/sg2_230_cif.got.tgz:459938.got - 2010.06.03 11:33:40.
