data_PCOD9093705
_publ_section_title
;
Structure prediction by ZEFSAII (Michael W. Deem and Ramdas Pophale) SiO2 
 PCOD9093705
Probable space group: P -1
;
_chemical_formula_sum "Si O2"
_cell_formula_units_Z 14
_cell_length_a 9.845886
_cell_length_b 17.187431
_cell_length_c 5.102456
_cell_angle_alpha 124.890221
_cell_angle_beta 103.583258
_cell_angle_gamma 97.384641
_cell_volume 649.953684
_symmetry_space_group_name_H-M "P -1"
_symmetry_group_IT_number 2
_symmetry_cell_setting 'triclinic'
loop_
_space_group_symop_operation_xyz
x,y,z
-x,-y,-z
loop_
_atom_site_type_symbol
_atom_site_label
_atom_site_fract_x
_atom_site_fract_y
_atom_site_fract_z
Si Si1 0.609634 0.080504 0.398138
Si Si2 0.857441 0.388318 0.422278
Si Si3 0.543840 0.617921 0.200765
Si Si4 0.953452 0.609726 0.985457
Si Si5 0.271544 0.283967 0.022563
Si Si6 0.631434 0.254807 0.439984
Si Si7 0.369594 0.105467 0.742897
O O1 0.701149 0.181834 0.486559
O O2 0.496892 0.107551 0.595458
O O3 0.696013 0.012131 0.439793
O O4 0.500000 0.000000 0.000000
O O5 0.840131 0.497711 0.659621
O O6 0.718507 0.301159 0.306624
O O7 0.914929 0.379065 0.141219
O O8 0.986743 0.389245 0.691431
O O9 0.667425 0.674153 0.582105
O O10 0.403838 0.656346 0.253511
O O11 0.500000 0.500000 0.000000
O O12 0.608395 0.651304 0.007731
O O13 0.876866 0.692009 0.057205
O O14 0.262540 0.168398 0.748383
O O15 0.469628 0.176294 0.149979
#
# Coordination Sequence:
#
# PCOD9093705 Si02
#       7
#     2   2   2   2   2   2   2
#     4   9  17  34  54  83 112 139 177 224 292 344
#     4  10  22  37  57  77 111 150 199 225 262 318
#     4  11  22  33  53  85 116 144 176 229 288 333
#     4  10  22  39  54  78 108 159 193 227 260 315
#     4  11  21  37  56  79 115 147 186 223 279 338
#     4  10  20  33  56  84 113 144 184 233 279 330
#     4   9  19  33  56  86 110 141 178 229 292 340
#
# _framework density 21.539995000000001
#
# number of rings (size 3 to 8) (size 9 to 14) (size 15 to 20)
#    0.000    2.000    1.429    2.143    2.000    3.429 
#    0.000    0.000    0.000    1.714    0.000    0.000 
#    0.000    0.000    0.000    0.000    0.000    0.000 
#
# Total GULP energy -78119.941762 kJ/mol
# GULP energy per Si atom -5579.995840 kJ/mol
# Density = 2.149097 g / cm^3
# Si number density = 21.539995 Si / 1000 Ang^3
#
#
#
# Elastic Constant Matrix: (Units=GPa)
#
#
# Indices 1 2 3 4 5 6 
#
# 1 50.7118 24.3843 5.4856 17.0585 -16.5915 -22.0060
# 2 24.3843 124.1241 14.5766 29.7907 -16.1212 -10.3394
# 3 5.4856 14.5766 61.3862 16.6106 -11.8058 -13.0782
# 4 17.0585 29.7907 16.6106 34.9585 -9.4699 -14.2237
# 5 -16.5915 -16.1212 -11.8058 -9.4699 23.5113 8.4735
# 6 -22.0060 -10.3394 -13.0782 -14.2237 8.4735 44.3824
#
#
#
# Elastic Compliance Matrix: (Units=1/GPa)
#
#
# Indices 1 2 3 4 5 6 
#
# 1 0.033713 -0.002160 0.005508 -0.007533 0.017701 0.012042
# 2 -0.002160 0.010639 0.000052 -0.007854 0.003252 -0.001715
# 3 0.005508 0.000052 0.020775 -0.008248 0.009439 0.004419
# 4 -0.007533 -0.007854 -0.008248 0.045875 0.001307 0.006457
# 5 0.017701 0.003252 0.009439 0.001307 0.062211 0.000858
# 6 0.012042 -0.001715 0.004419 0.006457 0.000858 0.031311
#
#
# Mechanical properties :
#
#
# Convention : Reuss Voigt Hill
#
# Bulk Modulus (GPa) = 13.90286 36.12389 25.01338
# Shear Modulus (GPa) = 22.55324 33.35550 27.95437
#
# Velocity S-wave (km/s) = 3.23931 3.93942 3.60639
# Velocity P-wave (km/s) = 4.52320 6.12364 5.38323
#
# Compressibility (1/GPa) = 0.07192763
#
# Stress axis : x y z
#
# Youngs Moduli (GPa) = 29.66240 93.99248 48.13582
#
# Poissons Ratio (x) = 0.20300 -0.26515
# Poissons Ratio (y) = 0.06406 -0.00250
# Poissons Ratio (z) = -0.16339 -0.00488
#
# Static dielectric constant tensor:
#      x y z
#    x 1.808450 -0.070260 0.040020 
#    y -0.070260 1.888760 -0.030230 
#    z 0.040020 -0.030230 1.854690 
# 
# From -- ./inp_files/34071.got.cif
#   From: 2010.05.17/outbox.cif.g08.bks.cpg/sg2_18_cif.got.tgz:34071.got - 2010.06.03 11:33:40.
