data_PCOD9093010
_publ_section_title
;
Structure prediction by ZEFSAII (Michael W. Deem and Ramdas Pophale) SiO2 
 PCOD9093010
Probable space group: P -1
;
_chemical_formula_sum "Si O2"
_cell_formula_units_Z 16
_cell_length_a 8.508150
_cell_length_b 8.543883
_cell_length_c 13.421424
_cell_angle_alpha 77.045625
_cell_angle_beta 136.850610
_cell_angle_gamma 97.280075
_cell_volume 649.266428
_symmetry_space_group_name_H-M "P -1"
_symmetry_group_IT_number 2
_symmetry_cell_setting 'triclinic'
loop_
_space_group_symop_operation_xyz
x,y,z
-x,-y,-z
loop_
_atom_site_type_symbol
_atom_site_label
_atom_site_fract_x
_atom_site_fract_y
_atom_site_fract_z
Si Si1 0.242237 0.457714 0.708710
Si Si2 0.934675 0.471021 0.859591
Si Si3 0.143055 0.733549 0.475442
Si Si4 0.383717 0.258363 0.399413
Si Si5 0.983941 0.080532 0.323291
Si Si6 0.803762 0.137717 0.901159
Si Si7 0.658519 0.781894 0.395363
Si Si8 0.687197 0.306962 0.035889
O O1 0.216438 0.637550 0.625632
O O2 0.301531 0.347509 0.653820
O O3 0.988351 0.402487 0.627201
O O4 0.442356 0.398627 0.885795
O O5 0.135786 0.553741 0.881965
O O6 0.707476 0.581077 0.719612
O O7 0.890737 0.286176 0.855404
O O8 0.000000 0.500000 0.000000
O O9 0.378769 0.795901 0.532648
O O10 0.971788 0.891265 0.356043
O O11 0.176676 0.134840 0.323168
O O12 0.580633 0.704824 0.473643
O O13 0.111418 0.137858 0.473581
O O14 0.746932 0.177157 0.169167
O O15 0.551864 0.096353 0.751841
O O16 0.759859 0.208073 0.982379
O O17 0.000000 0.000000 0.000000
#
# Coordination Sequence:
#
# PCOD9093010 Si02
#       8
#     2   2   2   2   2   2   2   2
#     4  10  23  39  58  84 115 161 189 227 284 353
#     4   9  17  32  55  79 112 150 183 228 285 342
#     4  11  21  36  60  87 116 149 196 235 280 344
#     4   9  19  35  59  87 107 147 188 238 281 332
#     4   9  21  36  62  86 112 147 193 245 282 332
#     4  10  20  30  51  85 120 142 182 240 289 331
#     4   9  21  38  56  87 115 145 191 234 291 337
#     4   9  19  39  53  80 113 153 194 222 286 350
#
# _framework density 24.643198000000002
#
# number of rings (size 3 to 8) (size 9 to 14) (size 15 to 20)
#    0.750    1.750    0.000    2.625    1.750    6.000 
#    0.000    0.000    0.000    3.000    6.500    0.000 
#    0.000    0.000    0.000    0.000    0.000    0.000 
#
# Total GULP energy -89269.664208 kJ/mol
# GULP energy per Si atom -5579.354013 kJ/mol
# Density = 2.458711 g / cm^3
# Si number density = 24.643198 Si / 1000 Ang^3
#
#
#
# Elastic Constant Matrix: (Units=GPa)
#
#
# Indices 1 2 3 4 5 6 
#
# 1 41.4994 14.3465 19.9220 -12.6874 3.1449 -1.2849
# 2 14.3465 91.0816 51.1623 -32.8384 -7.1877 11.0713
# 3 19.9220 51.1623 199.9963 -23.3256 14.5957 -4.4176
# 4 -12.6874 -32.8384 -23.3256 48.3577 -5.2874 -4.6274
# 5 3.1449 -7.1877 14.5957 -5.2874 31.5322 -3.7664
# 6 -1.2849 11.0713 -4.4176 -4.6274 -3.7664 25.4940
#
#
#
# Elastic Compliance Matrix: (Units=1/GPa)
#
#
# Indices 1 2 3 4 5 6 
#
# 1 0.027266 -0.002068 -0.001424 0.005182 -0.001332 0.002769
# 2 -0.002068 0.018599 -0.004006 0.010392 0.007337 -0.005905
# 3 -0.001424 -0.004006 0.006455 -0.000150 -0.003517 0.002239
# 4 0.005182 0.010392 -0.000150 0.030027 0.007224 0.002240
# 5 -0.001332 0.007337 -0.003517 0.007224 0.036701 0.002870
# 6 0.002769 -0.005905 0.002239 0.002240 0.002870 0.043147
#
#
# Mechanical properties :
#
#
# Convention : Reuss Voigt Hill
#
# Bulk Modulus (GPa) = 26.79264 55.93766 41.36515
# Shear Modulus (GPa) = 26.36665 37.55323 31.95994
#
# Velocity S-wave (km/s) = 3.27454 3.90792 3.60517
# Velocity P-wave (km/s) = 5.01922 6.56588 5.84395
#
# Compressibility (1/GPa) = 0.03732368
#
# Stress axis : x y z
#
# Youngs Moduli (GPa) = 36.67529 53.76770 154.91251
#
# Poissons Ratio (x) = 0.11121 0.22063
# Poissons Ratio (y) = 0.07586 0.62052
# Poissons Ratio (z) = 0.05223 0.21537
#
# Static dielectric constant tensor:
#      x y z
#    x 2.093460 0.059650 0.003690 
#    y 0.059650 1.994740 0.014730 
#    z 0.003690 0.014730 1.971100 
# 
# From -- ./inp_files/406637.got.cif
#   From: 2010.05.17/outbox.cif.g08.bks.cpg/sg2_204_cif.got.tgz:406637.got - 2010.06.03 11:33:40.
