data_PCOD9093749
_publ_section_title
;
Structure prediction by ZEFSAII (Michael W. Deem and Ramdas Pophale) SiO2 
 PCOD9093749
Probable space group: P -1
;
_chemical_formula_sum "Si O2"
_cell_formula_units_Z 14
_cell_length_a 9.422873
_cell_length_b 7.898870
_cell_length_c 11.550772
_cell_angle_alpha 125.068116
_cell_angle_beta 54.905195
_cell_angle_gamma 105.929313
_cell_volume 573.727030
_symmetry_space_group_name_H-M "P -1"
_symmetry_group_IT_number 2
_symmetry_cell_setting 'triclinic'
loop_
_space_group_symop_operation_xyz
x,y,z
-x,-y,-z
loop_
_atom_site_type_symbol
_atom_site_label
_atom_site_fract_x
_atom_site_fract_y
_atom_site_fract_z
Si Si1 0.889984 0.319903 0.845268
Si Si2 0.435613 0.919699 0.673742
Si Si3 0.281909 0.881220 0.954544
Si Si4 0.985518 0.288742 0.536353
Si Si5 0.902035 0.774253 0.074043
Si Si6 0.244385 0.323835 0.249692
Si Si7 0.635495 0.258027 0.599068
O O1 0.706384 0.877049 0.927218
O O2 0.061976 0.286134 0.832010
O O3 0.939525 0.222376 0.660471
O O4 0.849576 0.566803 0.955812
O O5 0.247192 0.046122 0.798152
O O6 0.562887 0.099234 0.661289
O O7 0.426393 0.820597 0.766260
O O8 0.449936 0.770297 0.496835
O O9 0.093217 0.834662 0.973169
O O10 0.263100 0.773920 0.046585
O O11 0.927769 0.537560 0.661749
O O12 0.844515 0.203923 0.481902
O O13 0.175705 0.254611 0.380548
O O14 0.378331 0.500930 0.262691
#
# Coordination Sequence:
#
# PCOD9093749 Si02
#       7
#     2   2   2   2   2   2   2
#     4   9  20  34  54  86 113 135 182 220 285 301
#     4  11  20  37  59  76 113 140 193 213 264 331
#     4  10  20  33  57  85 101 146 179 227 264 318
#     4   9  18  36  56  79 112 136 178 233 263 324
#     4   9  20  33  55  86 104 146 177 227 265 315
#     4   9  19  33  58  84 102 141 184 222 275 296
#     4   9  22  35  57  83 104 147 178 230 267 309
#
# _framework density 24.401848999999999
#
# number of rings (size 3 to 8) (size 9 to 14) (size 15 to 20)
#    1.714    0.857    0.000    2.143    2.000    1.143 
#    0.000    0.714    0.000    2.571    0.000    0.000 
#    0.000    0.000    0.000    0.000    0.000    0.000 
#
# Total GULP energy -78037.597935 kJ/mol
# GULP energy per Si atom -5574.114138 kJ/mol
# Density = 2.434631 g / cm^3
# Si number density = 24.401849 Si / 1000 Ang^3
#
#
#
# Elastic Constant Matrix: (Units=GPa)
#
#
# Indices 1 2 3 4 5 6 
#
# 1 37.3572 20.5054 5.7738 -6.6983 -9.3147 7.9192
# 2 20.5054 127.0200 40.2706 -4.3590 21.4931 32.5598
# 3 5.7738 40.2706 62.5089 -7.8687 27.8385 0.4377
# 4 -6.6983 -4.3590 -7.8687 48.3721 -3.9823 2.6584
# 5 -9.3147 21.4931 27.8385 -3.9823 25.1634 -0.8827
# 6 7.9192 32.5598 0.4377 2.6584 -0.8827 32.6752
#
#
#
# Elastic Compliance Matrix: (Units=1/GPa)
#
#
# Indices 1 2 3 4 5 6 
#
# 1 0.048114 -0.009242 -0.018785 0.006765 0.047505 -0.001467
# 2 -0.009242 0.016604 -0.003378 -0.000724 -0.014492 -0.014592
# 3 -0.018785 -0.003378 0.042491 -0.000518 -0.050948 0.006015
# 4 0.006765 -0.000724 -0.000518 0.022185 0.007119 -0.002524
# 5 0.047505 -0.014492 -0.050948 0.007119 0.127422 0.006473
# 6 -0.001467 -0.014592 0.006015 -0.002524 0.006473 0.045800
#
#
# Mechanical properties :
#
#
# Convention : Reuss Voigt Hill
#
# Bulk Modulus (GPa) = 22.52241 39.99841 31.26041
# Shear Modulus (GPa) = 13.15013 31.93123 22.54068
#
# Velocity S-wave (km/s) = 2.32394 3.62132 3.04259
# Velocity P-wave (km/s) = 4.05595 5.82344 5.01813
#
# Compressibility (1/GPa) = 0.04440023
#
# Stress axis : x y z
#
# Youngs Moduli (GPa) = 20.78410 60.22807 23.53416
#
# Poissons Ratio (x) = 0.55661 0.44209
# Poissons Ratio (y) = 0.19208 0.07949
# Poissons Ratio (z) = 0.39043 0.20344
#
# Static dielectric constant tensor:
#      x y z
#    x 1.996620 -0.082130 0.023100 
#    y -0.082130 2.017000 -0.048300 
#    z 0.023100 -0.048300 1.979950 
# 
# From -- ./inp_files/415770.got.cif
#   From: 2010.05.17/outbox.cif.g08.bks.cpg/sg2_208_cif.got.tgz:415770.got - 2010.06.03 11:33:40.
