data_PCOD9093104
_publ_section_title
;
Structure prediction by ZEFSAII (Michael W. Deem and Ramdas Pophale) SiO2 
 PCOD9093104
Probable space group: P -1
;
_chemical_formula_sum "Si O2"
_cell_formula_units_Z 15
_cell_length_a 18.666260
_cell_length_b 8.652918
_cell_length_c 11.686944
_cell_angle_alpha 138.344001
_cell_angle_beta 38.823790
_cell_angle_gamma 149.170253
_cell_volume 588.269238
_symmetry_space_group_name_H-M "P -1"
_symmetry_group_IT_number 2
_symmetry_cell_setting 'triclinic'
loop_
_space_group_symop_operation_xyz
x,y,z
-x,-y,-z
loop_
_atom_site_type_symbol
_atom_site_label
_atom_site_fract_x
_atom_site_fract_y
_atom_site_fract_z
Si Si1 0.198807 0.084986 0.713364
Si Si2 0.164655 0.393255 0.115926
Si Si3 0.627000 0.527183 0.657786
Si Si4 0.000000 0.500000 0.000000
Si Si5 0.682368 0.338921 0.272083
Si Si6 0.058901 0.821221 0.349602
Si Si7 0.402399 0.017386 0.041218
Si Si8 0.751724 0.355365 0.599826
O O1 0.268580 0.370466 0.700769
O O2 0.294025 0.977152 0.521868
O O3 0.198455 0.193535 0.901638
O O4 0.018043 0.833793 0.769870
O O5 0.232842 0.687042 0.111107
O O6 0.235176 0.518967 0.221954
O O7 0.590890 0.309850 0.478678
O O8 0.669799 0.423979 0.654446
O O9 0.777981 0.886860 0.639739
O O10 0.528673 0.626623 0.850387
O O11 0.165336 0.583454 0.828635
O O12 0.940997 0.310530 0.844650
O O13 0.593135 0.059888 0.138399
O O14 0.925925 0.549363 0.445340
O O15 0.000000 0.000000 0.500000
O O16 0.500000 0.000000 0.000000
#
# Coordination Sequence:
#
# PCOD9093104 Si02
#       8
#     2   2   2   1   2   2   2   2
#     4  10  22  34  55  90 128 154 190 234 315 378
#     4  10  22  37  58  85 124 161 192 249 304 358
#     4  11  22  37  61  89 119 160 206 251 299 355
#     4  12  20  34  60  94 132 154 200 240 304 364
#     4  11  23  38  65  94 123 162 195 249 306 364
#     4  10  20  31  54  91 129 157 187 235 304 370
#     4  11  25  45  64  84 115 165 220 254 288 352
#     4  11  21  34  56  90 124 156 185 243 312 371
#
# _framework density 25.498528
#
# number of rings (size 3 to 8) (size 9 to 14) (size 15 to 20)
#    0.000    1.333    4.000    2.800    5.600    1.600 
#    0.000    0.667    0.000    4.000    0.000    0.000 
#    0.000    0.000    0.000    0.000    0.000    0.000 
#
# Total GULP energy -83561.194789 kJ/mol
# GULP energy per Si atom -5570.746319 kJ/mol
# Density = 2.544049 g / cm^3
# Si number density = 25.498528 Si / 1000 Ang^3
#
#
#
# Elastic Constant Matrix: (Units=GPa)
#
#
# Indices 1 2 3 4 5 6 
#
# 1 145.2911 16.8067 88.7282 21.5287 19.3546 10.6348
# 2 16.8067 69.5830 7.7607 -5.2656 -2.0939 2.5539
# 3 88.7282 7.7607 162.9612 6.3358 33.5993 -6.6040
# 4 21.5287 -5.2656 6.3358 15.6283 -6.4441 4.6796
# 5 19.3546 -2.0939 33.5993 -6.4441 44.8785 4.9044
# 6 10.6348 2.5539 -6.6040 4.6796 4.9044 31.1704
#
#
#
# Elastic Compliance Matrix: (Units=1/GPa)
#
#
# Indices 1 2 3 4 5 6 
#
# 1 0.015285 -0.004672 -0.006347 -0.021419 -0.004894 -0.002191
# 2 -0.004672 0.016937 -0.000088 0.015284 0.005388 -0.002955
# 3 -0.006347 -0.000088 0.011088 0.000035 -0.006163 0.005486
# 4 -0.021419 0.015284 0.000035 0.114902 0.028130 -0.015613
# 5 -0.004894 0.005388 -0.006163 0.028130 0.034358 -0.009706
# 6 -0.002191 -0.002955 0.005486 -0.015613 -0.009706 0.038105
#
#
# Mechanical properties :
#
#
# Convention : Reuss Voigt Hill
#
# Bulk Modulus (GPa) = 47.40024 67.15849 57.27936
# Shear Modulus (GPa) = 19.23661 35.97142 27.60401
#
# Velocity S-wave (km/s) = 2.74965 3.76004 3.29382
# Velocity P-wave (km/s) = 5.35822 6.72650 6.08097
#
# Compressibility (1/GPa) = 0.02109694
#
# Stress axis : x y z
#
# Youngs Moduli (GPa) = 65.42205 59.04316 90.18785
#
# Poissons Ratio (x) = 0.27584 0.57241
# Poissons Ratio (y) = 0.30564 0.00792
# Poissons Ratio (z) = 0.41523 0.00519
#
# Static dielectric constant tensor:
#      x y z
#    x 2.054240 0.142990 -0.059190 
#    y 0.142990 2.423230 -0.234570 
#    z -0.059190 -0.234570 1.835740 
# 
# From -- ./inp_files/460861.got.cif
#   From: 2010.05.17/outbox.cif.g08.bks.cpg/sg2_231_cif.got.tgz:460861.got - 2010.06.03 11:33:40.
