data_PCOD9093045
_publ_section_title
;
Structure prediction by ZEFSAII (Michael W. Deem and Ramdas Pophale) SiO2 
 PCOD9093045
Probable space group: P -1
;
_chemical_formula_sum "Si O2"
_cell_formula_units_Z 16
_cell_length_a 12.491812
_cell_length_b 5.777974
_cell_length_c 14.069893
_cell_angle_alpha 107.420993
_cell_angle_beta 69.340813
_cell_angle_gamma 66.540989
_cell_volume 748.544270
_symmetry_space_group_name_H-M "P -1"
_symmetry_group_IT_number 2
_symmetry_cell_setting 'triclinic'
loop_
_space_group_symop_operation_xyz
x,y,z
-x,-y,-z
loop_
_atom_site_type_symbol
_atom_site_label
_atom_site_fract_x
_atom_site_fract_y
_atom_site_fract_z
Si Si1 0.379778 0.318864 0.038275
Si Si2 0.977746 0.165755 0.428889
Si Si3 0.219489 0.179438 0.437364
Si Si4 0.094111 0.218034 0.680472
Si Si5 0.836099 0.175574 0.048897
Si Si6 0.181523 0.185574 0.146171
Si Si7 0.399329 0.790742 0.184035
Si Si8 0.157076 0.279105 0.881483
O O1 0.449342 0.347545 0.925178
O O2 0.241864 0.323287 0.074352
O O3 0.365059 0.549183 0.148883
O O4 0.500000 0.000000 0.000000
O O5 0.832977 0.481768 0.508541
O O6 0.107697 0.187917 0.401647
O O7 0.974644 0.966031 0.325005
O O8 0.000000 0.000000 0.500000
O O9 0.195403 0.119858 0.545699
O O10 0.365903 0.932895 0.315729
O O11 0.151777 0.205908 0.764104
O O12 0.970613 0.556742 0.743424
O O13 0.783795 0.515611 0.111935
O O14 0.780371 0.027984 0.118714
O O15 0.821393 0.066507 0.937461
O O16 0.000000 0.000000 0.000000
O O17 0.290911 0.051745 0.179852
O O18 0.000000 0.500000 0.000000
#
# Coordination Sequence:
#
# PCOD9093045 Si02
#       8
#     2   2   2   2   2   2   2   2
#     4   9  21  36  53  77 104 142 186 231 277 327
#     4   9  18  30  44  73 106 142 180 210 265 335
#     4  10  20  31  48  75 107 143 178 219 273 338
#     4  11  21  31  51  77 111 151 179 220 277 335
#     4  10  21  35  53  81 112 149 189 234 281 331
#     4  11  20  32  55  78 110 148 183 227 283 328
#     4  10  20  36  54  76 112 140 186 231 273 335
#     4  10  21  36  51  77 115 148 191 233 271 334
#
# _framework density 21.37482
#
# number of rings (size 3 to 8) (size 9 to 14) (size 15 to 20)
#    0.000    2.000    2.500    3.000    3.500    5.000 
#    0.000    0.000    0.000    0.000    0.000    1.750 
#    0.000    0.000    0.000    0.000    0.000    0.000 
#
# Total GULP energy -89213.125055 kJ/mol
# GULP energy per Si atom -5575.820316 kJ/mol
# Density = 2.132617 g / cm^3
# Si number density = 21.374820 Si / 1000 Ang^3
#
#
#
# Elastic Constant Matrix: (Units=GPa)
#
#
# Indices 1 2 3 4 5 6 
#
# 1 48.4240 8.3682 29.8810 -3.8473 17.5460 15.7665
# 2 8.3682 96.2998 31.5038 7.2992 14.0672 22.7790
# 3 29.8810 31.5038 141.0878 -6.7805 15.5754 11.8414
# 4 -3.8473 7.2992 -6.7805 34.7057 3.8010 8.7546
# 5 17.5460 14.0672 15.5754 3.8010 32.1402 9.8114
# 6 15.7665 22.7790 11.8414 8.7546 9.8114 27.1632
#
#
#
# Elastic Compliance Matrix: (Units=1/GPa)
#
#
# Indices 1 2 3 4 5 6 
#
# 1 0.034917 0.004588 -0.004843 0.008449 -0.013683 -0.019784
# 2 0.004588 0.014280 -0.002692 0.000484 -0.003765 -0.012261
# 3 -0.004843 -0.002692 0.008807 0.001587 -0.000959 0.001064
# 4 0.008449 0.000484 0.001587 0.034358 -0.004995 -0.015271
# 5 -0.013683 -0.003765 -0.000959 -0.004995 0.041899 -0.002007
# 6 -0.019784 -0.012261 0.001064 -0.015271 -0.002007 0.063763
#
#
# Mechanical properties :
#
#
# Convention : Reuss Voigt Hill
#
# Bulk Modulus (GPa) = 19.18986 47.25753 33.22369
# Shear Modulus (GPa) = 22.59501 33.20572 27.90037
#
# Velocity S-wave (km/s) = 3.25481 3.94572 3.61680
# Velocity P-wave (km/s) = 4.80857 6.55097 5.74620
#
# Compressibility (1/GPa) = 0.05211085
#
# Stress axis : x y z
#
# Youngs Moduli (GPa) = 28.63929 70.02933 113.54162
#
# Poissons Ratio (x) = -0.32131 0.54983
# Poissons Ratio (y) = -0.13140 0.30570
# Poissons Ratio (z) = 0.13869 0.18855
#
# Static dielectric constant tensor:
#      x y z
#    x 1.916360 0.161380 -0.160050 
#    y 0.161380 2.038390 -0.180600 
#    z -0.160050 -0.180600 1.967520 
# 
# From -- ./inp_files/526004.got.cif
#   From: 2010.05.17/outbox.cif.g08.bks.cpg/sg2_264_cif.got.tgz:526004.got - 2010.06.03 11:33:40.
