data_PCOD9093635
_publ_section_title
;
Structure prediction by ZEFSAII (Michael W. Deem and Ramdas Pophale) SiO2 
 PCOD9093635
Probable space group: P -1
;
_chemical_formula_sum "Si O2"
_cell_formula_units_Z 16
_cell_length_a 11.127900
_cell_length_b 7.730362
_cell_length_c 9.966592
_cell_angle_alpha 82.392590
_cell_angle_beta 90.905096
_cell_angle_gamma 133.834713
_cell_volume 609.537606
_symmetry_space_group_name_H-M "P -1"
_symmetry_group_IT_number 2
_symmetry_cell_setting 'triclinic'
loop_
_space_group_symop_operation_xyz
x,y,z
-x,-y,-z
loop_
_atom_site_type_symbol
_atom_site_label
_atom_site_fract_x
_atom_site_fract_y
_atom_site_fract_z
Si Si1 0.665945 0.232913 0.402520
Si Si2 0.841019 0.450910 0.647981
Si Si3 0.186548 0.252947 0.941479
Si Si4 0.250486 0.254608 0.403735
Si Si5 0.643288 0.632345 0.330892
Si Si6 0.505934 0.979722 0.840080
Si Si7 0.999478 0.601906 0.125711
Si Si8 0.291896 0.134061 0.160360
O O1 0.806591 0.343030 0.508921
O O2 0.655838 0.435520 0.377274
O O3 0.638902 0.124502 0.262589
O O4 0.500000 0.000000 0.500000
O O5 0.852506 0.671927 0.616625
O O6 0.983483 0.502317 0.733393
O O7 0.671714 0.240652 0.754948
O O8 0.269103 0.238171 0.820078
O O9 0.151830 0.415033 0.882261
O O10 0.296662 0.323546 0.066945
O O11 0.000000 0.000000 0.000000
O O12 0.448502 0.487841 0.348116
O O13 0.258363 0.188633 0.559695
O O14 0.202572 0.069755 0.307875
O O15 0.540366 0.806268 0.836480
O O16 0.500000 0.000000 0.000000
O O17 0.168887 0.887466 0.100137
O O18 0.000000 0.500000 0.000000
#
# Coordination Sequence:
#
# PCOD9093635 Si02
#       8
#     2   2   2   2   2   2   2   2
#     4   9  18  37  58  89 132 164 208 256 334 394
#     4   9  20  36  60  87 123 173 206 272 322 386
#     4  10  23  42  64  91 131 177 227 264 313 380
#     4  10  20  38  62  97 130 159 216 262 349 393
#     4  10  21  37  66  95 132 174 207 273 325 398
#     4  10  20  33  54  92 134 161 205 258 331 401
#     4  10  21  41  63  85 126 176 224 265 313 382
#     4  10  21  38  60  93 126 169 211 278 324 386
#
# _framework density 26.249407999999999
#
# number of rings (size 3 to 8) (size 9 to 14) (size 15 to 20)
#    0.000    2.250    1.250    0.750    1.750    3.500 
#    0.000    5.000    0.000    3.000    0.000    0.000 
#    0.000    0.000    0.000    0.000    0.000    0.000 
#
# Total GULP energy -89421.505084 kJ/mol
# GULP energy per Si atom -5588.844068 kJ/mol
# Density = 2.618966 g / cm^3
# Si number density = 26.249408 Si / 1000 Ang^3
#
#
#
# Elastic Constant Matrix: (Units=GPa)
#
#
# Indices 1 2 3 4 5 6 
#
# 1 98.4415 2.8749 42.6653 13.3721 34.1177 -6.2861
# 2 2.8749 57.2902 32.9852 17.0663 -0.9237 9.9349
# 3 42.6653 32.9852 202.1561 48.7765 0.5105 6.2168
# 4 13.3721 17.0663 48.7765 53.4654 8.7990 -5.1811
# 5 34.1177 -0.9237 0.5105 8.7990 56.7998 -4.8935
# 6 -6.2861 9.9349 6.2168 -5.1811 -4.8935 24.6112
#
#
#
# Elastic Compliance Matrix: (Units=1/GPa)
#
#
# Indices 1 2 3 4 5 6 
#
# 1 0.014732 0.000263 -0.003504 0.001160 -0.008730 0.003050
# 2 0.000263 0.022094 -0.001801 -0.006477 0.000387 -0.009683
# 3 -0.003504 -0.001801 0.007545 -0.006153 0.002717 -0.002829
# 4 0.001160 -0.006477 -0.006153 0.027706 -0.004224 0.009458
# 5 -0.008730 0.000387 0.002717 -0.004224 0.023548 0.000720
# 6 0.003050 -0.009683 -0.002829 0.009458 0.000720 0.048169
#
#
# Mechanical properties :
#
#
# Convention : Reuss Voigt Hill
#
# Bulk Modulus (GPa) = 29.16589 57.21541 43.19065
# Shear Modulus (GPa) = 30.24684 45.59943 37.92314
#
# Velocity S-wave (km/s) = 3.39822 4.17245 3.80508
# Velocity P-wave (km/s) = 5.15096 6.71242 5.98285
#
# Compressibility (1/GPa) = 0.03428663
#
# Stress axis : x y z
#
# Youngs Moduli (GPa) = 67.87885 45.26205 132.54167
#
# Poissons Ratio (x) = -0.01189 0.46441
# Poissons Ratio (y) = -0.01783 0.23867
# Poissons Ratio (z) = 0.23784 0.08150
#
# Static dielectric constant tensor:
#      x y z
#    x 2.092560 -0.014550 0.016570 
#    y -0.014550 2.081360 -0.033850 
#    z 0.016570 -0.033850 1.996960 
# 
# From -- ./inp_files/238504.got.cif
#   From: 2010.05.17/outbox.cif.g08.bks.cpg/sg2_120_cif.got.tgz:238504.got - 2010.06.03 11:33:40.
