data_PCOD9093772
_publ_section_title
;
Structure prediction by ZEFSAII (Michael W. Deem and Ramdas Pophale) SiO2 
 PCOD9093772
Probable space group: P -1
;
_chemical_formula_sum "Si O2"
_cell_formula_units_Z 16
_cell_length_a 11.768676
_cell_length_b 5.088156
_cell_length_c 13.768397
_cell_angle_alpha 120.230433
_cell_angle_beta 70.376551
_cell_angle_gamma 100.227146
_cell_volume 670.933512
_symmetry_space_group_name_H-M "P -1"
_symmetry_group_IT_number 2
_symmetry_cell_setting 'triclinic'
loop_
_space_group_symop_operation_xyz
x,y,z
-x,-y,-z
loop_
_atom_site_type_symbol
_atom_site_label
_atom_site_fract_x
_atom_site_fract_y
_atom_site_fract_z
Si Si1 0.750736 0.981471 0.648596
Si Si2 0.552130 0.337905 0.048553
Si Si3 0.956865 0.848422 0.838777
Si Si4 0.192791 0.624013 0.105367
Si Si5 0.625615 0.731954 0.257290
Si Si6 0.610595 0.713082 0.478507
Si Si7 0.231464 0.713008 0.753386
Si Si8 0.105613 0.542793 0.402022
O O1 0.637423 0.935567 0.601859
O O2 0.784591 0.661860 0.628267
O O3 0.754272 0.221520 0.781254
O O4 0.852066 0.117838 0.571623
O O5 0.530046 0.524279 0.188315
O O6 0.500000 0.500000 0.000000
O O7 0.695171 0.355857 0.994471
O O8 0.500000 0.000000 0.000000
O O9 0.864548 0.706409 0.917970
O O10 0.940805 0.610330 0.711376
O O11 0.097128 0.832981 0.820504
O O12 0.912430 0.166552 0.868619
O O13 0.591734 0.831011 0.395301
O O14 0.737119 0.509526 0.209280
O O15 0.672749 0.010853 0.231529
O O16 0.500000 0.500000 0.500000
O O17 0.731106 0.501190 0.389424
O O18 0.000000 0.500000 0.500000
#
# Coordination Sequence:
#
# PCOD9093772 Si02
#       8
#     2   2   2   2   2   2   2   2
#     4  10  22  36  57  92 123 168 202 264 312 365
#     4  12  26  47  74  94 128 170 214 279 323 374
#     4  10  20  39  64  93 135 168 210 266 316 381
#     4  10  23  41  64  99 127 165 225 261 314 385
#     4  10  25  43  65  98 126 169 223 259 332 386
#     4  10  25  41  65  92 136 171 218 264 320 392
#     4  10  22  42  65  95 136 170 209 266 325 386
#     4  10  20  33  57  88 125 166 216 248 307 376
#
# _framework density 23.847372
#
# number of rings (size 3 to 8) (size 9 to 14) (size 15 to 20)
#    0.750    1.000    0.000    3.375    5.250    1.500 
#    0.000    3.750    0.000    0.000    0.000    0.000 
#    0.000    0.000    0.000    0.000    0.000    0.000 
#
# Total GULP energy -89390.873936 kJ/mol
# GULP energy per Si atom -5586.929621 kJ/mol
# Density = 2.379309 g / cm^3
# Si number density = 23.847372 Si / 1000 Ang^3
#
#
#
# Elastic Constant Matrix: (Units=GPa)
#
#
# Indices 1 2 3 4 5 6 
#
# 1 75.3961 -4.0747 36.6265 8.8973 7.0906 -1.0348
# 2 -4.0747 94.2781 14.2849 -2.2433 3.4527 1.7053
# 3 36.6265 14.2849 91.2827 0.7892 9.3408 12.9575
# 4 8.8973 -2.2433 0.7892 29.0287 11.1480 -8.0284
# 5 7.0906 3.4527 9.3408 11.1480 25.6538 -6.3593
# 6 -1.0348 1.7053 12.9575 -8.0284 -6.3593 19.4314
#
#
#
# Elastic Compliance Matrix: (Units=1/GPa)
#
#
# Indices 1 2 3 4 5 6 
#
# 1 0.017788 0.001791 -0.008140 -0.004059 0.000757 0.004789
# 2 0.001791 0.011117 -0.002429 0.001123 -0.001411 0.000742
# 3 -0.008140 -0.002429 0.017339 0.000903 -0.007572 -0.013888
# 4 -0.004059 0.001123 0.000903 0.045366 -0.015947 0.012608
# 5 0.000757 -0.001411 -0.007572 -0.015947 0.052572 0.015830
# 6 0.004789 0.000742 -0.013888 0.012608 0.015830 0.071303
#
#
# Mechanical properties :
#
#
# Convention : Reuss Voigt Hill
#
# Bulk Modulus (GPa) = 34.85600 39.40337 37.12968
# Shear Modulus (GPa) = 20.60973 29.09748 24.85361
#
# Velocity S-wave (km/s) = 2.94298 3.49686 3.23181
# Velocity P-wave (km/s) = 5.11822 5.73263 5.43412
#
# Compressibility (1/GPa) = 0.02868947
#
# Stress axis : x y z
#
# Youngs Moduli (GPa) = 56.21868 89.94937 57.67210
#
# Poissons Ratio (x) = -0.16112 0.46943
# Poissons Ratio (y) = -0.10070 0.14009
# Poissons Ratio (z) = 0.45760 0.21849
#
# Static dielectric constant tensor:
#      x y z
#    x 1.943550 -0.024940 -0.016830 
#    y -0.024940 1.854160 0.017460 
#    z -0.016830 0.017460 1.983320 
# 
# From -- ./inp_files/511237.got.cif
#   From: 2010.05.17/outbox.cif.g08.bks.cpg/sg2_256_cif.got.tgz:511237.got - 2010.06.03 11:33:40.
