data_PCOD9093780
_publ_section_title
;
Structure prediction by ZEFSAII (Michael W. Deem and Ramdas Pophale) SiO2 
 PCOD9093780
Probable space group: P -1
;
_chemical_formula_sum "Si O2"
_cell_formula_units_Z 16
_cell_length_a 11.560367
_cell_length_b 18.950468
_cell_length_c 27.407589
_cell_angle_alpha 21.430029
_cell_angle_beta 158.095515
_cell_angle_gamma 147.698738
_cell_volume 810.903247
_symmetry_space_group_name_H-M "P -1"
_symmetry_group_IT_number 2
_symmetry_cell_setting 'triclinic'
loop_
_space_group_symop_operation_xyz
x,y,z
-x,-y,-z
loop_
_atom_site_type_symbol
_atom_site_label
_atom_site_fract_x
_atom_site_fract_y
_atom_site_fract_z
Si Si1 0.758429 0.342203 0.013948
Si Si2 0.766829 0.730746 0.087155
Si Si3 0.806297 0.107469 0.039361
Si Si4 0.238635 0.590550 0.592619
Si Si5 0.553546 0.469918 0.386141
Si Si6 0.632026 0.531331 0.478469
Si Si7 0.836637 0.009086 0.648829
Si Si8 0.838351 0.095330 0.950436
O O1 0.578695 0.330438 0.002688
O O2 0.478941 0.412136 0.821662
O O3 0.000000 0.500000 0.000000
O O4 0.925197 0.128659 0.203181
O O5 0.009654 0.554593 0.317164
O O6 0.904079 0.794870 0.047953
O O7 0.783680 0.914753 0.011388
O O8 0.059524 0.067463 0.207001
O O9 0.691882 0.338783 0.843262
O O10 0.927320 0.038501 0.077333
O O11 0.500000 0.000000 0.000000
O O12 0.402998 0.655934 0.565041
O O13 0.896859 0.537693 0.481852
O O14 0.173715 0.761980 0.495544
O O15 0.505895 0.408945 0.462799
O O16 0.500000 0.500000 0.500000
O O17 0.484928 0.754752 0.267052
O O18 0.500000 0.000000 0.500000
#
# Coordination Sequence:
#
# PCOD9093780 Si02
#       8
#     2   2   2   2   2   2   2   2
#     4  12  24  39  59  85 115 164 209 243 291 361
#     4  10  20  36  59  84 124 156 191 248 309 364
#     4  11  20  34  60  91 122 151 197 256 306 357
#     4  11  22  36  55  88 121 152 196 250 313 357
#     4  10  20  33  57  90 120 149 191 255 312 358
#     4   9  18  33  53  85 123 153 182 232 309 373
#     4  12  25  39  57  85 123 161 204 256 302 362
#     4   9  21  35  56  93 121 151 190 246 318 366
#
# _framework density 19.731083999999999
#
# number of rings (size 3 to 8) (size 9 to 14) (size 15 to 20)
#    0.000    1.500    5.000    0.750    3.500    0.000 
#    0.000    0.000    0.000    1.500    3.250    0.000 
#    0.000    0.000    0.000    0.000    0.000    0.000 
#
# Total GULP energy -89070.606846 kJ/mol
# GULP energy per Si atom -5566.912928 kJ/mol
# Density = 1.968618 g / cm^3
# Si number density = 19.731084 Si / 1000 Ang^3
#
#
#
# Elastic Constant Matrix: (Units=GPa)
#
#
# Indices 1 2 3 4 5 6 
#
# 1 134.3876 27.1004 26.7473 8.2979 3.3910 14.9649
# 2 27.1004 55.6940 16.4730 3.4015 6.5523 9.4188
# 3 26.7473 16.4730 114.1524 10.2211 10.1124 -2.0830
# 4 8.2979 3.4015 10.2211 25.5317 -7.6591 0.9944
# 5 3.3910 6.5523 10.1124 -7.6591 42.1550 -1.3180
# 6 14.9649 9.4188 -2.0830 0.9944 -1.3180 22.6968
#
#
#
# Elastic Compliance Matrix: (Units=1/GPa)
#
#
# Indices 1 2 3 4 5 6 
#
# 1 0.009006 -0.002949 -0.001576 -0.001827 -0.000370 -0.004800
# 2 -0.002949 0.021755 -0.002145 -0.001746 -0.003178 -0.007388
# 3 -0.001576 -0.002145 0.010095 -0.004143 -0.002624 0.002885
# 4 -0.001827 -0.001746 -0.004143 0.044497 0.009502 0.000152
# 5 -0.000370 -0.003178 -0.002624 0.009502 0.026678 0.002455
# 6 -0.004800 -0.007388 0.002885 0.000152 0.002455 0.050691
#
#
# Mechanical properties :
#
#
# Convention : Reuss Voigt Hill
#
# Bulk Modulus (GPa) = 36.34330 49.43062 42.88696
# Shear Modulus (GPa) = 26.99282 33.67094 30.33188
#
# Velocity S-wave (km/s) = 3.70271 4.13545 3.92505
# Velocity P-wave (km/s) = 6.06130 6.92164 6.50571
#
# Compressibility (1/GPa) = 0.02751539
#
# Stress axis : x y z
#
# Youngs Moduli (GPa) = 111.03357 45.96665 99.05823
#
# Poissons Ratio (x) = 0.13557 0.15610
# Poissons Ratio (y) = 0.32748 0.21250
# Poissons Ratio (z) = 0.17497 0.09861
#
# Static dielectric constant tensor:
#      x y z
#    x 1.808960 0.026220 0.014240 
#    y 0.026220 1.709140 -0.029540 
#    z 0.014240 -0.029540 1.740700 
# 
# From -- ./inp_files/623170.got.cif
#   From: 2010.05.17/outbox.cif.g08.bks.cpg/sg2_312_cif.got.tgz:623170.got - 2010.06.03 11:33:40.
