data_PCOD9093417
_publ_section_title
;
Structure prediction by ZEFSAII (Michael W. Deem and Ramdas Pophale) SiO2 
 PCOD9093417
Probable space group: P -1
;
_chemical_formula_sum "Si O2"
_cell_formula_units_Z 16
_cell_length_a 8.870308
_cell_length_b 13.119341
_cell_length_c 8.609681
_cell_angle_alpha 54.575032
_cell_angle_beta 78.484253
_cell_angle_gamma 97.457264
_cell_volume 761.259887
_symmetry_space_group_name_H-M "P -1"
_symmetry_group_IT_number 2
_symmetry_cell_setting 'triclinic'
loop_
_space_group_symop_operation_xyz
x,y,z
-x,-y,-z
loop_
_atom_site_type_symbol
_atom_site_label
_atom_site_fract_x
_atom_site_fract_y
_atom_site_fract_z
Si Si1 0.425153 0.395946 0.740024
Si Si2 0.230809 0.077129 0.389848
Si Si3 0.946151 0.703879 0.718611
Si Si4 0.070266 0.899335 0.293584
Si Si5 0.131884 0.841241 0.850691
Si Si6 0.420584 0.754043 0.923867
Si Si7 0.341022 0.524938 0.937619
Si Si8 0.834870 0.859565 0.108394
O O1 0.500000 0.500000 0.500000
O O2 0.334366 0.466170 0.818026
O O3 0.310166 0.265859 0.796365
O O4 0.547405 0.344045 0.866266
O O5 0.172983 0.203683 0.326240
O O6 0.411137 0.131948 0.236986
O O7 0.113319 0.991369 0.357069
O O8 0.216694 0.977575 0.622336
O O9 0.058947 0.759017 0.496759
O O10 0.051953 0.737017 0.822994
O O11 0.824586 0.557966 0.871038
O O12 0.901713 0.866186 0.262640
O O13 0.189196 0.001219 0.059007
O O14 0.268913 0.802121 0.949717
O O15 0.985092 0.848477 0.982272
O O16 0.376809 0.677120 0.835688
O O17 0.500000 0.500000 0.000000
#
# Coordination Sequence:
#
# PCOD9093417 Si02
#       8
#     2   2   2   2   2   2   2   2
#     4  11  23  41  60  84 114 157 200 234 280 346
#     4  11  18  39  60  89 114 151 191 243 278 349
#     4  11  18  37  63  87 111 147 201 240 275 345
#     4  10  20  32  62  87 109 146 200 236 280 334
#     4  11  21  37  60  89 120 149 183 247 303 326
#     4  11  23  38  59  88 120 150 192 241 290 340
#     4  10  20  37  61  84 112 151 200 236 276 342
#     4  11  20  37  58  84 117 152 191 236 285 346
#
# _framework density 21.017792
#
# number of rings (size 3 to 8) (size 9 to 14) (size 15 to 20)
#    0.000    1.250    7.500    1.125    3.500    0.500 
#    0.000    3.750    0.000    0.000    0.000    0.000 
#    0.000    0.000    0.000    0.000    0.000    0.000 
#
# Total GULP energy -89124.427706 kJ/mol
# GULP energy per Si atom -5570.276732 kJ/mol
# Density = 2.096995 g / cm^3
# Si number density = 21.017792 Si / 1000 Ang^3
#
#
#
# Elastic Constant Matrix: (Units=GPa)
#
#
# Indices 1 2 3 4 5 6 
#
# 1 85.8572 11.0875 37.2495 -9.0349 2.3697 7.0585
# 2 11.0875 90.6349 29.6359 -2.4232 0.5697 33.3144
# 3 37.2495 29.6359 119.6368 -0.0639 -5.2702 18.1859
# 4 -9.0349 -2.4232 -0.0639 23.7182 14.1475 -4.3464
# 5 2.3697 0.5697 -5.2702 14.1475 22.6282 -4.6216
# 6 7.0585 33.3144 18.1859 -4.3464 -4.6216 26.7171
#
#
#
# Elastic Compliance Matrix: (Units=1/GPa)
#
#
# Indices 1 2 3 4 5 6 
#
# 1 0.015523 0.000666 -0.005278 0.012128 -0.010703 -0.001217
# 2 0.000666 0.021476 -0.001812 0.002260 -0.007903 -0.026721
# 3 -0.005278 -0.001812 0.011358 -0.006934 0.006754 -0.004037
# 4 0.012128 0.002260 -0.006934 0.077988 -0.051185 0.002530
# 5 -0.010703 -0.007903 0.006754 -0.051185 0.081932 0.013931
# 6 -0.001217 -0.026721 -0.004037 0.002530 0.013931 0.076639
#
#
# Mechanical properties :
#
#
# Convention : Reuss Voigt Hill
#
# Bulk Modulus (GPa) = 28.16256 50.23053 39.19655
# Shear Modulus (GPa) = 16.14969 29.15641 22.65305
#
# Velocity S-wave (km/s) = 2.77498 3.72859 3.28655
# Velocity P-wave (km/s) = 4.86783 6.51824 5.75253
#
# Compressibility (1/GPa) = 0.03550813
#
# Stress axis : x y z
#
# Youngs Moduli (GPa) = 64.42111 46.56276 88.04063
#
# Poissons Ratio (x) = -0.03100 0.46468
# Poissons Ratio (y) = -0.04288 0.15956
# Poissons Ratio (z) = 0.34002 0.08439
#
# Static dielectric constant tensor:
#      x y z
#    x 1.794400 -0.056160 -0.011640 
#    y -0.056160 1.809230 0.020890 
#    z -0.011640 0.020890 1.824380 
# 
# From -- ./inp_files/180474.got.cif
#   From: 2010.05.17/outbox.cif.g08.bks.cpg/sg2_91_cif.got.tgz:180474.got - 2010.06.03 11:33:40.
