data_PCOD9093213
_publ_section_title
;
Structure prediction by ZEFSAII (Michael W. Deem and Ramdas Pophale) SiO2 
 PCOD9093213
Probable space group: P -1
;
_chemical_formula_sum "Si O2"
_cell_formula_units_Z 10
_cell_length_a 6.753027
_cell_length_b 12.638487
_cell_length_c 12.624564
_cell_angle_alpha 50.610635
_cell_angle_beta 150.305886
_cell_angle_gamma 124.278168
_cell_volume 412.309411
_symmetry_space_group_name_H-M "P -1"
_symmetry_group_IT_number 2
_symmetry_cell_setting 'triclinic'
loop_
_space_group_symop_operation_xyz
x,y,z
-x,-y,-z
loop_
_atom_site_type_symbol
_atom_site_label
_atom_site_fract_x
_atom_site_fract_y
_atom_site_fract_z
Si Si1 0.803961 0.182735 0.587304
Si Si2 0.937456 0.520153 0.783809
Si Si3 0.047604 0.709981 0.903578
Si Si4 0.077125 0.005111 0.409528
Si Si5 0.047980 0.584738 0.359785
O O1 0.552701 0.048237 0.596011
O O2 0.045159 0.262826 0.739550
O O3 0.438513 0.279892 0.323979
O O4 0.015758 0.132217 0.612196
O O5 0.513092 0.593681 0.532359
O O6 0.125764 0.493499 0.774013
O O7 0.156755 0.614979 0.914383
O O8 0.840001 0.373369 0.887771
O O9 0.151171 0.868902 0.830113
O O10 0.000000 0.000000 0.500000
O O11 0.000000 0.500000 0.500000
#
# Coordination Sequence:
#
# PCOD9093213 Si02
#       5
#     2   2   2   2   2
#     4   8  18  33  48  76  97 124 172 197 241 290
#     4   9  18  34  49  73 106 124 162 210 241 288
#     4   8  16  34  51  74  99 127 162 212 240 275
#     4   9  17  31  55  72  95 131 164 204 241 288
#     4  10  20  32  51  73 102 137 158 196 253 299
#
# _framework density 24.253630999999999
#
# number of rings (size 3 to 8) (size 9 to 14) (size 15 to 20)
#    1.200    2.000    0.000    0.000    2.800    0.000 
#    3.600    4.000    0.000    2.400    0.000    0.000 
#    0.000    0.000    0.000    0.000    0.000    0.000 
#
# Total GULP energy -55687.378839 kJ/mol
# GULP energy per Si atom -5568.737884 kJ/mol
# Density = 2.419843 g / cm^3
# Si number density = 24.253631 Si / 1000 Ang^3
#
#
#
# Elastic Constant Matrix: (Units=GPa)
#
#
# Indices 1 2 3 4 5 6 
#
# 1 141.4879 76.7747 18.1139 1.7105 -18.8679 -62.4701
# 2 76.7747 154.7781 25.2971 -4.4120 -12.0574 -55.3878
# 3 18.1139 25.2971 57.6964 -4.4385 -1.7301 -16.9454
# 4 1.7105 -4.4120 -4.4385 37.3695 -7.2643 6.5957
# 5 -18.8679 -12.0574 -1.7301 -7.2643 29.8318 7.1541
# 6 -62.4701 -55.3878 -16.9454 6.5957 7.1541 53.0530
#
#
#
# Elastic Compliance Matrix: (Units=1/GPa)
#
#
# Indices 1 2 3 4 5 6 
#
# 1 0.016167 -0.001676 0.000629 -0.002984 0.004728 0.017220
# 2 -0.001676 0.010697 -0.001633 -0.000152 0.001082 0.008545
# 3 0.000629 -0.001633 0.019439 0.001171 -0.000075 0.005109
# 4 -0.002984 -0.000152 0.001171 0.029848 0.007305 -0.007994
# 5 0.004728 0.001082 -0.000075 0.007305 0.038589 0.000561
# 6 0.017220 0.008545 0.005109 -0.007994 0.000561 0.050598
#
#
# Mechanical properties :
#
#
# Convention : Reuss Voigt Hill
#
# Bulk Modulus (GPa) = 24.42468 66.03709 45.23089
# Shear Modulus (GPa) = 27.12289 39.63595 33.37942
#
# Velocity S-wave (km/s) = 3.34773 4.04694 3.71383
# Velocity P-wave (km/s) = 5.00354 7.00884 6.08931
#
# Compressibility (1/GPa) = 0.04094219
#
# Stress axis : x y z
#
# Youngs Moduli (GPa) = 61.85627 93.48122 51.44263
#
# Poissons Ratio (x) = 0.15671 -0.03238
# Poissons Ratio (y) = 0.10369 0.08403
# Poissons Ratio (z) = -0.03893 0.15270
#
# Static dielectric constant tensor:
#      x y z
#    x 1.953770 -0.008240 0.056610 
#    y -0.008240 2.025170 0.093860 
#    z 0.056610 0.093860 2.059230 
# 
# From -- ./inp_files/23651.got.cif
#   From: 2010.05.17/outbox.cif.g08.bks.cpg/sg2_12_cif.got.tgz:23651.got - 2010.06.03 11:33:40.
