data_PCOD9093789
_publ_section_title
;
Structure prediction by ZEFSAII (Michael W. Deem and Ramdas Pophale) SiO2 
 PCOD9093789
Probable space group: P -1
;
_chemical_formula_sum "Si O2"
_cell_formula_units_Z 16
_cell_length_a 12.020109
_cell_length_b 10.624094
_cell_length_c 9.667675
_cell_angle_alpha 59.341148
_cell_angle_beta 55.283140
_cell_angle_gamma 37.963419
_cell_volume 619.718290
_symmetry_space_group_name_H-M "P -1"
_symmetry_group_IT_number 2
_symmetry_cell_setting 'triclinic'
loop_
_space_group_symop_operation_xyz
x,y,z
-x,-y,-z
loop_
_atom_site_type_symbol
_atom_site_label
_atom_site_fract_x
_atom_site_fract_y
_atom_site_fract_z
Si Si1 0.411303 0.162526 0.856148
Si Si2 0.850967 0.473891 0.001933
Si Si3 0.091301 0.910894 0.161641
Si Si4 0.114832 0.677403 0.637951
Si Si5 0.267359 0.944314 0.752942
Si Si6 0.627628 0.543822 0.859236
Si Si7 0.738668 0.129737 0.648890
Si Si8 0.787102 0.715538 0.322697
O O1 0.207745 0.341240 0.970896
O O2 0.533483 0.215994 0.725665
O O3 0.387495 0.113893 0.751435
O O4 0.500000 0.000000 0.000000
O O5 0.888239 0.343410 0.181227
O O6 0.681955 0.567185 0.958721
O O7 0.022838 0.373122 0.836296
O O8 0.179809 0.679686 0.207713
O O9 0.202610 0.892559 0.221368
O O10 0.154727 0.971072 0.957358
O O11 0.863248 0.055829 0.256095
O O12 0.246649 0.717941 0.502094
O O13 0.185869 0.481195 0.608603
O O14 0.905689 0.890801 0.615520
O O15 0.491064 0.739749 0.741421
O O16 0.242994 0.135232 0.624875
O O17 0.500000 0.500000 0.000000
#
# Coordination Sequence:
#
# PCOD9093789 Si02
#       8
#     2   2   2   2   2   2   2   2
#     4  11  20  33  58  89 121 157 199 257 307 370
#     4  11  20  35  58  90 125 154 205 258 307 365
#     4  10  20  37  61  89 124 162 200 264 303 369
#     4  10  24  39  62  86 123 172 203 255 321 372
#     4  10  20  35  61  93 122 158 204 256 319 359
#     4  10  20  33  57  96 119 160 202 260 316 360
#     4  11  23  42  59  90 124 167 211 250 317 379
#     4  11  21  37  59  93 124 162 205 264 314 366
#
# _framework density 25.818183000000001
#
# number of rings (size 3 to 8) (size 9 to 14) (size 15 to 20)
#    0.000    1.500    1.250    6.750    3.500    2.000 
#    0.000    0.625    0.000    0.750    0.000    0.000 
#    0.000    0.000    0.000    0.000    0.000    0.000 
#
# Total GULP energy -89147.100796 kJ/mol
# GULP energy per Si atom -5571.693800 kJ/mol
# Density = 2.575942 g / cm^3
# Si number density = 25.818183 Si / 1000 Ang^3
#
#
#
# Elastic Constant Matrix: (Units=GPa)
#
#
# Indices 1 2 3 4 5 6 
#
# 1 126.4687 19.5915 2.9435 0.8444 -7.6133 -14.0045
# 2 19.5915 99.8308 12.2447 -27.4736 -21.0943 5.1191
# 3 2.9435 12.2447 60.1986 -9.4353 -11.9518 -9.6223
# 4 0.8444 -27.4736 -9.4353 26.8780 5.0858 -5.7473
# 5 -7.6133 -21.0943 -11.9518 5.0858 30.4662 -4.3184
# 6 -14.0045 5.1191 -9.6223 -5.7473 -4.3184 43.8624
#
#
#
# Elastic Compliance Matrix: (Units=1/GPa)
#
#
# Indices 1 2 3 4 5 6 
#
# 1 0.008669 -0.002088 0.000523 -0.001888 0.001673 0.003043
# 2 -0.002088 0.016434 0.001041 0.015698 0.008724 0.000560
# 3 0.000523 0.001041 0.020304 0.007949 0.008393 0.006368
# 4 -0.001888 0.015698 0.007949 0.056687 0.005078 0.007237
# 5 0.001673 0.008724 0.008393 0.005078 0.042608 0.006217
# 6 0.003043 0.000560 0.006368 0.007237 0.006217 0.026662
#
#
# Mechanical properties :
#
#
# Convention : Reuss Voigt Hill
#
# Bulk Modulus (GPa) = 22.54239 39.56196 31.05217
# Shear Modulus (GPa) = 26.70990 37.02254 31.86622
#
# Velocity S-wave (km/s) = 3.21991 3.79089 3.51701
# Velocity P-wave (km/s) = 4.75120 5.87518 5.34283
#
# Compressibility (1/GPa) = 0.04436087
#
# Stress axis : x y z
#
# Youngs Moduli (GPa) = 115.35840 60.85054 49.25059
#
# Poissons Ratio (x) = 0.12703 -0.02578
# Poissons Ratio (y) = 0.24083 -0.05129
# Poissons Ratio (z) = -0.06038 -0.06337
#
# Static dielectric constant tensor:
#      x y z
#    x 2.533380 -0.601400 0.740140 
#    y -0.601400 2.976660 -0.927530 
#    z 0.740140 -0.927530 3.118860 
# 
# From -- ./inp_files/427526.got.cif
#   From: 2010.05.17/outbox.cif.g08.bks.cpg/sg2_214_cif.got.tgz:427526.got - 2010.06.03 11:33:40.
