data_PCOD9093922
_publ_section_title
;
Structure prediction by ZEFSAII (Michael W. Deem and Ramdas Pophale) SiO2 
 PCOD9093922
Probable space group: P -1
;
_chemical_formula_sum "Si O2"
_cell_formula_units_Z 16
_cell_length_a 12.119916
_cell_length_b 7.713760
_cell_length_c 9.331914
_cell_angle_alpha 70.139870
_cell_angle_beta 94.171138
_cell_angle_gamma 73.623433
_cell_volume 773.412145
_symmetry_space_group_name_H-M "P -1"
_symmetry_group_IT_number 2
_symmetry_cell_setting 'triclinic'
loop_
_space_group_symop_operation_xyz
x,y,z
-x,-y,-z
loop_
_atom_site_type_symbol
_atom_site_label
_atom_site_fract_x
_atom_site_fract_y
_atom_site_fract_z
Si Si1 0.299111 0.287728 0.804966
Si Si2 0.420601 0.837827 0.429383
Si Si3 0.813734 0.638042 0.678964
Si Si4 0.108584 0.040451 0.575206
Si Si5 0.655324 0.503221 0.497002
Si Si6 0.642419 0.095137 0.283730
Si Si7 0.962923 0.626831 0.314290
Si Si8 0.606722 0.786248 0.846769
O O1 0.350251 0.436655 0.685740
O O2 0.158941 0.376385 0.760675
O O3 0.330248 0.089758 0.767877
O O4 0.350844 0.245927 0.978511
O O5 0.538849 0.655815 0.510329
O O6 0.331445 0.720881 0.419160
O O7 0.392401 0.948747 0.546124
O O8 0.422807 0.986841 0.264871
O O9 0.848364 0.822312 0.571150
O O10 0.759036 0.558663 0.562221
O O11 0.716272 0.680747 0.781933
O O12 0.935134 0.465170 0.764305
O O13 0.058584 0.159468 0.682794
O O14 0.231129 0.877263 0.683096
O O15 0.000000 0.000000 0.500000
O O16 0.518824 0.248896 0.176187
O O17 0.000000 0.500000 0.500000
#
# Coordination Sequence:
#
# PCOD9093922 Si02
#       8
#     2   2   2   2   2   2   2   2
#     4  11  22  38  63  90 123 162 204 245 319 359
#     4  11  22  35  62  91 123 155 214 244 305 366
#     4  11  20  38  62  86 123 162 207 250 299 363
#     4  10  20  33  61  93 114 156 212 250 290 351
#     4  11  21  38  60  93 118 166 202 254 297 371
#     4  11  20  39  61  91 122 161 202 253 296 377
#     4   9  19  36  58  87 115 161 205 251 284 371
#     4  12  22  38  63  95 123 163 195 259 314 359
#
# _framework density 20.687546999999999
#
# number of rings (size 3 to 8) (size 9 to 14) (size 15 to 20)
#    0.000    1.250    7.500    0.750    1.750    0.500 
#    0.000    1.875    0.000    6.750    0.000    0.000 
#    0.000    0.000    0.000    0.000    0.000    0.000 
#
# Total GULP energy -89136.019857 kJ/mol
# GULP energy per Si atom -5571.001241 kJ/mol
# Density = 2.064046 g / cm^3
# Si number density = 20.687547 Si / 1000 Ang^3
#
#
#
# Elastic Constant Matrix: (Units=GPa)
#
#
# Indices 1 2 3 4 5 6 
#
# 1 158.5837 44.0445 40.6781 12.0534 26.4779 -18.9997
# 2 44.0445 62.2846 19.0311 13.2026 -0.1658 -22.0855
# 3 40.6781 19.0311 93.3149 11.2242 19.6875 2.8501
# 4 12.0534 13.2026 11.2242 12.8031 -1.2313 -3.2971
# 5 26.4779 -0.1658 19.6875 -1.2313 25.5878 1.6589
# 6 -18.9997 -22.0855 2.8501 -3.2971 1.6589 46.3643
#
#
#
# Elastic Compliance Matrix: (Units=1/GPa)
#
#
# Indices 1 2 3 4 5 6 
#
# 1 0.010302 -0.005710 -0.000726 -0.003752 -0.010426 0.001653
# 2 -0.005710 0.028287 -0.002820 -0.018155 0.006754 0.009775
# 3 -0.000726 -0.002820 0.015600 -0.011988 -0.011650 -0.003035
# 4 -0.003752 -0.018155 -0.011988 0.112099 0.018521 -0.002140
# 5 -0.010426 0.006754 -0.011650 0.018521 0.059845 -0.001163
# 6 0.001653 0.009775 -0.003035 -0.002140 -0.001163 0.026978
#
#
# Mechanical properties :
#
#
# Convention : Reuss Voigt Hill
#
# Bulk Modulus (GPa) = 28.02758 57.96560 42.99659
# Shear Modulus (GPa) = 17.63580 30.97970 24.30775
#
# Velocity S-wave (km/s) = 2.92290 3.87396 3.43154
# Velocity P-wave (km/s) = 4.99686 6.93473 6.04397
#
# Compressibility (1/GPa) = 0.03567915
#
# Stress axis : x y z
#
# Youngs Moduli (GPa) = 97.07100 35.35185 64.10054
#
# Poissons Ratio (x) = 0.20184 0.04652
# Poissons Ratio (y) = 0.55423 0.18074
# Poissons Ratio (z) = 0.07045 0.09968
#
# Static dielectric constant tensor:
#      x y z
#    x 1.867880 -0.025290 -0.001230 
#    y -0.025290 1.828580 -0.008310 
#    z -0.001230 -0.008310 1.700560 
# 
# From -- ./inp_files/243021.got.cif
#   From: 2010.05.17/outbox.cif.g08.bks.cpg/sg2_122_cif.got.tgz:243021.got - 2010.06.03 11:33:40.
