data_PCOD9093800
_publ_section_title
;
Structure prediction by ZEFSAII (Michael W. Deem and Ramdas Pophale) SiO2 
 PCOD9093800
Probable space group: P -1
;
_chemical_formula_sum "Si O2"
_cell_formula_units_Z 16
_cell_length_a 9.575780
_cell_length_b 11.599139
_cell_length_c 10.355759
_cell_angle_alpha 132.035147
_cell_angle_beta 116.261378
_cell_angle_gamma 77.165860
_cell_volume 761.371031
_symmetry_space_group_name_H-M "P -1"
_symmetry_group_IT_number 2
_symmetry_cell_setting 'triclinic'
loop_
_space_group_symop_operation_xyz
x,y,z
-x,-y,-z
loop_
_atom_site_type_symbol
_atom_site_label
_atom_site_fract_x
_atom_site_fract_y
_atom_site_fract_z
Si Si1 0.598785 0.653028 0.221162
Si Si2 0.689005 0.562622 0.721771
Si Si3 0.837910 0.573565 0.071589
Si Si4 0.375238 0.845682 0.984345
Si Si5 0.021620 0.867188 0.307296
Si Si6 0.705733 0.902517 0.054612
Si Si7 0.281751 0.777434 0.176842
Si Si8 0.345862 0.492147 0.607809
O O1 0.725720 0.683425 0.183766
O O2 0.462279 0.760462 0.274109
O O3 0.685322 0.617243 0.362382
O O4 0.500000 0.500000 0.000000
O O5 0.522127 0.466912 0.615316
O O6 0.750563 0.520272 0.574562
O O7 0.786395 0.551302 0.884377
O O8 0.661096 0.744250 0.836615
O O9 0.996421 0.690685 0.223007
O O10 0.811196 0.401006 0.994426
O O11 0.562306 0.902718 0.098188
O O12 0.296892 0.848901 0.094076
O O13 0.354366 0.665797 0.797555
O O14 0.298097 0.949308 0.926321
O O15 0.876934 0.885082 0.165355
O O16 0.185854 0.876932 0.307458
O O17 0.000000 0.000000 0.500000
#
# Coordination Sequence:
#
# PCOD9093800 Si02
#       8
#     2   2   2   2   2   2   2   2
#     4  10  16  33  60  92 116 145 191 258 294 340
#     4   9  17  30  54  87 116 148 182 242 296 344
#     4  10  19  39  63  85 120 155 199 247 302 344
#     4  10  19  38  64  89 113 157 197 245 296 351
#     4  11  25  42  57  83 122 165 200 240 294 364
#     4   9  21  41  59  81 124 161 191 237 305 354
#     4  11  20  36  63  89 112 159 199 239 305 349
#     4  10  16  29  57  91 117 138 192 246 296 336
#
# _framework density 21.014721999999999
#
# number of rings (size 3 to 8) (size 9 to 14) (size 15 to 20)
#    0.000    2.000    5.000    1.875    0.000    1.500 
#    6.750    1.250    0.000    3.750    0.000    0.000 
#    0.000    0.000    0.000    0.000    0.000    0.000 
#
# Total GULP energy -89105.710144 kJ/mol
# GULP energy per Si atom -5569.106884 kJ/mol
# Density = 2.096689 g / cm^3
# Si number density = 21.014722 Si / 1000 Ang^3
#
#
#
# Elastic Constant Matrix: (Units=GPa)
#
#
# Indices 1 2 3 4 5 6 
#
# 1 112.0233 35.4494 37.5395 -4.6928 -40.7630 -3.9944
# 2 35.4494 94.9930 19.4676 -15.8720 -14.5225 3.2893
# 3 37.5395 19.4676 72.7682 -21.7998 -26.7983 6.9927
# 4 -4.6928 -15.8720 -21.7998 17.3119 6.5158 -10.1379
# 5 -40.7630 -14.5225 -26.7983 6.5158 28.8190 -0.4960
# 6 -3.9944 3.2893 6.9927 -10.1379 -0.4960 27.0412
#
#
#
# Elastic Compliance Matrix: (Units=1/GPa)
#
#
# Indices 1 2 3 4 5 6 
#
# 1 0.020989 -0.005321 -0.003777 -0.014000 0.026659 -0.000035
# 2 -0.005321 0.014721 0.004071 0.019616 -0.000693 0.003712
# 3 -0.003777 0.004071 0.033015 0.040995 0.018245 0.006113
# 4 -0.014000 0.019616 0.040995 0.149315 -0.004853 0.040835
# 5 0.026659 -0.000693 0.018245 -0.004853 0.090106 -0.000862
# 6 -0.000035 0.003712 0.006113 0.040835 -0.000862 0.050236
#
#
# Mechanical properties :
#
#
# Convention : Reuss Voigt Hill
#
# Bulk Modulus (GPa) = 17.04427 51.63307 34.33867
# Shear Modulus (GPa) = 12.88681 27.12295 20.00488
#
# Velocity S-wave (km/s) = 2.47903 3.59648 3.08871
# Velocity P-wave (km/s) = 4.04009 6.47066 5.39406
#
# Compressibility (1/GPa) = 0.05867075
#
# Stress axis : x y z
#
# Youngs Moduli (GPa) = 47.64337 67.92808 30.28965
#
# Poissons Ratio (x) = 0.36144 0.11441
# Poissons Ratio (y) = 0.25351 -0.12331
# Poissons Ratio (z) = 0.17996 -0.27653
#
# Static dielectric constant tensor:
#      x y z
#    x 1.835940 -0.003050 0.010420 
#    y -0.003050 1.801010 -0.003170 
#    z 0.010420 -0.003170 1.805230 
# 
# From -- ./inp_files/255347.got.cif
#   From: 2010.05.17/outbox.cif.g08.bks.cpg/sg2_128_cif.got.tgz:255347.got - 2010.06.03 11:33:40.
