data_PCOD9093182
_publ_section_title
;
Structure prediction by ZEFSAII (Michael W. Deem and Ramdas Pophale) SiO2 
 PCOD9093182
Probable space group: P -1
;
_chemical_formula_sum "Si O2"
_cell_formula_units_Z 16
_cell_length_a 11.799668
_cell_length_b 15.653562
_cell_length_c 15.867170
_cell_angle_alpha 18.904046
_cell_angle_beta 115.597891
_cell_angle_gamma 111.455181
_cell_volume 847.014150
_symmetry_space_group_name_H-M "P -1"
_symmetry_group_IT_number 2
_symmetry_cell_setting 'triclinic'
loop_
_space_group_symop_operation_xyz
x,y,z
-x,-y,-z
loop_
_atom_site_type_symbol
_atom_site_label
_atom_site_fract_x
_atom_site_fract_y
_atom_site_fract_z
Si Si1 0.614072 0.757512 0.751653
Si Si2 0.148673 0.314750 0.400477
Si Si3 0.056997 0.701956 0.767340
Si Si4 0.731937 0.170153 0.002592
Si Si5 0.439549 0.231387 0.914029
Si Si6 0.723137 0.011561 0.411886
Si Si7 0.616553 0.334557 0.639330
Si Si8 0.461752 0.336519 0.010574
O O1 0.545594 0.560306 0.856485
O O2 0.500000 0.000000 0.500000
O O3 0.729516 0.858993 0.645448
O O4 0.635721 0.662391 0.943955
O O5 0.189545 0.603428 0.151377
O O6 0.000730 0.336334 0.307524
O O7 0.219721 0.168435 0.478645
O O8 0.199180 0.119576 0.675650
O O9 0.204856 0.730908 0.795543
O O10 0.000000 0.000000 0.500000
O O11 0.000000 0.500000 0.000000
O O12 0.590365 0.224779 0.947575
O O13 0.714108 0.218015 0.852302
O O14 0.358742 0.439442 0.629900
O O15 0.409292 0.341324 0.895491
O O16 0.418250 0.926709 0.175511
O O17 0.573656 0.083702 0.279636
O O18 0.500000 0.500000 0.500000
#
# Coordination Sequence:
#
# PCOD9093182 Si02
#       8
#     2   2   2   2   2   2   2   2
#     4   9  20  34  49  73 100 134 174 216 251 298
#     4  11  20  31  51  72  98 140 175 203 240 307
#     4  10  22  34  47  74 104 133 178 216 242 294
#     4  11  19  32  48  68 100 132 173 202 252 291
#     4  11  20  31  50  71 101 134 173 200 251 307
#     4  10  20  32  50  69 104 139 170 208 257 286
#     4  10  21  32  46  71 100 132 168 214 247 298
#     4  10  20  32  52  74 100 141 175 207 250 311
#
# _framework density 18.889886000000001
#
# number of rings (size 3 to 8) (size 9 to 14) (size 15 to 20)
#    0.000    1.750    1.250    6.000    7.000    0.000 
#    0.000    0.000    0.000    0.000    0.000    0.000 
#    0.000    6.000    0.000    0.000    0.000    0.000 
#
# Total GULP energy -89127.776812 kJ/mol
# GULP energy per Si atom -5570.486051 kJ/mol
# Density = 1.884689 g / cm^3
# Si number density = 18.889886 Si / 1000 Ang^3
#
#
#
# Elastic Constant Matrix: (Units=GPa)
#
#
# Indices 1 2 3 4 5 6 
#
# 1 29.0026 13.6380 10.6237 6.6444 -13.9573 -2.9224
# 2 13.6380 80.0546 7.0872 1.6989 -6.4241 -15.6354
# 3 10.6237 7.0872 86.7398 3.9236 -13.9337 -10.0698
# 4 6.6444 1.6989 3.9236 38.5041 1.0635 -0.8155
# 5 -13.9573 -6.4241 -13.9337 1.0635 23.2250 2.3049
# 6 -2.9224 -15.6354 -10.0698 -0.8155 2.3049 21.5453
#
#
#
# Elastic Compliance Matrix: (Units=1/GPa)
#
#
# Indices 1 2 3 4 5 6 
#
# 1 0.055325 -0.006942 -0.000905 -0.010052 0.031414 -0.001698
# 2 -0.006942 0.015674 0.000716 0.000677 -0.000515 0.010848
# 3 -0.000905 0.000716 0.013483 -0.001324 0.007221 0.005876
# 4 -0.010052 0.000677 -0.001324 0.028040 -0.007974 0.000424
# 5 0.031414 -0.000515 0.007221 -0.007974 0.066506 -0.000155
# 6 -0.001698 0.010848 0.005876 0.000424 -0.000155 0.056835
#
#
# Mechanical properties :
#
#
# Convention : Reuss Voigt Hill
#
# Bulk Modulus (GPa) = 14.24123 28.72164 21.48143
# Shear Modulus (GPa) = 18.27934 27.61808 22.94871
#
# Velocity S-wave (km/s) = 3.11413 3.82783 3.48928
# Velocity P-wave (km/s) = 4.52613 5.89696 5.25643
#
# Compressibility (1/GPa) = 0.07021866
#
# Stress axis : x y z
#
# Youngs Moduli (GPa) = 18.07488 63.80050 74.16724
#
# Poissons Ratio (x) = 0.44293 0.06712
# Poissons Ratio (y) = 0.12548 -0.05308
# Poissons Ratio (z) = 0.01636 -0.04566
#
# Static dielectric constant tensor:
#      x y z
#    x 1.801030 -0.014340 0.051850 
#    y -0.014340 1.702840 0.051570 
#    z 0.051850 0.051570 1.797950 
# 
# From -- ./inp_files/92403.got.cif
#   From: 2010.05.17/outbox.cif.g08.bks.cpg/sg2_47_cif.got.tgz:92403.got - 2010.06.03 11:33:40.
