data_PCOD9093905
_publ_section_title
;
Structure prediction by ZEFSAII (Michael W. Deem and Ramdas Pophale) SiO2 
 PCOD9093905
Probable space group: P -1
;
_chemical_formula_sum "Si O2"
_cell_formula_units_Z 16
_cell_length_a 16.388566
_cell_length_b 8.953002
_cell_length_c 12.399130
_cell_angle_alpha 127.222282
_cell_angle_beta 134.689088
_cell_angle_gamma 29.257745
_cell_volume 631.935512
_symmetry_space_group_name_H-M "P -1"
_symmetry_group_IT_number 2
_symmetry_cell_setting 'triclinic'
loop_
_space_group_symop_operation_xyz
x,y,z
-x,-y,-z
loop_
_atom_site_type_symbol
_atom_site_label
_atom_site_fract_x
_atom_site_fract_y
_atom_site_fract_z
Si Si1 0.111656 0.922626 0.231511
Si Si2 0.927059 0.311655 0.573849
Si Si3 0.811889 0.587493 0.977518
Si Si4 0.215687 0.310569 0.601244
Si Si5 0.700967 0.543728 0.059586
Si Si6 0.577458 0.336010 0.742877
Si Si7 0.777503 0.776188 0.804785
Si Si8 0.753590 0.083312 0.436519
O O1 0.194790 0.611157 0.164016
O O2 0.247175 0.878052 0.268577
O O3 0.112616 0.983847 0.383027
O O4 0.911009 0.187927 0.105932
O O5 0.794317 0.571704 0.470698
O O6 0.835331 0.506365 0.682835
O O7 0.000000 0.000000 0.500000
O O8 0.125542 0.151064 0.654064
O O9 0.742263 0.809572 0.914222
O O10 0.702944 0.699258 0.036020
O O11 0.030118 0.356041 0.092535
O O12 0.298631 0.352998 0.781083
O O13 0.000000 0.500000 0.500000
O O14 0.331167 0.975426 0.596116
O O15 0.579766 0.520020 0.901460
O O16 0.396998 0.585443 0.609771
O O17 0.610137 0.105242 0.738195
#
# Coordination Sequence:
#
# PCOD9093905 Si02
#       8
#     2   2   2   2   2   2   2   2
#     4  11  18  37  60  90 115 158 204 251 289 359
#     4  11  23  40  62  89 122 165 205 238 295 376
#     4  10  20  33  60  92 112 154 209 251 284 348
#     4  10  20  36  64  86 118 162 209 241 293 362
#     4  11  19  38  64  89 117 155 212 250 291 355
#     4  11  23  37  60  94 126 153 197 263 312 341
#     4  11  21  36  61  90 122 159 205 241 299 366
#     4  11  23  39  61  92 126 157 198 257 306 352
#
# _framework density 25.319042
#
# number of rings (size 3 to 8) (size 9 to 14) (size 15 to 20)
#    0.000    1.250    5.000    4.125    0.000    0.500 
#    0.000    5.000    0.000    9.000    0.000    0.000 
#    0.000    0.000    0.000    0.000    0.000    0.000 
#
# Total GULP energy -89309.180728 kJ/mol
# GULP energy per Si atom -5581.823795 kJ/mol
# Density = 2.526141 g / cm^3
# Si number density = 25.319042 Si / 1000 Ang^3
#
#
#
# Elastic Constant Matrix: (Units=GPa)
#
#
# Indices 1 2 3 4 5 6 
#
# 1 50.0384 34.4139 24.3235 -27.9635 -9.0506 15.8164
# 2 34.4139 93.3198 34.4247 -26.2863 -5.0836 31.2834
# 3 24.3235 34.4247 106.0987 -3.0486 -9.9362 3.1234
# 4 -27.9635 -26.2863 -3.0486 34.6835 15.7566 -4.9666
# 5 -9.0506 -5.0836 -9.9362 15.7566 35.2562 -8.6778
# 6 15.8164 31.2834 3.1234 -4.9666 -8.6778 38.6681
#
#
#
# Elastic Compliance Matrix: (Units=1/GPa)
#
#
# Indices 1 2 3 4 5 6 
#
# 1 0.059084 0.008101 -0.015646 0.057904 -0.020505 -0.026621
# 2 0.008101 0.027715 -0.010810 0.030660 -0.016749 -0.024683
# 3 -0.015646 -0.010810 0.016654 -0.023230 0.012874 0.013706
# 4 0.057904 0.030660 -0.023230 0.112398 -0.048069 -0.042964
# 5 -0.020505 -0.016749 0.012874 -0.048069 0.052310 0.026463
# 6 -0.026621 -0.024683 0.013706 -0.042964 0.026463 0.056032
#
#
# Mechanical properties :
#
#
# Convention : Reuss Voigt Hill
#
# Bulk Modulus (GPa) = 14.98332 48.42013 31.70172
# Shear Modulus (GPa) = 13.04967 32.14121 22.59544
#
# Velocity S-wave (km/s) = 2.27273 3.56680 2.99060
# Velocity P-wave (km/s) = 3.58018 6.01068 4.94702
#
# Compressibility (1/GPa) = 0.06674088
#
# Stress axis : x y z
#
# Youngs Moduli (GPa) = 16.92515 36.08196 60.04435
#
# Poissons Ratio (x) = -0.29229 0.93947
# Poissons Ratio (y) = -0.13711 0.64910
# Poissons Ratio (z) = 0.26482 0.39006
#
# Static dielectric constant tensor:
#      x y z
#    x 2.096240 0.001730 0.002550 
#    y 0.001730 2.074210 0.024860 
#    z 0.002550 0.024860 1.983900 
# 
# From -- ./inp_files/462354.got.cif
#   From: 2010.05.17/outbox.cif.g08.bks.cpg/sg2_232_cif.got.tgz:462354.got - 2010.06.03 11:33:40.
