data_PCOD9093614
_publ_section_title
;
Structure prediction by ZEFSAII (Michael W. Deem and Ramdas Pophale) SiO2 
 PCOD9093614
Probable space group: P -1
;
_chemical_formula_sum "Si O2"
_cell_formula_units_Z 14
_cell_length_a 11.641005
_cell_length_b 14.022076
_cell_length_c 14.191207
_cell_angle_alpha 20.338298
_cell_angle_beta 64.558422
_cell_angle_gamma 68.884013
_cell_volume 720.320445
_symmetry_space_group_name_H-M "P -1"
_symmetry_group_IT_number 2
_symmetry_cell_setting 'triclinic'
loop_
_space_group_symop_operation_xyz
x,y,z
-x,-y,-z
loop_
_atom_site_type_symbol
_atom_site_label
_atom_site_fract_x
_atom_site_fract_y
_atom_site_fract_z
Si Si1 0.853064 0.469839 0.042717
Si Si2 0.386928 0.676838 0.261942
Si Si3 0.777886 0.023646 0.620519
Si Si4 0.876789 0.266843 0.771397
Si Si5 0.560269 0.228267 0.633226
Si Si6 0.992283 0.093048 0.074522
Si Si7 0.983165 0.665563 0.634714
O O1 0.870010 0.543741 0.858611
O O2 0.782830 0.700406 0.905393
O O3 0.790462 0.171506 0.376877
O O4 0.000000 0.500000 0.000000
O O5 0.252295 0.610530 0.318686
O O6 0.490844 0.475253 0.388253
O O7 0.370403 0.668744 0.388600
O O8 0.448236 0.985166 0.926835
O O9 0.658084 0.108816 0.639896
O O10 0.904835 0.150905 0.516166
O O11 0.000000 0.500000 0.500000
O O12 0.887686 0.139750 0.988794
O O13 0.895181 0.029869 0.908000
O O14 0.945655 0.865504 0.380562
O O15 0.033924 0.393159 0.827048
#
# Coordination Sequence:
#
# PCOD9093614 Si02
#       7
#     2   2   2   2   2   2   2
#     4  10  20  33  54  83 118 150 184 235 290 338
#     4  10  23  38  56  81 118 146 194 233 266 345
#     4  11  20  35  56  83 119 151 190 228 285 347
#     4  11  24  40  57  86 118 149 193 238 285 328
#     4  10  22  37  57  84 110 159 186 222 285 329
#     4  11  23  34  56  83 113 151 185 221 303 328
#     4  11  20  35  54  85 117 149 183 233 287 349
#
# _framework density 19.435793
#
# number of rings (size 3 to 8) (size 9 to 14) (size 15 to 20)
#    0.000    1.429    1.429    6.000    4.000    2.286 
#    0.000    0.000    0.000    0.000    0.000   20.000 
#    0.000    0.000    0.000    0.000    0.000    0.000 
#
# Total GULP energy -78213.574901 kJ/mol
# GULP energy per Si atom -5586.683922 kJ/mol
# Density = 1.939156 g / cm^3
# Si number density = 19.435793 Si / 1000 Ang^3
#
#
#
# Elastic Constant Matrix: (Units=GPa)
#
#
# Indices 1 2 3 4 5 6 
#
# 1 59.4131 12.9409 20.1480 17.8113 16.7445 -3.1400
# 2 12.9409 54.7802 11.6578 3.8335 11.8357 4.2805
# 3 20.1480 11.6578 88.4000 1.7715 23.2687 9.5110
# 4 17.8113 3.8335 1.7715 43.2009 6.3002 3.6006
# 5 16.7445 11.8357 23.2687 6.3002 26.4041 2.4166
# 6 -3.1400 4.2805 9.5110 3.6006 2.4166 16.7523
#
#
#
# Elastic Compliance Matrix: (Units=1/GPa)
#
#
# Indices 1 2 3 4 5 6 
#
# 1 0.024938 -0.003170 -0.003636 -0.009313 -0.009973 0.010989
# 2 -0.003170 0.020873 0.000509 0.000978 -0.007540 -0.005339
# 3 -0.003636 0.000509 0.016165 0.003307 -0.012138 -0.008949
# 4 -0.009313 0.000978 0.003307 0.028028 -0.003272 -0.009425
# 5 -0.009973 -0.007540 -0.012138 -0.003272 0.059135 -0.000879
# 6 0.010989 -0.005339 -0.008949 -0.009425 -0.000879 0.070351
#
#
# Mechanical properties :
#
#
# Convention : Reuss Voigt Hill
#
# Bulk Modulus (GPa) = 20.24982 32.45408 26.35195
# Shear Modulus (GPa) = 20.11708 27.79456 23.95582
#
# Velocity S-wave (km/s) = 3.22071 3.78573 3.51460
# Velocity P-wave (km/s) = 4.92667 5.98693 5.48249
#
# Compressibility (1/GPa) = 0.04938316
#
# Stress axis : x y z
#
# Youngs Moduli (GPa) = 40.09900 47.90886 61.86034
#
# Poissons Ratio (x) = 0.15185 0.22495
# Poissons Ratio (y) = 0.12710 -0.03150
# Poissons Ratio (z) = 0.14582 -0.02440
#
# Static dielectric constant tensor:
#      x y z
#    x 1.655260 0.026940 0.014850 
#    y 0.026940 1.715050 0.008030 
#    z 0.014850 0.008030 1.708530 
# 
# From -- ./inp_files/67289.got.cif
#   From: 2010.05.17/outbox.cif.g08.bks.cpg/sg2_34_cif.got.tgz:67289.got - 2010.06.03 11:33:40.
