data_PCOD9093733
_publ_section_title
;
Structure prediction by ZEFSAII (Michael W. Deem and Ramdas Pophale) SiO2 
 PCOD9093733
Probable space group: P -1
;
_chemical_formula_sum "Si O2"
_cell_formula_units_Z 14
_cell_length_a 5.253356
_cell_length_b 10.309740
_cell_length_c 13.046759
_cell_angle_alpha 106.585692
_cell_angle_beta 73.252512
_cell_angle_gamma 123.177689
_cell_volume 559.099025
_symmetry_space_group_name_H-M "P -1"
_symmetry_group_IT_number 2
_symmetry_cell_setting 'triclinic'
loop_
_space_group_symop_operation_xyz
x,y,z
-x,-y,-z
loop_
_atom_site_type_symbol
_atom_site_label
_atom_site_fract_x
_atom_site_fract_y
_atom_site_fract_z
Si Si1 0.112622 0.591764 0.802150
Si Si2 0.204504 0.138993 0.584633
Si Si3 0.376126 0.105589 0.188443
Si Si4 0.164670 0.135346 0.925725
Si Si5 0.597972 0.098974 0.708415
Si Si6 0.688352 0.411593 0.453427
Si Si7 0.406719 0.376698 0.125913
O O1 0.241249 0.598626 0.676145
O O2 0.240262 0.525431 0.858464
O O3 0.755176 0.522726 0.819622
O O4 0.271470 0.777238 0.862843
O O5 0.369988 0.090374 0.642350
O O6 0.481057 0.260114 0.510403
O O7 0.965689 0.198085 0.662015
O O8 0.000000 0.000000 0.500000
O O9 0.415667 0.061135 0.288139
O O10 0.131839 0.936961 0.131846
O O11 0.270813 0.231061 0.194127
O O12 0.440165 0.135747 0.830791
O O13 0.325604 0.297142 0.006767
O O14 0.000000 0.000000 0.000000
O O15 0.500000 0.500000 0.500000
O O16 0.000000 0.500000 0.500000
#
# Coordination Sequence:
#
# PCOD9093733 Si02
#       7
#     2   2   2   2   2   2   2
#     4  10  21  37  60  91 127 164 222 288 323 386
#     4  12  28  45  69 100 141 179 226 290 364 394
#     4   9  19  32  55  87 142 168 215 253 350 378
#     4  10  20  33  56  94 142 186 215 267 344 415
#     4  12  23  39  57  96 141 186 210 281 340 422
#     4  12  27  49  75  98 130 182 241 282 336 420
#     4   9  21  31  57  90 137 172 216 270 341 392
#
# _framework density 25.040286999999999
#
# number of rings (size 3 to 8) (size 9 to 14) (size 15 to 20)
#    0.857    0.571    1.429    4.714    2.000    2.857 
#    0.000    0.000    0.000    0.000    0.000   20.000 
#    0.000    0.000    0.000    0.000    0.000    0.000 
#
# Total GULP energy -77950.980680 kJ/mol
# GULP energy per Si atom -5567.927191 kJ/mol
# Density = 2.498329 g / cm^3
# Si number density = 25.040287 Si / 1000 Ang^3
#
#
#
# Elastic Constant Matrix: (Units=GPa)
#
#
# Indices 1 2 3 4 5 6 
#
# 1 216.5447 24.5254 83.6695 1.2966 27.6744 4.0455
# 2 24.5254 53.2598 25.4064 -6.8897 6.0145 16.1242
# 3 83.6695 25.4064 139.2376 1.1326 -6.9956 0.3791
# 4 1.2966 -6.8897 1.1326 24.0279 0.6022 1.8672
# 5 27.6744 6.0145 -6.9956 0.6022 42.5144 -1.9047
# 6 4.0455 16.1242 0.3791 1.8672 -1.9047 25.9449
#
#
#
# Elastic Compliance Matrix: (Units=1/GPa)
#
#
# Indices 1 2 3 4 5 6 
#
# 1 0.007087 -0.000069 -0.004515 0.000055 -0.005410 -0.001397
# 2 -0.000069 0.029392 -0.005658 0.010355 -0.006058 -0.019363
# 3 -0.004515 -0.005658 0.011227 -0.002416 0.005830 0.004658
# 4 0.000055 0.010355 -0.002416 0.045543 -0.002987 -0.009905
# 5 -0.005410 -0.006058 0.005830 -0.002987 0.029210 0.006883
# 6 -0.001397 -0.019363 0.004658 -0.009905 0.006883 0.051945
#
#
# Mechanical properties :
#
#
# Convention : Reuss Voigt Hill
#
# Bulk Modulus (GPa) = 36.73196 75.13830 55.93513
# Shear Modulus (GPa) = 24.51433 36.86017 30.68725
#
# Velocity S-wave (km/s) = 3.13228 3.84087 3.50453
# Velocity P-wave (km/s) = 5.27092 7.05279 6.22593
#
# Compressibility (1/GPa) = 0.02722425
#
# Stress axis : x y z
#
# Youngs Moduli (GPa) = 141.09534 34.02246 89.06976
#
# Poissons Ratio (x) = 0.00234 0.40213
# Poissons Ratio (y) = 0.00972 0.50393
# Poissons Ratio (z) = 0.63702 0.19249
#
# Static dielectric constant tensor:
#      x y z
#    x 2.109500 -0.007170 0.023520 
#    y -0.007170 2.110210 0.042340 
#    z 0.023520 0.042340 2.110920 
# 
# From -- ./inp_files/364745.got.cif
#   From: 2010.05.17/outbox.cif.g08.bks.cpg/sg2_183_cif.got.tgz:364745.got - 2010.06.03 11:33:40.
