data_PCOD9093506
_publ_section_title
;
Structure prediction by ZEFSAII (Michael W. Deem and Ramdas Pophale) SiO2 
 PCOD9093506
Probable space group: P -1
;
_chemical_formula_sum "Si O2"
_cell_formula_units_Z 16
_cell_length_a 15.159392
_cell_length_b 14.988892
_cell_length_c 18.187786
_cell_angle_alpha 159.693689
_cell_angle_beta 140.231255
_cell_angle_gamma 50.965079
_cell_volume 836.694473
_symmetry_space_group_name_H-M "P -1"
_symmetry_group_IT_number 2
_symmetry_cell_setting 'triclinic'
loop_
_space_group_symop_operation_xyz
x,y,z
-x,-y,-z
loop_
_atom_site_type_symbol
_atom_site_label
_atom_site_fract_x
_atom_site_fract_y
_atom_site_fract_z
Si Si1 0.808631 0.258619 0.504938
Si Si2 0.660187 0.208419 0.223321
Si Si3 0.948003 0.364277 0.942700
Si Si4 0.516060 0.788791 0.694622
Si Si5 0.750838 0.707081 0.102730
Si Si6 0.440335 0.867683 0.278612
Si Si7 0.287276 0.219261 0.696732
Si Si8 0.560183 0.674671 0.469974
O O1 0.789491 0.277565 0.420291
O O2 0.639659 0.180118 0.366436
O O3 0.849843 0.996533 0.348024
O O4 0.918008 0.526253 0.827655
O O5 0.653110 0.491764 0.408158
O O6 0.500000 0.000000 0.000000
O O7 0.656841 0.027233 0.009982
O O8 0.865032 0.029032 0.621972
O O9 0.831698 0.495262 0.996332
O O10 0.000000 0.500000 0.000000
O O11 0.500000 0.500000 0.500000
O O12 0.536223 0.788375 0.620860
O O13 0.713756 0.792957 0.225093
O O14 0.599600 0.545995 0.834751
O O15 0.579093 0.848291 0.306300
O O16 0.500000 0.000000 0.500000
O O17 0.382966 0.075592 0.359718
O O18 0.319539 0.544072 0.953407
#
# Coordination Sequence:
#
# PCOD9093506 Si02
#       8
#     2   2   2   2   2   2   2   2
#     4  11  21  36  54  85 126 161 194 236 301 366
#     4  10  20  33  51  82 113 155 192 243 295 347
#     4  12  24  37  58  89 127 167 201 242 305 371
#     4  11  19  35  55  85 121 155 198 244 302 356
#     4  12  21  38  57  88 128 159 199 242 300 369
#     4  11  23  39  63  87 119 159 205 259 301 350
#     4  11  23  39  58  89 120 159 203 244 310 355
#     4  12  20  34  60  83 121 150 196 251 298 355
#
# _framework density 19.122869999999999
#
# number of rings (size 3 to 8) (size 9 to 14) (size 15 to 20)
#    0.000    0.750    8.750    1.875    0.000    0.000 
#    0.000    0.000    0.000    0.750    0.000    4.375 
#    0.000    0.000    0.000    0.000    0.000    0.000 
#
# Total GULP energy -89302.909258 kJ/mol
# GULP energy per Si atom -5581.431829 kJ/mol
# Density = 1.907935 g / cm^3
# Si number density = 19.122870 Si / 1000 Ang^3
#
#
#
# Elastic Constant Matrix: (Units=GPa)
#
#
# Indices 1 2 3 4 5 6 
#
# 1 64.7084 30.2754 33.4705 -10.7565 -29.2047 15.7191
# 2 30.2754 110.9204 62.1943 7.4275 -10.9564 32.3601
# 3 33.4705 62.1943 174.5628 -9.1828 -19.7729 29.5953
# 4 -10.7565 7.4275 -9.1828 47.7210 11.8694 -9.2083
# 5 -29.2047 -10.9564 -19.7729 11.8694 34.2036 -3.9506
# 6 15.7191 32.3601 29.5953 -9.2083 -3.9506 24.9799
#
#
#
# Elastic Compliance Matrix: (Units=1/GPa)
#
#
# Indices 1 2 3 4 5 6 
#
# 1 0.030253 -0.001793 -0.000289 -0.001478 0.024089 -0.013107
# 2 -0.001793 0.018407 -0.002474 -0.008950 0.003437 -0.022542
# 3 -0.000289 -0.002474 0.007934 0.000061 0.002887 -0.005534
# 4 -0.001478 -0.008950 0.000061 0.029052 -0.011714 0.021309
# 5 0.024089 0.003437 0.002887 -0.011714 0.054476 -0.018735
# 6 -0.013107 -0.022542 -0.005534 0.021309 -0.018735 0.088930
#
#
# Mechanical properties :
#
#
# Convention : Reuss Voigt Hill
#
# Bulk Modulus (GPa) = 21.06068 66.89687 43.97878
# Shear Modulus (GPa) = 19.68564 36.33101 28.00832
#
# Velocity S-wave (km/s) = 3.21195 4.36348 3.83123
# Velocity P-wave (km/s) = 4.97923 7.77465 6.52832
#
# Compressibility (1/GPa) = 0.04748185
#
# Stress axis : x y z
#
# Youngs Moduli (GPa) = 33.05508 54.32594 126.04066
#
# Poissons Ratio (x) = 0.09741 0.03639
# Poissons Ratio (y) = 0.05927 0.31186
# Poissons Ratio (z) = 0.00954 0.13442
#
# Static dielectric constant tensor:
#      x y z
#    x 1.694530 -0.009790 -0.007800 
#    y -0.009790 1.715380 0.033400 
#    z -0.007800 0.033400 1.711020 
# 
# From -- ./inp_files/428494.got.cif
#   From: 2010.05.17/outbox.cif.g08.bks.cpg/sg2_215_cif.got.tgz:428494.got - 2010.06.03 11:33:40.
