data_PCOD9093280
_publ_section_title
;
Structure prediction by ZEFSAII (Michael W. Deem and Ramdas Pophale) SiO2 
 PCOD9093280
Probable space group: P -1
;
_chemical_formula_sum "Si O2"
_cell_formula_units_Z 16
_cell_length_a 16.517487
_cell_length_b 15.686927
_cell_length_c 14.105766
_cell_angle_alpha 36.938990
_cell_angle_beta 141.412252
_cell_angle_gamma 162.108332
_cell_volume 670.406038
_symmetry_space_group_name_H-M "P -1"
_symmetry_group_IT_number 2
_symmetry_cell_setting 'triclinic'
loop_
_space_group_symop_operation_xyz
x,y,z
-x,-y,-z
loop_
_atom_site_type_symbol
_atom_site_label
_atom_site_fract_x
_atom_site_fract_y
_atom_site_fract_z
Si Si1 0.252053 0.631399 0.377533
Si Si2 0.742120 0.212254 0.961437
Si Si3 0.169889 0.261055 0.316259
Si Si4 0.188952 0.382526 0.833495
Si Si5 0.702607 0.597543 0.489824
Si Si6 0.280961 0.746256 0.689676
Si Si7 0.515668 0.752242 0.056283
Si Si8 0.734934 0.795302 0.056862
O O1 0.259644 0.473628 0.498850
O O2 0.983449 0.432342 0.355221
O O3 0.493552 0.918902 0.407650
O O4 0.276100 0.721070 0.213765
O O5 0.707683 0.018119 0.067024
O O6 0.000000 0.500000 0.000000
O O7 0.500000 0.000000 0.000000
O O8 0.399302 0.357318 0.435352
O O9 0.214924 0.385188 0.346709
O O10 0.264337 0.449246 0.149771
O O11 0.896845 0.916782 0.375765
O O12 0.220746 0.582206 0.692686
O O13 0.171319 0.276316 0.814177
O O14 0.450766 0.562045 0.958624
O O15 0.944367 0.098522 0.927147
O O16 0.397568 0.749712 0.873255
O O17 0.681514 0.792014 0.116981
#
# Coordination Sequence:
#
# PCOD9093280 Si02
#       8
#     2   2   2   2   2   2   2   2
#     4  11  21  35  52  74 102 134 175 209 246 311
#     4  11  22  32  48  72 103 135 159 204 259 305
#     4  10  22  37  55  71 100 135 177 226 251 292
#     4   9  16  31  47  76 107 136 161 191 257 316
#     4  10  22  38  52  72  96 139 183 215 255 289
#     4  10  20  32  54  80 107 131 159 209 260 315
#     4  10  21  36  53  81 106 134 174 212 263 306
#     4   9  18  29  50  72 107 137 161 203 246 315
#
# _framework density 23.866133000000001
#
# number of rings (size 3 to 8) (size 9 to 14) (size 15 to 20)
#    0.000    2.000    0.000    5.250    0.000    9.000 
#    0.000    0.000    0.000    0.000    0.000    5.250 
#    0.000    0.000    0.000    0.000    0.000    0.000 
#
# Total GULP energy -89443.631481 kJ/mol
# GULP energy per Si atom -5590.226968 kJ/mol
# Density = 2.381181 g / cm^3
# Si number density = 23.866133 Si / 1000 Ang^3
#
#
#
# Elastic Constant Matrix: (Units=GPa)
#
#
# Indices 1 2 3 4 5 6 
#
# 1 189.7951 46.3652 27.0314 -20.3141 39.8464 3.4676
# 2 46.3652 107.0924 7.7126 -36.3006 0.2143 18.1897
# 3 27.0314 7.7126 41.1288 -12.6601 12.3730 -4.0853
# 4 -20.3141 -36.3006 -12.6601 29.3535 -2.9636 2.6973
# 5 39.8464 0.2143 12.3730 -2.9636 48.0458 -10.2759
# 6 3.4676 18.1897 -4.0853 2.6973 -10.2759 33.3695
#
#
#
# Elastic Compliance Matrix: (Units=1/GPa)
#
#
# Indices 1 2 3 4 5 6 
#
# 1 0.007632 -0.002794 -0.002817 0.000148 -0.005890 -0.001440
# 2 -0.002794 0.022469 0.005402 0.029417 -0.000304 -0.013767
# 3 -0.002817 0.005402 0.032161 0.018240 -0.005230 -0.001799
# 4 0.000148 0.029417 0.018240 0.079941 -0.004665 -0.021716
# 5 -0.005890 -0.000304 -0.005230 -0.004665 0.028763 0.009372
# 6 -0.001440 -0.013767 -0.001799 -0.021716 0.009372 0.042043
#
#
# Mechanical properties :
#
#
# Convention : Reuss Voigt Hill
#
# Bulk Modulus (GPa) = 16.17003 55.58164 35.87583
# Shear Modulus (GPa) = 21.36369 39.28090 30.32229
#
# Velocity S-wave (km/s) = 2.99515 4.06135 3.56830
# Velocity P-wave (km/s) = 4.33027 6.73292 5.66054
#
# Compressibility (1/GPa) = 0.06184281
#
# Stress axis : x y z
#
# Youngs Moduli (GPa) = 131.03554 44.50584 31.09319
#
# Poissons Ratio (x) = 0.12437 0.08760
# Poissons Ratio (y) = 0.36617 -0.16797
# Poissons Ratio (z) = 0.36916 -0.24043
#
# Static dielectric constant tensor:
#      x y z
#    x 1.816540 0.030810 0.035530 
#    y 0.030810 1.782680 0.027210 
#    z 0.035530 0.027210 1.939780 
# 
# From -- ./inp_files/573953.got.cif
#   From: 2010.05.17/outbox.cif.g08.bks.cpg/sg2_287_cif.got.tgz:573953.got - 2010.06.03 11:33:40.
