data_PCOD9093109
_publ_section_title
;
Structure prediction by ZEFSAII (Michael W. Deem and Ramdas Pophale) SiO2 
 PCOD9093109
Probable space group: P -1
;
_chemical_formula_sum "Si O2"
_cell_formula_units_Z 16
_cell_length_a 20.468935
_cell_length_b 9.506925
_cell_length_c 5.303091
_cell_angle_alpha 73.610809
_cell_angle_beta 100.841478
_cell_angle_gamma 132.816863
_cell_volume 726.208172
_symmetry_space_group_name_H-M "P -1"
_symmetry_group_IT_number 2
_symmetry_cell_setting 'triclinic'
loop_
_space_group_symop_operation_xyz
x,y,z
-x,-y,-z
loop_
_atom_site_type_symbol
_atom_site_label
_atom_site_fract_x
_atom_site_fract_y
_atom_site_fract_z
Si Si1 0.437808 0.548690 0.643322
Si Si2 0.474573 0.153740 0.806754
Si Si3 0.791015 0.059277 0.587923
Si Si4 0.113475 0.822536 0.904771
Si Si5 0.910844 0.567785 0.874290
Si Si6 0.387533 0.770317 0.735596
Si Si7 0.378207 0.196001 0.058402
Si Si8 0.814589 0.444493 0.364031
O O1 0.480089 0.627313 0.358162
O O2 0.397415 0.651065 0.610142
O O3 0.372592 0.327299 0.801979
O O4 0.525239 0.665834 0.817388
O O5 0.386935 0.063749 0.955810
O O6 0.436118 0.999693 0.625416
O O7 0.555406 0.197046 0.995123
O O8 0.818068 0.041170 0.340773
O O9 0.808062 0.258340 0.475135
O O10 0.853608 0.084845 0.840548
O O11 0.693939 0.903127 0.723507
O O12 0.015649 0.738875 0.815751
O O13 0.105361 0.632716 0.015927
O O14 0.852067 0.544222 0.614316
O O15 0.880959 0.582517 0.116622
O O16 0.283073 0.644052 0.737873
#
# Coordination Sequence:
#
# PCOD9093109 Si02
#       8
#     2   2   2   2   2   2   2   2
#     4  10  21  39  53  77 115 151 192 238 279 335
#     4  10  21  36  56  78 114 150 190 240 281 332
#     4  10  20  32  54  84 112 149 187 237 275 348
#     4   9  18  33  51  80 117 145 183 229 296 337
#     4   9  18  32  52  80 115 151 175 234 290 347
#     4  10  22  34  54  84 111 152 188 235 281 337
#     4  10  22  35  56  81 108 153 196 231 285 328
#     4  10  20  31  55  83 115 147 189 228 284 346
#
# _framework density 22.032250999999999
#
# number of rings (size 3 to 8) (size 9 to 14) (size 15 to 20)
#    0.000    2.250    0.000    2.250    8.750    4.000 
#    0.000    0.000    0.000    0.000    0.000    5.250 
#    0.000    0.000    0.000    0.000    0.000    0.000 
#
# Total GULP energy -89171.583596 kJ/mol
# GULP energy per Si atom -5573.223975 kJ/mol
# Density = 2.198211 g / cm^3
# Si number density = 22.032251 Si / 1000 Ang^3
#
#
#
# Elastic Constant Matrix: (Units=GPa)
#
#
# Indices 1 2 3 4 5 6 
#
# 1 75.5835 40.1013 46.2796 -4.1983 -12.9380 23.0656
# 2 40.1013 54.2113 33.0608 1.5906 -7.4013 22.5355
# 3 46.2796 33.0608 120.2022 -11.6199 -25.0892 14.6995
# 4 -4.1983 1.5906 -11.6199 23.7029 4.1896 -4.2002
# 5 -12.9380 -7.4013 -25.0892 4.1896 26.2951 -4.1693
# 6 23.0656 22.5355 14.6995 -4.2002 -4.1693 29.1767
#
#
#
# Elastic Compliance Matrix: (Units=1/GPa)
#
#
# Indices 1 2 3 4 5 6 
#
# 1 0.025748 -0.012585 -0.004737 0.001165 0.003213 -0.007622
# 2 -0.012585 0.038795 -0.004712 -0.010354 -0.001179 -0.019301
# 3 -0.004737 -0.004712 0.013436 0.004970 0.008781 0.002585
# 4 0.001165 -0.010354 0.004970 0.048097 -0.003520 0.010994
# 5 0.003213 -0.001179 0.008781 -0.003520 0.048272 0.000337
# 6 -0.007622 -0.019301 0.002585 0.010994 0.000337 0.055535
#
#
# Mechanical properties :
#
#
# Convention : Reuss Voigt Hill
#
# Bulk Modulus (GPa) = 29.48733 54.32006 41.90369
# Shear Modulus (GPa) = 17.52819 24.53861 21.03340
#
# Velocity S-wave (km/s) = 2.82364 3.34092 3.09312
# Velocity P-wave (km/s) = 4.90341 6.29211 5.64066
#
# Compressibility (1/GPa) = 0.03391287
#
# Stress axis : x y z
#
# Youngs Moduli (GPa) = 38.83734 25.77632 74.42640
#
# Poissons Ratio (x) = 0.32440 0.35254
# Poissons Ratio (y) = 0.48877 0.35067
# Poissons Ratio (z) = 0.18396 0.12145
#
# Static dielectric constant tensor:
#      x y z
#    x 1.876840 -0.055070 -0.018810 
#    y -0.055070 1.830800 -0.021560 
#    z -0.018810 -0.021560 1.878340 
# 
# From -- ./inp_files/118076.got.cif
#   From: 2010.05.17/outbox.cif.g08.bks.cpg/sg2_60_cif.got.tgz:118076.got - 2010.06.03 11:33:40.
