data_PCOD9093001
_publ_section_title
;
Structure prediction by ZEFSAII (Michael W. Deem and Ramdas Pophale) SiO2 
 PCOD9093001
Probable space group: P -1
;
_chemical_formula_sum "Si O2"
_cell_formula_units_Z 14
_cell_length_a 14.493384
_cell_length_b 21.568465
_cell_length_c 11.507446
_cell_angle_alpha 159.489182
_cell_angle_beta 148.420451
_cell_angle_gamma 21.961996
_cell_volume 467.528397
_symmetry_space_group_name_H-M "P -1"
_symmetry_group_IT_number 2
_symmetry_cell_setting 'triclinic'
loop_
_space_group_symop_operation_xyz
x,y,z
-x,-y,-z
loop_
_atom_site_type_symbol
_atom_site_label
_atom_site_fract_x
_atom_site_fract_y
_atom_site_fract_z
Si Si1 0.414938 0.940049 0.604941
Si Si2 0.815898 0.968630 0.710365
Si Si3 0.946921 0.464125 0.225932
Si Si4 0.705851 0.213157 0.598071
Si Si5 0.994239 0.227265 0.086047
Si Si6 0.729491 0.607004 0.014542
Si Si7 0.506099 0.705608 0.719646
O O1 0.217535 0.997592 0.404889
O O2 0.671829 0.698101 0.393906
O O3 0.388194 0.893072 0.624092
O O4 0.405091 0.158529 0.974900
O O5 0.550359 0.187976 0.874636
O O6 0.827527 0.741207 0.339464
O O7 0.000000 0.000000 0.000000
O O8 0.078682 0.268499 0.128620
O O9 0.900231 0.411688 0.959095
O O10 0.054520 0.584860 0.544533
O O11 0.746085 0.314953 0.928812
O O12 0.540404 0.368418 0.579406
O O13 0.000000 0.000000 0.500000
O O14 0.220115 0.945428 0.873496
O O15 0.684521 0.531854 0.714010
#
# Coordination Sequence:
#
# PCOD9093001 Si02
#       7
#     2   2   2   2   2   2   2
#     4   9  18  30  48  76 100 128 166 210 256 293
#     4   9  17  26  49  76 100 128 165 213 251 301
#     4   9  18  34  51  73 105 133 156 209 265 305
#     4  10  20  30  49  74  99 132 174 209 238 296
#     4   9  18  31  51  75  99 132 169 198 258 301
#     4   9  18  32  49  75 104 132 163 209 264 290
#     4   9  18  34  51  74 101 135 165 206 249 301
#
# _framework density 29.944706
#
# number of rings (size 3 to 8) (size 9 to 14) (size 15 to 20)
#    0.000    2.857    0.000    3.000    6.000    0.571 
#    0.000    0.714    0.000    0.000    0.000   17.000 
#    0.000    0.000    0.000    0.000    0.000    0.000 
#
# Total GULP energy -78284.697226 kJ/mol
# GULP energy per Si atom -5591.764088 kJ/mol
# Density = 2.987655 g / cm^3
# Si number density = 29.944706 Si / 1000 Ang^3
#
#
#
# Elastic Constant Matrix: (Units=GPa)
#
#
# Indices 1 2 3 4 5 6 
#
# 1 130.1035 58.6677 53.3004 -27.8491 -5.0256 -3.3607
# 2 58.6677 160.9069 52.1598 -56.4617 -25.1371 22.3209
# 3 53.3004 52.1598 186.4522 -56.5023 -3.1638 20.9088
# 4 -27.8491 -56.4617 -56.5023 62.5735 15.6479 -15.0935
# 5 -5.0256 -25.1371 -3.1638 15.6479 57.0888 -28.4228
# 6 -3.3607 22.3209 20.9088 -15.0935 -28.4228 76.2617
#
#
#
# Elastic Compliance Matrix: (Units=1/GPa)
#
#
# Indices 1 2 3 4 5 6 
#
# 1 0.010114 -0.003189 -0.002225 0.000027 0.000428 0.002154
# 2 -0.003189 0.010315 0.000508 0.007661 0.001599 -0.001187
# 3 -0.002225 0.000508 0.008146 0.006945 -0.002425 -0.002009
# 4 0.000027 0.007661 0.006945 0.030340 -0.004457 0.000199
# 5 0.000428 0.001599 -0.002425 -0.004457 0.023346 0.008035
# 6 0.002154 -0.001187 -0.002009 0.000199 0.008035 0.017140
#
#
# Mechanical properties :
#
#
# Convention : Reuss Voigt Hill
#
# Bulk Modulus (GPa) = 53.29594 89.52428 71.41011
# Shear Modulus (GPa) = 43.30241 60.07378 51.68809
#
# Velocity S-wave (km/s) = 3.80686 4.48387 4.15916
# Velocity P-wave (km/s) = 6.09587 7.53447 6.85303
#
# Compressibility (1/GPa) = 0.01876316
#
# Stress axis : x y z
#
# Youngs Moduli (GPa) = 98.87672 96.94240 122.75553
#
# Poissons Ratio (x) = 0.30910 0.27315
# Poissons Ratio (y) = 0.31527 -0.06231
# Poissons Ratio (z) = 0.22001 -0.04920
#
# Static dielectric constant tensor:
#      x y z
#    x 2.329430 -0.026390 -0.002850 
#    y -0.026390 2.300100 0.078890 
#    z -0.002850 0.078890 2.539700 
# 
# From -- ./inp_files/319784.got.cif
#   From: 2010.05.17/outbox.cif.g08.bks.cpg/sg2_160_cif.got.tgz:319784.got - 2010.06.03 11:33:40.
