data_PCOD9093493
_publ_section_title
;
Structure prediction by ZEFSAII (Michael W. Deem and Ramdas Pophale) SiO2 
 PCOD9093493
Probable space group: P -1
;
_chemical_formula_sum "Si O2"
_cell_formula_units_Z 12
_cell_length_a 10.731149
_cell_length_b 5.298856
_cell_length_c 10.972557
_cell_angle_alpha 114.554158
_cell_angle_beta 68.006120
_cell_angle_gamma 102.225081
_cell_volume 525.040229
_symmetry_space_group_name_H-M "P -1"
_symmetry_group_IT_number 2
_symmetry_cell_setting 'triclinic'
loop_
_space_group_symop_operation_xyz
x,y,z
-x,-y,-z
loop_
_atom_site_type_symbol
_atom_site_label
_atom_site_fract_x
_atom_site_fract_y
_atom_site_fract_z
Si Si1 0.180256 0.816933 0.450704
Si Si2 0.137595 0.625883 0.036134
Si Si3 0.570689 0.122380 0.807447
Si Si4 0.885961 0.594647 0.413464
Si Si5 0.051407 0.174578 0.133015
Si Si6 0.418605 0.613058 0.870802
O O1 0.289532 0.849438 0.310449
O O2 0.207206 0.567978 0.484262
O O3 0.029669 0.717109 0.440851
O O4 0.173278 0.132557 0.567783
O O5 0.160372 0.410951 0.093778
O O6 0.112870 0.941140 0.147342
O O7 0.261472 0.618299 0.897782
O O8 0.000000 0.500000 0.000000
O O9 0.470134 0.309360 0.807512
O O10 0.509789 0.809566 0.788417
O O11 0.579546 0.249015 0.966361
O O12 0.933213 0.343055 0.263907
O O13 0.000000 0.000000 0.000000
#
# Coordination Sequence:
#
# PCOD9093493 Si02
#       6
#     2   2   2   2   2   2
#     4  10  20  33  51  78 111 146 176 213 274 334
#     4  10  20  34  54  81 106 136 178 231 277 310
#     4  10  20  33  51  78 111 146 176 213 274 334
#     4  10  20  33  52  78 110 143 179 221 268 329
#     4  10  20  34  54  81 106 136 178 231 277 310
#     4  10  20  33  52  78 110 143 179 221 268 329
#
# _framework density 22.85539
#
# number of rings (size 3 to 8) (size 9 to 14) (size 15 to 20)
#    0.000    2.000    0.000    4.000    0.000    5.333 
#    0.000    0.000    0.000    0.000    0.000   93.333 
#    0.000    0.000    0.000    0.000    0.000    0.000 
#
# Total GULP energy -66946.937984 kJ/mol
# GULP energy per Si atom -5578.911499 kJ/mol
# Density = 2.280337 g / cm^3
# Si number density = 22.855390 Si / 1000 Ang^3
#
#
#
# Elastic Constant Matrix: (Units=GPa)
#
#
# Indices 1 2 3 4 5 6 
#
# 1 49.4395 42.4330 6.1942 1.7094 -16.1835 -0.7063
# 2 42.4330 206.1054 66.7735 -18.0066 -19.0130 -16.7268
# 3 6.1942 66.7735 85.4952 -6.0739 -19.3361 3.5054
# 4 1.7094 -18.0066 -6.0739 49.9915 7.8901 -16.2627
# 5 -16.1835 -19.0130 -19.3361 7.8901 21.9593 -1.3417
# 6 -0.7063 -16.7268 3.5054 -16.2627 -1.3417 22.9450
#
#
#
# Elastic Compliance Matrix: (Units=1/GPa)
#
#
# Indices 1 2 3 4 5 6 
#
# 1 0.043062 -0.013729 0.016045 -0.017547 0.038981 -0.021291
# 2 -0.013729 0.012823 -0.011749 0.011525 -0.012392 0.018164
# 3 0.016045 -0.011749 0.025880 -0.012200 0.027661 -0.019054
# 4 -0.017547 0.011525 -0.012200 0.038959 -0.025503 0.035847
# 5 0.038981 -0.012392 0.027661 -0.025503 0.095558 -0.024548
# 6 -0.021291 0.018164 -0.019054 0.035847 -0.024548 0.083052
#
#
# Mechanical properties :
#
#
# Convention : Reuss Voigt Hill
#
# Bulk Modulus (GPa) = 15.89806 63.53795 39.71800
# Shear Modulus (GPa) = 14.74208 34.02179 24.38194
#
# Velocity S-wave (km/s) = 2.54247 3.86238 3.26972
# Velocity P-wave (km/s) = 3.94841 6.91021 5.62765
#
# Compressibility (1/GPa) = 0.06290077
#
# Stress axis : x y z
#
# Youngs Moduli (GPa) = 23.22213 77.98747 38.63927
#
# Poissons Ratio (x) = 1.07068 -0.61998
# Poissons Ratio (y) = 0.31881 0.45396
# Poissons Ratio (z) = -0.37260 0.91625
#
# Static dielectric constant tensor:
#      x y z
#    x 1.997710 -0.071230 0.087410 
#    y -0.071230 1.951500 -0.046140 
#    z 0.087410 -0.046140 1.941280 
# 
# From -- ./inp_files/62640.got.cif
#   From: 2010.05.17/outbox.cif.g08.bks.cpg/sg2_32_cif.got.tgz:62640.got - 2010.06.03 11:33:40.
