data_PCOD9093777
_publ_section_title
;
Structure prediction by ZEFSAII (Michael W. Deem and Ramdas Pophale) SiO2 
 PCOD9093777
Probable space group: P -1
;
_chemical_formula_sum "Si O2"
_cell_formula_units_Z 14
_cell_length_a 27.749667
_cell_length_b 16.193981
_cell_length_c 5.622821
_cell_angle_alpha 57.318420
_cell_angle_beta 118.521328
_cell_angle_gamma 158.865742
_cell_volume 763.951507
_symmetry_space_group_name_H-M "P -1"
_symmetry_group_IT_number 2
_symmetry_cell_setting 'triclinic'
loop_
_space_group_symop_operation_xyz
x,y,z
-x,-y,-z
loop_
_atom_site_type_symbol
_atom_site_label
_atom_site_fract_x
_atom_site_fract_y
_atom_site_fract_z
Si Si1 0.035690 0.930657 0.448845
Si Si2 0.051345 0.426234 0.310920
Si Si3 0.407804 0.900886 0.130594
Si Si4 0.117150 0.701362 0.655813
Si Si5 0.156847 0.194612 0.820891
Si Si6 0.287938 0.839439 0.603108
Si Si7 0.436996 0.747695 0.666231
O O1 0.119115 0.080700 0.658540
O O2 0.974231 0.722088 0.622003
O O3 0.111782 0.070295 0.156646
O O4 0.923466 0.832968 0.337073
O O5 0.913106 0.242651 0.388435
O O6 0.173430 0.624304 0.479154
O O7 0.091253 0.575207 0.986082
O O8 0.379273 0.763599 0.450911
O O9 0.495263 0.127078 0.112838
O O10 0.287383 0.756973 0.937974
O O11 0.500000 0.000000 0.000000
O O12 0.251854 0.886829 0.552633
O O13 0.000000 0.500000 0.500000
O O14 0.314441 0.474800 0.774287
O O15 0.435607 0.073057 0.474877
#
# Coordination Sequence:
#
# PCOD9093777 Si02
#       7
#     2   2   2   2   2   2   2
#     4  10  24  40  60  85 118 168 202 245 285 355
#     4  10  21  37  61  88 117 150 200 248 305 351
#     4   9  20  31  51  85 114 157 187 238 300 351
#     4   9  20  36  58  90 114 148 191 253 308 357
#     4  10  24  40  58  86 121 165 208 234 288 359
#     4  10  20  33  57  89 117 150 186 251 308 355
#     4  10  21  35  53  86 120 155 198 243 296 358
#
# _framework density 18.325772000000001
#
# number of rings (size 3 to 8) (size 9 to 14) (size 15 to 20)
#    0.000    2.286    0.000    0.857   16.000    1.143 
#    0.000    0.000    0.000    1.714    0.000    0.000 
#    0.000    0.000    0.000    0.000    0.000    0.000 
#
# Total GULP energy -77967.349721 kJ/mol
# GULP energy per Si atom -5569.096409 kJ/mol
# Density = 1.828406 g / cm^3
# Si number density = 18.325772 Si / 1000 Ang^3
#
#
#
# Elastic Constant Matrix: (Units=GPa)
#
#
# Indices 1 2 3 4 5 6 
#
# 1 89.9903 47.9649 30.8036 1.3643 -11.0404 7.5098
# 2 47.9649 107.3140 55.5841 4.6647 -8.6066 -1.0758
# 3 30.8036 55.5841 92.9153 30.5318 -2.6009 -8.5241
# 4 1.3643 4.6647 30.5318 25.2355 0.1928 -0.2676
# 5 -11.0404 -8.6066 -2.6009 0.1928 26.3116 4.2032
# 6 7.5098 -1.0758 -8.5241 -0.2676 4.2032 30.6277
#
#
#
# Elastic Compliance Matrix: (Units=1/GPa)
#
#
# Indices 1 2 3 4 5 6 
#
# 1 0.016462 -0.004542 -0.005159 0.006079 0.005888 -0.006387
# 2 -0.004542 0.018293 -0.014167 0.013956 0.002970 -0.002473
# 3 -0.005159 -0.014167 0.034515 -0.038711 -0.004812 0.010696
# 4 0.006079 0.013956 -0.038711 0.083396 0.004542 -0.011669
# 5 0.005888 0.002970 -0.004812 0.004542 0.042288 -0.008442
# 6 -0.006387 -0.002473 0.010696 -0.011669 -0.008442 0.038163
#
#
# Mechanical properties :
#
#
# Convention : Reuss Voigt Hill
#
# Bulk Modulus (GPa) = 46.43857 62.10274 54.27065
# Shear Modulus (GPa) = 17.35922 26.82608 22.09265
#
# Velocity S-wave (km/s) = 3.08109 3.83017 3.47587
# Velocity P-wave (km/s) = 6.16872 7.31588 6.76665
#
# Compressibility (1/GPa) = 0.02153383
#
# Stress axis : x y z
#
# Youngs Moduli (GPa) = 60.74504 54.66494 28.97287
#
# Poissons Ratio (x) = 0.24827 0.14948
# Poissons Ratio (y) = 0.27588 0.41047
# Poissons Ratio (z) = 0.31341 0.77446
#
# Static dielectric constant tensor:
#      x y z
#    x 1.688880 0.021040 -0.038770 
#    y 0.021040 1.605900 0.005340 
#    z -0.038770 0.005340 1.690600 
# 
# From -- ./inp_files/66374.got.cif
#   From: 2010.05.17/outbox.cif.g08.bks.cpg/sg2_34_cif.got.tgz:66374.got - 2010.06.03 11:33:40.
