data_PCOD9093565
_publ_section_title
;
Structure prediction by ZEFSAII (Michael W. Deem and Ramdas Pophale) SiO2 
 PCOD9093565
Probable space group: P -1
;
_chemical_formula_sum "Si O2"
_cell_formula_units_Z 16
_cell_length_a 15.066661
_cell_length_b 8.145401
_cell_length_c 10.944464
_cell_angle_alpha 109.339079
_cell_angle_beta 28.081338
_cell_angle_gamma 101.647769
_cell_volume 584.124834
_symmetry_space_group_name_H-M "P -1"
_symmetry_group_IT_number 2
_symmetry_cell_setting 'triclinic'
loop_
_space_group_symop_operation_xyz
x,y,z
-x,-y,-z
loop_
_atom_site_type_symbol
_atom_site_label
_atom_site_fract_x
_atom_site_fract_y
_atom_site_fract_z
Si Si1 0.338878 0.830883 0.062400
Si Si2 0.105672 0.964164 0.187548
Si Si3 0.144102 0.934048 0.693404
Si Si4 0.853475 0.629966 0.793671
Si Si5 0.626011 0.579669 0.468325
Si Si6 0.470786 0.079969 0.424479
Si Si7 0.405477 0.241421 0.059201
Si Si8 0.120379 0.530349 0.643444
O O1 0.481013 0.683117 0.774242
O O2 0.389340 0.774132 0.125376
O O3 0.128987 0.859411 0.261758
O O4 0.372104 0.035710 0.056687
O O5 0.316816 0.892121 0.856352
O O6 0.102390 0.174022 0.233276
O O7 0.940506 0.944291 0.289996
O O8 0.154598 0.725332 0.617569
O O9 0.362416 0.952939 0.450453
O O10 0.000000 0.000000 0.000000
O O11 0.646996 0.659656 0.983220
O O12 0.000000 0.500000 0.500000
O O13 0.905627 0.552808 0.847269
O O14 0.500000 0.500000 0.500000
O O15 0.680960 0.739010 0.363451
O O16 0.808331 0.486549 0.305209
O O17 0.500000 0.000000 0.500000
O O18 0.252542 0.367216 0.367695
#
# Coordination Sequence:
#
# PCOD9093565 Si02
#       8
#     2   2   2   2   2   2   2   2
#     4   8  15  27  51  79 109 143 184 229 277 337
#     4   9  18  32  53  79 109 145 190 225 278 337
#     4  11  21  35  57  79 113 151 192 233 283 342
#     4   8  14  27  52  80 106 140 185 231 278 332
#     4  10  20  33  53  81 117 151 187 233 280 335
#     4  11  21  36  57  78 110 160 194 230 280 337
#     4   8  13  27  50  83 104 137 193 226 278 339
#     4   9  18  31  52  80 113 145 184 238 281 329
#
# _framework density 27.391407000000001
#
# number of rings (size 3 to 8) (size 9 to 14) (size 15 to 20)
#    0.000    2.750    1.250    0.750    1.750    0.000 
#    0.000    0.625    0.000   18.750    0.000  181.125 
#    0.000    0.000    0.000    0.000    0.000    0.000 
#
# Total GULP energy -89110.792131 kJ/mol
# GULP energy per Si atom -5569.424508 kJ/mol
# Density = 2.732906 g / cm^3
# Si number density = 27.391407 Si / 1000 Ang^3
#
#
#
# Elastic Constant Matrix: (Units=GPa)
#
#
# Indices 1 2 3 4 5 6 
#
# 1 242.9875 24.0743 79.3929 21.7996 -97.7972 -21.8512
# 2 24.0743 80.2969 12.2854 23.1046 -3.5607 5.4325
# 3 79.3929 12.2854 131.1904 15.6593 -21.1450 -12.5687
# 4 21.7996 23.1046 15.6593 32.0802 -3.5197 -0.5817
# 5 -97.7972 -3.5607 -21.1450 -3.5197 79.0550 24.0974
# 6 -21.8512 5.4325 -12.5687 -0.5817 24.0974 41.0148
#
#
#
# Elastic Compliance Matrix: (Units=1/GPa)
#
#
# Indices 1 2 3 4 5 6 
#
# 1 0.010892 -0.000865 -0.004308 -0.003296 0.013094 -0.003143
# 2 -0.000865 0.016073 0.000081 -0.011076 0.000015 -0.002731
# 3 -0.004308 0.000081 0.010215 -0.002458 -0.003585 0.002896
# 4 -0.003296 -0.011076 -0.002458 0.042192 -0.003923 0.001861
# 5 0.013094 0.000015 -0.003585 -0.003923 0.031600 -0.012746
# 6 -0.003143 -0.002731 0.002896 0.001861 -0.012746 0.031472
#
#
# Mechanical properties :
#
#
# Convention : Reuss Voigt Hill
#
# Bulk Modulus (GPa) = 37.04133 76.22001 56.63067
# Shear Modulus (GPa) = 30.93590 53.01149 41.97369
#
# Velocity S-wave (km/s) = 3.36430 4.40401 3.91879
# Velocity P-wave (km/s) = 5.35198 7.33124 6.41837
#
# Compressibility (1/GPa) = 0.02699687
#
# Stress axis : x y z
#
# Youngs Moduli (GPa) = 91.81315 62.21611 97.89742
#
# Poissons Ratio (x) = 0.05380 0.42170
# Poissons Ratio (y) = 0.07940 -0.00793
# Poissons Ratio (z) = 0.39549 -0.00504
#
# Static dielectric constant tensor:
#      x y z
#    x 3.960450 -0.606720 1.878160 
#    y -0.606720 2.461580 -0.695460 
#    z 1.878160 -0.695460 4.202660 
# 
# From -- ./inp_files/528893.got.cif
#   From: 2010.05.17/outbox.cif.g08.bks.cpg/sg2_265_cif.got.tgz:528893.got - 2010.06.03 11:33:40.
