data_PCOD9093518
_publ_section_title
;
Structure prediction by ZEFSAII (Michael W. Deem and Ramdas Pophale) SiO2 
 PCOD9093518
Probable space group: P -1
;
_chemical_formula_sum "Si O2"
_cell_formula_units_Z 14
_cell_length_a 9.769773
_cell_length_b 9.790647
_cell_length_c 12.589987
_cell_angle_alpha 102.474149
_cell_angle_beta 99.391593
_cell_angle_gamma 45.567514
_cell_volume 839.511069
_symmetry_space_group_name_H-M "P -1"
_symmetry_group_IT_number 2
_symmetry_cell_setting 'triclinic'
loop_
_space_group_symop_operation_xyz
x,y,z
-x,-y,-z
loop_
_atom_site_type_symbol
_atom_site_label
_atom_site_fract_x
_atom_site_fract_y
_atom_site_fract_z
Si Si1 0.656899 0.331565 0.835078
Si Si2 0.767225 0.395537 0.081189
Si Si3 0.240146 0.474342 0.234262
Si Si4 0.146730 0.100267 0.210281
Si Si5 0.956695 0.559921 0.625680
Si Si6 0.830423 0.660464 0.183938
Si Si7 0.535873 0.938846 0.873322
O O1 0.430982 0.480825 0.857902
O O2 0.702790 0.406995 0.758865
O O3 0.748717 0.116972 0.787964
O O4 0.746644 0.331493 0.955838
O O5 0.797809 0.540931 0.094649
O O6 0.947752 0.216093 0.141944
O O7 0.197050 0.441321 0.340853
O O8 0.402003 0.263594 0.168780
O O9 0.035109 0.586628 0.170443
O O10 0.108615 0.235641 0.324283
O O11 0.287872 0.090395 0.150475
O O12 0.000000 0.500000 0.500000
O O13 0.139138 0.407800 0.701058
O O14 0.654522 0.885619 0.184164
O O15 0.500000 0.000000 0.000000
#
# Coordination Sequence:
#
# PCOD9093518 Si02
#       7
#     2   2   2   2   2   2   2
#     4  11  21  33  51  81 115 146 179 214 275 328
#     4  10  20  33  52  76 115 155 174 210 271 330
#     4   9  22  34  54  80 109 137 185 233 255 322
#     4  10  21  35  53  78 112 146 181 221 273 324
#     4   8  18  40  62  77 101 142 189 237 275 311
#     4   9  19  36  56  77 108 146 182 224 264 320
#     4  11  20  31  54  81 110 147 182 210 262 334
#
# _framework density 16.676373999999999
#
# number of rings (size 3 to 8) (size 9 to 14) (size 15 to 20)
#    0.857    1.429    2.857    1.286    4.000    2.286 
#    0.000    3.571    0.000    3.429    0.000    0.000 
#    0.000    0.000    0.000    0.000    0.000    0.000 
#
# Total GULP energy -77955.303285 kJ/mol
# GULP energy per Si atom -5568.235949 kJ/mol
# Density = 1.663842 g / cm^3
# Si number density = 16.676374 Si / 1000 Ang^3
#
#
#
# Elastic Constant Matrix: (Units=GPa)
#
#
# Indices 1 2 3 4 5 6 
#
# 1 43.7368 35.5085 12.0226 9.3096 -0.8510 6.4603
# 2 35.5085 119.1443 39.1184 10.4820 0.0270 -1.1169
# 3 12.0226 39.1184 88.9089 16.0867 -16.8976 -1.5222
# 4 9.3096 10.4820 16.0867 14.4369 -3.9199 1.5085
# 5 -0.8510 0.0270 -16.8976 -3.9199 17.3108 0.3499
# 6 6.4603 -1.1169 -1.5222 1.5085 0.3499 26.3103
#
#
#
# Elastic Compliance Matrix: (Units=1/GPa)
#
#
# Indices 1 2 3 4 5 6 
#
# 1 0.035024 -0.009879 0.002761 -0.017496 0.000630 -0.007865
# 2 -0.009879 0.013134 -0.005765 0.001386 -0.005873 0.002648
# 3 0.002761 -0.005765 0.018998 -0.014682 0.015348 0.000814
# 4 -0.017496 0.001386 -0.014682 0.098048 0.007053 -0.002210
# 5 0.000630 -0.005873 0.015348 0.007053 0.074405 -0.000910
# 6 -0.007865 0.002648 0.000814 -0.002210 -0.000910 0.040237
#
#
# Mechanical properties :
#
#
# Convention : Reuss Voigt Hill
#
# Bulk Modulus (GPa) = 24.16006 47.23212 35.69609
# Shear Modulus (GPa) = 15.65395 22.62096 19.13746
#
# Velocity S-wave (km/s) = 3.06713 3.68702 3.39127
# Velocity P-wave (km/s) = 5.20212 6.81981 6.06514
#
# Compressibility (1/GPa) = 0.04139063
#
# Stress axis : x y z
#
# Youngs Moduli (GPa) = 28.55212 76.13592 52.63780
#
# Poissons Ratio (x) = 0.75217 -0.14535
# Poissons Ratio (y) = 0.28208 0.30344
# Poissons Ratio (z) = -0.07884 0.43890
#
# Static dielectric constant tensor:
#      x y z
#    x 1.576800 0.006850 0.001880 
#    y 0.006850 1.585840 -0.011380 
#    z 0.001880 -0.011380 1.545830 
# 
# From -- ./inp_files/215594.got.cif
#   From: 2010.05.17/outbox.cif.g08.bks.cpg/sg2_108_cif.got.tgz:215594.got - 2010.06.03 11:33:40.
