data_PCOD9093504
_publ_section_title
;
Structure prediction by ZEFSAII (Michael W. Deem and Ramdas Pophale) SiO2 
 PCOD9093504
Probable space group: P -1
;
_chemical_formula_sum "Si O2"
_cell_formula_units_Z 14
_cell_length_a 11.052364
_cell_length_b 9.893043
_cell_length_c 7.179046
_cell_angle_alpha 100.754508
_cell_angle_beta 58.538766
_cell_angle_gamma 73.049272
_cell_volume 582.670407
_symmetry_space_group_name_H-M "P -1"
_symmetry_group_IT_number 2
_symmetry_cell_setting 'triclinic'
loop_
_space_group_symop_operation_xyz
x,y,z
-x,-y,-z
loop_
_atom_site_type_symbol
_atom_site_label
_atom_site_fract_x
_atom_site_fract_y
_atom_site_fract_z
Si Si1 0.409921 0.020407 0.278457
Si Si2 0.675241 0.737495 0.026458
Si Si3 0.177654 0.867233 0.370923
Si Si4 0.224744 0.602007 0.562064
Si Si5 0.851583 0.673618 0.526057
Si Si6 0.526046 0.371201 0.097408
Si Si7 0.113809 0.565375 0.015413
O O1 0.299331 0.203330 0.442410
O O2 0.279548 0.956780 0.368917
O O3 0.500000 0.000000 0.000000
O O4 0.562063 0.903744 0.248030
O O5 0.817151 0.734211 0.782289
O O6 0.565676 0.711344 0.953339
O O7 0.737155 0.589714 0.070297
O O8 0.189098 0.747580 0.495517
O O9 0.287579 0.753557 0.084380
O O10 0.000000 0.000000 0.500000
O O11 0.147915 0.492651 0.519073
O O12 0.414422 0.476206 0.379492
O O13 0.158925 0.646322 0.834472
O O14 0.009688 0.662061 0.299315
O O15 0.500000 0.500000 0.000000
O O16 0.000000 0.500000 0.000000
#
# Coordination Sequence:
#
# PCOD9093504 Si02
#       7
#     2   2   2   2   2   2   2
#     4   9  19  35  56  83 109 141 188 232 274 331
#     4   9  17  32  54  78 107 146 186 225 272 331
#     4  10  20  35  57  84 112 142 183 237 283 327
#     4   9  19  36  53  80 113 145 185 231 278 334
#     4   9  18  34  57  81 107 147 191 229 271 332
#     4   8  16  33  54  75 100 138 184 220 265 333
#     4  10  20  33  51  81 115 147 185 232 278 328
#
# _framework density 24.027308000000001
#
# number of rings (size 3 to 8) (size 9 to 14) (size 15 to 20)
#    0.000    2.857    0.000    1.286    0.000    8.000 
#    0.000   11.429    0.000    0.000    0.000    0.000 
#    0.000    0.000    0.000    0.000    0.000    0.000 
#
# Total GULP energy -78010.049242 kJ/mol
# GULP energy per Si atom -5572.146374 kJ/mol
# Density = 2.397262 g / cm^3
# Si number density = 24.027308 Si / 1000 Ang^3
#
#
#
# Elastic Constant Matrix: (Units=GPa)
#
#
# Indices 1 2 3 4 5 6 
#
# 1 59.2379 36.4879 38.7863 0.6031 -13.0419 -6.8370
# 2 36.4879 184.1353 73.0734 10.0256 -21.5291 -7.7414
# 3 38.7863 73.0734 156.4782 -1.3567 -31.9457 -12.9145
# 4 0.6031 10.0256 -1.3567 49.8460 -8.8827 -17.6595
# 5 -13.0419 -21.5291 -31.9457 -8.8827 35.0547 8.7766
# 6 -6.8370 -7.7414 -12.9145 -17.6595 8.7766 37.2162
#
#
#
# Elastic Compliance Matrix: (Units=1/GPa)
#
#
# Indices 1 2 3 4 5 6 
#
# 1 0.021584 -0.002584 -0.003272 0.001554 0.003291 0.002254
# 2 -0.002584 0.007126 -0.002599 -0.001629 0.000851 -0.000868
# 3 -0.003272 -0.002599 0.009914 0.002706 0.006387 0.002076
# 4 0.001554 -0.001629 0.002706 0.025590 0.005597 0.011709
# 5 0.003291 0.000851 0.006387 0.005597 0.038362 -0.003393
# 6 0.002254 -0.000868 0.002076 0.011709 -0.003393 0.034180
#
#
# Mechanical properties :
#
#
# Convention : Reuss Voigt Hill
#
# Bulk Modulus (GPa) = 46.05302 77.39405 61.72353
# Shear Modulus (GPa) = 31.07436 41.19029 36.13233
#
# Velocity S-wave (km/s) = 3.60014 4.14492 3.88210
# Velocity P-wave (km/s) = 6.04069 7.42886 6.77044
#
# Compressibility (1/GPa) = 0.02171410
#
# Stress axis : x y z
#
# Youngs Moduli (GPa) = 46.33118 140.33165 100.86349
#
# Poissons Ratio (x) = 0.36255 0.33003
# Poissons Ratio (y) = 0.11970 0.26218
# Poissons Ratio (z) = 0.15160 0.36477
#
# Static dielectric constant tensor:
#      x y z
#    x 2.004620 0.024150 -0.028700 
#    y 0.024150 2.032380 0.045150 
#    z -0.028700 0.045150 2.095680 
# 
# From -- ./inp_files/303182.got.cif
#   From: 2010.05.17/outbox.cif.g08.bks.cpg/sg2_152_cif.got.tgz:303182.got - 2010.06.03 11:33:40.
