data_PCOD9093455
_publ_section_title
;
Structure prediction by ZEFSAII (Michael W. Deem and Ramdas Pophale) SiO2 
 PCOD9093455
Probable space group: P -1
;
_chemical_formula_sum "Si O2"
_cell_formula_units_Z 16
_cell_length_a 13.814278
_cell_length_b 19.009986
_cell_length_c 13.240730
_cell_angle_alpha 138.330759
_cell_angle_beta 158.931592
_cell_angle_gamma 43.479751
_cell_volume 825.062653
_symmetry_space_group_name_H-M "P -1"
_symmetry_group_IT_number 2
_symmetry_cell_setting 'triclinic'
loop_
_space_group_symop_operation_xyz
x,y,z
-x,-y,-z
loop_
_atom_site_type_symbol
_atom_site_label
_atom_site_fract_x
_atom_site_fract_y
_atom_site_fract_z
Si Si1 0.565318 0.168188 0.780905
Si Si2 0.184524 0.963552 0.401895
Si Si3 0.732473 0.948624 0.796790
Si Si4 0.384344 0.290145 0.935094
Si Si5 0.697701 0.540772 0.116984
Si Si6 0.905410 0.194699 0.451653
Si Si7 0.273782 0.923657 0.668010
Si Si8 0.151202 0.631282 0.780016
O O1 0.356875 0.136278 0.460118
O O2 0.403429 0.216786 0.773883
O O3 0.754008 0.253571 0.016380
O O4 0.751493 0.059634 0.876463
O O5 0.467409 0.977190 0.639643
O O6 0.267832 0.900030 0.517929
O O7 0.011512 0.077250 0.383899
O O8 0.990042 0.914075 0.080274
O O9 0.294124 0.408348 0.931198
O O10 0.174426 0.253044 0.771594
O O11 0.686074 0.264529 0.244372
O O12 0.816884 0.420761 0.133389
O O13 0.868536 0.611054 0.433073
O O14 0.383186 0.559854 0.863285
O O15 0.756513 0.172277 0.387455
O O16 0.000000 0.000000 0.500000
O O17 0.500000 0.000000 0.000000
#
# Coordination Sequence:
#
# PCOD9093455 Si02
#       8
#     2   2   2   2   2   2   2   2
#     4  10  21  34  46  70  99 137 163 200 223 275
#     4  11  20  36  46  67  94 128 165 206 229 277
#     4  11  23  31  49  68  97 133 176 191 225 268
#     4  11  19  30  48  70  99 121 158 191 237 280
#     4   9  18  30  47  69  88 125 155 199 236 290
#     4  11  19  31  48  70  91 125 153 193 246 284
#     4  10  20  33  50  67  90 122 161 199 246 286
#     4   9  18  32  47  63  93 124 164 191 242 269
#
# _framework density 19.392467
#
# number of rings (size 3 to 8) (size 9 to 14) (size 15 to 20)
#    0.000    1.750    2.500    4.500    0.000    5.000 
#    0.000    0.000    0.000    0.000    0.000    0.000 
#    0.000    6.000    0.000    0.000    0.000    0.000 
#
# Total GULP energy -89234.532192 kJ/mol
# GULP energy per Si atom -5577.158262 kJ/mol
# Density = 1.934833 g / cm^3
# Si number density = 19.392467 Si / 1000 Ang^3
#
#
#
# Elastic Constant Matrix: (Units=GPa)
#
#
# Indices 1 2 3 4 5 6 
#
# 1 49.1660 32.6272 21.3583 1.2242 -3.8779 19.9274
# 2 32.6272 71.5742 25.1183 8.6075 0.0751 28.0280
# 3 21.3583 25.1183 94.1229 -1.5655 8.5102 11.5759
# 4 1.2242 8.6075 -1.5655 29.9809 5.7014 0.6489
# 5 -3.8779 0.0751 8.5102 5.7014 26.3490 -3.0429
# 6 19.9274 28.0280 11.5759 0.6489 -3.0429 22.1392
#
#
#
# Elastic Compliance Matrix: (Units=1/GPa)
#
#
# Indices 1 2 3 4 5 6 
#
# 1 0.035128 -0.006441 -0.004075 -0.000135 0.004136 -0.020761
# 2 -0.006441 0.031810 -0.002896 -0.007885 -0.002212 -0.033031
# 3 -0.004075 -0.002896 0.012878 0.002694 -0.005358 -0.000214
# 4 -0.000135 -0.007885 0.002694 0.037177 -0.008163 0.006484
# 5 0.004136 -0.002212 -0.005358 -0.008163 0.042991 0.008027
# 6 -0.020761 -0.033031 -0.000214 0.006484 0.008027 0.106699
#
#
# Mechanical properties :
#
#
# Convention : Reuss Voigt Hill
#
# Bulk Modulus (GPa) = 18.87128 41.45230 30.16179
# Shear Modulus (GPa) = 16.06835 24.74443 20.40639
#
# Velocity S-wave (km/s) = 2.88164 3.57596 3.24741
# Velocity P-wave (km/s) = 4.56335 6.20257 5.44500
#
# Compressibility (1/GPa) = 0.05299058
#
# Stress axis : x y z
#
# Youngs Moduli (GPa) = 28.46697 31.43705 77.65395
#
# Poissons Ratio (x) = 0.20250 0.31645
# Poissons Ratio (y) = 0.18337 0.22488
# Poissons Ratio (z) = 0.11601 0.09104
#
# Static dielectric constant tensor:
#      x y z
#    x 1.739640 0.055680 0.000590 
#    y 0.055680 1.760760 -0.016460 
#    z 0.000590 -0.016460 1.671940 
# 
# From -- ./inp_files/436830.got.cif
#   From: 2010.05.17/outbox.cif.g08.bks.cpg/sg2_219_cif.got.tgz:436830.got - 2010.06.03 11:33:40.
