data_PCOD9093825
_publ_section_title
;
Structure prediction by ZEFSAII (Michael W. Deem and Ramdas Pophale) SiO2 
 PCOD9093825
Probable space group: P -1
;
_chemical_formula_sum "Si O2"
_cell_formula_units_Z 16
_cell_length_a 17.173844
_cell_length_b 7.422573
_cell_length_c 22.311418
_cell_angle_alpha 143.780325
_cell_angle_beta 148.515660
_cell_angle_gamma 33.347918
_cell_volume 771.162018
_symmetry_space_group_name_H-M "P -1"
_symmetry_group_IT_number 2
_symmetry_cell_setting 'triclinic'
loop_
_space_group_symop_operation_xyz
x,y,z
-x,-y,-z
loop_
_atom_site_type_symbol
_atom_site_label
_atom_site_fract_x
_atom_site_fract_y
_atom_site_fract_z
Si Si1 0.706515 0.477474 0.704353
Si Si2 0.153855 0.631551 0.362873
Si Si3 0.810755 0.578853 0.133838
Si Si4 0.358787 0.838534 0.309797
Si Si5 0.631157 0.197628 0.378506
Si Si6 0.540908 0.813961 0.121357
Si Si7 0.915009 0.793064 0.973145
Si Si8 0.741132 0.534054 0.946828
O O1 0.806833 0.316277 0.666132
O O2 0.741777 0.217787 0.714748
O O3 0.503032 0.666836 0.618008
O O4 0.756022 0.766307 0.836497
O O5 0.189892 0.874057 0.497143
O O6 0.970985 0.649783 0.254252
O O7 0.298908 0.241693 0.372347
O O8 0.681985 0.773555 0.154721
O O9 0.877899 0.165336 0.072001
O O10 0.706154 0.665369 0.026343
O O11 0.547972 0.532903 0.368255
O O12 0.311682 0.737983 0.187987
O O13 0.610755 0.893601 0.250116
O O14 0.360702 0.146364 0.078387
O O15 0.500000 0.500000 0.000000
O O16 0.057025 0.656423 0.978220
O O17 0.000000 0.500000 0.000000
#
# Coordination Sequence:
#
# PCOD9093825 Si02
#       8
#     2   2   2   2   2   2   2   2
#     4  10  20  33  58  89 121 155 199 249 300 347
#     4  12  20  37  61  91 128 154 201 252 301 371
#     4  12  24  34  62  96 119 164 200 248 319 353
#     4   9  20  35  58  91 120 159 193 249 307 349
#     4   9  22  40  58  86 123 165 202 243 303 365
#     4  11  24  44  62  84 121 167 205 249 307 367
#     4  12  18  35  59  94 123 150 203 257 302 355
#     4  11  20  38  58  89 125 149 205 254 299 360
#
# _framework density 20.747910999999998
#
# number of rings (size 3 to 8) (size 9 to 14) (size 15 to 20)
#    0.750    0.500    3.750    3.750    0.000    0.500 
#    0.000    0.000    0.000    0.750    0.000    0.000 
#    0.000    0.000    0.000    0.000    0.000    0.000 
#
# Total GULP energy -89145.532147 kJ/mol
# GULP energy per Si atom -5571.595759 kJ/mol
# Density = 2.070069 g / cm^3
# Si number density = 20.747911 Si / 1000 Ang^3
#
#
#
# Elastic Constant Matrix: (Units=GPa)
#
#
# Indices 1 2 3 4 5 6 
#
# 1 82.7765 7.3516 33.8157 -8.9344 -11.2549 -11.9410
# 2 7.3516 31.7589 12.5044 4.1678 5.3993 -0.7827
# 3 33.8157 12.5044 154.0356 -8.9395 -5.4361 0.2961
# 4 -8.9344 4.1678 -8.9395 22.6867 -3.3490 1.7519
# 5 -11.2549 5.3993 -5.4361 -3.3490 20.6194 -0.3317
# 6 -11.9410 -0.7827 0.2961 1.7519 -0.3317 31.6695
#
#
#
# Elastic Compliance Matrix: (Units=1/GPa)
#
#
# Indices 1 2 3 4 5 6 
#
# 1 0.016844 -0.005828 -0.002365 0.008012 0.011493 0.005906
# 2 -0.005828 0.038528 -0.003172 -0.012966 -0.016223 -0.000668
# 3 -0.002365 -0.003172 0.007515 0.002998 0.001989 -0.001186
# 4 0.008012 -0.012966 0.002998 0.053347 0.017222 -0.000098
# 5 0.011493 -0.016223 0.001989 0.017222 0.062399 0.003615
# 6 0.005906 -0.000668 -0.001186 -0.000098 0.003615 0.033841
#
#
# Mechanical properties :
#
#
# Convention : Reuss Voigt Hill
#
# Bulk Modulus (GPa) = 24.90199 41.76825 33.33512
# Shear Modulus (GPa) = 20.11337 29.32174 24.71756
#
# Velocity S-wave (km/s) = 3.11692 3.76338 3.45531
# Velocity P-wave (km/s) = 4.99818 6.24973 5.65866
#
# Compressibility (1/GPa) = 0.04015743
#
# Stress axis : x y z
#
# Youngs Moduli (GPa) = 59.36790 25.95494 133.06308
#
# Poissons Ratio (x) = 0.15125 0.31476
# Poissons Ratio (y) = 0.34597 0.42209
# Poissons Ratio (z) = 0.14043 0.08233
#
# Static dielectric constant tensor:
#      x y z
#    x 1.824540 0.015980 0.018580 
#    y 0.015980 1.745780 0.009870 
#    z 0.018580 0.009870 1.804340 
# 
# From -- ./inp_files/612969.got.cif
#   From: 2010.05.17/outbox.cif.g08.bks.cpg/sg2_307_cif.got.tgz:612969.got - 2010.06.03 11:33:40.
