data_PCOD9093976
_publ_section_title
;
Structure prediction by ZEFSAII (Michael W. Deem and Ramdas Pophale) SiO2 
 PCOD9093976
Probable space group: P -1
;
_chemical_formula_sum "Si O2"
_cell_formula_units_Z 16
_cell_length_a 9.562150
_cell_length_b 5.216351
_cell_length_c 28.786916
_cell_angle_alpha 100.776660
_cell_angle_beta 25.893747
_cell_angle_gamma 101.284283
_cell_volume 614.730094
_symmetry_space_group_name_H-M "P -1"
_symmetry_group_IT_number 2
_symmetry_cell_setting 'triclinic'
loop_
_space_group_symop_operation_xyz
x,y,z
-x,-y,-z
loop_
_atom_site_type_symbol
_atom_site_label
_atom_site_fract_x
_atom_site_fract_y
_atom_site_fract_z
Si Si1 0.085672 0.878802 0.748541
Si Si2 0.629658 0.238606 0.083969
Si Si3 0.980270 0.421316 0.829396
Si Si4 0.746834 0.863762 0.387953
Si Si5 0.748513 0.688458 0.996974
Si Si6 0.315890 0.148094 0.267048
Si Si7 0.206026 0.499103 0.532147
Si Si8 0.959523 0.931004 0.563262
O O1 0.262292 0.002592 0.654952
O O2 0.103510 0.131854 0.785703
O O3 0.728542 0.809063 0.832872
O O4 0.164177 0.621062 0.744938
O O5 0.757260 0.513358 0.034414
O O6 0.587766 0.225047 0.151589
O O7 0.805075 0.993172 0.002488
O O8 0.617310 0.360368 0.915819
O O9 0.958451 0.567645 0.889758
O O10 0.581963 0.573166 0.429065
O O11 0.500000 0.000000 0.500000
O O12 0.111951 0.900051 0.296793
O O13 0.048327 0.366190 0.353858
O O14 0.352099 0.104821 0.310134
O O15 0.122716 0.196942 0.544738
O O16 0.126359 0.662987 0.515004
O O17 0.000000 0.000000 0.500000
#
# Coordination Sequence:
#
# PCOD9093976 Si02
#       8
#     2   2   2   2   2   2   2   2
#     4   9  17  27  40  56  84 116 150 185 212 261
#     4   9  16  25  38  61  82 113 147 183 221 256
#     4   9  16  27  37  55  78 117 153 178 218 253
#     4   9  17  35  44  73  93 127 158 193 224 269
#     4   9  16  24  39  54  81 112 151 184 209 266
#     4   8  19  30  47  68  96 123 155 190 229 273
#     4   9  20  32  49  66  91 124 156 194 223 268
#     4  10  20  34  49  66  88 126 161 190 231 271
#
# _framework density 26.027681999999999
#
# number of rings (size 3 to 8) (size 9 to 14) (size 15 to 20)
#    0.750    2.250    0.000    1.125    1.750    4.500 
#    6.750    0.000    0.000    0.000    0.000    0.000 
#    0.000    0.000    0.000   22.500    0.000   10.000 
#
# Total GULP energy -89289.834158 kJ/mol
# GULP energy per Si atom -5580.614635 kJ/mol
# Density = 2.596844 g / cm^3
# Si number density = 26.027682 Si / 1000 Ang^3
#
#
#
# Elastic Constant Matrix: (Units=GPa)
#
#
# Indices 1 2 3 4 5 6 
#
# 1 65.6854 1.1459 20.5711 1.2738 18.9406 -14.0163
# 2 1.1459 83.1388 6.0079 -13.7618 -6.2932 -12.9300
# 3 20.5711 6.0079 93.6561 -8.8166 22.7081 3.0695
# 4 1.2738 -13.7618 -8.8166 38.6372 3.4048 11.2074
# 5 18.9406 -6.2932 22.7081 3.4048 40.2904 -7.3752
# 6 -14.0163 -12.9300 3.0695 11.2074 -7.3752 29.1007
#
#
#
# Elastic Compliance Matrix: (Units=1/GPa)
#
#
# Indices 1 2 3 4 5 6 
#
# 1 0.020263 0.000661 -0.004069 -0.004082 -0.004800 0.010838
# 2 0.000661 0.013908 -0.002071 0.002076 0.004128 0.006963
# 3 -0.004069 -0.002071 0.014740 0.006175 -0.008901 -0.009068
# 4 -0.004082 0.002076 0.006175 0.033548 -0.007076 -0.016408
# 5 -0.004800 0.004128 -0.008901 -0.007076 0.035569 0.012200
# 6 0.010838 0.006963 -0.009068 -0.016408 0.012200 0.053045
#
#
# Mechanical properties :
#
#
# Convention : Reuss Voigt Hill
#
# Bulk Modulus (GPa) = 26.34770 33.10335 29.72552
# Shear Modulus (GPa) = 25.68311 35.92268 30.80289
#
# Velocity S-wave (km/s) = 3.14468 3.71910 3.44389
# Velocity P-wave (km/s) = 4.83015 5.58466 5.22105
#
# Compressibility (1/GPa) = 0.03795398
#
# Stress axis : x y z
#
# Youngs Moduli (GPa) = 49.35186 71.90302 67.84078
#
# Poissons Ratio (x) = -0.04755 0.27601
# Poissons Ratio (y) = -0.03263 0.14050
# Poissons Ratio (z) = 0.20079 0.14892
#
# Static dielectric constant tensor:
#      x y z
#    x 2.189930 0.073030 0.005820 
#    y 0.073030 2.030100 0.032060 
#    z 0.005820 0.032060 2.078450 
# 
# From -- ./inp_files/128548.got.cif
#   From: 2010.05.17/outbox.cif.g08.bks.cpg/sg2_65_cif.got.tgz:128548.got - 2010.06.03 11:33:40.
