data_PCOD9093845
_publ_section_title
;
Structure prediction by ZEFSAII (Michael W. Deem and Ramdas Pophale) SiO2 
 PCOD9093845
Probable space group: P -1
;
_chemical_formula_sum "Si O2"
_cell_formula_units_Z 16
_cell_length_a 7.820362
_cell_length_b 15.819563
_cell_length_c 5.271420
_cell_angle_alpha 84.231523
_cell_angle_beta 87.941505
_cell_angle_gamma 81.199763
_cell_volume 641.071403
_symmetry_space_group_name_H-M "P -1"
_symmetry_group_IT_number 2
_symmetry_cell_setting 'triclinic'
loop_
_space_group_symop_operation_xyz
x,y,z
-x,-y,-z
loop_
_atom_site_type_symbol
_atom_site_label
_atom_site_fract_x
_atom_site_fract_y
_atom_site_fract_z
Si Si1 0.581257 0.086840 0.231443
Si Si2 0.558281 0.628025 0.029417
Si Si3 0.679009 0.249817 0.350004
Si Si4 0.751109 0.926715 0.478792
Si Si5 0.224247 0.540109 0.045590
Si Si6 0.050997 0.216790 0.252934
Si Si7 0.101474 0.634323 0.498319
Si Si8 0.362524 0.208676 0.841227
O O1 0.632790 0.155538 0.411576
O O2 0.401623 0.050113 0.312957
O O3 0.526815 0.147841 0.977473
O O4 0.731146 0.005556 0.262494
O O5 0.404879 0.572470 0.108361
O O6 0.478425 0.690250 0.789043
O O7 0.724764 0.561772 0.955991
O O8 0.598745 0.694913 0.219912
O O9 0.755621 0.300329 0.557746
O O10 0.852383 0.238124 0.164013
O O11 0.926879 0.880334 0.606701
O O12 0.695025 0.844444 0.369526
O O13 0.095471 0.577337 0.266864
O O14 0.163104 0.577450 0.761595
O O15 0.201150 0.216925 0.043121
O O16 0.058500 0.295246 0.427614
#
# Coordination Sequence:
#
# PCOD9093845 Si02
#       8
#     2   2   2   2   2   2   2   2
#     4   9  19  37  53  87 106 147 201 239 290 342
#     4   9  20  35  61  85 109 146 203 242 293 342
#     4   8  18  36  57  79 115 149 190 245 287 352
#     4  10  20  33  59  78 116 149 189 244 291 359
#     4  10  20  39  61  92 112 156 198 257 286 343
#     4   9  21  36  53  83 113 159 184 242 292 360
#     4   9  21  37  62  82 125 149 197 242 299 341
#     4  10  20  37  56  80 115 153 189 238 299 350
#
# _framework density 24.958216
#
# number of rings (size 3 to 8) (size 9 to 14) (size 15 to 20)
#    0.750    2.000    0.000    0.375    3.500    5.000 
#    4.500    1.875    0.000    0.000    0.000    0.000 
#    0.000    0.000    0.000    0.000    0.000    0.000 
#
# Total GULP energy -89165.036389 kJ/mol
# GULP energy per Si atom -5572.814774 kJ/mol
# Density = 2.490141 g / cm^3
# Si number density = 24.958216 Si / 1000 Ang^3
#
#
#
# Elastic Constant Matrix: (Units=GPa)
#
#
# Indices 1 2 3 4 5 6 
#
# 1 65.8265 38.9245 26.0314 -7.7653 -4.3687 -9.5104
# 2 38.9245 141.4209 6.9079 -0.6301 7.4004 -24.9790
# 3 26.0314 6.9079 62.1380 6.4762 -2.0836 -12.5831
# 4 -7.7653 -0.6301 6.4762 15.3158 -1.1421 7.7608
# 5 -4.3687 7.4004 -2.0836 -1.1421 25.5901 4.8669
# 6 -9.5104 -24.9790 -12.5831 7.7608 4.8669 40.5513
#
#
#
# Elastic Compliance Matrix: (Units=1/GPa)
#
#
# Indices 1 2 3 4 5 6 
#
# 1 0.029465 -0.009528 -0.015865 0.027164 0.009653 -0.010239
# 2 -0.009528 0.011443 0.005743 -0.012249 -0.006872 0.009765
# 3 -0.015865 0.005743 0.027634 -0.027203 -0.006058 0.014325
# 4 0.027164 -0.012249 -0.027203 0.107665 0.016903 -0.032249
# 5 0.009653 -0.006872 -0.006058 0.016903 0.045357 -0.012527
# 6 -0.010239 0.009765 0.014325 -0.032249 -0.012527 0.040394
#
#
# Mechanical properties :
#
#
# Convention : Reuss Voigt Hill
#
# Bulk Modulus (GPa) = 34.19756 45.90145 40.04950
# Shear Modulus (GPa) = 16.07687 29.45953 22.76820
#
# Velocity S-wave (km/s) = 2.54077 3.43935 3.02363
# Velocity P-wave (km/s) = 4.72642 5.84837 5.31707
#
# Compressibility (1/GPa) = 0.02924185
#
# Stress axis : x y z
#
# Youngs Moduli (GPa) = 33.93839 87.39168 36.18723
#
# Poissons Ratio (x) = 0.83263 0.57412
# Poissons Ratio (y) = 0.32335 -0.20782
# Poissons Ratio (z) = 0.53845 -0.50188
#
# Static dielectric constant tensor:
#      x y z
#    x 2.047160 0.022960 -0.044430 
#    y 0.022960 1.997320 -0.000150 
#    z -0.044430 -0.000150 2.034630 
# 
# From -- ./inp_files/38621.got.cif
#   From: 2010.05.17/outbox.cif.g08.bks.cpg/sg2_20_cif.got.tgz:38621.got - 2010.06.03 11:33:40.
