data_PCOD9093277
_publ_section_title
;
Structure prediction by ZEFSAII (Michael W. Deem and Ramdas Pophale) SiO2 
 PCOD9093277
Probable space group: P -1
;
_chemical_formula_sum "Si O2"
_cell_formula_units_Z 14
_cell_length_a 18.745288
_cell_length_b 6.643236
_cell_length_c 5.643311
_cell_angle_alpha 103.516064
_cell_angle_beta 72.059849
_cell_angle_gamma 124.863103
_cell_volume 547.092914
_symmetry_space_group_name_H-M "P -1"
_symmetry_group_IT_number 2
_symmetry_cell_setting 'triclinic'
loop_
_space_group_symop_operation_xyz
x,y,z
-x,-y,-z
loop_
_atom_site_type_symbol
_atom_site_label
_atom_site_fract_x
_atom_site_fract_y
_atom_site_fract_z
Si Si1 0.012424 0.767435 0.052519
Si Si2 0.411151 0.193215 0.406922
Si Si3 0.624935 0.791215 0.048106
Si Si4 0.685153 0.357955 0.665140
Si Si5 0.403491 0.755970 0.776078
Si Si6 0.184769 0.112897 0.213814
Si Si7 0.015194 0.767053 0.547256
O O1 0.978856 0.791374 0.840272
O O2 0.972549 0.782457 0.348600
O O3 0.000000 0.500000 0.000000
O O4 0.117148 0.972508 0.028686
O O5 0.419085 0.331830 0.193136
O O6 0.495349 0.166272 0.335047
O O7 0.327082 0.909156 0.398790
O O8 0.401280 0.314286 0.686941
O O9 0.728227 0.894045 0.925723
O O10 0.603607 0.004508 0.142272
O O11 0.653069 0.380872 0.441782
O O12 0.779347 0.603049 0.694753
O O13 0.629175 0.350602 0.952928
O O14 0.121185 0.950733 0.450578
O O15 0.000000 0.500000 0.500000
#
# Coordination Sequence:
#
# PCOD9093277 Si02
#       7
#     2   2   2   2   2   2   2
#     4   8  16  30  48  69 102 133 154 184 248 308
#     4  10  20  39  52  65  97 146 175 185 242 327
#     4  10  20  32  54  75  97 128 166 215 249 276
#     4  10  20  32  54  75  97 128 166 215 249 276
#     4  10  20  39  52  65  97 146 175 185 242 327
#     4  10  22  30  53  84 106 110 170 224 245 270
#     4   8  16  30  48  69 102 133 154 184 248 308
#
# _framework density 25.5898
#
# number of rings (size 3 to 8) (size 9 to 14) (size 15 to 20)
#    0.857    1.714    0.000    4.286    4.000    0.000 
#    0.000    7.857    0.000    0.000    0.000   24.000 
#    0.000    0.000    0.000    0.000    0.000    0.000 
#
# Total GULP energy -78139.189132 kJ/mol
# GULP energy per Si atom -5581.370652 kJ/mol
# Density = 2.553156 g / cm^3
# Si number density = 25.589800 Si / 1000 Ang^3
#
#
#
# Elastic Constant Matrix: (Units=GPa)
#
#
# Indices 1 2 3 4 5 6 
#
# 1 100.1545 14.4010 53.0143 -13.7560 10.5174 -0.3798
# 2 14.4010 137.5187 31.6626 6.6817 9.4167 10.9646
# 3 53.0143 31.6626 248.5035 -8.3200 42.5256 -7.4957
# 4 -13.7560 6.6817 -8.3200 52.4841 -8.2092 9.4296
# 5 10.5174 9.4167 42.5256 -8.2092 63.4705 -7.0138
# 6 -0.3798 10.9646 -7.4957 9.4296 -7.0138 32.7551
#
#
#
# Elastic Compliance Matrix: (Units=1/GPa)
#
#
# Indices 1 2 3 4 5 6 
#
# 1 0.011737 -0.000756 -0.002340 0.002983 0.000010 -0.001003
# 2 -0.000756 0.007865 -0.000796 -0.000980 -0.000938 -0.002742
# 3 -0.002340 -0.000796 0.005133 -0.000307 -0.002875 0.000887
# 4 0.002983 -0.000980 -0.000307 0.021191 0.002003 -0.005379
# 5 0.000010 -0.000938 -0.002875 0.002003 0.018412 0.003022
# 6 -0.001003 -0.002742 0.000887 -0.005379 0.003022 0.033835
#
#
# Mechanical properties :
#
#
# Convention : Reuss Voigt Hill
#
# Bulk Modulus (GPa) = 58.99162 76.03694 67.51428
# Shear Modulus (GPa) = 44.80064 55.54853 50.17459
#
# Velocity S-wave (km/s) = 4.18870 4.66416 4.43281
# Velocity P-wave (km/s) = 6.81883 7.66708 7.25536
#
# Compressibility (1/GPa) = 0.01695156
#
# Stress axis : x y z
#
# Youngs Moduli (GPa) = 85.20384 127.15182 194.81543
#
# Poissons Ratio (x) = 0.09613 0.45578
# Poissons Ratio (y) = 0.06442 0.15502
# Poissons Ratio (z) = 0.19934 0.10118
#
# Static dielectric constant tensor:
#      x y z
#    x 1.980350 -0.106570 0.071930 
#    y -0.106570 2.109330 0.008050 
#    z 0.071930 0.008050 2.085550 
# 
# From -- ./inp_files/104782.got.cif
#   From: 2010.05.17/outbox.cif.g08.bks.cpg/sg2_53_cif.got.tgz:104782.got - 2010.06.03 11:33:40.
