data_PCOD9093250
_publ_section_title
;
Structure prediction by ZEFSAII (Michael W. Deem and Ramdas Pophale) SiO2 
 PCOD9093250
Probable space group: P -1
;
_chemical_formula_sum "Si O2"
_cell_formula_units_Z 15
_cell_length_a 11.416972
_cell_length_b 11.053751
_cell_length_c 7.067832
_cell_angle_alpha 108.227153
_cell_angle_beta 116.431246
_cell_angle_gamma 44.251456
_cell_volume 557.331331
_symmetry_space_group_name_H-M "P -1"
_symmetry_group_IT_number 2
_symmetry_cell_setting 'triclinic'
loop_
_space_group_symop_operation_xyz
x,y,z
-x,-y,-z
loop_
_atom_site_type_symbol
_atom_site_label
_atom_site_fract_x
_atom_site_fract_y
_atom_site_fract_z
Si Si1 0.560976 0.350659 0.727639
Si Si2 0.007983 0.782384 0.650504
Si Si3 0.265844 0.052707 0.918140
Si Si4 0.190975 0.381696 0.969305
Si Si5 0.325701 0.738143 0.789321
Si Si6 0.872646 0.303717 0.863663
Si Si7 0.000000 0.500000 0.500000
Si Si8 0.616797 0.046948 0.612918
O O1 0.427948 0.551134 0.682866
O O2 0.749496 0.263413 0.728561
O O3 0.505193 0.245990 0.584374
O O4 0.602720 0.316440 0.967163
O O5 0.055853 0.610310 0.527398
O O6 0.120714 0.827187 0.682533
O O7 0.794482 0.925874 0.556386
O O8 0.056963 0.747040 0.893496
O O9 0.305332 0.177547 0.979048
O O10 0.050577 0.188073 0.811246
O O11 0.345184 0.870201 0.798372
O O12 0.312729 0.998543 0.144596
O O13 0.145166 0.413000 0.731715
O O14 0.245235 0.488459 0.123376
O O15 0.000000 0.500000 0.000000
O O16 0.500000 0.000000 0.500000
#
# Coordination Sequence:
#
# PCOD9093250 Si02
#       8
#     2   2   2   2   2   2   1   2
#     4   9  17  30  50  79 112 153 200 241 296 359
#     4   9  18  31  51  81 111 148 195 238 296 358
#     4   9  17  33  55  81 112 152 198 244 294 355
#     4   9  18  35  59  91 120 153 199 247 303 362
#     4   9  17  30  51  79 114 151 194 248 299 348
#     4   8  15  31  55  78 107 147 195 240 292 359
#     4  10  20  34  60  92 118 150 196 250 304 358
#     4  10  20  32  52  82 118 159 200 245 298 355
#
# _framework density 26.913972999999999
#
# number of rings (size 3 to 8) (size 9 to 14) (size 15 to 20)
#    0.000    2.933    0.000    1.600    1.867    3.200 
#    2.400    1.333    0.000    0.800    0.000    0.000 
#    0.000    0.000    0.000    0.000    0.000    0.000 
#
# Total GULP energy -83573.740721 kJ/mol
# GULP energy per Si atom -5571.582715 kJ/mol
# Density = 2.685272 g / cm^3
# Si number density = 26.913973 Si / 1000 Ang^3
#
#
#
# Elastic Constant Matrix: (Units=GPa)
#
#
# Indices 1 2 3 4 5 6 
#
# 1 90.8344 74.3771 24.8482 14.5011 25.3871 27.9820
# 2 74.3771 201.0568 35.4383 8.5930 20.2161 41.6112
# 3 24.8482 35.4383 44.1473 1.6377 -5.2979 14.3157
# 4 14.5011 8.5930 1.6377 28.4757 22.0482 9.9391
# 5 25.3871 20.2161 -5.2979 22.0482 49.7196 7.6653
# 6 27.9820 41.6112 14.3157 9.9391 7.6653 50.0048
#
#
#
# Elastic Compliance Matrix: (Units=1/GPa)
#
#
# Indices 1 2 3 4 5 6 
#
# 1 0.020553 -0.004521 -0.007606 -0.000588 -0.008569 -0.004131
# 2 -0.004521 0.007991 -0.003079 0.002822 -0.001981 -0.003496
# 3 -0.007606 -0.003079 0.031897 -0.004455 0.010990 -0.003113
# 4 -0.000588 0.002822 -0.004455 0.057475 -0.025537 -0.008253
# 5 -0.008569 -0.001981 0.010990 -0.025537 0.037382 0.002643
# 6 -0.004131 -0.003496 -0.003113 -0.008253 0.002643 0.027345
#
#
# Mechanical properties :
#
#
# Convention : Reuss Voigt Hill
#
# Bulk Modulus (GPa) = 33.30045 67.26287 50.28166
# Shear Modulus (GPa) = 22.41503 39.06501 30.74002
#
# Velocity S-wave (km/s) = 2.88903 3.81396 3.38325
# Velocity P-wave (km/s) = 4.85061 6.66642 5.82964
#
# Compressibility (1/GPa) = 0.03002962
#
# Stress axis : x y z
#
# Youngs Moduli (GPa) = 48.65497 125.14343 31.35045
#
# Poissons Ratio (x) = 0.56574 0.23845
# Poissons Ratio (y) = 0.21996 0.09653
# Poissons Ratio (z) = 0.37007 0.38531
#
# Static dielectric constant tensor:
#      x y z
#    x 2.102640 -0.021890 0.007450 
#    y -0.021890 2.110830 0.051080 
#    z 0.007450 0.051080 2.176960 
# 
# From -- ./inp_files/259611.got.cif
#   From: 2010.05.17/outbox.cif.g08.bks.cpg/sg2_130_cif.got.tgz:259611.got - 2010.06.03 11:33:40.
