data_PCOD9093135
_publ_section_title
;
Structure prediction by ZEFSAII (Michael W. Deem and Ramdas Pophale) SiO2 
 PCOD9093135
Probable space group: P -1
;
_chemical_formula_sum "Si O2"
_cell_formula_units_Z 16
_cell_length_a 15.101029
_cell_length_b 26.074523
_cell_length_c 14.640469
_cell_angle_alpha 149.347708
_cell_angle_beta 19.229103
_cell_angle_gamma 149.971097
_cell_volume 917.518884
_symmetry_space_group_name_H-M "P -1"
_symmetry_group_IT_number 2
_symmetry_cell_setting 'triclinic'
loop_
_space_group_symop_operation_xyz
x,y,z
-x,-y,-z
loop_
_atom_site_type_symbol
_atom_site_label
_atom_site_fract_x
_atom_site_fract_y
_atom_site_fract_z
Si Si1 0.858913 0.395302 0.915367
Si Si2 0.561398 0.309416 0.249746
Si Si3 0.960689 0.190904 0.732248
Si Si4 0.101561 0.378236 0.150440
Si Si5 0.706124 0.500951 0.670336
Si Si6 0.371418 0.452200 0.387208
Si Si7 0.505899 0.020372 0.134630
Si Si8 0.892633 0.848199 0.262275
O O1 0.673292 0.311665 0.040619
O O2 0.652200 0.421392 0.083126
O O3 0.000000 0.500000 0.000000
O O4 0.121292 0.378010 0.580533
O O5 0.563795 0.427042 0.454889
O O6 0.245350 0.232934 0.460129
O O7 0.796132 0.277435 0.030889
O O8 0.056961 0.166557 0.701523
O O9 0.717004 0.086570 0.773586
O O10 0.129106 0.413761 0.283777
O O11 0.835074 0.404103 0.405673
O O12 0.378672 0.455772 0.949152
O O13 0.109464 0.260193 0.948748
O O14 0.722764 0.547032 0.623873
O O15 0.384340 0.116373 0.421089
O O16 0.836005 0.056768 0.892830
O O17 0.500000 0.000000 0.000000
#
# Coordination Sequence:
#
# PCOD9093135 Si02
#       8
#     2   2   2   2   2   2   2   2
#     4  10  20  32  45  66  94 124 158 195 229 275
#     4  11  19  29  45  66  92 122 156 188 226 276
#     4  11  19  29  45  66  92 122 156 188 226 276
#     4  10  20  33  49  72  99 126 161 200 231 269
#     4  10  20  33  49  72  99 126 161 200 231 269
#     4  11  19  32  48  66  95 130 158 185 234 280
#     4  10  20  32  45  66  94 124 158 195 229 275
#     4  11  19  32  48  66  95 130 158 185 234 280
#
# _framework density 17.438333
#
# number of rings (size 3 to 8) (size 9 to 14) (size 15 to 20)
#    0.000    1.500    0.000   10.500    0.000    0.000 
#    0.000    0.000    0.000    0.000    0.000    0.000 
#    0.000   20.000    0.000    0.000    0.000    0.000 
#
# Total GULP energy -89297.895027 kJ/mol
# GULP energy per Si atom -5581.118439 kJ/mol
# Density = 1.739864 g / cm^3
# Si number density = 17.438333 Si / 1000 Ang^3
#
#
#
# Elastic Constant Matrix: (Units=GPa)
#
#
# Indices 1 2 3 4 5 6 
#
# 1 51.9518 11.6420 3.9154 -11.0038 7.5503 -3.4619
# 2 11.6420 66.4471 10.2897 -20.1840 15.8799 -8.4807
# 3 3.9154 10.2897 73.9034 -11.1530 -3.9109 -0.5264
# 4 -11.0038 -20.1840 -11.1530 35.0368 -0.3758 6.9699
# 5 7.5503 15.8799 -3.9109 -0.3758 25.0440 1.7237
# 6 -3.4619 -8.4807 -0.5264 6.9699 1.7237 13.2682
#
#
#
# Elastic Compliance Matrix: (Units=1/GPa)
#
#
# Indices 1 2 3 4 5 6 
#
# 1 0.021760 0.000213 -0.000623 0.005978 -0.006948 0.003552
# 2 0.000213 0.024047 -0.002546 0.010567 -0.016371 0.011901
# 3 -0.000623 -0.002546 0.014702 0.003818 0.004416 -0.003786
# 4 0.005978 0.010567 0.003818 0.039977 -0.006502 -0.011691
# 5 -0.006948 -0.016371 0.004416 -0.006502 0.054078 -0.015711
# 6 0.003552 0.011901 -0.003786 -0.011691 -0.015711 0.091934
#
#
# Mechanical properties :
#
#
# Convention : Reuss Voigt Hill
#
# Bulk Modulus (GPa) = 18.31577 27.11073 22.71325
# Shear Modulus (GPa) = 18.47684 25.76682 22.12183
#
# Velocity S-wave (km/s) = 3.25861 3.84812 3.56557
# Velocity P-wave (km/s) = 4.96830 5.94344 5.47761
#
# Compressibility (1/GPa) = 0.05459776
#
# Stress axis : x y z
#
# Youngs Moduli (GPa) = 45.95532 41.58441 68.01976
#
# Poissons Ratio (x) = -0.00887 0.04236
# Poissons Ratio (y) = -0.00981 0.17320
# Poissons Ratio (z) = 0.02862 0.10589
#
# Static dielectric constant tensor:
#      x y z
#    x 1.588560 -0.014750 -0.008170 
#    y -0.014750 1.636190 -0.005920 
#    z -0.008170 -0.005920 1.621120 
# 
# From -- ./inp_files/533115.got.cif
#   From: 2010.05.17/outbox.cif.g08.bks.cpg/sg2_267_cif.got.tgz:533115.got - 2010.06.03 11:33:40.
