data_PCOD9093034
_publ_section_title
;
Structure prediction by ZEFSAII (Michael W. Deem and Ramdas Pophale) SiO2 
 PCOD9093034
Probable space group: P -1
;
_chemical_formula_sum "Si O2"
_cell_formula_units_Z 16
_cell_length_a 7.005945
_cell_length_b 16.384008
_cell_length_c 7.291872
_cell_angle_alpha 49.314424
_cell_angle_beta 82.949297
_cell_angle_gamma 104.676609
_cell_volume 564.717297
_symmetry_space_group_name_H-M "P -1"
_symmetry_group_IT_number 2
_symmetry_cell_setting 'triclinic'
loop_
_space_group_symop_operation_xyz
x,y,z
-x,-y,-z
loop_
_atom_site_type_symbol
_atom_site_label
_atom_site_fract_x
_atom_site_fract_y
_atom_site_fract_z
Si Si1 0.718106 0.909370 0.877155
Si Si2 0.182841 0.410483 0.193401
Si Si3 0.887376 0.151228 0.969808
Si Si4 0.186546 0.398084 0.609660
Si Si5 0.010875 0.158390 0.522571
Si Si6 0.399485 0.098137 0.674286
Si Si7 0.697996 0.349337 0.336556
Si Si8 0.452372 0.658163 0.226756
O O1 0.625822 0.915601 0.080915
O O2 0.551160 0.796230 0.945570
O O3 0.914852 0.874581 0.947466
O O4 0.836180 0.046978 0.592487
O O5 0.247692 0.376193 0.428811
O O6 0.119329 0.294864 0.241006
O O7 0.949603 0.404802 0.263939
O O8 0.332480 0.545519 0.918623
O O9 0.953289 0.286587 0.832316
O O10 0.904797 0.157402 0.735959
O O11 0.664299 0.034347 0.205173
O O12 0.239622 0.537607 0.380244
O O13 0.357900 0.384212 0.743392
O O14 0.205325 0.126217 0.590364
O O15 0.611150 0.221210 0.433613
O O16 0.587246 0.326606 0.578026
#
# Coordination Sequence:
#
# PCOD9093034 Si02
#       8
#     2   2   2   2   2   2   2   2
#     4   7  11  22  41  65  88 107 134 179 224 253
#     4  10  20  31  43  63  92 121 148 181 218 256
#     4   7  11  22  41  65  88 107 134 179 224 253
#     4   9  17  30  49  70  90 114 145 180 219 264
#     4   8  13  24  43  63  84 111 143 180 219 256
#     4   8  13  24  43  63  84 111 143 180 219 256
#     4  10  20  31  43  63  92 121 148 181 218 256
#     4   9  17  30  49  70  90 114 145 180 219 264
#
# _framework density 28.33276
#
# number of rings (size 3 to 8) (size 9 to 14) (size 15 to 20)
#    0.000    3.500    0.000    3.750    0.000    2.500 
#    0.000   10.000    0.000    1.500    0.000   10.500 
#    0.000    0.000    0.000    0.000    0.000    0.000 
#
# Total GULP energy -89333.108659 kJ/mol
# GULP energy per Si atom -5583.319291 kJ/mol
# Density = 2.826827 g / cm^3
# Si number density = 28.332760 Si / 1000 Ang^3
#
#
#
# Elastic Constant Matrix: (Units=GPa)
#
#
# Indices 1 2 3 4 5 6 
#
# 1 75.5729 13.1899 12.6636 -6.3722 -3.3975 6.3613
# 2 13.1899 128.9571 89.4307 -73.9298 -10.0688 17.3856
# 3 12.6636 89.4307 138.1366 -65.0834 -10.1210 9.1015
# 4 -6.3722 -73.9298 -65.0834 95.5901 6.6382 -7.8274
# 5 -3.3975 -10.0688 -10.1210 6.6382 25.6705 -20.4965
# 6 6.3613 17.3856 9.1015 -7.8274 -20.4965 30.8902
#
#
#
# Elastic Compliance Matrix: (Units=1/GPa)
#
#
# Indices 1 2 3 4 5 6 
#
# 1 0.013670 -0.000707 -0.000864 -0.000392 -0.001092 -0.002987
# 2 -0.000707 0.019599 -0.008059 0.009211 -0.006162 -0.010265
# 3 -0.000864 -0.008059 0.014217 0.003421 0.005437 0.004999
# 4 -0.000392 0.009211 0.003421 0.019834 -0.002310 -0.002618
# 5 -0.001092 -0.006162 0.005437 -0.002310 0.085785 0.058427
# 6 -0.002987 -0.010265 0.004999 -0.002618 0.058427 0.075397
#
#
# Mechanical properties :
#
#
# Convention : Reuss Voigt Hill
#
# Bulk Modulus (GPa) = 35.42729 63.69280 49.56004
# Shear Modulus (GPa) = 19.44245 45.58900 32.51572
#
# Velocity S-wave (km/s) = 2.62242 4.01566 3.39135
# Velocity P-wave (km/s) = 4.65839 6.63549 5.73281
#
# Compressibility (1/GPa) = 0.02822683
#
# Stress axis : x y z
#
# Youngs Moduli (GPa) = 73.15534 51.02227 70.34041
#
# Poissons Ratio (x) = 0.03605 0.06075
# Poissons Ratio (y) = 0.05168 0.56688
# Poissons Ratio (z) = 0.06318 0.41120
#
# Static dielectric constant tensor:
#      x y z
#    x 2.236530 -0.026930 -0.005800 
#    y -0.026930 2.270600 -0.095480 
#    z -0.005800 -0.095480 2.289690 
# 
# From -- ./inp_files/216692.got.cif
#   From: 2010.05.17/outbox.cif.g08.bks.cpg/sg2_109_cif.got.tgz:216692.got - 2010.06.03 11:33:40.
