data_PCOD9093000
_publ_section_title
;
Structure prediction by ZEFSAII (Michael W. Deem and Ramdas Pophale) SiO2 
 PCOD9093000
Probable space group: P -1
;
_chemical_formula_sum "Si O2"
_cell_formula_units_Z 16
_cell_length_a 10.091831
_cell_length_b 5.672883
_cell_length_c 11.511182
_cell_angle_alpha 91.819723
_cell_angle_beta 87.925095
_cell_angle_gamma 75.486444
_cell_volume 636.996135
_symmetry_space_group_name_H-M "P -1"
_symmetry_group_IT_number 2
_symmetry_cell_setting 'triclinic'
loop_
_space_group_symop_operation_xyz
x,y,z
-x,-y,-z
loop_
_atom_site_type_symbol
_atom_site_label
_atom_site_fract_x
_atom_site_fract_y
_atom_site_fract_z
Si Si1 0.930643 0.729192 0.173646
Si Si2 0.719045 0.920346 0.502430
Si Si3 0.620148 0.230201 0.724291
Si Si4 0.783769 0.373878 0.919151
Si Si5 0.915682 0.581636 0.621496
Si Si6 0.350777 0.056860 0.061812
Si Si7 0.887014 0.136046 0.337579
Si Si8 0.681218 0.616666 0.288579
O O1 0.790991 0.641991 0.186391
O O2 0.051202 0.687253 0.075783
O O3 0.018274 0.604613 0.282866
O O4 0.878346 0.009236 0.213733
O O5 0.762957 0.685287 0.581740
O O6 0.654512 0.840914 0.385757
O O7 0.647617 0.143841 0.590001
O O8 0.852601 0.985328 0.443719
O O9 0.728841 0.347684 0.787951
O O10 0.628860 0.993753 0.801833
O O11 0.466668 0.397059 0.748395
O O12 0.725342 0.156744 0.975664
O O13 0.726194 0.661320 0.951122
O O14 0.000000 0.500000 0.500000
O O15 0.963437 0.819309 0.665485
O O16 0.500000 0.000000 0.000000
O O17 0.767322 0.381590 0.348926
#
# Coordination Sequence:
#
# PCOD9093000 Si02
#       8
#     2   2   2   2   2   2   2   2
#     4  10  21  35  55  84 119 159 209 251 302 358
#     4  11  20  33  50  81 121 169 213 249 294 353
#     4  10  24  36  61  88 124 164 211 253 310 367
#     4  10  23  39  70  97 120 153 203 258 307 375
#     4  11  18  28  47  72 109 155 207 251 296 332
#     4  10  23  45  72  98 121 150 199 264 325 371
#     4  10  20  30  49  74 120 167 206 252 296 344
#     4  10  22  37  51  83 130 175 203 248 295 360
#
# _framework density 25.117894
#
# number of rings (size 3 to 8) (size 9 to 14) (size 15 to 20)
#    0.750    1.000    3.750    2.625    5.250    3.500 
#    0.000    0.000    0.000    1.500    0.000    0.000 
#    0.000    0.000    0.000    0.000    0.000    0.000 
#
# Total GULP energy -89140.668698 kJ/mol
# GULP energy per Si atom -5571.291794 kJ/mol
# Density = 2.506072 g / cm^3
# Si number density = 25.117894 Si / 1000 Ang^3
#
#
#
# Elastic Constant Matrix: (Units=GPa)
#
#
# Indices 1 2 3 4 5 6 
#
# 1 102.3023 12.6117 24.3767 -2.4830 -21.3747 -13.1975
# 2 12.6117 98.5261 28.8436 20.8959 -8.5702 12.0787
# 3 24.3767 28.8436 72.5453 -13.9453 -18.3548 -5.4068
# 4 -2.4830 20.8959 -13.9453 -4.6835 -14.2478 -20.6807
# 5 -21.3747 -8.5702 -18.3548 -14.2478 35.4337 -3.4361
# 6 -13.1975 12.0787 -5.4068 -20.6807 -3.4361 16.9911
#
#
#
# Elastic Compliance Matrix: (Units=1/GPa)
#
#
# Indices 1 2 3 4 5 6 
#
# 1 0.011380 0.000920 -0.004258 -0.004923 0.003043 0.001453
# 2 0.000920 0.008766 -0.000767 0.007024 0.005480 0.003897
# 3 -0.004258 -0.000767 0.013527 -0.007790 0.000357 -0.007867
# 4 -0.004923 0.007024 -0.007790 -0.009548 -0.011595 -0.025262
# 5 0.003043 0.005480 0.000357 -0.011595 0.025908 -0.010292
# 6 0.001453 0.003897 -0.007867 -0.025262 -0.010292 0.021880
#
#
# Mechanical properties :
#
#
# Convention : Reuss Voigt Hill
#
# Bulk Modulus (GPa) = 39.27262 45.00418 42.13840
# Shear Modulus (GPa) = 56.42762 23.38436 39.90599
#
# Velocity S-wave (km/s) = 4.74488 3.05451 3.99023
# Velocity P-wave (km/s) = 6.75927 5.51327 6.16782
#
# Compressibility (1/GPa) = 0.02546303
#
# Stress axis : x y z
#
# Youngs Moduli (GPa) = 87.87450 114.08285 73.92721
#
# Poissons Ratio (x) = -0.10501 0.31478
# Poissons Ratio (y) = -0.08089 0.05671
# Poissons Ratio (z) = 0.37416 0.08752
#
# Static dielectric constant tensor:
#      x y z
#    x 2.022800 0.029010 0.015740 
#    y 0.029010 2.053540 0.017460 
#    z 0.015740 0.017460 2.066680 
# 
# From -- ./inp_files/485596.got.cif
#   From: 2010.05.17/outbox.cif.g08.bks.cpg/sg2_243_cif.got.tgz:485596.got - 2010.06.03 11:33:40.
