data_PCOD9093690
_publ_section_title
;
Structure prediction by ZEFSAII (Michael W. Deem and Ramdas Pophale) SiO2 
 PCOD9093690
Probable space group: P -1
;
_chemical_formula_sum "Si O2"
_cell_formula_units_Z 16
_cell_length_a 11.735278
_cell_length_b 8.473882
_cell_length_c 14.423068
_cell_angle_alpha 46.741797
_cell_angle_beta 50.287588
_cell_angle_gamma 74.321376
_cell_volume 766.723425
_symmetry_space_group_name_H-M "P -1"
_symmetry_group_IT_number 2
_symmetry_cell_setting 'triclinic'
loop_
_space_group_symop_operation_xyz
x,y,z
-x,-y,-z
loop_
_atom_site_type_symbol
_atom_site_label
_atom_site_fract_x
_atom_site_fract_y
_atom_site_fract_z
Si Si1 0.342642 0.802963 0.175135
Si Si2 0.269251 0.279994 0.617871
Si Si3 0.460799 0.210039 0.388935
Si Si4 0.838669 0.931340 0.529379
Si Si5 0.013483 0.760427 0.358069
Si Si6 0.638274 0.118132 0.178776
Si Si7 0.661297 0.483357 0.879681
Si Si8 0.311896 0.758634 0.429640
O O1 0.356288 0.597020 0.186235
O O2 0.313972 0.754359 0.318549
O O3 0.191021 0.864690 0.194410
O O4 0.500000 0.000000 0.000000
O O5 0.416074 0.341563 0.444948
O O6 0.112273 0.245423 0.653785
O O7 0.269993 0.048583 0.762117
O O8 0.294976 0.505176 0.574813
O O9 0.302302 0.119132 0.450771
O O10 0.500000 0.000000 0.500000
O O11 0.597534 0.279945 0.214268
O O12 0.976629 0.898031 0.409519
O O13 0.785613 0.729465 0.713505
O O14 0.829852 0.158746 0.491597
O O15 0.000000 0.500000 0.500000
O O16 0.473142 0.943003 0.301856
O O17 0.706872 0.289334 0.990999
O O18 0.500000 0.500000 0.000000
#
# Coordination Sequence:
#
# PCOD9093690 Si02
#       8
#     2   2   2   2   2   2   2   2
#     4  12  23  39  61  89 120 155 204 252 308 354
#     4  10  20  36  56  88 120 158 205 243 300 359
#     4   8  15  30  52  78 115 152 197 240 288 347
#     4  10  20  35  57  89 120 154 204 245 300 359
#     4  11  21  40  64  85 118 162 204 256 298 361
#     4  10  20  33  55  88 125 161 197 249 299 353
#     4  12  20  36  60  86 126 155 203 247 294 362
#     4  11  20  34  59  90 124 156 193 253 299 354
#
# _framework density 20.868020000000001
#
# number of rings (size 3 to 8) (size 9 to 14) (size 15 to 20)
#    0.000    1.500    6.250    1.125    0.000    0.500 
#    0.000    0.625    0.000    0.000    0.000    4.375 
#    0.000    0.000    0.000    0.000    0.000    0.000 
#
# Total GULP energy -89213.398263 kJ/mol
# GULP energy per Si atom -5575.837391 kJ/mol
# Density = 2.082052 g / cm^3
# Si number density = 20.868020 Si / 1000 Ang^3
#
#
#
# Elastic Constant Matrix: (Units=GPa)
#
#
# Indices 1 2 3 4 5 6 
#
# 1 94.6530 25.8030 24.1217 -6.5494 7.1136 -23.3776
# 2 25.8030 163.2404 35.1562 14.0757 1.6394 -18.4202
# 3 24.1217 35.1562 57.0676 7.7848 4.3428 -13.6117
# 4 -6.5494 14.0757 7.7848 33.3570 -6.0424 4.5530
# 5 7.1136 1.6394 4.3428 -6.0424 35.5608 0.8774
# 6 -23.3776 -18.4202 -13.6117 4.5530 0.8774 25.3897
#
#
#
# Elastic Compliance Matrix: (Units=1/GPa)
#
#
# Indices 1 2 3 4 5 6 
#
# 1 0.014582 -0.000485 -0.003300 0.001887 -0.002444 0.011051
# 2 -0.000485 0.007595 -0.003027 -0.003242 -0.000534 0.004040
# 3 -0.003300 -0.003027 0.024157 -0.006889 -0.003545 0.009073
# 4 0.001887 -0.003242 -0.006889 0.036101 0.007019 -0.011024
# 5 -0.002444 -0.000534 -0.003545 0.007019 0.030429 -0.006848
# 6 0.011051 0.004040 0.009073 -0.011024 -0.006848 0.059570
#
#
# Mechanical properties :
#
#
# Convention : Reuss Voigt Hill
#
# Bulk Modulus (GPa) = 30.57340 53.90252 42.23796
# Shear Modulus (GPa) = 25.38549 34.18684 29.78617
#
# Velocity S-wave (km/s) = 3.49159 4.05191 3.78214
# Velocity P-wave (km/s) = 5.56215 6.91208 6.27353
#
# Compressibility (1/GPa) = 0.03270817
#
# Stress axis : x y z
#
# Youngs Moduli (GPa) = 68.57848 131.65718 41.39639
#
# Poissons Ratio (x) = 0.06390 0.13662
# Poissons Ratio (y) = 0.03328 0.12532
# Poissons Ratio (z) = 0.22632 0.39858
#
# Static dielectric constant tensor:
#      x y z
#    x 1.794930 0.012870 0.018680 
#    y 0.012870 1.843080 0.017170 
#    z 0.018680 0.017170 1.755780 
# 
# From -- ./inp_files/513979.got.cif
#   From: 2010.05.17/outbox.cif.g08.bks.cpg/sg2_257_cif.got.tgz:513979.got - 2010.06.03 11:33:40.
