data_PCOD9093291
_publ_section_title
;
Structure prediction by ZEFSAII (Michael W. Deem and Ramdas Pophale) SiO2 
 PCOD9093291
Probable space group: P -1
;
_chemical_formula_sum "Si O2"
_cell_formula_units_Z 14
_cell_length_a 16.311372
_cell_length_b 9.913638
_cell_length_c 10.080354
_cell_angle_alpha 99.012788
_cell_angle_beta 55.527382
_cell_angle_gamma 52.522830
_cell_volume 685.750187
_symmetry_space_group_name_H-M "P -1"
_symmetry_group_IT_number 2
_symmetry_cell_setting 'triclinic'
loop_
_space_group_symop_operation_xyz
x,y,z
-x,-y,-z
loop_
_atom_site_type_symbol
_atom_site_label
_atom_site_fract_x
_atom_site_fract_y
_atom_site_fract_z
Si Si1 0.210482 0.273601 0.830467
Si Si2 0.560107 0.954255 0.786926
Si Si3 0.390160 0.898429 0.847001
Si Si4 0.855100 0.775167 0.612599
Si Si5 0.825342 0.107881 0.632794
Si Si6 0.579992 0.726215 0.255086
Si Si7 0.495354 0.492416 0.779784
O O1 0.253772 0.382656 0.840988
O O2 0.251416 0.127580 0.898749
O O3 0.381725 0.024278 0.537936
O O4 0.000000 0.500000 0.000000
O O5 0.408021 0.233571 0.900553
O O6 0.560916 0.809130 0.689450
O O7 0.753657 0.811491 0.594364
O O8 0.500000 0.000000 0.000000
O O9 0.462297 0.658711 0.736053
O O10 0.287459 0.025758 0.103601
O O11 0.000000 0.500000 0.500000
O O12 0.914455 0.851289 0.516239
O O13 0.702268 0.264116 0.631689
O O14 0.662935 0.314562 0.927477
O O15 0.000000 0.000000 0.500000
O O16 0.548562 0.601350 0.264202
#
# Coordination Sequence:
#
# PCOD9093291 Si02
#       7
#     2   2   2   2   2   2   2
#     4  10  23  41  62  84 113 151 209 250 285 340
#     4   9  18  34  55  83 113 148 188 232 292 337
#     4   9  21  37  55  85 113 153 192 242 293 340
#     4  10  20  32  54  86 116 147 193 236 286 353
#     4  10  22  35  54  89 122 160 186 228 299 353
#     4  10  21  40  62  84 112 160 195 240 299 343
#     4  10  21  39  58  81 128 150 193 240 288 365
#
# _framework density 20.415596000000001
#
# number of rings (size 3 to 8) (size 9 to 14) (size 15 to 20)
#    0.000    2.286    1.429    0.000    6.000    4.000 
#    0.000    0.714    0.000    0.000    0.000    0.000 
#    0.000    0.000    0.000    0.000    0.000    0.000 
#
# Total GULP energy -77943.588230 kJ/mol
# GULP energy per Si atom -5567.399159 kJ/mol
# Density = 2.036913 g / cm^3
# Si number density = 20.415596 Si / 1000 Ang^3
#
#
#
# Elastic Constant Matrix: (Units=GPa)
#
#
# Indices 1 2 3 4 5 6 
#
# 1 177.6416 98.8089 39.6592 18.3285 -51.7768 29.7032
# 2 98.8089 132.2450 19.2509 6.7348 -26.7281 32.2465
# 3 39.6592 19.2509 44.3271 9.5005 -26.1676 3.4253
# 4 18.3285 6.7348 9.5005 23.7229 -4.8008 2.8212
# 5 -51.7768 -26.7281 -26.1676 -4.8008 39.6192 -2.9798
# 6 29.7032 32.2465 3.4253 2.8212 -2.9798 48.1631
#
#
#
# Elastic Compliance Matrix: (Units=1/GPa)
#
#
# Indices 1 2 3 4 5 6 
#
# 1 0.014704 -0.007227 -0.000981 -0.005978 0.012741 -0.003021
# 2 -0.007227 0.014081 0.000420 0.002066 0.000198 -0.005109
# 3 -0.000981 0.000420 0.039592 -0.010338 0.023867 -0.000410
# 4 -0.005978 0.002066 -0.010338 0.048872 -0.007346 -0.000278
# 5 0.012741 0.000198 0.023867 -0.007346 0.056464 -0.005764
# 6 -0.003021 -0.005109 -0.000410 -0.000278 -0.005764 0.025736
#
#
# Mechanical properties :
#
#
# Convention : Reuss Voigt Hill
#
# Bulk Modulus (GPa) = 18.93938 74.40574 46.67256
# Shear Modulus (GPa) = 21.49379 35.40069 28.44724
#
# Velocity S-wave (km/s) = 3.24823 4.16865 3.73689
# Velocity P-wave (km/s) = 4.83374 7.72625 6.44437
#
# Compressibility (1/GPa) = 0.05280003
#
# Stress axis : x y z
#
# Youngs Moduli (GPa) = 68.01030 71.01716 25.25778
#
# Poissons Ratio (x) = 0.51325 0.02477
# Poissons Ratio (y) = 0.49152 -0.01060
# Poissons Ratio (z) = 0.06669 -0.02979
#
# Static dielectric constant tensor:
#      x y z
#    x 1.804080 0.014450 0.019570 
#    y 0.014450 1.809540 -0.023390 
#    z 0.019570 -0.023390 1.772880 
# 
# From -- ./inp_files/257844.got.cif
#   From: 2010.05.17/outbox.cif.g08.bks.cpg/sg2_129_cif.got.tgz:257844.got - 2010.06.03 11:33:40.
