data_PCOD9093471
_publ_section_title
;
Structure prediction by ZEFSAII (Michael W. Deem and Ramdas Pophale) SiO2 
 PCOD9093471
Probable space group: P -1
;
_chemical_formula_sum "Si O2"
_cell_formula_units_Z 12
_cell_length_a 11.647807
_cell_length_b 5.454953
_cell_length_c 21.855173
_cell_angle_alpha 96.397113
_cell_angle_beta 26.583731
_cell_angle_gamma 77.942334
_cell_volume 444.755879
_symmetry_space_group_name_H-M "P -1"
_symmetry_group_IT_number 2
_symmetry_cell_setting 'triclinic'
loop_
_space_group_symop_operation_xyz
x,y,z
-x,-y,-z
loop_
_atom_site_type_symbol
_atom_site_label
_atom_site_fract_x
_atom_site_fract_y
_atom_site_fract_z
Si Si1 0.226059 0.381427 0.538571
Si Si2 0.561685 0.244250 0.547466
Si Si3 0.314380 0.160630 0.904123
Si Si4 0.016908 0.880810 0.090516
Si Si5 0.271917 0.092144 0.052542
Si Si6 0.209044 0.063222 0.440278
O O1 0.252931 0.139986 0.567440
O O2 0.007901 0.406944 0.586243
O O3 0.220165 0.660507 0.575093
O O4 0.620750 0.121564 0.311906
O O5 0.604806 0.209610 0.600288
O O6 0.142358 0.543314 0.741049
O O7 0.135701 0.548751 0.994216
O O8 0.458177 0.087623 0.903664
O O9 0.557268 0.967005 0.724174
O O10 0.075891 0.076432 0.024294
O O11 0.245679 0.819588 0.039152
O O12 0.500000 0.000000 0.000000
O O13 0.000000 0.000000 0.500000
#
# Coordination Sequence:
#
# PCOD9093471 Si02
#       6
#     2   2   2   2   2   2
#     4   9  17  34  49  76 104 133 165 210 258 311
#     4   9  19  33  51  77 103 133 168 211 258 306
#     4  10  20  33  50  79 105 135 170 209 258 308
#     4   9  18  34  50  79 106 130 165 214 264 310
#     4   9  19  34  55  81 106 131 164 214 268 312
#     4  10  23  36  53  73 107 145 178 208 245 302
#
# _framework density 26.981092
#
# number of rings (size 3 to 8) (size 9 to 14) (size 15 to 20)
#    2.000    0.667    1.667    0.000    2.333    4.667 
#    0.000    0.000    0.000    1.000    0.000    5.833 
#    0.000    0.000    0.000    0.000    0.000    0.000 
#
# Total GULP energy -66919.480347 kJ/mol
# GULP energy per Si atom -5576.623362 kJ/mol
# Density = 2.691968 g / cm^3
# Si number density = 26.981092 Si / 1000 Ang^3
#
#
#
# Elastic Constant Matrix: (Units=GPa)
#
#
# Indices 1 2 3 4 5 6 
#
# 1 189.5117 44.5917 40.2824 8.8013 -32.8174 -5.7767
# 2 44.5917 189.4710 24.3830 6.5025 1.4367 32.0597
# 3 40.2824 24.3830 61.2398 2.1393 -13.7239 2.2927
# 4 8.8013 6.5025 2.1393 25.6154 1.9812 -6.3161
# 5 -32.8174 1.4367 -13.7239 1.9812 43.0473 3.2792
# 6 -5.7767 32.0597 2.2927 -6.3161 3.2792 43.7472
#
#
#
# Elastic Compliance Matrix: (Units=1/GPa)
#
#
# Indices 1 2 3 4 5 6 
#
# 1 0.007220 -0.001552 -0.003119 -0.001766 0.004516 0.001661
# 2 -0.001552 0.006866 -0.001760 -0.002272 -0.001461 -0.005363
# 3 -0.003119 -0.001760 0.020054 -0.000618 0.004146 -0.000573
# 4 -0.001766 -0.002272 -0.000618 0.042535 -0.004027 0.007907
# 5 0.004516 -0.001461 0.004146 -0.004027 0.028325 -0.001255
# 6 0.001661 -0.005363 -0.000573 0.007907 -0.001255 0.028274
#
#
# Mechanical properties :
#
#
# Convention : Reuss Voigt Hill
#
# Bulk Modulus (GPa) = 46.99961 73.19296 60.09629
# Shear Modulus (GPa) = 32.63079 44.54634 38.58856
#
# Velocity S-wave (km/s) = 3.48141 4.06768 3.78591
# Velocity P-wave (km/s) = 5.79806 7.01768 6.43682
#
# Compressibility (1/GPa) = 0.02127677
#
# Stress axis : x y z
#
# Youngs Moduli (GPa) = 138.50942 145.64075 49.86533
#
# Poissons Ratio (x) = 0.22610 0.15555
# Poissons Ratio (y) = 0.21503 0.08775
# Poissons Ratio (z) = 0.43206 0.25630
#
# Static dielectric constant tensor:
#      x y z
#    x 2.162960 0.018680 -0.087350 
#    y 0.018680 2.204800 0.079620 
#    z -0.087350 0.079620 2.241460 
# 
# From -- ./inp_files/64879.got.cif
#   From: 2010.05.17/outbox.cif.g08.bks.cpg/sg2_33_cif.got.tgz:64879.got - 2010.06.03 11:33:40.
