data_PCOD9093906
_publ_section_title
;
Structure prediction by ZEFSAII (Michael W. Deem and Ramdas Pophale) SiO2 
 PCOD9093906
Probable space group: P -1
;
_chemical_formula_sum "Si O2"
_cell_formula_units_Z 16
_cell_length_a 19.766813
_cell_length_b 9.472129
_cell_length_c 19.793614
_cell_angle_alpha 147.266820
_cell_angle_beta 157.277413
_cell_angle_gamma 29.569410
_cell_volume 691.525864
_symmetry_space_group_name_H-M "P -1"
_symmetry_group_IT_number 2
_symmetry_cell_setting 'triclinic'
loop_
_space_group_symop_operation_xyz
x,y,z
-x,-y,-z
loop_
_atom_site_type_symbol
_atom_site_label
_atom_site_fract_x
_atom_site_fract_y
_atom_site_fract_z
Si Si1 0.013458 0.427226 0.883081
Si Si2 0.198330 0.029150 0.999597
Si Si3 0.257984 0.090374 0.677525
Si Si4 0.040300 0.309735 0.342826
Si Si5 0.444920 0.737180 0.830754
Si Si6 0.504392 0.535010 0.937534
Si Si7 0.313237 0.789710 0.468229
Si Si8 0.101254 0.671207 0.932687
O O1 0.851017 0.318271 0.706333
O O2 0.205855 0.195217 0.006082
O O3 0.052944 0.473792 0.861797
O O4 0.940299 0.730648 0.978618
O O5 0.103583 0.814501 0.807788
O O6 0.395139 0.809099 0.127387
O O7 0.038233 0.354182 0.571874
O O8 0.299408 0.851953 0.678877
O O9 0.338403 0.929214 0.616744
O O10 0.373699 0.276737 0.878719
O O11 0.995431 0.322683 0.226674
O O12 0.241067 0.047795 0.449181
O O13 0.359445 0.678594 0.798521
O O14 0.660700 0.464387 0.905732
O O15 0.500000 0.000000 0.000000
O O16 0.500000 0.500000 0.000000
O O17 0.500000 0.500000 0.500000
O O18 0.000000 0.000000 0.000000
#
# Coordination Sequence:
#
# PCOD9093906 Si02
#       8
#     2   2   2   2   2   2   2   2
#     4  10  22  35  61  88 122 157 204 244 314 353
#     4   9  18  36  56  91 119 150 199 255 293 362
#     4  10  22  41  63  84 130 165 198 246 309 368
#     4  10  20  42  63  88 122 161 205 250 313 356
#     4  10  20  37  60  95 123 152 200 252 310 356
#     4  10  20  33  60  92 120 150 198 249 297 350
#     4  11  26  43  61  86 124 171 209 250 296 376
#     4  12  21  37  66  94 123 156 192 267 314 355
#
# _framework density 23.137239999999998
#
# number of rings (size 3 to 8) (size 9 to 14) (size 15 to 20)
#    0.000    1.750    5.000    0.375    7.000    0.000 
#    0.000    2.500    0.000    0.000    0.000    0.000 
#    0.000    0.000    0.000    0.000    0.000    0.000 
#
# Total GULP energy -89092.973390 kJ/mol
# GULP energy per Si atom -5568.310837 kJ/mol
# Density = 2.308458 g / cm^3
# Si number density = 23.137240 Si / 1000 Ang^3
#
#
#
# Elastic Constant Matrix: (Units=GPa)
#
#
# Indices 1 2 3 4 5 6 
#
# 1 144.4133 89.0634 25.2044 -23.8447 -26.1770 35.9205
# 2 89.0634 188.0838 39.0054 -28.3420 -29.1477 14.2685
# 3 25.2044 39.0054 53.1553 -9.5559 2.3925 -2.8326
# 4 -23.8447 -28.3420 -9.5559 20.2831 6.5665 -17.1589
# 5 -26.1770 -29.1477 2.3925 6.5665 37.3859 -5.4223
# 6 35.9205 14.2685 -2.8326 -17.1589 -5.4223 54.7714
#
#
#
# Elastic Compliance Matrix: (Units=1/GPa)
#
#
# Indices 1 2 3 4 5 6 
#
# 1 0.012619 -0.003877 -0.003690 0.000230 0.005010 -0.006889
# 2 -0.003877 0.009551 -0.003742 0.008108 0.003952 0.002792
# 3 -0.003690 -0.003742 0.026230 0.011931 -0.008161 0.007681
# 4 0.000230 0.008108 0.011931 0.090713 -0.006423 0.026137
# 5 0.005010 0.003952 -0.008161 -0.006423 0.034504 -0.003334
# 6 -0.006889 0.002792 0.007681 0.026137 -0.003334 0.030304
#
#
# Mechanical properties :
#
#
# Convention : Reuss Voigt Hill
#
# Bulk Modulus (GPa) = 38.78581 76.91096 57.84839
# Shear Modulus (GPa) = 21.26463 37.98002 29.62232
#
# Velocity S-wave (km/s) = 3.03490 4.05595 3.58199
# Velocity P-wave (km/s) = 5.39264 7.43288 6.49339
#
# Compressibility (1/GPa) = 0.02578263
#
# Stress axis : x y z
#
# Youngs Moduli (GPa) = 79.24618 104.70213 38.12453
#
# Poissons Ratio (x) = 0.40588 0.14068
# Poissons Ratio (y) = 0.30720 0.14266
# Poissons Ratio (z) = 0.29243 0.39178
#
# Static dielectric constant tensor:
#      x y z
#    x 1.920020 -0.025720 -0.012080 
#    y -0.025720 1.982940 -0.134350 
#    z -0.012080 -0.134350 2.090200 
# 
# From -- ./inp_files/601230.got.cif
#   From: 2010.05.17/outbox.cif.g08.bks.cpg/sg2_301_cif.got.tgz:601230.got - 2010.06.03 11:33:40.
