data_PCOD9093113
_publ_section_title
;
Structure prediction by ZEFSAII (Michael W. Deem and Ramdas Pophale) SiO2 
 PCOD9093113
Probable space group: P -1
;
_chemical_formula_sum "Si O2"
_cell_formula_units_Z 12
_cell_length_a 13.847616
_cell_length_b 5.277653
_cell_length_c 28.622434
_cell_angle_alpha 127.960684
_cell_angle_beta 20.750855
_cell_angle_gamma 127.875650
_cell_volume 578.694378
_symmetry_space_group_name_H-M "P -1"
_symmetry_group_IT_number 2
_symmetry_cell_setting 'triclinic'
loop_
_space_group_symop_operation_xyz
x,y,z
-x,-y,-z
loop_
_atom_site_type_symbol
_atom_site_label
_atom_site_fract_x
_atom_site_fract_y
_atom_site_fract_z
Si Si1 0.952067 0.614058 0.982284
Si Si2 0.775016 0.775947 0.878817
Si Si3 0.545681 0.565539 0.554798
Si Si4 0.568088 0.775742 0.870166
Si Si5 0.920573 0.784492 0.333030
Si Si6 0.299172 0.213403 0.712293
O O1 0.164461 0.445119 0.834943
O O2 0.640086 0.488350 0.092330
O O3 0.000000 0.500000 0.000000
O O4 0.000000 0.000000 0.000000
O O5 0.610253 0.699085 0.896912
O O6 0.907955 0.466174 0.798432
O O7 0.037536 0.048315 0.781489
O O8 0.603965 0.918758 0.012809
O O9 0.840176 0.654421 0.406702
O O10 0.370121 0.285349 0.570159
O O11 0.516369 0.420119 0.603264
O O12 0.418362 0.907101 0.647139
O O13 0.870306 0.885799 0.724744
#
# Coordination Sequence:
#
# PCOD9093113 Si02
#       6
#     2   2   2   2   2   2
#     4  11  25  42  63  84 109 152 199 244 286 332
#     4   9  19  32  56  88 117 149 180 235 300 338
#     4  10  21  33  58  88 124 155 179 226 282 355
#     4  10  20  35  57  84 119 147 188 242 287 341
#     4  10  20  31  55  87 126 150 187 218 290 356
#     4  10  20  39  58  85 119 149 190 234 287 340
#
# _framework density 20.736335
#
# number of rings (size 3 to 8) (size 9 to 14) (size 15 to 20)
#    0.000    2.000    1.667    1.500    4.667    2.000 
#    0.000    0.000    0.000    6.000    0.000    0.000 
#    0.000    0.000    0.000    0.000    0.000    0.000 
#
# Total GULP energy -66932.628324 kJ/mol
# GULP energy per Si atom -5577.719027 kJ/mol
# Density = 2.068914 g / cm^3
# Si number density = 20.736335 Si / 1000 Ang^3
#
#
#
# Elastic Constant Matrix: (Units=GPa)
#
#
# Indices 1 2 3 4 5 6 
#
# 1 75.8375 60.3803 2.4682 -2.2559 5.3769 -2.4393
# 2 60.3803 145.6493 55.6759 -14.0639 2.5994 -2.6372
# 3 2.4682 55.6759 69.0820 -12.4852 4.0986 -6.1861
# 4 -2.2559 -14.0639 -12.4852 45.7524 -11.7562 -2.8761
# 5 5.3769 2.5994 4.0986 -11.7562 27.4961 -2.2352
# 6 -2.4393 -2.6372 -6.1861 -2.8761 -2.2352 35.4508
#
#
#
# Elastic Compliance Matrix: (Units=1/GPa)
#
#
# Indices 1 2 3 4 5 6 
#
# 1 0.024808 -0.014522 0.011060 -0.001535 -0.005614 0.002078
# 2 -0.014522 0.018482 -0.014416 0.001931 0.003926 -0.001736
# 3 0.011060 -0.014416 0.026803 0.002881 -0.003206 0.004397
# 4 -0.001535 0.001931 0.002881 0.026247 0.011185 0.003375
# 5 -0.005614 0.003926 -0.003206 0.011185 0.042594 0.002939
# 6 0.002078 -0.001736 0.004397 0.003375 0.002939 0.029448
#
#
# Mechanical properties :
#
#
# Convention : Reuss Voigt Hill
#
# Bulk Modulus (GPa) = 29.12412 58.62418 43.87415
# Shear Modulus (GPa) = 23.19279 33.20947 28.20113
#
# Velocity S-wave (km/s) = 3.34797 4.00623 3.69180
# Velocity P-wave (km/s) = 5.38708 7.05212 6.27507
#
# Compressibility (1/GPa) = 0.03433580
#
# Stress axis : x y z
#
# Youngs Moduli (GPa) = 40.31000 54.10783 37.30908
#
# Poissons Ratio (x) = 0.78577 -0.41262
# Poissons Ratio (y) = 0.58539 0.53783
# Poissons Ratio (z) = -0.44581 0.78000
#
# Static dielectric constant tensor:
#      x y z
#    x 1.759990 -0.050030 -0.034660 
#    y -0.050030 1.796390 -0.018960 
#    z -0.034660 -0.018960 1.856750 
# 
# From -- ./inp_files/22166.got.cif
#   From: 2010.05.17/outbox.cif.g08.bks.cpg/sg2_12_cif.got.tgz:22166.got - 2010.06.03 11:33:40.
