data_PCOD9093554
_publ_section_title
;
Structure prediction by ZEFSAII (Michael W. Deem and Ramdas Pophale) SiO2 
 PCOD9093554
Probable space group: P -1
;
_chemical_formula_sum "Si O2"
_cell_formula_units_Z 14
_cell_length_a 17.242491
_cell_length_b 5.571204
_cell_length_c 18.029333
_cell_angle_alpha 102.613813
_cell_angle_beta 23.221224
_cell_angle_gamma 86.040193
_cell_volume 475.200691
_symmetry_space_group_name_H-M "P -1"
_symmetry_group_IT_number 2
_symmetry_cell_setting 'triclinic'
loop_
_space_group_symop_operation_xyz
x,y,z
-x,-y,-z
loop_
_atom_site_type_symbol
_atom_site_label
_atom_site_fract_x
_atom_site_fract_y
_atom_site_fract_z
Si Si1 0.362085 0.337249 0.191103
Si Si2 0.673043 0.973403 0.483709
Si Si3 0.075741 0.286680 0.184462
Si Si4 0.948780 0.357360 0.647512
Si Si5 0.353799 0.672486 0.343201
Si Si6 0.109372 0.906332 0.012887
Si Si7 0.715211 0.526226 0.300108
O O1 0.130307 0.400809 0.447236
O O2 0.519704 0.363587 0.115867
O O3 0.228997 0.609652 0.258819
O O4 0.500000 0.000000 0.000000
O O5 0.840834 0.037240 0.297738
O O6 0.602672 0.850213 0.469498
O O7 0.890523 0.619866 0.316249
O O8 0.508568 0.259824 0.713782
O O9 0.217326 0.343155 0.123184
O O10 0.854925 0.315247 0.425322
O O11 0.252717 0.951266 0.952354
O O12 0.152105 0.004688 0.489501
O O13 0.002914 0.189919 0.062866
O O14 0.232243 0.559676 0.839854
O O15 0.500000 0.500000 0.500000
#
# Coordination Sequence:
#
# PCOD9093554 Si02
#       7
#     2   2   2   2   2   2   2
#     4  10  20  33  53  80 107 138 179 222 265 319
#     4   9  17  33  56  77 105 145 180 219 272 320
#     4   8  16  32  54  76 102 140 178 218 266 316
#     4   9  18  34  54  76 107 140 175 220 269 317
#     4   9  17  33  56  77 105 145 180 219 272 320
#     4   9  18  34  54  76 107 140 175 220 269 317
#     4  10  20  33  53  80 107 138 179 222 265 319
#
# _framework density 29.461234999999999
#
# number of rings (size 3 to 8) (size 9 to 14) (size 15 to 20)
#    0.000    2.857    0.000    0.857    0.000    1.143 
#    0.000    8.571    0.000   30.857    0.000    0.000 
#    0.000    0.000    0.000    0.000    0.000    0.000 
#
# Total GULP energy -78307.961682 kJ/mol
# GULP energy per Si atom -5593.425834 kJ/mol
# Density = 2.939418 g / cm^3
# Si number density = 29.461235 Si / 1000 Ang^3
#
#
#
# Elastic Constant Matrix: (Units=GPa)
#
#
# Indices 1 2 3 4 5 6 
#
# 1 279.8363 62.9756 72.8274 16.6086 83.2875 35.6940
# 2 62.9756 82.9608 27.3383 23.3713 14.4617 11.5898
# 3 72.8274 27.3383 120.0991 33.5783 44.6960 27.5207
# 4 16.6086 23.3713 33.5783 67.6877 28.1501 18.1161
# 5 83.2875 14.4617 44.6960 28.1501 67.1026 22.7956
# 6 35.6940 11.5898 27.5207 18.1161 22.7956 72.0101
#
#
#
# Elastic Compliance Matrix: (Units=1/GPa)
#
#
# Indices 1 2 3 4 5 6 
#
# 1 0.007505 -0.004874 -0.001105 0.004376 -0.009117 -0.000728
# 2 -0.004874 0.016980 -0.001314 -0.006496 0.006020 -0.000086
# 3 -0.001105 -0.001314 0.012256 -0.002948 -0.004696 -0.001697
# 4 0.004376 -0.006496 -0.002948 0.022470 -0.010729 -0.002254
# 5 -0.009117 0.006020 -0.004696 -0.010729 0.033410 -0.002532
# 6 -0.000728 -0.000086 -0.001697 -0.002254 -0.002532 0.016279
#
#
# Mechanical properties :
#
#
# Convention : Reuss Voigt Hill
#
# Bulk Modulus (GPa) = 45.13919 89.90877 67.52398
# Shear Modulus (GPa) = 38.20575 62.67707 50.44141
#
# Velocity S-wave (km/s) = 3.60504 4.61742 4.14228
# Velocity P-wave (km/s) = 5.71692 7.68189 6.77106
#
# Compressibility (1/GPa) = 0.02215370
#
# Stress axis : x y z
#
# Youngs Moduli (GPa) = 133.25212 58.89435 81.59075
#
# Poissons Ratio (x) = 0.28708 0.09016
# Poissons Ratio (y) = 0.64954 0.10720
# Poissons Ratio (z) = 0.14724 0.07738
#
# Static dielectric constant tensor:
#      x y z
#    x 2.352710 0.008350 0.011620 
#    y 0.008350 2.369620 0.158930 
#    z 0.011620 0.158930 2.365070 
# 
# From -- ./inp_files/7509.got.cif
#   From: 2010.05.17/outbox.cif.g08.bks.cpg/sg2_4_cif.got.tgz:7509.got - 2010.06.03 11:33:40.
