data_PCOD9093230
_publ_section_title
;
Structure prediction by ZEFSAII (Michael W. Deem and Ramdas Pophale) SiO2 
 PCOD9093230
Probable space group: P -1
;
_chemical_formula_sum "Si O2"
_cell_formula_units_Z 16
_cell_length_a 15.315792
_cell_length_b 13.003292
_cell_length_c 14.176501
_cell_angle_alpha 130.631235
_cell_angle_beta 27.436962
_cell_angle_gamma 149.130968
_cell_volume 589.912695
_symmetry_space_group_name_H-M "P -1"
_symmetry_group_IT_number 2
_symmetry_cell_setting 'triclinic'
loop_
_space_group_symop_operation_xyz
x,y,z
-x,-y,-z
loop_
_atom_site_type_symbol
_atom_site_label
_atom_site_fract_x
_atom_site_fract_y
_atom_site_fract_z
Si Si1 0.175144 0.382455 0.772732
Si Si2 0.698763 0.818411 0.748269
Si Si3 0.937582 0.245276 0.292529
Si Si4 0.191885 0.830406 0.424955
Si Si5 0.438245 0.691245 0.329639
Si Si6 0.340816 0.772144 0.929466
Si Si7 0.577408 0.772662 0.040598
Si Si8 0.788534 0.709268 0.126068
O O1 0.500000 0.500000 0.500000
O O2 0.227183 0.560868 0.873954
O O3 0.060231 0.225075 0.877192
O O4 0.935177 0.276635 0.854102
O O5 0.464307 0.809152 0.937782
O O6 0.489808 0.565036 0.776795
O O7 0.788667 0.875602 0.806102
O O8 0.000000 0.000000 0.500000
O O9 0.823822 0.116368 0.423214
O O10 0.722738 0.254293 0.482368
O O11 0.288960 0.501692 0.133763
O O12 0.973894 0.187599 0.125584
O O13 0.398595 0.813384 0.230030
O O14 0.851047 0.580704 0.570389
O O15 0.368607 0.019615 0.291337
O O16 0.653478 0.795116 0.091205
O O17 0.615372 0.747988 0.287856
#
# Coordination Sequence:
#
# PCOD9093230 Si02
#       8
#     2   2   2   2   2   2   2   2
#     4  10  24  43  58  75 103 147 198 235 270 318
#     4  10  20  32  51  86 119 143 180 223 270 333
#     4   8  17  33  52  82 114 140 175 216 267 334
#     4   9  17  32  56  82 111 142 173 218 278 331
#     4   9  17  32  56  84 115 145 167 214 276 325
#     4  10  22  39  58  79 108 147 186 233 277 313
#     4   8  17  31  50  83 119 145 174 206 263 344
#     4  10  20  34  56  78 103 145 189 221 266 328
#
# _framework density 27.122658999999999
#
# number of rings (size 3 to 8) (size 9 to 14) (size 15 to 20)
#    0.000    2.750    0.000    2.250    0.000   13.000 
#    0.000    3.125    0.000    3.750    0.000    0.000 
#    0.000    0.000    0.000    0.000    0.000    0.000 
#
# Total GULP energy -89689.103112 kJ/mol
# GULP energy per Si atom -5605.568944 kJ/mol
# Density = 2.706093 g / cm^3
# Si number density = 27.122659 Si / 1000 Ang^3
#
#
#
# Elastic Constant Matrix: (Units=GPa)
#
#
# Indices 1 2 3 4 5 6 
#
# 1 168.4714 63.3715 51.2370 15.1753 -12.2890 -14.9371
# 2 63.3715 58.4363 11.9104 -9.7672 -2.8037 -1.8647
# 3 51.2370 11.9104 127.5526 0.5668 -4.0749 -6.7536
# 4 15.1753 -9.7672 0.5668 37.7374 -7.6853 8.6926
# 5 -12.2890 -2.8037 -4.0749 -7.6853 44.9785 4.5243
# 6 -14.9371 -1.8647 -6.7536 8.6926 4.5243 54.7205
#
#
#
# Elastic Compliance Matrix: (Units=1/GPa)
#
#
# Indices 1 2 3 4 5 6 
#
# 1 0.015324 -0.017557 -0.004197 -0.011731 0.000214 0.004913
# 2 -0.017557 0.038543 0.003096 0.018772 0.001719 -0.006221
# 3 -0.004197 0.003096 0.009219 0.002495 0.000341 -0.000327
# 4 -0.011731 0.018772 0.002495 0.039288 0.005807 -0.008976
# 5 0.000214 0.001719 0.000341 0.005807 0.023695 -0.002723
# 6 0.004913 -0.006221 -0.000327 -0.008976 -0.002723 0.021014
#
#
# Mechanical properties :
#
#
# Convention : Reuss Voigt Hill
#
# Bulk Modulus (GPa) = 38.80538 67.49978 53.15258
# Shear Modulus (GPa) = 25.90811 42.68337 34.29574
#
# Velocity S-wave (km/s) = 3.09402 3.97131 3.55979
# Velocity P-wave (km/s) = 5.20599 6.78007 6.04449
#
# Compressibility (1/GPa) = 0.02576962
#
# Stress axis : x y z
#
# Youngs Moduli (GPa) = 65.25676 25.94524 108.46808
#
# Poissons Ratio (x) = 0.45551 0.45526
# Poissons Ratio (y) = 1.14569 -0.33576
# Poissons Ratio (z) = 0.27389 -0.08031
#
# Static dielectric constant tensor:
#      x y z
#    x 2.122510 0.048450 -0.023280 
#    y 0.048450 2.178620 -0.034380 
#    z -0.023280 -0.034380 2.074080 
# 
# From -- ./inp_files/531870.got.cif
#   From: 2010.05.17/outbox.cif.g08.bks.cpg/sg2_266_cif.got.tgz:531870.got - 2010.06.03 11:33:40.
