data_PCOD9093122
_publ_section_title
;
Structure prediction by ZEFSAII (Michael W. Deem and Ramdas Pophale) SiO2 
 PCOD9093122
Probable space group: P -1
;
_chemical_formula_sum "Si O2"
_cell_formula_units_Z 16
_cell_length_a 12.595164
_cell_length_b 12.016369
_cell_length_c 13.545392
_cell_angle_alpha 59.038048
_cell_angle_beta 148.663089
_cell_angle_gamma 132.495408
_cell_volume 775.608787
_symmetry_space_group_name_H-M "P -1"
_symmetry_group_IT_number 2
_symmetry_cell_setting 'triclinic'
loop_
_space_group_symop_operation_xyz
x,y,z
-x,-y,-z
loop_
_atom_site_type_symbol
_atom_site_label
_atom_site_fract_x
_atom_site_fract_y
_atom_site_fract_z
Si Si1 0.127006 0.242746 0.998094
Si Si2 0.907144 0.956842 0.106801
Si Si3 0.796753 0.743627 0.476943
Si Si4 0.418460 0.927230 0.140162
Si Si5 0.038655 0.657457 0.848718
Si Si6 0.080304 0.955676 0.449098
Si Si7 0.232252 0.673564 0.276415
Si Si8 0.388558 0.415039 0.309405
O O1 0.193774 0.190605 0.975523
O O2 0.920268 0.280661 0.796142
O O3 0.327618 0.378006 0.162919
O O4 0.034905 0.100950 0.067449
O O5 0.075691 0.956975 0.327021
O O6 0.713911 0.980421 0.998916
O O7 0.965892 0.681977 0.671352
O O8 0.533805 0.598046 0.355509
O O9 0.842441 0.812441 0.372830
O O10 0.879744 0.886020 0.550500
O O11 0.354408 0.814684 0.234099
O O12 0.700214 0.041695 0.322725
O O13 0.300010 0.801723 0.016398
O O14 0.965136 0.482102 0.866414
O O15 0.848431 0.657669 0.776382
O O16 0.435703 0.644917 0.492570
#
# Coordination Sequence:
#
# PCOD9093122 Si02
#       8
#     2   2   2   2   2   2   2   2
#     4  10  21  36  60  86 113 145 191 232 281 330
#     4  10  21  40  56  84 117 147 189 234 271 335
#     4  10  22  37  57  84 116 151 183 231 281 336
#     4  11  20  33  60  82 113 151 179 228 285 333
#     4  11  19  35  58  89 118 136 184 239 290 328
#     4  11  22  39  55  81 118 155 187 220 281 338
#     4  10  20  31  56  90 112 146 175 233 297 328
#     4  11  20  37  58  86 118 140 183 242 283 327
#
# _framework density 20.628955999999999
#
# number of rings (size 3 to 8) (size 9 to 14) (size 15 to 20)
#    0.000    1.500    3.750    4.125    1.750    1.500 
#    0.000    4.375    0.000    3.750    0.000    0.000 
#    0.000    0.000    0.000    0.000    0.000    0.000 
#
# Total GULP energy -89208.218411 kJ/mol
# GULP energy per Si atom -5575.513651 kJ/mol
# Density = 2.058200 g / cm^3
# Si number density = 20.628956 Si / 1000 Ang^3
#
#
#
# Elastic Constant Matrix: (Units=GPa)
#
#
# Indices 1 2 3 4 5 6 
#
# 1 39.5915 28.5788 16.0416 -0.1465 -9.7912 -10.6455
# 2 28.5788 62.5391 19.3585 -2.7916 -5.0376 -4.4391
# 3 16.0416 19.3585 77.8591 -1.3896 -2.7764 -4.7707
# 4 -0.1465 -2.7916 -1.3896 19.6621 -6.9444 -1.3179
# 5 -9.7912 -5.0376 -2.7764 -6.9444 21.2848 0.9725
# 6 -10.6455 -4.4391 -4.7707 -1.3179 0.9725 25.4668
#
#
#
# Elastic Compliance Matrix: (Units=1/GPa)
#
#
# Indices 1 2 3 4 5 6 
#
# 1 0.049004 -0.018342 -0.003790 0.005163 0.018654 0.016132
# 2 -0.018342 0.024877 -0.002660 0.002260 -0.001993 -0.003636
# 3 -0.003790 -0.002660 0.014324 0.000523 -0.000365 0.000676
# 4 0.005163 0.002260 0.000523 0.059400 0.022135 0.004879
# 5 0.018654 -0.001993 -0.000365 0.022135 0.061984 0.006160
# 6 0.016132 -0.003636 0.000676 0.004879 0.006160 0.045520
#
#
# Mechanical properties :
#
#
# Convention : Reuss Voigt Hill
#
# Bulk Modulus (GPa) = 25.89291 34.21638 30.05465
# Shear Modulus (GPa) = 15.74472 21.01680 18.38076
#
# Velocity S-wave (km/s) = 2.76567 3.19533 2.98823
# Velocity P-wave (km/s) = 4.77258 5.49874 5.14848
#
# Compressibility (1/GPa) = 0.03862060
#
# Stress axis : x y z
#
# Youngs Moduli (GPa) = 20.40666 40.19708 69.81440
#
# Poissons Ratio (x) = 0.73730 0.26460
# Poissons Ratio (y) = 0.37430 0.18570
# Poissons Ratio (z) = 0.07734 0.10692
#
# Static dielectric constant tensor:
#      x y z
#    x 1.748550 0.006970 0.042780 
#    y 0.006970 1.767160 -0.024140 
#    z 0.042780 -0.024140 1.859990 
# 
# From -- ./inp_files/471662.got.cif
#   From: 2010.05.17/outbox.cif.g08.bks.cpg/sg2_236_cif.got.tgz:471662.got - 2010.06.03 11:33:40.
