data_PCOD9093563
_publ_section_title
;
Structure prediction by ZEFSAII (Michael W. Deem and Ramdas Pophale) SiO2 
 PCOD9093563
Probable space group: P -1
;
_chemical_formula_sum "Si O2"
_cell_formula_units_Z 12
_cell_length_a 18.310176
_cell_length_b 18.180610
_cell_length_c 13.692510
_cell_angle_alpha 163.006179
_cell_angle_beta 158.763871
_cell_angle_gamma 21.872397
_cell_volume 452.747942
_symmetry_space_group_name_H-M "P -1"
_symmetry_group_IT_number 2
_symmetry_cell_setting 'triclinic'
loop_
_space_group_symop_operation_xyz
x,y,z
-x,-y,-z
loop_
_atom_site_type_symbol
_atom_site_label
_atom_site_fract_x
_atom_site_fract_y
_atom_site_fract_z
Si Si1 0.008765 0.060038 0.973659
Si Si2 0.189711 0.289434 0.250177
Si Si3 0.432408 0.952890 0.964048
Si Si4 0.706130 0.487160 0.842915
Si Si5 0.323835 0.727318 0.815394
Si Si6 0.311323 0.413491 0.759108
O O1 0.157044 0.246741 0.384985
O O2 0.781201 0.273979 0.929820
O O3 0.099585 0.796485 0.684670
O O4 0.000000 0.000000 0.000000
O O5 0.303995 0.409541 0.627183
O O6 0.933435 0.428677 0.104022
O O7 0.306230 0.230469 0.215415
O O8 0.245151 0.988313 0.978635
O O9 0.630961 0.754117 0.021468
O O10 0.278780 0.773825 0.533027
O O11 0.500000 0.000000 0.000000
O O12 0.505261 0.530048 0.720338
O O13 0.472082 0.729482 0.095990
#
# Coordination Sequence:
#
# PCOD9093563 Si02
#       6
#     2   2   2   2   2   2
#     4  10  20  33  53  81 112 151 194 231 273 329
#     4  10  20  38  63  86 116 156 192 235 288 342
#     4  10  23  41  62  87 113 148 195 245 294 341
#     4  10  21  40  62  85 116 152 192 239 290 343
#     4  10  20  38  61  85 121 159 188 231 287 343
#     4  10  21  39  58  84 123 158 189 229 284 345
#
# _framework density 26.504812999999999
#
# number of rings (size 3 to 8) (size 9 to 14) (size 15 to 20)
#    0.000    2.000    0.000    5.500    0.000    4.000 
#    0.000   18.333    0.000    0.000    0.000    0.000 
#    0.000    0.000    0.000    0.000    0.000    0.000 
#
# Total GULP energy -67038.202988 kJ/mol
# GULP energy per Si atom -5586.516916 kJ/mol
# Density = 2.644449 g / cm^3
# Si number density = 26.504813 Si / 1000 Ang^3
#
#
#
# Elastic Constant Matrix: (Units=GPa)
#
#
# Indices 1 2 3 4 5 6 
#
# 1 203.3198 51.1795 22.1042 7.9594 -18.3434 -8.1647
# 2 51.1795 178.6819 39.9383 2.0044 -20.7250 -14.6989
# 3 22.1042 39.9383 80.3132 4.9103 -15.5680 -15.3298
# 4 7.9594 2.0044 4.9103 37.3531 -2.9649 -15.5616
# 5 -18.3434 -20.7250 -15.5680 -2.9649 40.1972 7.4803
# 6 -8.1647 -14.6989 -15.3298 -15.5616 7.4803 41.6480
#
#
#
# Elastic Compliance Matrix: (Units=1/GPa)
#
#
# Indices 1 2 3 4 5 6 
#
# 1 0.005471 -0.001267 -0.000550 -0.000997 0.001601 -0.000237
# 2 -0.001267 0.006822 -0.002512 0.000896 0.001801 0.001246
# 3 -0.000550 -0.002512 0.015322 0.000225 0.003647 0.004075
# 4 -0.000997 0.000896 0.000225 0.031968 0.000198 0.012113
# 5 0.001601 0.001801 0.003647 0.000198 0.028475 -0.002749
# 6 -0.000237 0.001246 0.004075 0.012113 -0.002749 0.030924
#
#
# Mechanical properties :
#
#
# Convention : Reuss Voigt Hill
#
# Bulk Modulus (GPa) = 52.74501 76.52877 64.63689
# Shear Modulus (GPa) = 37.32498 47.11252 42.21875
#
# Velocity S-wave (km/s) = 3.75672 4.22062 3.99541
# Velocity P-wave (km/s) = 6.22580 7.25863 6.76197
#
# Compressibility (1/GPa) = 0.01895914
#
# Stress axis : x y z
#
# Youngs Moduli (GPa) = 182.78307 146.58199 65.26361
#
# Poissons Ratio (x) = 0.18569 0.03588
# Poissons Ratio (y) = 0.23154 0.16392
# Poissons Ratio (z) = 0.10048 0.36817
#
# Static dielectric constant tensor:
#      x y z
#    x 2.215870 0.004880 0.031340 
#    y 0.004880 2.168710 0.145860 
#    z 0.031340 0.145860 2.103000 
# 
# From -- ./inp_files/541727.got.cif
#   From: 2010.05.17/outbox.cif.g08.bks.cpg/sg2_271_cif.got.tgz:541727.got - 2010.06.03 11:33:40.
