data_PCOD9093804
_publ_section_title
;
Structure prediction by ZEFSAII (Michael W. Deem and Ramdas Pophale) SiO2 
 PCOD9093804
Probable space group: P -1
;
_chemical_formula_sum "Si O2"
_cell_formula_units_Z 14
_cell_length_a 12.054716
_cell_length_b 9.350595
_cell_length_c 7.207072
_cell_angle_alpha 72.952192
_cell_angle_beta 80.597154
_cell_angle_gamma 123.800629
_cell_volume 588.392605
_symmetry_space_group_name_H-M "P -1"
_symmetry_group_IT_number 2
_symmetry_cell_setting 'triclinic'
loop_
_space_group_symop_operation_xyz
x,y,z
-x,-y,-z
loop_
_atom_site_type_symbol
_atom_site_label
_atom_site_fract_x
_atom_site_fract_y
_atom_site_fract_z
Si Si1 0.456317 0.459511 0.240665
Si Si2 0.285725 0.574598 0.258858
Si Si3 0.126498 0.706022 0.155031
Si Si4 0.290910 0.540492 0.821945
Si Si5 0.837939 0.278629 0.302925
Si Si6 0.929509 0.776222 0.259622
Si Si7 0.140235 0.046994 0.547084
O O1 0.434386 0.612173 0.255587
O O2 0.578720 0.453539 0.288666
O O3 0.296580 0.250887 0.377444
O O4 0.500000 0.500000 0.000000
O O5 0.253640 0.724073 0.219689
O O6 0.162431 0.389639 0.489495
O O7 0.277451 0.540728 0.049140
O O8 0.979269 0.476937 0.284116
O O9 0.088133 0.835919 0.194475
O O10 0.151299 0.733243 0.918215
O O11 0.289188 0.703067 0.664389
O O12 0.144126 0.337217 0.868062
O O13 0.838304 0.109163 0.431627
O O14 0.898581 0.923332 0.248133
O O15 0.000000 0.000000 0.500000
#
# Coordination Sequence:
#
# PCOD9093804 Si02
#       7
#     2   2   2   2   2   2   2
#     4   9  19  37  60  82 113 155 190 231 285 341
#     4   9  17  31  54  82 108 138 189 237 268 324
#     4   9  17  33  55  78 110 154 190 225 281 343
#     4   9  19  36  58  82 107 150 198 230 275 342
#     4   9  18  33  53  80 115 147 186 237 282 333
#     4  10  20  33  58  84 111 151 192 234 283 337
#     4  11  23  36  55  89 121 145 187 244 289 333
#
# _framework density 23.793638000000001
#
# number of rings (size 3 to 8) (size 9 to 14) (size 15 to 20)
#    0.000    2.571    0.000    3.000    0.000    6.857 
#    0.000    0.000    0.000    1.714    0.000   31.000 
#    0.000    0.000    0.000    0.000    0.000    0.000 
#
# Total GULP energy -77996.287443 kJ/mol
# GULP energy per Si atom -5571.163389 kJ/mol
# Density = 2.373948 g / cm^3
# Si number density = 23.793638 Si / 1000 Ang^3
#
#
#
# Elastic Constant Matrix: (Units=GPa)
#
#
# Indices 1 2 3 4 5 6 
#
# 1 205.1920 30.0461 29.1041 -7.5450 -1.5371 -61.9910
# 2 30.0461 44.0548 10.7049 -3.0008 7.7730 -26.0450
# 3 29.1041 10.7049 54.8802 8.0731 12.4454 -7.9280
# 4 -7.5450 -3.0008 8.0731 29.8143 -2.1036 2.6591
# 5 -1.5371 7.7730 12.4454 -2.1036 30.9535 1.0741
# 6 -61.9910 -26.0450 -7.9280 2.6591 1.0741 35.2802
#
#
#
# Elastic Compliance Matrix: (Units=1/GPa)
#
#
# Indices 1 2 3 4 5 6 
#
# 1 0.012768 0.009339 -0.004857 0.002949 -0.000531 0.028031
# 2 0.009339 0.051474 -0.005026 0.003291 -0.012071 0.053399
# 3 -0.004857 -0.005026 0.024224 -0.008410 -0.009086 -0.005890
# 4 0.002949 0.003291 -0.008410 0.037009 0.005120 0.002775
# 5 -0.000531 -0.012071 -0.009086 0.005120 0.039781 -0.013482
# 6 0.028031 0.053399 -0.005890 0.002775 -0.013482 0.115897
#
#
# Mechanical properties :
#
#
# Convention : Reuss Voigt Hill
#
# Bulk Modulus (GPa) = 11.44436 49.31523 30.37979
# Shear Modulus (GPa) = 16.05822 34.82774 25.44298
#
# Velocity S-wave (km/s) = 2.60069 3.83004 3.27359
# Velocity P-wave (km/s) = 3.72000 6.35060 5.20426
#
# Compressibility (1/GPa) = 0.08737926
#
# Stress axis : x y z
#
# Youngs Moduli (GPa) = 78.32151 19.42710 41.28098
#
# Poissons Ratio (x) = -0.18142 0.20049
# Poissons Ratio (y) = -0.73141 0.20746
# Poissons Ratio (z) = 0.38038 0.09763
#
# Static dielectric constant tensor:
#      x y z
#    x 2.022560 -0.091690 0.043720 
#    y -0.091690 2.006740 0.030160 
#    z 0.043720 0.030160 1.965110 
# 
# From -- ./inp_files/212307.got.cif
#   From: 2010.05.17/outbox.cif.g08.bks.cpg/sg2_107_cif.got.tgz:212307.got - 2010.06.03 11:33:40.
