data_PCOD9093063
_publ_section_title
;
Structure prediction by ZEFSAII (Michael W. Deem and Ramdas Pophale) SiO2 
 PCOD9093063
Probable space group: P -1
;
_chemical_formula_sum "Si O2"
_cell_formula_units_Z 16
_cell_length_a 26.101512
_cell_length_b 15.457251
_cell_length_c 26.334391
_cell_angle_alpha 151.618272
_cell_angle_beta 11.134500
_cell_angle_gamma 153.625850
_cell_volume 911.432409
_symmetry_space_group_name_H-M "P -1"
_symmetry_group_IT_number 2
_symmetry_cell_setting 'triclinic'
loop_
_space_group_symop_operation_xyz
x,y,z
-x,-y,-z
loop_
_atom_site_type_symbol
_atom_site_label
_atom_site_fract_x
_atom_site_fract_y
_atom_site_fract_z
Si Si1 0.129881 0.944059 0.078463
Si Si2 0.522733 0.320449 0.416142
Si Si3 0.089244 0.540718 0.531725
Si Si4 0.665081 0.297406 0.377950
Si Si5 0.535335 0.886364 0.258347
Si Si6 0.063214 0.220867 0.112444
Si Si7 0.455015 0.361059 0.022615
Si Si8 0.207337 0.245079 0.871136
O O1 0.231475 0.027257 0.966568
O O2 0.281960 0.135799 0.062704
O O3 0.270069 0.777892 0.861736
O O4 0.792581 0.844352 0.359579
O O5 0.500000 0.500000 0.500000
O O6 0.637854 0.385815 0.395384
O O7 0.236879 0.731861 0.451001
O O8 0.077512 0.645602 0.651165
O O9 0.774046 0.409569 0.755973
O O10 0.286023 0.420795 0.262970
O O11 0.507920 0.348593 0.604922
O O12 0.487059 0.069260 0.423778
O O13 0.973617 0.298048 0.093095
O O14 0.678059 0.786817 0.108439
O O15 0.175015 0.298805 0.988375
O O16 0.870805 0.991159 0.174024
O O17 0.500000 0.500000 0.000000
#
# Coordination Sequence:
#
# PCOD9093063 Si02
#       8
#     2   2   2   2   2   2   2   2
#     4  11  23  37  55  79 110 143 184 218 263 323
#     4  11  23  40  62  80 105 137 176 230 283 320
#     4  12  21  32  47  71 109 149 190 209 246 297
#     4  10  20  33  50  76 101 135 177 215 270 317
#     4  10  20  31  51  71 109 153 178 217 247 311
#     4  10  20  32  46  72 106 150 185 214 251 302
#     4  12  24  32  51  76 110 149 188 214 251 308
#     4  10  21  30  50  71 106 142 184 215 258 307
#
# _framework density 17.554784999999999
#
# number of rings (size 3 to 8) (size 9 to 14) (size 15 to 20)
#    0.000    1.250    3.750    3.750    7.000    1.500 
#    0.000    0.000    0.000    0.000    0.000    0.000 
#    0.000   20.000    0.000    0.000    0.000    0.000 
#
# Total GULP energy -89164.340183 kJ/mol
# GULP energy per Si atom -5572.771261 kJ/mol
# Density = 1.751483 g / cm^3
# Si number density = 17.554785 Si / 1000 Ang^3
#
#
#
# Elastic Constant Matrix: (Units=GPa)
#
#
# Indices 1 2 3 4 5 6 
#
# 1 62.9436 24.1906 1.1889 18.5796 16.2801 -3.4491
# 2 24.1906 37.0752 0.4423 5.7609 -0.6598 0.5097
# 3 1.1889 0.4423 48.1825 5.0399 13.0184 2.1565
# 4 18.5796 5.7609 5.0399 23.4229 3.8288 -4.9112
# 5 16.2801 -0.6598 13.0184 3.8288 27.8599 4.0214
# 6 -3.4491 0.5097 2.1565 -4.9112 4.0214 20.4456
#
#
#
# Elastic Compliance Matrix: (Units=1/GPa)
#
#
# Indices 1 2 3 4 5 6 
#
# 1 0.035950 -0.020915 0.007365 -0.020043 -0.022986 0.005516
# 2 -0.020915 0.040458 -0.004153 0.003682 0.015519 -0.006267
# 3 0.007365 -0.004153 0.025561 -0.007884 -0.015227 -0.000249
# 4 -0.020043 0.003682 -0.007884 0.060749 0.005568 0.010856
# 5 -0.022986 0.015519 -0.015227 0.005568 0.057877 -0.012705
# 6 0.005516 -0.006267 -0.000249 0.010856 -0.012705 0.055130
#
#
# Mechanical properties :
#
#
# Convention : Reuss Voigt Hill
#
# Bulk Modulus (GPa) = 15.02321 22.20498 18.61409
# Shear Modulus (GPa) = 15.00072 22.50433 18.75252
#
# Velocity S-wave (km/s) = 2.92637 3.58431 3.27192
# Velocity P-wave (km/s) = 4.47154 5.45950 4.99003
#
# Compressibility (1/GPa) = 0.06656369
#
# Stress axis : x y z
#
# Youngs Moduli (GPa) = 27.81657 24.71692 39.12249
#
# Poissons Ratio (x) = 0.51694 -0.28814
# Poissons Ratio (y) = 0.58177 0.16248
# Poissons Ratio (z) = -0.20487 0.10265
#
# Static dielectric constant tensor:
#      x y z
#    x 1.654920 0.022080 0.020640 
#    y 0.022080 1.599740 0.012210 
#    z 0.020640 0.012210 1.666070 
# 
# From -- ./inp_files/524837.got.cif
#   From: 2010.05.17/outbox.cif.g08.bks.cpg/sg2_263_cif.got.tgz:524837.got - 2010.06.03 11:33:40.
