data_PCOD9093069
_publ_section_title
;
Structure prediction by ZEFSAII (Michael W. Deem and Ramdas Pophale) SiO2 
 PCOD9093069
Probable space group: P -1
;
_chemical_formula_sum "Si O2"
_cell_formula_units_Z 14
_cell_length_a 9.349824
_cell_length_b 10.521630
_cell_length_c 8.286810
_cell_angle_alpha 63.145362
_cell_angle_beta 132.300595
_cell_angle_gamma 107.278391
_cell_volume 537.899253
_symmetry_space_group_name_H-M "P -1"
_symmetry_group_IT_number 2
_symmetry_cell_setting 'triclinic'
loop_
_space_group_symop_operation_xyz
x,y,z
-x,-y,-z
loop_
_atom_site_type_symbol
_atom_site_label
_atom_site_fract_x
_atom_site_fract_y
_atom_site_fract_z
Si Si1 0.786943 0.686905 0.959746
Si Si2 0.126720 0.823685 0.550824
Si Si3 0.577495 0.388494 0.493773
Si Si4 0.472991 0.083643 0.261609
Si Si5 0.965906 0.856491 0.740225
Si Si6 0.784256 0.616324 0.340390
Si Si7 0.448660 0.167955 0.746639
O O1 0.603017 0.638592 0.745187
O O2 0.726624 0.835221 0.915003
O O3 0.955745 0.736937 0.939373
O O4 0.794589 0.584945 0.176379
O O5 0.344104 0.811213 0.662521
O O6 0.129165 0.838575 0.739216
O O7 0.980010 0.699503 0.476509
O O8 0.045874 0.974451 0.329396
O O9 0.500000 0.500000 0.500000
O O10 0.750062 0.469056 0.491753
O O11 0.601077 0.248099 0.699542
O O12 0.500000 0.000000 0.500000
O O13 0.484597 0.994279 0.155055
O O14 0.761299 0.834205 0.503177
O O15 0.611158 0.726679 0.209741
#
# Coordination Sequence:
#
# PCOD9093069 Si02
#       7
#     2   2   2   2   2   2   2
#     4  11  20  32  55  80 105 130 171 218 259 292
#     4   9  17  32  51  72 102 136 174 203 253 303
#     4   9  17  33  54  75  99 138 179 208 239 307
#     4  11  18  34  56  77 102 136 173 211 248 317
#     4   8  15  30  50  70  97 138 172 203 238 307
#     4  10  20  31  51  82 106 131 170 218 254 295
#     4   8  16  32  53  75 101 137 173 203 252 302
#
# _framework density 26.027177999999999
#
# number of rings (size 3 to 8) (size 9 to 14) (size 15 to 20)
#    0.000    2.571    4.286    2.143    0.000    1.143 
#    0.000    0.714    0.000    0.000    0.000   17.000 
#    0.000    0.000    0.000    0.000    0.000    0.000 
#
# Total GULP energy -78114.144653 kJ/mol
# GULP energy per Si atom -5579.581761 kJ/mol
# Density = 2.596794 g / cm^3
# Si number density = 26.027178 Si / 1000 Ang^3
#
#
#
# Elastic Constant Matrix: (Units=GPa)
#
#
# Indices 1 2 3 4 5 6 
#
# 1 131.5439 37.3910 22.4349 4.3615 -18.9507 30.5554
# 2 37.3910 89.5301 8.2901 13.2640 -6.1243 33.6223
# 3 22.4349 8.2901 31.4644 16.1714 -17.3934 -1.0803
# 4 4.3615 13.2640 16.1714 32.6656 -1.5946 -7.3820
# 5 -18.9507 -6.1243 -17.3934 -1.5946 34.0389 -2.9560
# 6 30.5554 33.6223 -1.0803 -7.3820 -2.9560 62.0016
#
#
#
# Elastic Compliance Matrix: (Units=1/GPa)
#
#
# Indices 1 2 3 4 5 6 
#
# 1 0.010586 -0.002722 -0.007623 0.002744 0.001335 -0.003483
# 2 -0.002722 0.016984 0.003583 -0.010220 0.002117 -0.008922
# 3 -0.007623 0.003583 0.070901 -0.033908 0.031085 0.000494
# 4 0.002744 -0.010220 -0.033908 0.052554 -0.014379 0.009170
# 5 0.001335 0.002117 0.031085 -0.014379 0.045643 -0.000800
# 6 -0.003483 -0.008922 0.000494 0.009170 -0.000800 0.023746
#
#
# Mechanical properties :
#
#
# Convention : Reuss Voigt Hill
#
# Bulk Modulus (GPa) = 11.77213 43.19671 27.48442
# Shear Modulus (GPa) = 19.06545 38.03605 28.55075
#
# Velocity S-wave (km/s) = 2.70945 3.82697 3.31563
# Velocity P-wave (km/s) = 3.78431 6.01335 5.02401
#
# Compressibility (1/GPa) = 0.08494642
#
# Stress axis : x y z
#
# Youngs Moduli (GPa) = 94.46065 58.87867 14.10415
#
# Poissons Ratio (x) = 0.16030 0.10752
# Poissons Ratio (y) = 0.25717 -0.05053
# Poissons Ratio (z) = 0.72007 -0.21095
#
# Static dielectric constant tensor:
#      x y z
#    x 2.054550 0.032740 -0.160370 
#    y 0.032740 2.199840 -0.279870 
#    z -0.160370 -0.279870 2.686530 
# 
# From -- ./inp_files/186139.got.cif
#   From: 2010.05.17/outbox.cif.g08.bks.cpg/sg2_94_cif.got.tgz:186139.got - 2010.06.03 11:33:40.
