data_PCOD9093278
_publ_section_title
;
Structure prediction by ZEFSAII (Michael W. Deem and Ramdas Pophale) SiO2 
 PCOD9093278
Probable space group: P -1
;
_chemical_formula_sum "Si O2"
_cell_formula_units_Z 14
_cell_length_a 12.851644
_cell_length_b 5.323247
_cell_length_c 11.682812
_cell_angle_alpha 94.385447
_cell_angle_beta 115.112584
_cell_angle_gamma 88.514606
_cell_volume 721.563738
_symmetry_space_group_name_H-M "P -1"
_symmetry_group_IT_number 2
_symmetry_cell_setting 'triclinic'
loop_
_space_group_symop_operation_xyz
x,y,z
-x,-y,-z
loop_
_atom_site_type_symbol
_atom_site_label
_atom_site_fract_x
_atom_site_fract_y
_atom_site_fract_z
Si Si1 0.104766 0.022300 0.959154
Si Si2 0.562443 0.283593 0.670270
Si Si3 0.172095 0.914092 0.516401
Si Si4 0.198382 0.547353 0.100440
Si Si5 0.429201 0.780349 0.602994
Si Si6 0.961051 0.348900 0.753914
Si Si7 0.005811 0.709362 0.607948
O O1 0.184518 0.263408 0.038230
O O2 0.170124 0.761422 0.000628
O O3 0.041903 0.115445 0.817167
O O4 0.000000 0.000000 0.000000
O O5 0.679972 0.377500 0.785583
O O6 0.470956 0.507737 0.655589
O O7 0.578881 0.251865 0.539883
O O8 0.518312 0.008064 0.678962
O O9 0.305750 0.871540 0.591967
O O10 0.129461 0.727234 0.388894
O O11 0.103636 0.886451 0.603479
O O12 0.120742 0.169486 0.448719
O O13 0.104278 0.568338 0.159616
O O14 0.029842 0.574500 0.733662
O O15 0.000000 0.500000 0.500000
#
# Coordination Sequence:
#
# PCOD9093278 Si02
#       7
#     2   2   2   2   2   2   2
#     4  10  22  34  52  83 110 149 189 214 273 335
#     4  10  21  35  52  82 107 149 188 217 266 330
#     4  10  20  35  54  80 114 145 177 230 274 334
#     4  11  21  36  54  80 118 148 182 226 265 322
#     4  10  21  34  55  79 110 145 186 218 274 325
#     4  10  20  32  54  77 112 148 173 226 273 329
#     4   9  21  34  52  80 110 140 188 216 287 333
#
# _framework density 19.402304999999998
#
# number of rings (size 3 to 8) (size 9 to 14) (size 15 to 20)
#    0.000    2.000    1.429    2.571   10.000    1.143 
#    0.000    0.000    0.000    0.000    0.000    6.000 
#    0.000    0.000    0.000    0.000    0.000    0.000 
#
# Total GULP energy -78014.715106 kJ/mol
# GULP energy per Si atom -5572.479650 kJ/mol
# Density = 1.935814 g / cm^3
# Si number density = 19.402305 Si / 1000 Ang^3
#
#
#
# Elastic Constant Matrix: (Units=GPa)
#
#
# Indices 1 2 3 4 5 6 
#
# 1 65.2804 26.2825 29.2067 -7.8492 6.3024 -7.6695
# 2 26.2825 121.3356 29.0788 -10.9695 3.6789 5.3469
# 3 29.2067 29.0788 73.4826 -6.7407 10.9605 17.9418
# 4 -7.8492 -10.9695 -6.7407 39.1487 11.0988 2.5275
# 5 6.3024 3.6789 10.9605 11.0988 24.2746 1.0528
# 6 -7.6695 5.3469 17.9418 2.5275 1.0528 25.1679
#
#
#
# Elastic Compliance Matrix: (Units=1/GPa)
#
#
# Indices 1 2 3 4 5 6 
#
# 1 0.024186 -0.002885 -0.012138 0.001364 -0.001704 0.016570
# 2 -0.002885 0.009619 -0.001940 0.002097 -0.000717 -0.001720
# 3 -0.012138 -0.001940 0.026834 0.006068 -0.010466 -0.022587
# 4 0.001364 0.002097 0.006068 0.033064 -0.018230 -0.006914
# 5 -0.001704 -0.000717 -0.010466 -0.018230 0.054519 0.006644
# 6 0.016570 -0.001720 -0.022587 -0.006914 0.006644 0.061667
#
#
# Mechanical properties :
#
#
# Convention : Reuss Voigt Hill
#
# Bulk Modulus (GPa) = 37.43735 47.69273 42.56504
# Shear Modulus (GPa) = 19.78486 29.42027 24.60257
#
# Velocity S-wave (km/s) = 3.19677 3.89823 3.56479
# Velocity P-wave (km/s) = 5.74134 6.70044 6.23935
#
# Compressibility (1/GPa) = 0.02671129
#
# Stress axis : x y z
#
# Youngs Moduli (GPa) = 41.34627 103.96437 37.26668
#
# Poissons Ratio (x) = 0.29996 0.45234
# Poissons Ratio (y) = 0.11929 0.07231
# Poissons Ratio (z) = 0.50186 0.20173
#
# Static dielectric constant tensor:
#      x y z
#    x 1.681230 0.013600 -0.014290 
#    y 0.013600 1.777650 0.021070 
#    z -0.014290 0.021070 1.709800 
# 
# From -- ./inp_files/66298.got.cif
#   From: 2010.05.17/outbox.cif.g08.bks.cpg/sg2_34_cif.got.tgz:66298.got - 2010.06.03 11:33:40.
