data_PCOD9093132
_publ_section_title
;
Structure prediction by ZEFSAII (Michael W. Deem and Ramdas Pophale) SiO2 
 PCOD9093132
Probable space group: P -1
;
_chemical_formula_sum "Si O2"
_cell_formula_units_Z 16
_cell_length_a 25.961388
_cell_length_b 14.993252
_cell_length_c 16.249378
_cell_angle_alpha 161.744355
_cell_angle_beta 28.013535
_cell_angle_gamma 152.397843
_cell_volume 880.155759
_symmetry_space_group_name_H-M "P -1"
_symmetry_group_IT_number 2
_symmetry_cell_setting 'triclinic'
loop_
_space_group_symop_operation_xyz
x,y,z
-x,-y,-z
loop_
_atom_site_type_symbol
_atom_site_label
_atom_site_fract_x
_atom_site_fract_y
_atom_site_fract_z
Si Si1 0.183596 0.242970 0.910929
Si Si2 0.146004 0.292838 0.609193
Si Si3 0.519625 0.106297 0.970766
Si Si4 0.124776 0.555171 0.415332
Si Si5 0.380431 0.520934 0.560375
Si Si6 0.970542 0.404412 0.831820
Si Si7 0.029984 0.561456 0.330654
Si Si8 0.732533 0.901897 0.494913
O O1 0.180387 0.911363 0.648699
O O2 0.261441 0.304925 0.772500
O O3 0.196323 0.415113 0.130497
O O4 0.065996 0.283131 0.073379
O O5 0.280075 0.469480 0.589797
O O6 0.087231 0.392556 0.700965
O O7 0.119828 0.934647 0.328283
O O8 0.077609 0.368482 0.850360
O O9 0.432178 0.852515 0.814599
O O10 0.646185 0.087392 0.757279
O O11 0.500000 0.000000 0.000000
O O12 0.482576 0.403022 0.279854
O O13 0.000000 0.500000 0.500000
O O14 0.084457 0.426955 0.450454
O O15 0.318333 0.304731 0.535462
O O16 0.983870 0.473440 0.777531
O O17 0.141282 0.856602 0.452748
#
# Coordination Sequence:
#
# PCOD9093132 Si02
#       8
#     2   2   2   2   2   2   2   2
#     4  11  21  32  47  68 101 133 160 195 240 294
#     4  10  20  35  51  70  99 128 167 208 243 274
#     4  10  23  33  46  70  98 127 171 208 231 281
#     4  10  20  32  44  69  98 134 155 198 241 285
#     4  11  21  35  49  67 101 133 165 204 244 270
#     4  10  21  33  50  76  95 127 172 202 232 298
#     4  11  21  31  52  70 103 133 165 192 240 299
#     4  11  21  30  50  71  95 136 168 190 237 293
#
# _framework density 18.178601
#
# number of rings (size 3 to 8) (size 9 to 14) (size 15 to 20)
#    0.000    1.500    3.750    4.500    7.000    0.000 
#    0.000    0.000    0.000    0.000    0.000    0.000 
#    0.000    6.000    0.000    0.125    0.000    0.000 
#
# Total GULP energy -89243.966573 kJ/mol
# GULP energy per Si atom -5577.747911 kJ/mol
# Density = 1.813723 g / cm^3
# Si number density = 18.178601 Si / 1000 Ang^3
#
#
#
# Elastic Constant Matrix: (Units=GPa)
#
#
# Indices 1 2 3 4 5 6 
#
# 1 85.6937 21.1893 19.3669 -11.3252 16.3868 7.2477
# 2 21.1893 35.9667 20.4182 -2.5378 10.4027 -2.3461
# 3 19.3669 20.4182 113.7621 -6.4147 18.6650 0.3085
# 4 -11.3252 -2.5378 -6.4147 28.9436 1.3315 7.9461
# 5 16.3868 10.4027 18.6650 1.3315 20.9600 -1.0477
# 6 7.2477 -2.3461 0.3085 7.9461 -1.0477 21.4882
#
#
#
# Elastic Compliance Matrix: (Units=1/GPa)
#
#
# Indices 1 2 3 4 5 6 
#
# 1 0.018011 -0.007577 0.000933 0.010265 -0.012369 -0.011314
# 2 -0.007577 0.037384 -0.004181 -0.002173 -0.008415 0.007090
# 3 0.000933 -0.004181 0.011044 0.003591 -0.008851 -0.002689
# 4 0.010265 -0.002173 0.003591 0.045677 -0.014113 -0.021330
# 5 -0.012369 -0.008415 -0.008851 -0.014113 0.070938 0.012057
# 6 -0.011314 0.007090 -0.002689 -0.021330 0.012057 0.059641
#
#
# Mechanical properties :
#
#
# Convention : Reuss Voigt Hill
#
# Bulk Modulus (GPa) = 22.32714 39.70791 31.01753
# Shear Modulus (GPa) = 17.90356 25.90825 21.90591
#
# Velocity S-wave (km/s) = 3.14167 3.77929 3.47513
# Velocity P-wave (km/s) = 5.04667 6.39802 5.76210
#
# Compressibility (1/GPa) = 0.04478854
#
# Stress axis : x y z
#
# Youngs Moduli (GPa) = 55.52189 26.74959 90.54733
#
# Poissons Ratio (x) = 0.20267 -0.08444
# Poissons Ratio (y) = 0.42067 0.37857
# Poissons Ratio (z) = -0.05178 0.11184
#
# Static dielectric constant tensor:
#      x y z
#    x 1.621330 0.005430 0.008350 
#    y 0.005430 1.717310 0.003930 
#    z 0.008350 0.003930 1.698460 
# 
# From -- ./inp_files/544214.got.cif
#   From: 2010.05.17/outbox.cif.g08.bks.cpg/sg2_273_cif.got.tgz:544214.got - 2010.06.03 11:33:40.
