data_PCOD9093264
_publ_section_title
;
Structure prediction by ZEFSAII (Michael W. Deem and Ramdas Pophale) SiO2 
 PCOD9093264
Probable space group: P -1
;
_chemical_formula_sum "Si O2"
_cell_formula_units_Z 14
_cell_length_a 10.384040
_cell_length_b 7.882091
_cell_length_c 10.192278
_cell_angle_alpha 71.739987
_cell_angle_beta 124.597545
_cell_angle_gamma 73.758199
_cell_volume 528.705400
_symmetry_space_group_name_H-M "P -1"
_symmetry_group_IT_number 2
_symmetry_cell_setting 'triclinic'
loop_
_space_group_symop_operation_xyz
x,y,z
-x,-y,-z
loop_
_atom_site_type_symbol
_atom_site_label
_atom_site_fract_x
_atom_site_fract_y
_atom_site_fract_z
Si Si1 0.603177 0.352387 0.297258
Si Si2 0.723615 0.180183 0.939645
Si Si3 0.943669 0.298098 0.394760
Si Si4 0.685360 0.701009 0.758739
Si Si5 0.146881 0.245995 0.795341
Si Si6 0.248232 0.599633 0.349063
Si Si7 0.961244 0.786715 0.816922
O O1 0.502134 0.228537 0.285490
O O2 0.280484 0.736685 0.229334
O O3 0.678805 0.380826 0.473836
O O4 0.424699 0.607592 0.108734
O O5 0.784062 0.252005 0.331886
O O6 0.944688 0.085695 0.128085
O O7 0.694064 0.992400 0.996158
O O8 0.822140 0.564613 0.245897
O O9 0.060975 0.203599 0.353002
O O10 0.077664 0.229213 0.615646
O O11 0.654484 0.634174 0.612809
O O12 0.768949 0.842677 0.759965
O O13 0.864165 0.464257 0.978991
O O14 0.965688 0.334745 0.766633
#
# Coordination Sequence:
#
# PCOD9093264 Si02
#       7
#     2   2   2   2   2   2   2
#     4   9  19  32  55  80 104 134 171 212 261 299
#     4  10  20  32  53  83 103 131 172 224 249 297
#     4  10  20  35  53  74 104 146 167 206 256 321
#     4   9  16  30  53  79  97 132 178 208 241 311
#     4  10  20  33  52  78 106 134 178 208 256 302
#     4   9  16  33  54  78 100 138 169 213 254 307
#     4   9  18  32  53  76 103 136 173 206 255 306
#
# _framework density 26.479776999999999
#
# number of rings (size 3 to 8) (size 9 to 14) (size 15 to 20)
#    0.000    2.857    1.429    2.143    0.000    3.429 
#    0.000    0.000    0.000    3.429    0.000    1.000 
#    0.000    0.000    0.000    0.000    0.000    0.000 
#
# Total GULP energy -78278.825927 kJ/mol
# GULP energy per Si atom -5591.344709 kJ/mol
# Density = 2.641951 g / cm^3
# Si number density = 26.479777 Si / 1000 Ang^3
#
#
#
# Elastic Constant Matrix: (Units=GPa)
#
#
# Indices 1 2 3 4 5 6 
#
# 1 125.3641 16.5436 15.4424 0.4176 4.8899 19.5428
# 2 16.5436 44.3661 26.2596 3.4042 -4.8281 18.0468
# 3 15.4424 26.2596 63.6401 2.1414 -13.1931 5.5696
# 4 0.4176 3.4042 2.1414 40.1597 -0.5127 -7.2440
# 5 4.8899 -4.8281 -13.1931 -0.5127 32.6808 -0.0241
# 6 19.5428 18.0468 5.5696 -7.2440 -0.0241 38.4994
#
#
#
# Elastic Compliance Matrix: (Units=1/GPa)
#
#
# Indices 1 2 3 4 5 6 
#
# 1 0.009047 -0.000726 -0.001986 -0.000695 -0.002276 -0.004097
# 2 -0.000726 0.038235 -0.013962 -0.005477 0.000023 -0.016565
# 3 -0.001986 -0.013962 0.023117 0.000857 0.007583 0.004375
# 4 -0.000695 -0.005477 0.000857 0.026739 0.000066 0.007827
# 5 -0.002276 0.000023 0.007583 0.000066 0.034005 0.000082
# 6 -0.004097 -0.016565 0.004375 0.007827 0.000082 0.036659
#
#
# Mechanical properties :
#
#
# Convention : Reuss Voigt Hill
#
# Bulk Modulus (GPa) = 26.98962 38.87350 32.93156
# Shear Modulus (GPa) = 23.41921 33.94295 28.68108
#
# Velocity S-wave (km/s) = 2.97714 3.58417 3.29467
# Velocity P-wave (km/s) = 4.69388 5.64275 5.19005
#
# Compressibility (1/GPa) = 0.03705128
#
# Stress axis : x y z
#
# Youngs Moduli (GPa) = 110.53464 26.15389 43.25901
#
# Poissons Ratio (x) = 0.01899 0.08590
# Poissons Ratio (y) = 0.08027 0.60398
# Poissons Ratio (z) = 0.21948 0.36516
#
# Static dielectric constant tensor:
#      x y z
#    x 2.035480 -0.004540 0.039510 
#    y -0.004540 2.083500 -0.022130 
#    z 0.039510 -0.022130 2.129320 
# 
# From -- ./inp_files/414358.got.cif
#   From: 2010.05.17/outbox.cif.g08.bks.cpg/sg2_208_cif.got.tgz:414358.got - 2010.06.03 11:33:40.
