data_PCOD9093653
_publ_section_title
;
Structure prediction by ZEFSAII (Michael W. Deem and Ramdas Pophale) SiO2 
 PCOD9093653
Probable space group: P -1
;
_chemical_formula_sum "Si O2"
_cell_formula_units_Z 14
_cell_length_a 22.003070
_cell_length_b 8.013594
_cell_length_c 6.568312
_cell_angle_alpha 98.710956
_cell_angle_beta 121.382425
_cell_angle_gamma 119.616881
_cell_volume 717.399152
_symmetry_space_group_name_H-M "P -1"
_symmetry_group_IT_number 2
_symmetry_cell_setting 'triclinic'
loop_
_space_group_symop_operation_xyz
x,y,z
-x,-y,-z
loop_
_atom_site_type_symbol
_atom_site_label
_atom_site_fract_x
_atom_site_fract_y
_atom_site_fract_z
Si Si1 0.911336 0.443133 0.954520
Si Si2 0.723163 0.918003 0.525863
Si Si3 0.069938 0.253205 0.266687
Si Si4 0.973158 0.157259 0.456339
Si Si5 0.785638 0.755037 0.262145
Si Si6 0.624403 0.569958 0.665662
Si Si7 0.450608 0.319879 0.069129
O O1 0.820816 0.177389 0.781682
O O2 0.881989 0.551514 0.778353
O O3 0.000000 0.500000 0.000000
O O4 0.955700 0.606341 0.256354
O O5 0.746702 0.797458 0.395512
O O6 0.678138 0.776345 0.631985
O O7 0.645399 0.901550 0.253272
O O8 0.154396 0.304726 0.556032
O O9 0.993927 0.229212 0.272574
O O10 0.000000 0.000000 0.000000
O O11 0.865668 0.998069 0.328398
O O12 0.000000 0.000000 0.500000
O O13 0.703306 0.581249 0.920009
O O14 0.534912 0.349956 0.337034
O O15 0.583967 0.613522 0.794680
O O16 0.500000 0.500000 0.000000
#
# Coordination Sequence:
#
# PCOD9093653 Si02
#       7
#     2   2   2   2   2   2   2
#     4  12  23  37  54  85 118 154 193 244 283 330
#     4  10  20  34  56  86 118 146 188 238 289 333
#     4  11  22  38  55  73 115 157 200 238 273 338
#     4  10  21  36  54  76 108 156 196 228 281 332
#     4  10  20  33  55  82 107 151 195 232 282 335
#     4   9  18  31  57  83 114 143 189 236 284 345
#     4   8  16  34  54  84 113 144 181 238 288 340
#
# _framework density 19.514938999999998
#
# number of rings (size 3 to 8) (size 9 to 14) (size 15 to 20)
#    0.000    2.000    4.286    0.000    4.000    2.857 
#    0.000    0.000    0.000    0.857    0.000   44.000 
#    0.000    0.000    0.000    0.000    0.000    0.000 
#
# Total GULP energy -77934.298218 kJ/mol
# GULP energy per Si atom -5566.735587 kJ/mol
# Density = 1.947052 g / cm^3
# Si number density = 19.514939 Si / 1000 Ang^3
#
#
#
# Elastic Constant Matrix: (Units=GPa)
#
#
# Indices 1 2 3 4 5 6 
#
# 1 59.9478 27.6066 41.7890 -1.3677 -13.2016 24.0902
# 2 27.6066 35.9250 17.2304 -2.9794 -3.5228 13.0741
# 3 41.7890 17.2304 143.9798 -3.5856 14.7575 -2.8441
# 4 -1.3677 -2.9794 -3.5856 32.1557 3.8152 -4.0812
# 5 -13.2016 -3.5228 14.7575 3.8152 42.3246 -8.9440
# 6 24.0902 13.0741 -2.8441 -4.0812 -8.9440 29.5598
#
#
#
# Elastic Compliance Matrix: (Units=1/GPa)
#
#
# Indices 1 2 3 4 5 6 
#
# 1 0.052057 -0.020645 -0.014835 -0.006977 0.013652 -0.031553
# 2 -0.020645 0.044281 0.001139 0.003411 -0.004187 -0.003447
# 3 -0.014835 0.001139 0.012094 0.003029 -0.006666 0.011151
# 4 -0.006977 0.003411 0.003029 0.032944 -0.004287 0.007721
# 5 0.013652 -0.004187 -0.006666 -0.004287 0.029941 -0.001448
# 6 -0.031553 -0.003447 0.011151 0.007721 -0.001448 0.062769
#
#
# Mechanical properties :
#
#
# Convention : Reuss Voigt Hill
#
# Bulk Modulus (GPa) = 25.15748 45.90052 35.52900
# Shear Modulus (GPa) = 15.82189 31.02313 23.42251
#
# Velocity S-wave (km/s) = 2.85047 3.99144 3.46820
# Velocity P-wave (km/s) = 4.87370 6.69432 5.85521
#
# Compressibility (1/GPa) = 0.03974960
#
# Stress axis : x y z
#
# Youngs Moduli (GPa) = 19.20984 22.58314 82.68714
#
# Poissons Ratio (x) = 0.46622 1.22665
# Poissons Ratio (y) = 0.39658 -0.09416
# Poissons Ratio (z) = 0.28497 -0.02572
#
# Static dielectric constant tensor:
#      x y z
#    x 1.736390 0.018750 0.072730 
#    y 0.018750 1.703980 -0.046790 
#    z 0.072730 -0.046790 1.698270 
# 
# From -- ./inp_files/38591.got.cif
#   From: 2010.05.17/outbox.cif.g08.bks.cpg/sg2_20_cif.got.tgz:38591.got - 2010.06.03 11:33:40.
