data_PCOD9093021
_publ_section_title
;
Structure prediction by ZEFSAII (Michael W. Deem and Ramdas Pophale) SiO2 
 PCOD9093021
Probable space group: P -1
;
_chemical_formula_sum "Si O2"
_cell_formula_units_Z 14
_cell_length_a 12.222839
_cell_length_b 7.876585
_cell_length_c 9.715714
_cell_angle_alpha 46.865551
_cell_angle_beta 66.638018
_cell_angle_gamma 85.112291
_cell_volume 602.015981
_symmetry_space_group_name_H-M "P -1"
_symmetry_group_IT_number 2
_symmetry_cell_setting 'triclinic'
loop_
_space_group_symop_operation_xyz
x,y,z
-x,-y,-z
loop_
_atom_site_type_symbol
_atom_site_label
_atom_site_fract_x
_atom_site_fract_y
_atom_site_fract_z
Si Si1 0.061072 0.360116 0.156481
Si Si2 0.468094 0.192526 0.532094
Si Si3 0.297482 0.720081 0.936388
Si Si4 0.993881 0.790794 0.439958
Si Si5 0.677437 0.559875 0.341874
Si Si6 0.123026 0.973522 0.022836
Si Si7 0.712379 0.549384 0.634658
O O1 0.207985 0.489265 0.032544
O O2 0.000448 0.354893 0.342725
O O3 0.030790 0.077472 0.293287
O O4 0.000000 0.500000 0.000000
O O5 0.609706 0.346610 0.392642
O O6 0.414497 0.275696 0.658713
O O7 0.387358 0.295891 0.407073
O O8 0.421186 0.902656 0.711574
O O9 0.326361 0.639339 0.118482
O O10 0.202701 0.882666 0.919751
O O11 0.851210 0.709906 0.507586
O O12 0.084976 0.782648 0.272566
O O13 0.707962 0.456693 0.530795
O O14 0.797172 0.760534 0.117682
O O15 0.000000 0.000000 0.000000
#
# Coordination Sequence:
#
# PCOD9093021 Si02
#       7
#     2   2   2   2   2   2   2
#     4  10  20  34  49  72  96 135 171 203 238 297
#     4   8  15  31  45  71 104 130 156 205 243 290
#     4  10  20  30  54  76  97 129 172 200 249 288
#     4  10  20  33  50  72 105 131 163 199 253 296
#     4   8  16  29  48  70 105 134 152 194 261 288
#     4  11  18  33  51  74 108 134 154 206 254 298
#     4   9  16  30  47  73  97 131 160 204 239 294
#
# _framework density 23.255196999999999
#
# number of rings (size 3 to 8) (size 9 to 14) (size 15 to 20)
#    0.857    1.714    1.429    1.714    0.000    2.857 
#    2.571    0.000    0.000    0.857    0.000   14.000 
#    0.000    0.000    0.000    0.000    0.000    0.000 
#
# Total GULP energy -78129.394162 kJ/mol
# GULP energy per Si atom -5580.671012 kJ/mol
# Density = 2.320227 g / cm^3
# Si number density = 23.255197 Si / 1000 Ang^3
#
#
#
# Elastic Constant Matrix: (Units=GPa)
#
#
# Indices 1 2 3 4 5 6 
#
# 1 91.8643 31.1712 66.1802 -8.7465 1.8931 27.3902
# 2 31.1712 97.9726 11.4404 -24.7052 -4.0417 25.9341
# 3 66.1802 11.4404 132.0129 -16.8892 10.7112 26.8147
# 4 -8.7465 -24.7052 -16.8892 41.1232 13.3369 -12.4706
# 5 1.8931 -4.0417 10.7112 13.3369 40.9301 -2.8458
# 6 27.3902 25.9341 26.8147 -12.4706 -2.8458 37.4333
#
#
#
# Elastic Compliance Matrix: (Units=1/GPa)
#
#
# Indices 1 2 3 4 5 6 
#
# 1 0.020875 -0.005024 -0.009561 -0.005222 0.002289 -0.006510
# 2 -0.005024 0.015225 0.003908 0.008346 -0.002499 -0.007081
# 3 -0.009561 0.003908 0.014124 0.006613 -0.005303 -0.004029
# 4 -0.005222 0.008346 0.006613 0.036229 -0.012161 0.004446
# 5 0.002289 -0.002499 -0.005303 -0.012161 0.029572 0.002052
# 6 -0.006510 -0.007081 -0.004029 0.004446 0.002052 0.040907
#
#
# Mechanical properties :
#
#
# Convention : Reuss Voigt Hill
#
# Bulk Modulus (GPa) = 34.63810 59.93704 47.28757
# Shear Modulus (GPa) = 26.60849 38.10117 32.35483
#
# Velocity S-wave (km/s) = 3.38627 4.05210 3.73405
# Velocity P-wave (km/s) = 5.49692 6.90813 6.24253
#
# Compressibility (1/GPa) = 0.02886995
#
# Stress axis : x y z
#
# Youngs Moduli (GPa) = 47.90406 65.68171 70.80031
#
# Poissons Ratio (x) = 0.33000 0.67692
# Poissons Ratio (y) = 0.24068 -0.27669
# Poissons Ratio (z) = 0.45801 -0.25669
#
# Static dielectric constant tensor:
#      x y z
#    x 1.845180 -0.041510 -0.053840 
#    y -0.041510 2.011180 0.035270 
#    z -0.053840 0.035270 1.933920 
# 
# From -- ./inp_files/422797.got.cif
#   From: 2010.05.17/outbox.cif.g08.bks.cpg/sg2_212_cif.got.tgz:422797.got - 2010.06.03 11:33:40.
