data_PCOD9093222
_publ_section_title
;
Structure prediction by ZEFSAII (Michael W. Deem and Ramdas Pophale) SiO2 
 PCOD9093222
Probable space group: P -1
;
_chemical_formula_sum "Si O2"
_cell_formula_units_Z 14
_cell_length_a 15.726144
_cell_length_b 12.726011
_cell_length_c 15.990249
_cell_angle_alpha 37.954632
_cell_angle_beta 18.362386
_cell_angle_gamma 32.722981
_cell_volume 544.039451
_symmetry_space_group_name_H-M "P -1"
_symmetry_group_IT_number 2
_symmetry_cell_setting 'triclinic'
loop_
_space_group_symop_operation_xyz
x,y,z
-x,-y,-z
loop_
_atom_site_type_symbol
_atom_site_label
_atom_site_fract_x
_atom_site_fract_y
_atom_site_fract_z
Si Si1 0.264462 0.597327 0.044065
Si Si2 0.293419 0.906074 0.725801
Si Si3 0.465669 0.705700 0.215123
Si Si4 0.708626 0.713847 0.155089
Si Si5 0.236788 0.734273 0.722154
Si Si6 0.125127 0.290595 0.309699
Si Si7 0.927136 0.324558 0.653733
O O1 0.415358 0.688418 0.785483
O O2 0.570516 0.407899 0.909521
O O3 0.060761 0.514630 0.242091
O O4 0.080979 0.739564 0.202978
O O5 0.259156 0.877778 0.678155
O O6 0.500000 0.000000 0.500000
O O7 0.000000 0.000000 0.000000
O O8 0.515903 0.791951 0.200810
O O9 0.668180 0.472536 0.191557
O O10 0.132215 0.734748 0.484941
O O11 0.587325 0.778651 0.977763
O O12 0.482059 0.697260 0.443914
O O13 0.000000 0.500000 0.000000
O O14 0.890720 0.820438 0.955578
O O15 0.122194 0.223108 0.451543
O O16 0.000000 0.500000 0.500000
#
# Coordination Sequence:
#
# PCOD9093222 Si02
#       7
#     2   2   2   2   2   2   2
#     4  10  21  37  53  79 112 153 189 234 280 335
#     4  12  27  39  57  81 114 165 208 227 263 327
#     4  11  19  29  52  78 110 140 179 221 285 352
#     4  10  20  32  51  79 103 148 187 229 287 346
#     4  11  20  36  51  69 115 148 196 234 270 321
#     4  11  18  30  51  78 111 140 170 217 285 336
#     4   9  19  33  58  78 107 152 180 229 303 338
#
# _framework density 25.733426999999999
#
# number of rings (size 3 to 8) (size 9 to 14) (size 15 to 20)
#    0.000    1.429    2.857    5.143    6.000    0.000 
#    0.000    0.000    0.000    0.000    0.000    0.000 
#    0.000   22.857    0.000    0.000    0.000    0.000 
#
# Total GULP energy -78171.752761 kJ/mol
# GULP energy per Si atom -5583.696626 kJ/mol
# Density = 2.567486 g / cm^3
# Si number density = 25.733427 Si / 1000 Ang^3
#
#
#
# Elastic Constant Matrix: (Units=GPa)
#
#
# Indices 1 2 3 4 5 6 
#
# 1 170.6895 29.4208 91.8880 -22.3432 6.9682 42.1518
# 2 29.4208 50.7762 24.9303 -10.3385 0.0996 14.3529
# 3 91.8880 24.9303 219.1677 -13.2763 1.4928 14.0251
# 4 -22.3432 -10.3385 -13.2763 26.6875 10.6727 -7.5429
# 5 6.9682 0.0996 1.4928 10.6727 70.2597 -1.6489
# 6 42.1518 14.3529 14.0251 -7.5429 -1.6489 23.3228
#
#
#
# Elastic Compliance Matrix: (Units=1/GPa)
#
#
# Indices 1 2 3 4 5 6 
#
# 1 0.014363 0.001261 -0.004396 0.004967 -0.002619 -0.022670
# 2 0.001261 0.025438 -0.002089 0.006268 -0.001415 -0.014749
# 3 -0.004396 -0.002089 0.006291 0.000017 0.000431 0.005484
# 4 0.004967 0.006268 0.000017 0.047725 -0.007703 0.002046
# 5 -0.002619 -0.001415 0.000431 -0.007703 0.015749 0.003968
# 6 -0.022670 -0.014749 0.005484 0.002046 0.003968 0.090571
#
#
# Mechanical properties :
#
#
# Convention : Reuss Voigt Hill
#
# Bulk Modulus (GPa) = 28.05598 81.45684 54.75641
# Shear Modulus (GPa) = 22.47547 43.68031 33.07789
#
# Velocity S-wave (km/s) = 2.95853 4.12444 3.58914
# Velocity P-wave (km/s) = 4.75361 7.37592 6.20487
#
# Compressibility (1/GPa) = 0.03564303
#
# Stress axis : x y z
#
# Youngs Moduli (GPa) = 69.62199 39.31187 158.96900
#
# Poissons Ratio (x) = -0.04955 0.69881
# Poissons Ratio (y) = -0.08776 0.33206
# Poissons Ratio (z) = 0.30605 0.08212
#
# Static dielectric constant tensor:
#      x y z
#    x 2.109970 -0.056300 0.017300 
#    y -0.056300 2.183220 -0.022890 
#    z 0.017300 -0.022890 1.956740 
# 
# From -- ./inp_files/85235.got.cif
#   From: 2010.05.17/outbox.cif.g08.bks.cpg/sg2_43_cif.got.tgz:85235.got - 2010.06.03 11:33:40.
