data_PCOD9093888
_publ_section_title
;
Structure prediction by ZEFSAII (Michael W. Deem and Ramdas Pophale) SiO2 
 PCOD9093888
Probable space group: P -1
;
_chemical_formula_sum "Si O2"
_cell_formula_units_Z 14
_cell_length_a 5.547919
_cell_length_b 22.733291
_cell_length_c 12.313280
_cell_angle_alpha 40.788588
_cell_angle_beta 102.892043
_cell_angle_gamma 72.366881
_cell_volume 664.120468
_symmetry_space_group_name_H-M "P -1"
_symmetry_group_IT_number 2
_symmetry_cell_setting 'triclinic'
loop_
_space_group_symop_operation_xyz
x,y,z
-x,-y,-z
loop_
_atom_site_type_symbol
_atom_site_label
_atom_site_fract_x
_atom_site_fract_y
_atom_site_fract_z
Si Si1 0.701182 0.385840 0.398295
Si Si2 0.191184 0.172135 0.328788
Si Si3 0.558558 0.278883 0.961649
Si Si4 0.121373 0.452561 0.863808
Si Si5 0.276307 0.654404 0.772016
Si Si6 0.523148 0.103978 0.239300
Si Si7 0.267300 0.651642 0.296408
O O1 0.842672 0.450883 0.302254
O O2 0.837717 0.294313 0.434220
O O3 0.798687 0.330202 0.607458
O O4 0.260928 0.482955 0.219759
O O5 0.479847 0.129815 0.328954
O O6 0.067191 0.257638 0.303695
O O7 0.315235 0.038213 0.561695
O O8 0.831828 0.262786 0.087866
O O9 0.203827 0.377096 0.866156
O O10 0.497138 0.333879 0.759745
O O11 0.736696 0.132725 0.177041
O O12 0.432801 0.358766 0.119754
O O13 0.500000 0.500000 0.000000
O O14 0.131227 0.222580 0.973727
O O15 0.500000 0.500000 0.500000
#
# Coordination Sequence:
#
# PCOD9093888 Si02
#       7
#     2   2   2   2   2   2   2
#     4  11  22  37  55  87 124 157 197 245 304 353
#     4   9  20  40  57  90 114 153 203 250 306 352
#     4  10  20  33  60  84 118 154 197 253 301 355
#     4  10  21  35  59  86 122 153 198 252 301 349
#     4   9  20  37  60  87 118 154 200 253 298 356
#     4  10  21  36  62  83 120 158 197 252 300 362
#     4  11  22  35  54  87 123 157 201 243 301 358
#
# _framework density 21.080514000000001
#
# number of rings (size 3 to 8) (size 9 to 14) (size 15 to 20)
#    0.000    2.000    1.429    1.714   10.000    1.143 
#    2.571    0.714    0.000    0.857    0.000    0.000 
#    0.000    0.000    0.000    0.000    0.000    0.000 
#
# Total GULP energy -77952.588296 kJ/mol
# GULP energy per Si atom -5568.042021 kJ/mol
# Density = 2.103253 g / cm^3
# Si number density = 21.080514 Si / 1000 Ang^3
#
#
#
# Elastic Constant Matrix: (Units=GPa)
#
#
# Indices 1 2 3 4 5 6 
#
# 1 63.5214 19.0516 18.8591 0.1295 -21.0573 -6.3002
# 2 19.0516 156.6447 66.5330 27.4474 -20.0290 -15.8649
# 3 18.8591 66.5330 77.6169 8.3803 -14.3373 -8.2312
# 4 0.1295 27.4474 8.3803 32.6653 -1.9400 -0.6993
# 5 -21.0573 -20.0290 -14.3373 -1.9400 43.0420 7.3148
# 6 -6.3002 -15.8649 -8.2312 -0.6993 7.3148 19.4098
#
#
#
# Elastic Compliance Matrix: (Units=1/GPa)
#
#
# Indices 1 2 3 4 5 6 
#
# 1 0.019615 -0.000014 -0.003159 0.001277 0.008264 0.001948
# 2 -0.000014 0.012223 -0.008782 -0.007814 0.001482 0.005422
# 3 -0.003159 -0.008782 0.021270 0.002030 0.001489 0.000329
# 4 0.001277 -0.007814 0.002030 0.036570 -0.000045 -0.003777
# 5 0.008264 0.001482 0.001489 -0.000045 0.029586 -0.006626
# 6 0.001948 0.005422 0.000329 -0.003777 -0.006626 0.059085
#
#
# Mechanical properties :
#
#
# Convention : Reuss Voigt Hill
#
# Bulk Modulus (GPa) = 34.24820 56.29674 45.27247
# Shear Modulus (GPa) = 23.58590 31.91268 27.74929
#
# Velocity S-wave (km/s) = 3.34855 3.89504 3.63209
# Velocity P-wave (km/s) = 5.58856 6.85507 6.25396
#
# Compressibility (1/GPa) = 0.02919861
#
# Stress axis : x y z
#
# Youngs Moduli (GPa) = 50.98193 81.80996 47.01466
#
# Poissons Ratio (x) = 0.00112 0.14852
# Poissons Ratio (y) = 0.00070 0.41289
# Poissons Ratio (z) = 0.16105 0.71846
#
# Static dielectric constant tensor:
#      x y z
#    x 1.955060 -0.036360 0.036990 
#    y -0.036360 1.806710 -0.012960 
#    z 0.036990 -0.012960 1.817250 
# 
# From -- ./inp_files/63862.got.cif
#   From: 2010.05.17/outbox.cif.g08.bks.cpg/sg2_32_cif.got.tgz:63862.got - 2010.06.03 11:33:40.
