data_PCOD9093915
_publ_section_title
;
Structure prediction by ZEFSAII (Michael W. Deem and Ramdas Pophale) SiO2 
 PCOD9093915
Probable space group: P -1
;
_chemical_formula_sum "Si O2"
_cell_formula_units_Z 16
_cell_length_a 9.307707
_cell_length_b 18.520250
_cell_length_c 10.150046
_cell_angle_alpha 152.219554
_cell_angle_beta 80.237077
_cell_angle_gamma 105.556997
_cell_volume 776.635973
_symmetry_space_group_name_H-M "P -1"
_symmetry_group_IT_number 2
_symmetry_cell_setting 'triclinic'
loop_
_space_group_symop_operation_xyz
x,y,z
-x,-y,-z
loop_
_atom_site_type_symbol
_atom_site_label
_atom_site_fract_x
_atom_site_fract_y
_atom_site_fract_z
Si Si1 0.873898 0.748071 0.038447
Si Si2 0.183978 0.681518 0.870953
Si Si3 0.189991 0.524811 0.866306
Si Si4 0.567422 0.382772 0.708302
Si Si5 0.548694 0.174811 0.601582
Si Si6 0.598875 0.456160 0.532169
Si Si7 0.877112 0.614530 0.095828
Si Si8 0.718390 0.997407 0.451486
O O1 0.725535 0.617859 0.805877
O O2 0.875713 0.742490 0.189456
O O3 0.017691 0.691135 0.872343
O O4 0.855232 0.920002 0.276778
O O5 0.179784 0.525491 0.711840
O O6 0.309644 0.673071 0.732577
O O7 0.237050 0.840382 0.208702
O O8 0.519187 0.395032 0.584917
O O9 0.045860 0.594096 0.035137
O O10 0.341965 0.657762 0.093925
O O11 0.521995 0.212750 0.515719
O O12 0.750239 0.457046 0.809022
O O13 0.500000 0.500000 0.000000
O O14 0.169310 0.375572 0.728265
O O15 0.402312 0.125729 0.637115
O O16 0.636866 0.040401 0.403546
O O17 0.500000 0.500000 0.500000
#
# Coordination Sequence:
#
# PCOD9093915 Si02
#       8
#     2   2   2   2   2   2   2   2
#     4  10  20  37  58  85 117 158 196 235 289 354
#     4  10  21  37  57  84 121 156 190 244 296 342
#     4   8  15  28  51  81 110 146 179 236 286 335
#     4  10  20  35  58  83 115 151 197 241 290 347
#     4   9  18  31  54  82 115 145 192 241 284 323
#     4  11  25  37  60  90 121 148 193 245 304 346
#     4   8  15  28  51  80 111 139 192 231 280 332
#     4  10  20  33  61  87 116 152 205 233 281 350
#
# _framework density 20.601673000000002
#
# number of rings (size 3 to 8) (size 9 to 14) (size 15 to 20)
#    0.000    2.500    0.000    2.250   10.500    0.000 
#    0.000    0.625    0.000    0.750    0.000    0.000 
#    0.000    0.000    0.000    0.000    0.000    0.000 
#
# Total GULP energy -89090.237933 kJ/mol
# GULP energy per Si atom -5568.139871 kJ/mol
# Density = 2.055478 g / cm^3
# Si number density = 20.601673 Si / 1000 Ang^3
#
#
#
# Elastic Constant Matrix: (Units=GPa)
#
#
# Indices 1 2 3 4 5 6 
#
# 1 112.4173 52.7289 27.8364 3.0070 -12.8113 -18.8603
# 2 52.7289 123.7406 23.9558 -7.2599 -12.2449 -17.2435
# 3 27.8364 23.9558 51.4302 -6.9292 -16.9928 -9.4345
# 4 3.0070 -7.2599 -6.9292 21.5470 2.8837 3.7634
# 5 -12.8113 -12.2449 -16.9928 2.8837 30.0111 8.3578
# 6 -18.8603 -17.2435 -9.4345 3.7634 8.3578 36.5596
#
#
#
# Elastic Compliance Matrix: (Units=1/GPa)
#
#
# Indices 1 2 3 4 5 6 
#
# 1 0.012991 -0.004330 -0.004906 -0.005586 0.000462 0.003863
# 2 -0.004330 0.010777 -0.001626 0.003274 0.000780 0.001914
# 3 -0.004906 -0.001626 0.027977 0.007430 0.012271 0.000351
# 4 -0.005586 0.003274 0.007430 0.051556 -0.000512 -0.004610
# 5 0.000462 0.000780 0.012271 -0.000512 0.042473 -0.005884
# 6 0.003863 0.001914 0.000351 -0.004610 -0.005884 0.032159
#
#
# Mechanical properties :
#
#
# Convention : Reuss Voigt Hill
#
# Bulk Modulus (GPa) = 33.30998 55.18115 44.24556
# Shear Modulus (GPa) = 23.84766 29.82801 26.83784
#
# Velocity S-wave (km/s) = 3.40598 3.80918 3.61321
# Velocity P-wave (km/s) = 5.62773 6.79628 6.23942
#
# Compressibility (1/GPa) = 0.03002104
#
# Stress axis : x y z
#
# Youngs Moduli (GPa) = 76.97451 92.78665 35.74397
#
# Poissons Ratio (x) = 0.40175 0.17536
# Poissons Ratio (y) = 0.33328 0.05814
# Poissons Ratio (z) = 0.37763 0.15091
#
# Static dielectric constant tensor:
#      x y z
#    x 1.827890 -0.032790 -0.006690 
#    y -0.032790 1.839730 0.005050 
#    z -0.006690 0.005050 1.746250 
# 
# From -- ./inp_files/319932.got.cif
#   From: 2010.05.17/outbox.cif.g08.bks.cpg/sg2_160_cif.got.tgz:319932.got - 2010.06.03 11:33:40.
