data_PCOD9093328
_publ_section_title
;
Structure prediction by ZEFSAII (Michael W. Deem and Ramdas Pophale) SiO2 
 PCOD9093328
Probable space group: P -1
;
_chemical_formula_sum "Si O2"
_cell_formula_units_Z 14
_cell_length_a 7.691115
_cell_length_b 16.222292
_cell_length_c 5.355990
_cell_angle_alpha 112.891091
_cell_angle_beta 118.403455
_cell_angle_gamma 82.321598
_cell_volume 540.425586
_symmetry_space_group_name_H-M "P -1"
_symmetry_group_IT_number 2
_symmetry_cell_setting 'triclinic'
loop_
_space_group_symop_operation_xyz
x,y,z
-x,-y,-z
loop_
_atom_site_type_symbol
_atom_site_label
_atom_site_fract_x
_atom_site_fract_y
_atom_site_fract_z
Si Si1 0.393750 0.931959 0.049420
Si Si2 0.667997 0.449246 0.313326
Si Si3 0.450111 0.216348 0.265301
Si Si4 0.344260 0.368235 0.668993
Si Si5 0.764082 0.913232 0.649672
Si Si6 0.889222 0.749593 0.294878
Si Si7 0.124164 0.592631 0.108475
O O1 0.561989 0.914387 0.348573
O O2 0.218222 0.983230 0.121720
O O3 0.368673 0.837265 0.776901
O O4 0.500000 0.000000 0.000000
O O5 0.692220 0.556895 0.470566
O O6 0.719830 0.403403 0.550085
O O7 0.447822 0.422004 0.032145
O O8 0.801893 0.424914 0.140361
O O9 0.486656 0.293455 0.583116
O O10 0.296451 0.144956 0.216500
O O11 0.320837 0.253092 0.997636
O O12 0.149528 0.312079 0.559399
O O13 0.911394 0.853946 0.521044
O O14 0.029123 0.689062 0.162156
O O15 0.000000 0.500000 0.000000
#
# Coordination Sequence:
#
# PCOD9093328 Si02
#       7
#     2   2   2   2   2   2   2
#     4   8  13  25  44  73 112 135 171 219 279 317
#     4  11  26  39  58  80 113 148 188 232 282 327
#     4   9  17  29  51  77 107 141 179 227 275 322
#     4  10  22  37  55  79 108 145 188 231 275 331
#     4   8  15  26  44  77 108 139 172 223 275 322
#     4  10  20  32  56  77 112 144 186 228 278 326
#     4  12  24  40  57  82 110 148 186 234 279 332
#
# _framework density 25.905507
#
# number of rings (size 3 to 8) (size 9 to 14) (size 15 to 20)
#    0.000    2.286    1.429    1.286    6.000    1.143 
#    0.000    0.000    0.000    0.000    0.000    2.000 
#    0.000    0.000    0.000    0.000    0.000    0.000 
#
# Total GULP energy -78138.447036 kJ/mol
# GULP energy per Si atom -5581.317645 kJ/mol
# Density = 2.584655 g / cm^3
# Si number density = 25.905507 Si / 1000 Ang^3
#
#
#
# Elastic Constant Matrix: (Units=GPa)
#
#
# Indices 1 2 3 4 5 6 
#
# 1 73.9694 27.4892 18.7619 9.0981 -34.9114 -38.3447
# 2 27.4892 134.7563 37.3698 20.0027 -22.5058 -41.3839
# 3 18.7619 37.3698 86.2030 19.8161 -20.5069 -12.4699
# 4 9.0981 20.0027 19.8161 62.4650 -12.5666 -27.7136
# 5 -34.9114 -22.5058 -20.5069 -12.5666 38.3623 13.3396
# 6 -38.3447 -41.3839 -12.4699 -27.7136 13.3396 53.6190
#
#
#
# Elastic Compliance Matrix: (Units=1/GPa)
#
#
# Indices 1 2 3 4 5 6 
#
# 1 0.045670 0.006086 -0.002240 0.015274 0.036546 0.035639
# 2 0.006086 0.011757 -0.003695 0.003574 0.007246 0.012611
# 3 -0.002240 -0.003695 0.014995 -0.004318 0.003839 -0.004153
# 4 0.015274 0.003574 -0.004318 0.027191 0.014560 0.023109
# 5 0.036546 0.007246 0.003839 0.014560 0.061783 0.024775
# 6 0.035639 0.012611 -0.004153 0.023109 0.024775 0.058685
#
#
# Mechanical properties :
#
#
# Convention : Reuss Voigt Hill
#
# Bulk Modulus (GPa) = 13.75063 51.35228 32.55145
# Shear Modulus (GPa) = 20.49010 44.97643 32.73327
#
# Velocity S-wave (km/s) = 2.81544 4.17126 3.55852
# Velocity P-wave (km/s) = 3.98604 6.56241 5.42926
#
# Compressibility (1/GPa) = 0.07272396
#
# Stress axis : x y z
#
# Youngs Moduli (GPa) = 21.89612 85.05888 66.68958
#
# Poissons Ratio (x) = -0.51767 0.14940
# Poissons Ratio (y) = -0.13326 0.24639
# Poissons Ratio (z) = 0.04905 0.31426
#
# Static dielectric constant tensor:
#      x y z
#    x 2.104500 -0.046400 0.011680 
#    y -0.046400 2.079310 0.027950 
#    z 0.011680 0.027950 2.118210 
# 
# From -- ./inp_files/37606.got.cif
#   From: 2010.05.17/outbox.cif.g08.bks.cpg/sg2_19_cif.got.tgz:37606.got - 2010.06.03 11:33:40.
