data_PCOD9093339
_publ_section_title
;
Structure prediction by ZEFSAII (Michael W. Deem and Ramdas Pophale) SiO2 
 PCOD9093339
Probable space group: P -1
;
_chemical_formula_sum "Si O2"
_cell_formula_units_Z 13
_cell_length_a 9.531680
_cell_length_b 8.701351
_cell_length_c 11.652447
_cell_angle_alpha 110.110538
_cell_angle_beta 138.240265
_cell_angle_gamma 93.153186
_cell_volume 524.112595
_symmetry_space_group_name_H-M "P -1"
_symmetry_group_IT_number 2
_symmetry_cell_setting 'triclinic'
loop_
_space_group_symop_operation_xyz
x,y,z
-x,-y,-z
loop_
_atom_site_type_symbol
_atom_site_label
_atom_site_fract_x
_atom_site_fract_y
_atom_site_fract_z
Si Si1 0.669034 0.221666 0.779284
Si Si2 0.454938 0.659180 0.065095
Si Si3 0.694350 0.298319 0.383987
Si Si4 0.184269 0.866645 0.371775
Si Si5 0.180584 0.000769 0.016388
Si Si6 0.920092 0.280240 0.301600
Si Si7 0.000000 0.000000 0.500000
O O1 0.676493 0.389227 0.901905
O O2 0.860309 0.241911 0.804410
O O3 0.403190 0.079242 0.529789
O O4 0.696771 0.101796 0.867837
O O5 0.500000 0.500000 0.000000
O O6 0.288178 0.689960 0.878022
O O7 0.710093 0.844263 0.295013
O O8 0.737736 0.253482 0.527350
O O9 0.407329 0.196897 0.164680
O O10 0.826640 0.216168 0.358113
O O11 0.836683 0.519209 0.500248
O O12 0.004937 0.896238 0.351675
O O13 0.054304 0.870577 0.796701
O O14 0.000000 0.000000 0.000000
#
# Coordination Sequence:
#
# PCOD9093339 Si02
#       7
#     2   2   2   2   2   2   1
#     4   8  18  35  55  81 113 145 187 233 285 347
#     4  10  20  37  58  83 111 146 190 237 286 337
#     4  10  21  39  59  79 116 157 190 238 284 335
#     4   9  17  34  56  80 112 151 184 231 290 333
#     4  10  21  37  59  85 114 150 191 240 293 339
#     4  10  22  39  58  84 115 153 198 232 281 351
#     4  10  20  32  56  86 110 142 192 234 276 342
#
# _framework density 24.803830999999999
#
# number of rings (size 3 to 8) (size 9 to 14) (size 15 to 20)
#    0.000    2.462    0.000    2.308    0.000    3.077 
#    0.000   16.154    0.000    0.000    0.000    0.000 
#    0.000    0.000    0.000    0.000    0.000    0.000 
#
# Total GULP energy -72373.051208 kJ/mol
# GULP energy per Si atom -5567.157785 kJ/mol
# Density = 2.474738 g / cm^3
# Si number density = 24.803831 Si / 1000 Ang^3
#
#
#
# Elastic Constant Matrix: (Units=GPa)
#
#
# Indices 1 2 3 4 5 6 
#
# 1 197.5064 26.8791 72.4953 18.0945 -22.2603 1.5200
# 2 26.8791 50.9956 30.2115 6.8767 -9.1907 7.4405
# 3 72.4953 30.2115 108.6468 31.1942 -6.4731 8.0200
# 4 18.0945 6.8767 31.1942 26.6492 13.0201 4.0068
# 5 -22.2603 -9.1907 -6.4731 13.0201 57.7708 4.1272
# 6 1.5200 7.4405 8.0200 4.0068 4.1272 37.3710
#
#
#
# Elastic Compliance Matrix: (Units=1/GPa)
#
#
# Indices 1 2 3 4 5 6 
#
# 1 0.007016 -0.000825 -0.004075 -0.000995 0.002297 0.000606
# 2 -0.000825 0.024656 -0.005834 0.000050 0.003224 -0.003985
# 3 -0.004075 -0.005834 0.019997 -0.021206 0.004607 -0.001199
# 4 -0.000995 0.000050 -0.021206 0.072458 -0.019004 -0.001089
# 5 0.002297 0.003224 0.004607 -0.019004 0.023671 -0.002301
# 6 0.000606 -0.003985 -0.001199 -0.001089 -0.002301 0.028156
#
#
# Mechanical properties :
#
#
# Convention : Reuss Voigt Hill
#
# Bulk Modulus (GPa) = 33.10973 68.48008 50.79491
# Shear Modulus (GPa) = 24.09765 39.52906 31.81335
#
# Velocity S-wave (km/s) = 3.12032 3.99641 3.58522
# Velocity P-wave (km/s) = 5.13415 6.99740 6.13690
#
# Compressibility (1/GPa) = 0.03020260
#
# Stress axis : x y z
#
# Youngs Moduli (GPa) = 142.52544 40.55768 50.00777
#
# Poissons Ratio (x) = 0.03345 0.20376
# Poissons Ratio (y) = 0.11753 0.29175
# Poissons Ratio (z) = 0.58074 0.23662
#
# Static dielectric constant tensor:
#      x y z
#    x 2.029990 -0.362100 0.061100 
#    y -0.362100 3.173150 -0.366290 
#    z 0.061100 -0.366290 2.109940 
# 
# From -- ./inp_files/164203.got.cif
#   From: 2010.05.17/outbox.cif.g08.bks.cpg/sg2_83_cif.got.tgz:164203.got - 2010.06.03 11:33:40.
