data_PCOD9093284
_publ_section_title
;
Structure prediction by ZEFSAII (Michael W. Deem and Ramdas Pophale) SiO2 
 PCOD9093284
Probable space group: P -1
;
_chemical_formula_sum "Si O2"
_cell_formula_units_Z 16
_cell_length_a 15.400306
_cell_length_b 11.832783
_cell_length_c 8.313057
_cell_angle_alpha 65.241907
_cell_angle_beta 83.887854
_cell_angle_gamma 37.948554
_cell_volume 775.066470
_symmetry_space_group_name_H-M "P -1"
_symmetry_group_IT_number 2
_symmetry_cell_setting 'triclinic'
loop_
_space_group_symop_operation_xyz
x,y,z
-x,-y,-z
loop_
_atom_site_type_symbol
_atom_site_label
_atom_site_fract_x
_atom_site_fract_y
_atom_site_fract_z
Si Si1 0.022100 0.108115 0.015453
Si Si2 0.213743 0.672520 0.809612
Si Si3 0.740206 0.854334 0.282445
Si Si4 0.871209 0.603238 0.088309
Si Si5 0.394355 0.215979 0.148601
Si Si6 0.220879 0.419351 0.372490
Si Si7 0.213363 0.925742 0.814010
Si Si8 0.112686 0.663799 0.548602
O O1 0.911325 0.350246 0.833677
O O2 0.951821 0.164962 0.170223
O O3 0.187144 0.945043 0.001348
O O4 0.000000 0.000000 0.000000
O O5 0.278285 0.724544 0.840904
O O6 0.175889 0.706581 0.609096
O O7 0.331237 0.423428 0.975799
O O8 0.831861 0.738811 0.165476
O O9 0.820525 0.670979 0.507948
O O10 0.571946 0.993356 0.205588
O O11 0.716452 0.020904 0.253513
O O12 0.911631 0.423761 0.272913
O O13 0.716389 0.756087 0.926831
O O14 0.000000 0.500000 0.000000
O O15 0.363304 0.250163 0.325178
O O16 0.235314 0.477397 0.501304
O O17 0.045832 0.129107 0.638002
#
# Coordination Sequence:
#
# PCOD9093284 Si02
#       8
#     2   2   2   2   2   2   2   2
#     4   8  16  31  52  79 108 143 186 230 269 317
#     4   9  18  35  56  78 108 152 190 224 275 318
#     4  11  23  35  55  86 116 148 179 225 290 332
#     4  10  23  36  59  83 111 142 183 234 279 333
#     4  10  21  39  58  77 113 152 187 224 274 340
#     4   9  19  34  55  79 111 149 185 223 277 334
#     4  10  20  32  54  83 115 141 185 233 275 334
#     4   9  19  32  55  82 109 142 184 235 277 319
#
# _framework density 20.643391000000001
#
# number of rings (size 3 to 8) (size 9 to 14) (size 15 to 20)
#    0.000    2.500    0.000    1.125    8.750    3.000 
#    0.000    0.000    0.000    0.750    0.000    0.000 
#    0.000    0.000    0.000    0.000    0.000    0.000 
#
# Total GULP energy -89095.451752 kJ/mol
# GULP energy per Si atom -5568.465734 kJ/mol
# Density = 2.059641 g / cm^3
# Si number density = 20.643391 Si / 1000 Ang^3
#
#
#
# Elastic Constant Matrix: (Units=GPa)
#
#
# Indices 1 2 3 4 5 6 
#
# 1 87.8840 21.3838 23.1996 -3.4989 -5.4917 9.1361
# 2 21.3838 69.5542 24.8553 13.2442 5.0510 0.3275
# 3 23.1996 24.8553 62.2508 8.1037 -7.5870 -5.3815
# 4 -3.4989 13.2442 8.1037 30.6811 -0.0895 -4.0095
# 5 -5.4917 5.0510 -7.5870 -0.0895 22.2629 -3.7482
# 6 9.1361 0.3275 -5.3815 -4.0095 -3.7482 30.5275
#
#
#
# Elastic Compliance Matrix: (Units=1/GPa)
#
#
# Indices 1 2 3 4 5 6 
#
# 1 0.014152 -0.003626 -0.004429 0.003804 0.002109 -0.004219
# 2 -0.003626 0.019982 -0.006842 -0.007561 -0.008183 -0.002333
# 3 -0.004429 -0.006842 0.022433 -0.002650 0.009125 0.006126
# 4 0.003804 -0.007561 -0.002650 0.037483 0.002526 0.003709
# 5 0.002109 -0.008183 0.009125 0.002526 0.051719 0.007747
# 6 -0.004219 -0.002333 0.006126 0.003709 0.007747 0.036563
#
#
# Mechanical properties :
#
#
# Convention : Reuss Voigt Hill
#
# Bulk Modulus (GPa) = 37.35046 39.84071 38.59559
# Shear Modulus (GPa) = 22.61939 26.71099 24.66519
#
# Velocity S-wave (km/s) = 3.31376 3.60102 3.46037
# Velocity P-wave (km/s) = 5.72484 6.05237 5.89088
#
# Compressibility (1/GPa) = 0.02677343
#
# Stress axis : x y z
#
# Youngs Moduli (GPa) = 70.66225 50.04575 44.57679
#
# Poissons Ratio (x) = 0.18145 0.19744
# Poissons Ratio (y) = 0.25619 0.30498
# Poissons Ratio (z) = 0.31298 0.34240
#
# Static dielectric constant tensor:
#      x y z
#    x 1.768530 0.017570 -0.012330 
#    y 0.017570 1.776520 0.017310 
#    z -0.012330 0.017310 1.809200 
# 
# From -- ./inp_files/226472.got.cif
#   From: 2010.05.17/outbox.cif.g08.bks.cpg/sg2_114_cif.got.tgz:226472.got - 2010.06.03 11:33:40.
