data_PCOD9093803
_publ_section_title
;
Structure prediction by ZEFSAII (Michael W. Deem and Ramdas Pophale) SiO2 
 PCOD9093803
Probable space group: P -1
;
_chemical_formula_sum "Si O2"
_cell_formula_units_Z 14
_cell_length_a 20.157749
_cell_length_b 9.749678
_cell_length_c 9.404868
_cell_angle_alpha 31.376651
_cell_angle_beta 137.756668
_cell_angle_gamma 143.102424
_cell_volume 567.921594
_symmetry_space_group_name_H-M "P -1"
_symmetry_group_IT_number 2
_symmetry_cell_setting 'triclinic'
loop_
_space_group_symop_operation_xyz
x,y,z
-x,-y,-z
loop_
_atom_site_type_symbol
_atom_site_label
_atom_site_fract_x
_atom_site_fract_y
_atom_site_fract_z
Si Si1 0.074424 0.343561 0.271147
Si Si2 0.727874 0.987816 0.255270
Si Si3 0.912680 0.936281 0.721491
Si Si4 0.616768 0.282610 0.612520
Si Si5 0.824291 0.794655 0.023081
Si Si6 0.734166 0.259949 0.553418
Si Si7 0.552948 0.846425 0.319617
O O1 0.116639 0.338733 0.184809
O O2 0.167383 0.512538 0.385827
O O3 0.000000 0.000000 0.500000
O O4 0.000000 0.500000 0.000000
O O5 0.858698 0.107472 0.394564
O O6 0.676202 0.643877 0.416053
O O7 0.677267 0.982805 0.335760
O O8 0.678333 0.139540 0.934196
O O9 0.847448 0.827096 0.862831
O O10 0.047133 0.097049 0.813979
O O11 0.630632 0.200307 0.546170
O O12 0.490142 0.151827 0.591555
O O13 0.746236 0.463194 0.255141
O O14 0.768349 0.001186 0.800801
O O15 0.500000 0.500000 0.500000
O O16 0.500000 0.000000 0.000000
#
# Coordination Sequence:
#
# PCOD9093803 Si02
#       7
#     2   2   2   2   2   2   2
#     4  12  23  37  58  83 110 144 193 241 270 321
#     4  10  20  33  58  84 110 143 187 230 280 332
#     4  11  24  41  57  83 115 157 188 229 279 331
#     4  10  20  33  59  85 111 140 181 238 286 321
#     4  11  27  39  55  79 122 156 188 224 278 339
#     4  12  22  40  56  84 112 152 188 233 280 332
#     4   8  16  32  50  83 113 134 172 233 287 328
#
# _framework density 24.651291000000001
#
# number of rings (size 3 to 8) (size 9 to 14) (size 15 to 20)
#    0.000    1.429    4.286    0.857    2.000    5.714 
#    0.000    0.000    0.000    1.714    0.000    0.000 
#    0.000    0.000    0.000    0.000    0.000    0.000 
#
# Total GULP energy -78193.930124 kJ/mol
# GULP energy per Si atom -5585.280723 kJ/mol
# Density = 2.459518 g / cm^3
# Si number density = 24.651291 Si / 1000 Ang^3
#
#
#
# Elastic Constant Matrix: (Units=GPa)
#
#
# Indices 1 2 3 4 5 6 
#
# 1 220.4029 38.4096 56.9256 -13.4672 2.5564 -38.4716
# 2 38.4096 62.3006 35.8175 -6.7289 -1.9928 -34.9676
# 3 56.9256 35.8175 164.9757 -32.2059 7.0463 -10.0217
# 4 -13.4672 -6.7289 -32.2059 27.3343 -4.5234 0.0471
# 5 2.5564 -1.9928 7.0463 -4.5234 43.7609 5.8580
# 6 -38.4716 -34.9676 -10.0217 0.0471 5.8580 41.5683
#
#
#
# Elastic Compliance Matrix: (Units=1/GPa)
#
#
# Indices 1 2 3 4 5 6 
#
# 1 0.005907 0.000499 -0.001569 0.001057 -0.000711 0.005608
# 2 0.000499 0.035563 -0.005664 0.002080 -0.001188 0.029177
# 3 -0.001569 -0.005664 0.009316 0.008778 -0.000230 -0.003948
# 4 0.001057 0.002080 0.008778 0.048455 0.003045 0.004360
# 5 -0.000711 -0.001188 -0.000230 0.003045 0.023871 -0.005081
# 6 0.005608 0.029177 -0.003948 0.004360 -0.005081 0.053550
#
#
# Mechanical properties :
#
#
# Convention : Reuss Voigt Hill
#
# Bulk Modulus (GPa) = 26.79672 78.88719 52.84196
# Shear Modulus (GPa) = 24.68283 43.63447 34.15865
#
# Velocity S-wave (km/s) = 3.16773 4.21178 3.72650
# Velocity P-wave (km/s) = 4.92679 7.46477 6.32440
#
# Compressibility (1/GPa) = 0.03731800
#
# Stress axis : x y z
#
# Youngs Moduli (GPa) = 169.28724 28.11925 107.33934
#
# Poissons Ratio (x) = -0.01404 0.16845
# Poissons Ratio (y) = -0.08450 0.60797
# Poissons Ratio (z) = 0.26567 0.15927
#
# Static dielectric constant tensor:
#      x y z
#    x 2.066190 0.021730 -0.029370 
#    y 0.021730 1.966510 -0.018020 
#    z -0.029370 -0.018020 1.926670 
# 
# From -- ./inp_files/122188.got.cif
#   From: 2010.05.17/outbox.cif.g08.bks.cpg/sg2_62_cif.got.tgz:122188.got - 2010.06.03 11:33:40.
