data_PCOD9093181
_publ_section_title
;
Structure prediction by ZEFSAII (Michael W. Deem and Ramdas Pophale) SiO2 
 PCOD9093181
Probable space group: P -1
;
_chemical_formula_sum "Si O2"
_cell_formula_units_Z 14
_cell_length_a 9.395698
_cell_length_b 4.972300
_cell_length_c 10.967718
_cell_angle_alpha 84.928792
_cell_angle_beta 84.228298
_cell_angle_gamma 75.701373
_cell_volume 492.927602
_symmetry_space_group_name_H-M "P -1"
_symmetry_group_IT_number 2
_symmetry_cell_setting 'triclinic'
loop_
_space_group_symop_operation_xyz
x,y,z
-x,-y,-z
loop_
_atom_site_type_symbol
_atom_site_label
_atom_site_fract_x
_atom_site_fract_y
_atom_site_fract_z
Si Si1 0.633336 0.797381 0.260246
Si Si2 0.852155 0.847242 0.953468
Si Si3 0.238915 0.356225 0.258704
Si Si4 0.674916 0.536981 0.508213
Si Si5 0.839175 0.956175 0.525369
Si Si6 0.610599 0.314032 0.093338
Si Si7 0.958937 0.804266 0.197865
O O1 0.579409 0.721108 0.402352
O O2 0.646410 0.530336 0.181604
O O3 0.795422 0.860772 0.262512
O O4 0.551882 0.072700 0.182001
O O5 0.754150 0.697760 0.883978
O O6 0.928090 0.691939 0.072372
O O7 0.974566 0.936387 0.855074
O O8 0.744801 0.125430 0.009966
O O9 0.351779 0.437685 0.344097
O O10 0.084566 0.591799 0.268480
O O11 0.213610 0.072638 0.330541
O O12 0.724391 0.223607 0.472833
O O13 0.819612 0.662551 0.491867
O O14 0.000000 0.000000 0.500000
O O15 0.500000 0.500000 0.000000
#
# Coordination Sequence:
#
# PCOD9093181 Si02
#       7
#     2   2   2   2   2   2   2
#     4  11  24  40  67  93 125 159 204 259 304 367
#     4  10  23  37  61  90 129 165 206 252 306 368
#     4  10  22  32  59  87 137 165 196 238 306 380
#     4  10  22  35  55  88 127 160 202 237 304 365
#     4  10  20  32  49  83 123 170 199 226 283 365
#     4  11  26  47  67  88 116 163 215 262 306 355
#     4  10  22  35  57  95 131 166 195 246 307 368
#
# _framework density 28.401737000000001
#
# number of rings (size 3 to 8) (size 9 to 14) (size 15 to 20)
#    0.857    0.857    0.000    3.857   14.000    0.000 
#    0.000    0.000    0.000    1.714    0.000    0.000 
#    0.000    0.000    0.000    0.000    0.000    0.000 
#
# Total GULP energy -78163.154864 kJ/mol
# GULP energy per Si atom -5583.082490 kJ/mol
# Density = 2.833709 g / cm^3
# Si number density = 28.401737 Si / 1000 Ang^3
#
#
#
# Elastic Constant Matrix: (Units=GPa)
#
#
# Indices 1 2 3 4 5 6 
#
# 1 110.5142 19.3479 21.8513 8.6726 18.9912 -0.8548
# 2 19.3479 142.3003 52.2815 -6.3795 11.5484 13.9749
# 3 21.8513 52.2815 189.7819 -6.5653 41.7668 0.6195
# 4 8.6726 -6.3795 -6.5653 64.5185 -9.4789 7.5573
# 5 18.9912 11.5484 41.7668 -9.4789 29.2470 -0.5578
# 6 -0.8548 13.9749 0.6195 7.5573 -0.5578 14.3442
#
#
#
# Elastic Compliance Matrix: (Units=1/GPa)
#
#
# Indices 1 2 3 4 5 6 
#
# 1 0.010948 -0.001640 0.001030 -0.003259 -0.008920 0.003576
# 2 -0.001640 0.009155 -0.002598 0.002289 0.001710 -0.010044
# 3 0.001030 -0.002598 0.008500 -0.001638 -0.012262 0.002611
# 4 -0.003259 0.002289 -0.001638 0.018771 0.009408 -0.011877
# 5 -0.008920 0.001710 -0.012262 0.009408 0.059787 -0.004299
# 6 0.003576 -0.010044 0.002611 -0.011877 -0.004299 0.085691
#
#
# Mechanical properties :
#
#
# Convention : Reuss Voigt Hill
#
# Bulk Modulus (GPa) = 45.07042 69.95086 57.51064
# Shear Modulus (GPa) = 24.19393 44.89634 34.54514
#
# Velocity S-wave (km/s) = 2.92181 3.98019 3.49134
# Velocity P-wave (km/s) = 5.22360 6.76795 6.04529
#
# Compressibility (1/GPa) = 0.02218750
#
# Stress axis : x y z
#
# Youngs Moduli (GPa) = 91.33740 109.22924 117.65154
#
# Poissons Ratio (x) = 0.17918 -0.12119
# Poissons Ratio (y) = 0.14983 0.30561
# Poissons Ratio (z) = -0.09409 0.28373
#
# Static dielectric constant tensor:
#      x y z
#    x 2.284620 0.046850 -0.038470 
#    y 0.046850 2.285960 0.085280 
#    z -0.038470 0.085280 2.371020 
# 
# From -- ./inp_files/408496.got.cif
#   From: 2010.05.17/outbox.cif.g08.bks.cpg/sg2_205_cif.got.tgz:408496.got - 2010.06.03 11:33:40.
