data_PCOD9093141
_publ_section_title
;
Structure prediction by ZEFSAII (Michael W. Deem and Ramdas Pophale) SiO2 
 PCOD9093141
Probable space group: P -1
;
_chemical_formula_sum "Si O2"
_cell_formula_units_Z 15
_cell_length_a 18.862330
_cell_length_b 10.557627
_cell_length_c 10.958558
_cell_angle_alpha 153.667249
_cell_angle_beta 140.154020
_cell_angle_gamma 40.185432
_cell_volume 597.743067
_symmetry_space_group_name_H-M "P -1"
_symmetry_group_IT_number 2
_symmetry_cell_setting 'triclinic'
loop_
_space_group_symop_operation_xyz
x,y,z
-x,-y,-z
loop_
_atom_site_type_symbol
_atom_site_label
_atom_site_fract_x
_atom_site_fract_y
_atom_site_fract_z
Si Si1 0.881820 0.453836 0.547126
Si Si2 0.880943 0.207802 0.575241
Si Si3 0.542201 0.540285 0.952360
Si Si4 0.763702 0.698079 0.015417
Si Si5 0.581281 0.828983 0.682745
Si Si6 0.883504 0.665833 0.377093
Si Si7 0.260757 0.937389 0.103365
Si Si8 0.000000 0.000000 0.000000
O O1 0.858844 0.470884 0.674919
O O2 0.820024 0.217048 0.212448
O O3 0.014454 0.365344 0.615732
O O4 0.822689 0.777639 0.697438
O O5 0.798734 0.993708 0.276681
O O6 0.854824 0.393505 0.825746
O O7 0.000000 0.000000 0.500000
O O8 0.458696 0.435661 0.659416
O O9 0.500000 0.500000 0.000000
O O10 0.664873 0.303787 0.914887
O O11 0.527929 0.883376 0.203859
O O12 0.770850 0.708347 0.180790
O O13 0.648279 0.727369 0.809484
O O14 0.657997 0.942136 0.778754
O O15 0.905409 0.926782 0.714064
O O16 0.919245 0.345172 0.211421
#
# Coordination Sequence:
#
# PCOD9093141 Si02
#       8
#     2   2   2   2   2   2   2   1
#     4  12  21  33  54  81 112 146 184 217 265 315
#     4  12  22  33  47  78 123 152 175 215 253 323
#     4  10  20  32  47  66 106 161 201 215 247 289
#     4  12  23  34  55  81 113 148 187 219 265 315
#     4  11  19  33  48  73 110 154 191 221 248 303
#     4  11  24  40  61  80 106 142 179 234 277 339
#     4  11  20  32  48  75 112 154 190 221 247 304
#     4  10  24  46  58  74 106 138 184 234 290 322
#
# _framework density 25.094394000000001
#
# number of rings (size 3 to 8) (size 9 to 14) (size 15 to 20)
#    0.000    0.800    4.000    6.800    1.867    0.000 
#    0.000    0.000    0.000    0.000    0.000    0.000 
#    0.000   74.667    0.000    0.000    0.000    0.000 
#
# Total GULP energy -83622.066884 kJ/mol
# GULP energy per Si atom -5574.804459 kJ/mol
# Density = 2.503728 g / cm^3
# Si number density = 25.094394 Si / 1000 Ang^3
#
#
#
# Elastic Constant Matrix: (Units=GPa)
#
#
# Indices 1 2 3 4 5 6 
#
# 1 32.1615 1.7574 -6.8212 4.3734 -1.8566 7.1999
# 2 1.7574 117.9165 9.6557 -8.6093 -25.0625 7.4315
# 3 -6.8212 9.6557 158.6226 -10.9504 -37.4673 -3.9610
# 4 4.3734 -8.6093 -10.9504 63.0861 5.8336 -11.6819
# 5 -1.8566 -25.0625 -37.4673 5.8336 27.6419 -0.4433
# 6 7.1999 7.4315 -3.9610 -11.6819 -0.4433 30.3639
#
#
#
# Elastic Compliance Matrix: (Units=1/GPa)
#
#
# Indices 1 2 3 4 5 6 
#
# 1 0.034839 0.001249 0.002764 -0.004307 0.007972 -0.009747
# 2 0.001249 0.011348 0.002567 0.000177 0.013777 -0.002470
# 3 0.002764 0.002567 0.010126 0.000511 0.016138 0.000469
# 4 -0.004307 0.000177 0.000511 0.018019 -0.003112 0.007932
# 5 0.007972 0.013777 0.016138 -0.003112 0.071682 -0.003308
# 6 -0.009747 -0.002470 0.000469 0.007932 -0.003308 0.038914
#
#
# Mechanical properties :
#
#
# Convention : Reuss Voigt Hill
#
# Bulk Modulus (GPa) = 14.39384 35.32046 24.85715
# Shear Modulus (GPa) = 25.65087 44.49231 35.07159
#
# Velocity S-wave (km/s) = 3.20062 4.21527 3.74249
# Velocity P-wave (km/s) = 4.40533 6.14792 5.34807
#
# Compressibility (1/GPa) = 0.06947418
#
# Stress axis : x y z
#
# Youngs Moduli (GPa) = 28.70346 88.11828 98.75763
#
# Poissons Ratio (x) = -0.11002 -0.27301
# Poissons Ratio (y) = -0.03584 -0.25356
# Poissons Ratio (z) = -0.07935 -0.22624
#
# Static dielectric constant tensor:
#      x y z
#    x 2.083570 0.049190 0.034500 
#    y 0.049190 2.121410 0.091150 
#    z 0.034500 0.091150 2.015480 
# 
# From -- ./inp_files/439735.got.cif
#   From: 2010.05.17/outbox.cif.g08.bks.cpg/sg2_220_cif.got.tgz:439735.got - 2010.06.03 11:33:40.
