data_PCOD9093673
_publ_section_title
;
Structure prediction by ZEFSAII (Michael W. Deem and Ramdas Pophale) SiO2 
 PCOD9093673
Probable space group: P -1
;
_chemical_formula_sum "Si O2"
_cell_formula_units_Z 14
_cell_length_a 11.830703
_cell_length_b 14.294191
_cell_length_c 5.525747
_cell_angle_alpha 89.121083
_cell_angle_beta 88.710828
_cell_angle_gamma 45.057124
_cell_volume 661.254464
_symmetry_space_group_name_H-M "P -1"
_symmetry_group_IT_number 2
_symmetry_cell_setting 'triclinic'
loop_
_space_group_symop_operation_xyz
x,y,z
-x,-y,-z
loop_
_atom_site_type_symbol
_atom_site_label
_atom_site_fract_x
_atom_site_fract_y
_atom_site_fract_z
Si Si1 0.766022 0.446125 0.649712
Si Si2 0.212880 0.962063 0.391778
Si Si3 0.941848 0.461710 0.306779
Si Si4 0.246566 0.351301 0.069201
Si Si5 0.859548 0.212308 0.528690
Si Si6 0.605122 0.146121 0.101423
Si Si7 0.432504 0.616762 0.812877
O O1 0.880354 0.402269 0.421262
O O2 0.781259 0.529794 0.810452
O O3 0.828577 0.308232 0.733258
O O4 0.576909 0.547635 0.615609
O O5 0.179246 0.869942 0.379972
O O6 0.308336 0.921479 0.642101
O O7 0.302459 0.939995 0.142015
O O8 0.038993 0.108633 0.427508
O O9 0.000000 0.500000 0.500000
O O10 0.098096 0.369274 0.133439
O O11 0.782543 0.603810 0.206567
O O12 0.423550 0.214400 0.118828
O O13 0.729529 0.309891 0.322667
O O14 0.587340 0.269466 0.071463
O O15 0.500000 0.500000 0.000000
#
# Coordination Sequence:
#
# PCOD9093673 Si02
#       7
#     2   2   2   2   2   2   2
#     4  10  20  33  55  85 114 150 184 243 294 347
#     4  10  23  41  55  84 115 170 206 229 278 328
#     4   9  19  35  55  86 115 139 183 232 320 356
#     4   9  20  34  58  88 110 147 180 248 301 360
#     4  10  22  36  57  79 123 158 200 239 271 346
#     4  10  22  37  62  80 117 155 200 240 281 354
#     4  10  21  32  54  89 118 154 187 242 298 343
#
# _framework density 21.171880000000002
#
# number of rings (size 3 to 8) (size 9 to 14) (size 15 to 20)
#    0.000    2.286    0.000    1.286   12.000    6.286 
#    0.000    0.000    0.000    1.714    0.000    0.000 
#    0.000    0.000    0.000    0.000    0.000    0.000 
#
# Total GULP energy -77963.729644 kJ/mol
# GULP energy per Si atom -5568.837832 kJ/mol
# Density = 2.112369 g / cm^3
# Si number density = 21.171880 Si / 1000 Ang^3
#
#
#
# Elastic Constant Matrix: (Units=GPa)
#
#
# Indices 1 2 3 4 5 6 
#
# 1 88.9571 41.5766 27.7638 -5.6456 0.9603 -34.5674
# 2 41.5766 110.7578 36.5238 5.0752 2.3652 -34.4875
# 3 27.7638 36.5238 66.6775 4.5352 -6.8237 -17.4719
# 4 -5.6456 5.0752 4.5352 26.5216 -6.6541 -2.4807
# 5 0.9603 2.3652 -6.8237 -6.6541 12.7433 -1.1197
# 6 -34.5674 -34.4875 -17.4719 -2.4807 -1.1197 32.3134
#
#
#
# Elastic Compliance Matrix: (Units=1/GPa)
#
#
# Indices 1 2 3 4 5 6 
#
# 1 0.021132 -0.000878 -0.003151 0.007838 0.002792 0.020664
# 2 -0.000878 0.014996 -0.005150 -0.002503 -0.005737 0.011890
# 3 -0.003151 -0.005150 0.021251 0.000221 0.012960 0.003089
# 4 0.007838 -0.002503 0.000221 0.047190 0.025542 0.010341
# 5 0.002792 -0.005737 0.012960 0.025542 0.100422 0.009311
# 6 0.020664 0.011890 0.003089 0.010341 0.009311 0.068529
#
#
# Mechanical properties :
#
#
# Convention : Reuss Voigt Hill
#
# Bulk Modulus (GPa) = 25.62687 53.12453 39.37570
# Shear Modulus (GPa) = 16.39951 25.01753 20.70852
#
# Velocity S-wave (km/s) = 2.78616 3.44123 3.13088
# Velocity P-wave (km/s) = 4.74139 6.39812 5.63101
#
# Compressibility (1/GPa) = 0.03902154
#
# Stress axis : x y z
#
# Youngs Moduli (GPa) = 47.32113 66.68360 47.05571
#
# Poissons Ratio (x) = 0.05856 0.14827
# Poissons Ratio (y) = 0.04155 0.24234
# Poissons Ratio (z) = 0.14911 0.34342
#
# Static dielectric constant tensor:
#      x y z
#    x 1.811330 0.021630 -0.030380 
#    y 0.021630 1.778070 0.019800 
#    z -0.030380 0.019800 1.874640 
# 
# From -- ./inp_files/75120.got.cif
#   From: 2010.05.17/outbox.cif.g08.bks.cpg/sg2_38_cif.got.tgz:75120.got - 2010.06.03 11:33:40.
