data_PCOD9093931
_publ_section_title
;
Structure prediction by ZEFSAII (Michael W. Deem and Ramdas Pophale) SiO2 
 PCOD9093931
Probable space group: P -1
;
_chemical_formula_sum "Si O2"
_cell_formula_units_Z 16
_cell_length_a 21.163993
_cell_length_b 9.682371
_cell_length_c 9.720130
_cell_angle_alpha 43.734819
_cell_angle_beta 143.124113
_cell_angle_gamma 123.650836
_cell_volume 824.942544
_symmetry_space_group_name_H-M "P -1"
_symmetry_group_IT_number 2
_symmetry_cell_setting 'triclinic'
loop_
_space_group_symop_operation_xyz
x,y,z
-x,-y,-z
loop_
_atom_site_type_symbol
_atom_site_label
_atom_site_fract_x
_atom_site_fract_y
_atom_site_fract_z
Si Si1 0.130997 0.575189 0.549401
Si Si2 0.952474 0.585667 0.997749
Si Si3 0.645139 0.569280 0.316630
Si Si4 0.526611 0.214056 0.332451
Si Si5 0.132720 0.133997 0.788772
Si Si6 0.791968 0.886475 0.381454
Si Si7 0.745401 0.227033 0.584308
Si Si8 0.891715 0.261493 0.308428
O O1 0.162625 0.339304 0.766982
O O2 0.220048 0.715649 0.548303
O O3 0.095497 0.640208 0.591575
O O4 0.040452 0.606701 0.252624
O O5 0.876670 0.427354 0.045480
O O6 0.888831 0.789609 0.707021
O O7 0.000000 0.500000 0.000000
O O8 0.575775 0.391186 0.383996
O O9 0.694011 0.755326 0.342374
O O10 0.742540 0.436565 0.513764
O O11 0.572563 0.676332 0.994883
O O12 0.624372 0.171724 0.427966
O O13 0.500000 0.000000 0.500000
O O14 0.180730 0.134230 0.718814
O O15 0.004938 0.147258 0.550947
O O16 0.179398 0.941721 0.091021
O O17 0.794736 0.120426 0.244173
#
# Coordination Sequence:
#
# PCOD9093931 Si02
#       8
#     2   2   2   2   2   2   2   2
#     4  11  23  41  54  84 126 159 200 244 285 350
#     4  11  21  37  58  82 117 160 200 248 283 329
#     4   9  20  35  54  93 118 141 188 255 294 346
#     4   9  18  34  59  90 119 141 185 251 309 343
#     4  11  20  35  58  84 115 158 206 241 281 339
#     4  12  22  34  59  86 117 154 203 245 292 346
#     4  10  20  33  62  84 115 153 190 241 299 346
#     4  11  26  36  56  85 124 164 201 238 292 342
#
# _framework density 19.395291
#
# number of rings (size 3 to 8) (size 9 to 14) (size 15 to 20)
#    0.750    0.750    3.750    3.375    3.500    3.000 
#    0.000    0.000    0.000    0.750    0.000    2.625 
#    0.000    0.000    0.000    0.000    0.000    0.000 
#
# Total GULP energy -89124.684119 kJ/mol
# GULP energy per Si atom -5570.292757 kJ/mol
# Density = 1.935115 g / cm^3
# Si number density = 19.395291 Si / 1000 Ang^3
#
#
#
# Elastic Constant Matrix: (Units=GPa)
#
#
# Indices 1 2 3 4 5 6 
#
# 1 54.3634 34.2480 21.9150 -0.4023 -17.7029 15.3397
# 2 34.2480 114.1578 19.0131 -6.9120 -20.7719 25.9651
# 3 21.9150 19.0131 55.4128 -22.4173 -13.2076 1.5322
# 4 -0.4023 -6.9120 -22.4173 32.6060 4.3724 -12.7002
# 5 -17.7029 -20.7719 -13.2076 4.3724 23.5256 -3.1276
# 6 15.3397 25.9651 1.5322 -12.7002 -3.1276 37.9847
#
#
#
# Elastic Compliance Matrix: (Units=1/GPa)
#
#
# Indices 1 2 3 4 5 6 
#
# 1 0.038750 -0.002016 -0.019124 -0.023255 0.018337 -0.019765
# 2 -0.002016 0.013027 -0.003110 -0.003794 0.007802 -0.008591
# 3 -0.019124 -0.003110 0.040503 0.034449 0.001843 0.019885
# 4 -0.023255 -0.003794 0.034449 0.067120 -0.009698 0.032238
# 5 0.018337 0.007802 0.001843 -0.009698 0.064604 -0.010736
# 6 -0.019765 -0.008591 0.019885 0.032238 -0.010736 0.049273
#
#
# Mechanical properties :
#
#
# Convention : Reuss Voigt Hill
#
# Bulk Modulus (GPa) = 22.84202 41.58736 32.21469
# Shear Modulus (GPa) = 14.86459 28.74045 21.80252
#
# Velocity S-wave (km/s) = 2.77140 3.85363 3.35642
# Velocity P-wave (km/s) = 4.69506 6.42566 5.62728
#
# Compressibility (1/GPa) = 0.04377896
#
# Stress axis : x y z
#
# Youngs Moduli (GPa) = 25.80624 76.76652 24.68974
#
# Poissons Ratio (x) = 0.15478 0.47216
# Poissons Ratio (y) = 0.05203 0.07679
# Poissons Ratio (z) = 0.49352 0.23875
#
# Static dielectric constant tensor:
#      x y z
#    x 1.705530 0.053550 0.011810 
#    y 0.053550 1.757050 0.002390 
#    z 0.011810 0.002390 1.665950 
# 
# From -- ./inp_files/351633.got.cif
#   From: 2010.05.17/outbox.cif.g08.bks.cpg/sg2_176_cif.got.tgz:351633.got - 2010.06.03 11:33:40.
