data_PCOD9093051
_publ_section_title
;
Structure prediction by ZEFSAII (Michael W. Deem and Ramdas Pophale) SiO2 
 PCOD9093051
Probable space group: P -1
;
_chemical_formula_sum "Si O2"
_cell_formula_units_Z 16
_cell_length_a 13.242589
_cell_length_b 5.040560
_cell_length_c 13.810617
_cell_angle_alpha 106.069246
_cell_angle_beta 122.026916
_cell_angle_gamma 53.398068
_cell_volume 626.375235
_symmetry_space_group_name_H-M "P -1"
_symmetry_group_IT_number 2
_symmetry_cell_setting 'triclinic'
loop_
_space_group_symop_operation_xyz
x,y,z
-x,-y,-z
loop_
_atom_site_type_symbol
_atom_site_label
_atom_site_fract_x
_atom_site_fract_y
_atom_site_fract_z
Si Si1 0.538436 0.732606 0.596839
Si Si2 0.416995 0.306755 0.179830
Si Si3 0.709379 0.020979 0.230032
Si Si4 0.775705 0.867761 0.458220
Si Si5 0.142229 0.531757 0.975548
Si Si6 0.993605 0.841325 0.139192
Si Si7 0.809455 0.454662 0.602663
Si Si8 0.408227 0.392640 0.882629
O O1 0.500000 0.500000 0.500000
O O2 0.629861 0.562572 0.723236
O O3 0.650672 0.755498 0.590180
O O4 0.388679 0.024560 0.595887
O O5 0.555608 0.306252 0.227068
O O6 0.474915 0.919766 0.155893
O O7 0.290729 0.499030 0.060331
O O8 0.724989 0.273772 0.200435
O O9 0.801592 0.829542 0.352010
O O10 0.665525 0.793994 0.130370
O O11 0.857646 0.573992 0.547436
O O12 0.791120 0.164278 0.528242
O O13 0.135351 0.214008 0.926687
O O14 0.074444 0.663222 0.061719
O O15 0.053678 0.788369 0.871104
O O16 0.085175 0.680907 0.266191
O O17 0.500000 0.500000 0.000000
#
# Coordination Sequence:
#
# PCOD9093051 Si02
#       8
#     2   2   2   2   2   2   2   2
#     4   9  18  33  46  73 102 145 173 207 240 307
#     4   9  20  33  55  74 107 142 172 214 256 307
#     4   9  20  34  52  78 106 136 163 206 260 315
#     4  10  20  31  49  70 102 134 173 203 248 305
#     4  10  20  35  47  69  96 140 182 215 256 286
#     4  10  21  33  48  67  99 137 186 222 241 287
#     4  11  19  33  46  69 100 139 176 211 244 283
#     4  10  20  35  55  78 108 135 165 210 264 319
#
# _framework density 25.543793000000001
#
# number of rings (size 3 to 8) (size 9 to 14) (size 15 to 20)
#    0.750    1.500    1.250    2.250    1.750    0.000 
#    4.500    0.000    0.000    0.000    0.000    0.000 
#    0.000   20.000    0.000    0.000    0.000    0.000 
#
# Total GULP energy -89178.589690 kJ/mol
# GULP energy per Si atom -5573.661856 kJ/mol
# Density = 2.548565 g / cm^3
# Si number density = 25.543793 Si / 1000 Ang^3
#
#
#
# Elastic Constant Matrix: (Units=GPa)
#
#
# Indices 1 2 3 4 5 6 
#
# 1 37.2785 13.4022 8.9450 -7.2965 15.8664 3.5234
# 2 13.4022 92.9255 37.1744 -8.6418 -12.1557 30.7573
# 3 8.9450 37.1744 135.0143 -14.2281 -9.0459 5.3399
# 4 -7.2965 -8.6418 -14.2281 42.3954 8.3878 -7.6481
# 5 15.8664 -12.1557 -9.0459 8.3878 19.9859 -6.4499
# 6 3.5234 30.7573 5.3399 -7.6481 -6.4499 29.4380
#
#
#
# Elastic Compliance Matrix: (Units=1/GPa)
#
#
# Indices 1 2 3 4 5 6 
#
# 1 0.071848 -0.016758 -0.002910 0.023256 -0.078891 -0.001806
# 2 -0.016758 0.023027 -0.003746 -0.007246 0.022759 -0.018270
# 3 -0.002910 -0.003746 0.008950 0.001534 0.004755 0.004079
# 4 0.023256 -0.007246 0.001534 0.034569 -0.034789 0.005868
# 5 -0.078891 0.022759 0.004755 -0.034789 0.145744 0.007695
# 6 -0.001806 -0.018270 0.004079 0.005868 0.007695 0.055746
#
#
# Mechanical properties :
#
#
# Convention : Reuss Voigt Hill
#
# Bulk Modulus (GPa) = 17.54446 42.69572 30.12009
# Shear Modulus (GPa) = 12.32406 32.07697 22.20051
#
# Velocity S-wave (km/s) = 2.19890 3.54752 2.95128
# Velocity P-wave (km/s) = 3.65105 5.79058 4.84051
#
# Compressibility (1/GPa) = 0.05699804
#
# Stress axis : x y z
#
# Youngs Moduli (GPa) = 13.91826 43.42657 111.73443
#
# Poissons Ratio (x) = 0.72773 0.32510
# Poissons Ratio (y) = 0.23324 0.41859
# Poissons Ratio (z) = 0.04050 0.16269
#
# Static dielectric constant tensor:
#      x y z
#    x 2.247100 -0.080120 -0.112910 
#    y -0.080120 2.002880 -0.080960 
#    z -0.112910 -0.080960 2.100200 
# 
# From -- ./inp_files/539638.got.cif
#   From: 2010.05.17/outbox.cif.g08.bks.cpg/sg2_270_cif.got.tgz:539638.got - 2010.06.03 11:33:40.
