data_PCOD9093235
_publ_section_title
;
Structure prediction by ZEFSAII (Michael W. Deem and Ramdas Pophale) SiO2 
 PCOD9093235
Probable space group: P -1
;
_chemical_formula_sum "Si O2"
_cell_formula_units_Z 14
_cell_length_a 5.192162
_cell_length_b 11.088616
_cell_length_c 12.673964
_cell_angle_alpha 87.410472
_cell_angle_beta 88.484444
_cell_angle_gamma 62.772870
_cell_volume 648.163432
_symmetry_space_group_name_H-M "P -1"
_symmetry_group_IT_number 2
_symmetry_cell_setting 'triclinic'
loop_
_space_group_symop_operation_xyz
x,y,z
-x,-y,-z
loop_
_atom_site_type_symbol
_atom_site_label
_atom_site_fract_x
_atom_site_fract_y
_atom_site_fract_z
Si Si1 0.760282 0.051521 0.373660
Si Si2 0.852460 0.364769 0.086801
Si Si3 0.290842 0.828384 0.035480
Si Si4 0.432881 0.871163 0.412463
Si Si5 0.282227 0.989800 0.853199
Si Si6 0.768123 0.513380 0.857120
Si Si7 0.687233 0.733591 0.212198
O O1 0.657677 0.935132 0.403345
O O2 0.673322 0.090592 0.252678
O O3 0.108358 0.984511 0.380534
O O4 0.609163 0.159182 0.464361
O O5 0.868596 0.229373 0.039715
O O6 0.571280 0.421477 0.162766
O O7 0.111334 0.376076 0.142942
O O8 0.798908 0.454490 0.977852
O O9 0.437186 0.893779 0.953727
O O10 0.513098 0.714516 0.115835
O O11 0.053533 0.938882 0.109398
O O12 0.538378 0.755519 0.326741
O O13 0.334135 0.119435 0.823124
O O14 0.989145 0.386567 0.790575
#
# Coordination Sequence:
#
# PCOD9093235 Si02
#       7
#     2   2   2   2   2   2   2
#     4   9  17  34  45  70  94 131 159 198 235 297
#     4  10  20  34  46  70  94 137 161 202 233 293
#     4  11  20  32  46  70 105 136 163 191 238 302
#     4   9  18  29  52  67  97 122 162 201 249 275
#     4  10  21  31  47  71 103 137 159 194 240 301
#     4  10  20  32  52  66  98 125 169 203 247 271
#     4  11  19  32  49  76  99 131 159 213 240 298
#
# _framework density 21.599492000000001
#
# number of rings (size 3 to 8) (size 9 to 14) (size 15 to 20)
#    0.000    2.000    2.857    3.000    0.000    0.000 
#    0.000    0.000    0.000    0.000    0.000    2.000 
#    0.000    0.000    0.000    4.571    0.000    0.000 
#
# Total GULP energy -78077.149537 kJ/mol
# GULP energy per Si atom -5576.939253 kJ/mol
# Density = 2.155033 g / cm^3
# Si number density = 21.599492 Si / 1000 Ang^3
#
#
#
# Elastic Constant Matrix: (Units=GPa)
#
#
# Indices 1 2 3 4 5 6 
#
# 1 93.2685 28.4692 13.7250 8.6046 -14.3569 3.8705
# 2 28.4692 60.9135 34.0850 23.0876 -6.8376 4.3737
# 3 13.7250 34.0850 146.7317 35.3428 -18.1415 -11.0043
# 4 8.6046 23.0876 35.3428 22.2970 -9.2040 -8.4005
# 5 -14.3569 -6.8376 -18.1415 -9.2040 24.8623 12.0353
# 6 3.8705 4.3737 -11.0043 -8.4005 12.0353 31.1404
#
#
#
# Elastic Compliance Matrix: (Units=1/GPa)
#
#
# Indices 1 2 3 4 5 6 
#
# 1 0.014014 -0.006935 0.000246 0.004058 0.009431 -0.003231
# 2 -0.006935 0.036073 0.001298 -0.043059 -0.002019 -0.014581
# 3 0.000246 0.001298 0.011235 -0.018998 0.002861 -0.002474
# 4 0.004058 -0.043059 -0.018998 0.134270 0.011536 0.030592
# 5 0.009431 -0.002019 0.002861 0.011536 0.061391 -0.020492
# 6 -0.003231 -0.014581 -0.002474 0.030592 -0.020492 0.049861
#
#
# Mechanical properties :
#
#
# Convention : Reuss Voigt Hill
#
# Bulk Modulus (GPa) = 19.78660 50.38579 35.08620
# Shear Modulus (GPa) = 14.94902 30.63560 22.79231
#
# Velocity S-wave (km/s) = 2.63363 3.77018 3.25195
# Velocity P-wave (km/s) = 4.29286 6.50617 5.51176
#
# Compressibility (1/GPa) = 0.05053924
#
# Stress axis : x y z
#
# Youngs Moduli (GPa) = 71.35857 27.72193 89.00848
#
# Poissons Ratio (x) = 0.19225 -0.02193
# Poissons Ratio (y) = 0.49487 -0.11549
# Poissons Ratio (z) = -0.01759 -0.03597
#
# Static dielectric constant tensor:
#      x y z
#    x 1.882720 0.029590 0.026640 
#    y 0.029590 1.846900 0.026830 
#    z 0.026640 0.026830 1.811360 
# 
# From -- ./inp_files/92727.got.cif
#   From: 2010.05.17/outbox.cif.g08.bks.cpg/sg2_47_cif.got.tgz:92727.got - 2010.06.03 11:33:40.
