data_PCOD9093396
_publ_section_title
;
Structure prediction by ZEFSAII (Michael W. Deem and Ramdas Pophale) SiO2 
 PCOD9093396
Probable space group: P -1
;
_chemical_formula_sum "Si O2"
_cell_formula_units_Z 16
_cell_length_a 18.129402
_cell_length_b 12.906411
_cell_length_c 9.182674
_cell_angle_alpha 124.166336
_cell_angle_beta 92.356141
_cell_angle_gamma 135.966551
_cell_volume 783.153623
_symmetry_space_group_name_H-M "P -1"
_symmetry_group_IT_number 2
_symmetry_cell_setting 'triclinic'
loop_
_space_group_symop_operation_xyz
x,y,z
-x,-y,-z
loop_
_atom_site_type_symbol
_atom_site_label
_atom_site_fract_x
_atom_site_fract_y
_atom_site_fract_z
Si Si1 0.586632 0.902247 0.688655
Si Si2 0.516225 0.796546 0.930469
Si Si3 0.585728 0.266059 0.717058
Si Si4 0.910480 0.255329 0.893069
Si Si5 0.883844 0.337820 0.505026
Si Si6 0.743627 0.414818 0.121126
Si Si7 0.572759 0.479354 0.033065
Si Si8 0.896696 0.088666 0.470679
O O1 0.719073 0.002527 0.716834
O O2 0.425445 0.694873 0.414208
O O3 0.694710 0.195109 0.931900
O O4 0.531827 0.789621 0.757779
O O5 0.438695 0.563148 0.830980
O O6 0.703176 0.107628 0.251575
O O7 0.391999 0.722066 0.898081
O O8 0.483709 0.221362 0.755664
O O9 0.500000 0.000000 0.500000
O O10 0.733620 0.464159 0.999442
O O11 0.913009 0.147073 0.690945
O O12 0.000000 0.500000 0.000000
O O13 0.021201 0.426899 0.185720
O O14 0.860358 0.164844 0.444007
O O15 0.000000 0.500000 0.500000
O O16 0.932684 0.705390 0.416858
O O17 0.500000 0.500000 0.000000
O O18 0.753807 0.767087 0.201758
#
# Coordination Sequence:
#
# PCOD9093396 Si02
#       8
#     2   2   2   2   2   2   2   2
#     4  11  19  38  58  91 123 158 210 268 309 371
#     4  11  23  36  60  90 126 165 205 256 324 374
#     4   9  22  37  62  87 122 163 215 257 307 374
#     4  10  20  32  60  84 119 158 202 256 309 358
#     4  11  20  37  59  90 124 160 205 262 316 373
#     4  10  21  37  61  89 118 164 210 256 315 374
#     4  11  22  40  63  92 127 170 210 262 316 383
#     4  11  22  39  62  87 126 163 213 256 312 380
#
# _framework density 20.430219000000001
#
# number of rings (size 3 to 8) (size 9 to 14) (size 15 to 20)
#    0.000    1.500    5.000    1.125    5.250    3.000 
#    0.000    3.750    0.000    1.500    0.000    0.000 
#    0.000    0.000    0.000    0.000    0.000    0.000 
#
# Total GULP energy -89101.673115 kJ/mol
# GULP energy per Si atom -5568.854570 kJ/mol
# Density = 2.038372 g / cm^3
# Si number density = 20.430219 Si / 1000 Ang^3
#
#
#
# Elastic Constant Matrix: (Units=GPa)
#
#
# Indices 1 2 3 4 5 6 
#
# 1 100.5093 27.9249 12.2691 5.3774 5.1681 13.6666
# 2 27.9249 103.6457 26.8044 -17.1506 2.6429 5.8263
# 3 12.2691 26.8044 26.1990 -11.1051 1.9299 10.2855
# 4 5.3774 -17.1506 -11.1051 35.5733 0.9525 4.2719
# 5 5.1681 2.6429 1.9299 0.9525 29.8433 8.2762
# 6 13.6666 5.8263 10.2855 4.2719 8.2762 34.9879
#
#
#
# Elastic Compliance Matrix: (Units=1/GPa)
#
#
# Indices 1 2 3 4 5 6 
#
# 1 0.011699 -0.002796 -0.003172 -0.003782 -0.000750 -0.002532
# 2 -0.002796 0.014056 -0.012637 0.003001 -0.000665 0.002257
# 3 -0.003172 -0.012637 0.067434 0.017680 0.002047 -0.019123
# 4 -0.003782 0.003001 0.017680 0.036695 0.000522 -0.008824
# 5 -0.000750 -0.000665 0.002047 0.000522 0.035981 -0.008773
# 6 -0.002532 0.002257 -0.019123 -0.008824 -0.008773 0.037969
#
#
# Mechanical properties :
#
#
# Convention : Reuss Voigt Hill
#
# Bulk Modulus (GPa) = 17.86332 40.48344 29.17338
# Shear Modulus (GPa) = 19.25276 30.97126 25.11201
#
# Velocity S-wave (km/s) = 3.07313 3.89775 3.50974
# Velocity P-wave (km/s) = 4.62112 6.33365 5.54391
#
# Compressibility (1/GPa) = 0.05598064
#
# Stress axis : x y z
#
# Youngs Moduli (GPa) = 85.48029 71.14217 14.82921
#
# Poissons Ratio (x) = 0.19892 0.04703
# Poissons Ratio (y) = 0.23901 0.18739
# Poissons Ratio (z) = 0.27111 0.89900
#
# Static dielectric constant tensor:
#      x y z
#    x 1.726580 -0.016570 0.034330 
#    y -0.016570 1.728890 -0.008730 
#    z 0.034330 -0.008730 1.856330 
# 
# From -- ./inp_files/332337.got.cif
#   From: 2010.05.17/outbox.cif.g08.bks.cpg/sg2_167_cif.got.tgz:332337.got - 2010.06.03 11:33:40.
