data_PCOD9093601
_publ_section_title
;
Structure prediction by ZEFSAII (Michael W. Deem and Ramdas Pophale) SiO2 
 PCOD9093601
Probable space group: P -1
;
_chemical_formula_sum "Si O2"
_cell_formula_units_Z 16
_cell_length_a 12.531142
_cell_length_b 24.092353
_cell_length_c 13.380816
_cell_angle_alpha 155.119245
_cell_angle_beta 140.642720
_cell_angle_gamma 26.557321
_cell_volume 744.013330
_symmetry_space_group_name_H-M "P -1"
_symmetry_group_IT_number 2
_symmetry_cell_setting 'triclinic'
loop_
_space_group_symop_operation_xyz
x,y,z
-x,-y,-z
loop_
_atom_site_type_symbol
_atom_site_label
_atom_site_fract_x
_atom_site_fract_y
_atom_site_fract_z
Si Si1 0.417692 0.886622 0.858886
Si Si2 0.347867 0.226305 0.374397
Si Si3 0.445627 0.579595 0.920309
Si Si4 0.840583 0.419434 0.113088
Si Si5 0.064480 0.023554 0.329941
Si Si6 0.392451 0.451520 0.465543
Si Si7 0.111761 0.803133 0.713155
Si Si8 0.854668 0.958066 0.370254
O O1 0.544295 0.816162 0.727489
O O2 0.614249 0.700443 0.766141
O O3 0.174002 0.935062 0.765915
O O4 0.327742 0.082901 0.143281
O O5 0.135223 0.444069 0.610287
O O6 0.573017 0.151312 0.480711
O O7 0.290328 0.580913 0.889569
O O8 0.467862 0.482230 0.674669
O O9 0.681469 0.484469 0.003043
O O10 0.293106 0.794897 0.128509
O O11 0.089027 0.199466 0.914481
O O12 0.068289 0.108339 0.569852
O O13 0.048899 0.120891 0.378871
O O14 0.156409 0.659621 0.589418
O O15 0.616255 0.330907 0.352238
O O16 0.000000 0.000000 0.000000
O O17 0.000000 0.000000 0.500000
#
# Coordination Sequence:
#
# PCOD9093601 Si02
#       8
#     2   2   2   2   2   2   2   2
#     4  10  21  36  52  77 118 148 177 223 268 327
#     4  11  21  36  51  80 115 151 181 212 268 335
#     4  11  18  31  55  82 110 140 178 228 270 319
#     4  11  20  31  52  81 110 147 181 212 269 328
#     4  11  20  35  57  82 111 142 183 232 275 313
#     4  10  20  35  52  80 110 143 180 227 279 314
#     4  10  20  33  54  81 107 136 184 234 276 315
#     4  12  20  35  56  82 111 146 184 224 268 323
#
# _framework density 21.504991
#
# number of rings (size 3 to 8) (size 9 to 14) (size 15 to 20)
#    0.000    1.250    6.250    2.250    0.000    0.000 
#    2.250    1.875    0.000    0.750    0.000   22.750 
#    0.000    0.000    0.000    0.000    0.000    0.000 
#
# Total GULP energy -89278.479523 kJ/mol
# GULP energy per Si atom -5579.904970 kJ/mol
# Density = 2.145604 g / cm^3
# Si number density = 21.504991 Si / 1000 Ang^3
#
#
#
# Elastic Constant Matrix: (Units=GPa)
#
#
# Indices 1 2 3 4 5 6 
#
# 1 36.8547 17.6555 17.1123 1.1799 -8.5636 20.4527
# 2 17.6555 81.5984 5.1463 11.5312 2.0589 29.4340
# 3 17.1123 5.1463 126.9884 22.9494 -16.2252 15.3213
# 4 1.1799 11.5312 22.9494 38.2452 4.1945 1.9209
# 5 -8.5636 2.0589 -16.2252 4.1945 34.6648 7.3387
# 6 20.4527 29.4340 15.3213 1.9209 7.3387 39.7293
#
#
#
# Elastic Compliance Matrix: (Units=1/GPa)
#
#
# Indices 1 2 3 4 5 6 
#
# 1 0.046183 -0.000835 -0.000680 -0.001304 0.016788 -0.025932
# 2 -0.000835 0.018477 0.002933 -0.007006 0.004050 -0.014800
# 3 -0.000680 0.002933 0.011067 -0.007950 0.007293 -0.007053
# 4 -0.001304 -0.007006 -0.007950 0.033669 -0.009623 0.009077
# 5 0.016788 0.004050 0.007293 -0.009623 0.041934 -0.021736
# 6 -0.025932 -0.014800 -0.007053 0.009077 -0.021736 0.055781
#
#
# Mechanical properties :
#
#
# Convention : Reuss Voigt Hill
#
# Bulk Modulus (GPa) = 12.72867 36.14111 24.43489
# Shear Modulus (GPa) = 21.69534 36.22970 28.96252
#
# Velocity S-wave (km/s) = 3.17969 4.10898 3.67383
# Velocity P-wave (km/s) = 4.40594 6.27328 5.42062
#
# Compressibility (1/GPa) = 0.07856280
#
# Stress axis : x y z
#
# Youngs Moduli (GPa) = 21.65285 54.12076 90.35848
#
# Poissons Ratio (x) = 0.04519 0.06147
# Poissons Ratio (y) = 0.01808 -0.26501
# Poissons Ratio (z) = 0.01473 -0.15873
#
# Static dielectric constant tensor:
#      x y z
#    x 1.797310 0.027080 0.002360 
#    y 0.027080 1.876180 0.031780 
#    z 0.002360 0.031780 1.826020 
# 
# From -- ./inp_files/535578.got.cif
#   From: 2010.05.17/outbox.cif.g08.bks.cpg/sg2_268_cif.got.tgz:535578.got - 2010.06.03 11:33:40.
