data_PCOD9093404
_publ_section_title
;
Structure prediction by ZEFSAII (Michael W. Deem and Ramdas Pophale) SiO2 
 PCOD9093404
Probable space group: P -1
;
_chemical_formula_sum "Si O2"
_cell_formula_units_Z 16
_cell_length_a 8.607882
_cell_length_b 18.700958
_cell_length_c 11.549934
_cell_angle_alpha 45.426869
_cell_angle_beta 125.095103
_cell_angle_gamma 150.868047
_cell_volume 640.869292
_symmetry_space_group_name_H-M "P -1"
_symmetry_group_IT_number 2
_symmetry_cell_setting 'triclinic'
loop_
_space_group_symop_operation_xyz
x,y,z
-x,-y,-z
loop_
_atom_site_type_symbol
_atom_site_label
_atom_site_fract_x
_atom_site_fract_y
_atom_site_fract_z
Si Si1 0.687146 0.186647 0.858341
Si Si2 0.235752 0.290432 0.991206
Si Si3 0.160059 0.533676 0.221310
Si Si4 0.940168 0.960837 0.238281
Si Si5 0.986161 0.638663 0.879692
Si Si6 0.779965 0.275829 0.530363
Si Si7 0.875923 0.779773 0.247554
Si Si8 0.252042 0.946767 0.546301
O O1 0.410371 0.146522 0.820394
O O2 0.762852 0.260643 0.677799
O O3 0.024773 0.295365 0.936181
O O4 0.500000 0.000000 0.000000
O O5 0.611842 0.472167 0.943312
O O6 0.118589 0.223434 0.884372
O O7 0.145190 0.141956 0.168911
O O8 0.995407 0.397861 0.202399
O O9 0.502375 0.631942 0.283328
O O10 0.947488 0.440064 0.352178
O O11 0.181931 0.649898 0.035549
O O12 0.062026 0.953774 0.184153
O O13 0.965519 0.881321 0.431417
O O14 0.121963 0.807150 0.735478
O O15 0.985948 0.264996 0.595783
O O16 0.438925 0.108609 0.517609
O O17 0.500000 0.000000 0.500000
#
# Coordination Sequence:
#
# PCOD9093404 Si02
#       8
#     2   2   2   2   2   2   2   2
#     4   9  22  41  62  87 119 158 201 244 294 355
#     4   9  20  38  62  86 118 158 196 243 299 354
#     4  10  20  34  58  88 124 155 195 241 302 355
#     4  11  21  38  61  87 118 158 199 244 295 349
#     4  10  21  36  56  91 123 154 192 248 300 348
#     4  11  21  39  61  87 119 159 200 244 297 352
#     4  10  20  32  60  91 118 145 202 251 297 342
#     4  12  23  36  60  90 123 150 198 249 293 349
#
# _framework density 24.966090000000001
#
# number of rings (size 3 to 8) (size 9 to 14) (size 15 to 20)
#    0.000    1.750    2.500    1.500    3.500    5.500 
#    0.000    2.500    0.000    4.500    0.000    0.000 
#    0.000    0.000    0.000    0.000    0.000    0.000 
#
# Total GULP energy -89434.025431 kJ/mol
# GULP energy per Si atom -5589.626589 kJ/mol
# Density = 2.490927 g / cm^3
# Si number density = 24.966090 Si / 1000 Ang^3
#
#
#
# Elastic Constant Matrix: (Units=GPa)
#
#
# Indices 1 2 3 4 5 6 
#
# 1 69.0699 21.4280 12.9667 -4.5629 12.3441 1.9874
# 2 21.4280 79.4667 33.7741 10.9489 -1.0872 17.5619
# 3 12.9667 33.7741 130.3224 1.1405 6.0833 6.3924
# 4 -4.5629 10.9489 1.1405 37.1957 12.8035 0.0596
# 5 12.3441 -1.0872 6.0833 12.8035 33.4674 2.4280
# 6 1.9874 17.5619 6.3924 0.0596 2.4280 27.4400
#
#
#
# Elastic Compliance Matrix: (Units=1/GPa)
#
#
# Indices 1 2 3 4 5 6 
#
# 1 0.019109 -0.007499 0.000264 0.008258 -0.010810 0.004293
# 2 -0.007499 0.020693 -0.004335 -0.009932 0.008930 -0.012459
# 3 0.000264 -0.004335 0.008832 0.001951 -0.002657 0.000929
# 4 0.008258 -0.009932 0.001951 0.037087 -0.018408 0.006852
# 5 -0.010810 0.008930 -0.002657 -0.018408 0.042264 -0.008013
# 6 0.004293 -0.012459 0.000929 0.006852 -0.008013 0.044584
#
#
# Mechanical properties :
#
#
# Convention : Reuss Voigt Hill
#
# Bulk Modulus (GPa) = 39.22727 46.13296 42.68012
# Shear Modulus (GPa) = 24.48495 33.66664 29.07579
#
# Velocity S-wave (km/s) = 3.13506 3.67617 3.41634
# Velocity P-wave (km/s) = 5.37132 6.04461 5.71788
#
# Compressibility (1/GPa) = 0.02549247
#
# Stress axis : x y z
#
# Youngs Moduli (GPa) = 52.33104 48.32652 113.22539
#
# Poissons Ratio (x) = 0.36241 -0.02989
# Poissons Ratio (y) = 0.39245 0.49087
# Poissons Ratio (z) = -0.01382 0.20951
#
# Static dielectric constant tensor:
#      x y z
#    x 2.099130 -0.052450 0.003630 
#    y -0.052450 1.972870 -0.028200 
#    z 0.003630 -0.028200 1.966710 
# 
# From -- ./inp_files/405439.got.cif
#   From: 2010.05.17/outbox.cif.g08.bks.cpg/sg2_203_cif.got.tgz:405439.got - 2010.06.03 11:33:40.
