data_PCOD9093593
_publ_section_title
;
Structure prediction by ZEFSAII (Michael W. Deem and Ramdas Pophale) SiO2 
 PCOD9093593
Probable space group: P -1
;
_chemical_formula_sum "Si O2"
_cell_formula_units_Z 16
_cell_length_a 10.462238
_cell_length_b 14.604992
_cell_length_c 14.246116
_cell_angle_alpha 102.121263
_cell_angle_beta 126.343770
_cell_angle_gamma 124.958371
_cell_volume 796.213151
_symmetry_space_group_name_H-M "P -1"
_symmetry_group_IT_number 2
_symmetry_cell_setting 'triclinic'
loop_
_space_group_symop_operation_xyz
x,y,z
-x,-y,-z
loop_
_atom_site_type_symbol
_atom_site_label
_atom_site_fract_x
_atom_site_fract_y
_atom_site_fract_z
Si Si1 0.787699 0.273805 0.704576
Si Si2 0.775639 0.367440 0.163806
Si Si3 0.368894 0.229661 0.113832
Si Si4 0.534109 0.297916 0.721924
Si Si5 0.233335 0.459025 0.294314
Si Si6 0.761880 0.839450 0.238918
Si Si7 0.987252 0.169417 0.791826
Si Si8 0.778169 0.767113 0.756453
O O1 0.722700 0.300660 0.775698
O O2 0.965918 0.269642 0.806822
O O3 0.997024 0.440247 0.754165
O O4 0.411333 0.065339 0.448831
O O5 0.707359 0.370969 0.238282
O O6 0.937603 0.353183 0.204716
O O7 0.404220 0.180378 0.914643
O O8 0.431102 0.300425 0.260645
O O9 0.169059 0.208038 0.964213
O O10 0.113611 0.007004 0.955001
O O11 0.704917 0.463087 0.763785
O O12 0.492012 0.295518 0.812573
O O13 0.135182 0.074017 0.473848
O O14 0.568878 0.660128 0.545278
O O15 0.165830 0.314109 0.222438
O O16 0.815755 0.766233 0.200318
#
# Coordination Sequence:
#
# PCOD9093593 Si02
#       8
#     2   2   2   2   2   2   2   2
#     4   9  18  31  51  78 106 137 167 204 260 321
#     4  10  20  33  54  80 106 131 170 222 266 310
#     4  10  21  37  56  77 105 139 178 222 262 304
#     4   9  18  34  52  73 108 140 167 206 258 315
#     4  10  21  37  56  77 105 139 178 222 262 304
#     4   9  18  31  51  78 106 137 167 204 260 321
#     4   9  18  34  52  73 108 140 167 206 258 315
#     4  10  22  39  56  74 100 143 186 218 262 308
#
# _framework density 20.095122
#
# number of rings (size 3 to 8) (size 9 to 14) (size 15 to 20)
#    0.000    2.500    0.000    3.000    0.000    8.000 
#    0.000    0.000    0.000    3.000    0.000    0.000 
#    0.000    0.000    0.000    0.000    0.000    0.000 
#
# Total GULP energy -89220.367213 kJ/mol
# GULP energy per Si atom -5576.272951 kJ/mol
# Density = 2.004938 g / cm^3
# Si number density = 20.095122 Si / 1000 Ang^3
#
#
#
# Elastic Constant Matrix: (Units=GPa)
#
#
# Indices 1 2 3 4 5 6 
#
# 1 121.9618 45.6411 8.8651 19.3719 4.1684 9.2058
# 2 45.6411 49.3740 -3.3505 4.1557 -5.1138 9.2132
# 3 8.8651 -3.3505 28.5997 11.2633 -0.8732 -3.4229
# 4 19.3719 4.1557 11.2633 16.8604 4.8793 0.2129
# 5 4.1684 -5.1138 -0.8732 4.8793 29.0124 1.9648
# 6 9.2058 9.2132 -3.4229 0.2129 1.9648 40.4073
#
#
#
# Elastic Compliance Matrix: (Units=1/GPa)
#
#
# Indices 1 2 3 4 5 6 
#
# 1 0.015528 -0.013567 -0.001495 -0.012772 -0.002493 -0.000382
# 2 -0.013567 0.035297 0.008610 -0.001404 0.008981 -0.004657
# 3 -0.001495 0.008610 0.051951 -0.037890 0.009498 0.002516
# 4 -0.012772 -0.001404 -0.037890 0.104607 -0.017166 0.000304
# 5 -0.002493 0.008981 0.009498 -0.017166 0.039753 -0.002518
# 6 -0.000382 -0.004657 0.002516 0.000304 -0.002518 0.026231
#
#
# Mechanical properties :
#
#
# Convention : Reuss Voigt Hill
#
# Bulk Modulus (GPa) = 11.12693 33.58298 22.35495
# Shear Modulus (GPa) = 15.81150 27.17466 21.49308
#
# Velocity S-wave (km/s) = 2.80810 3.68135 3.27397
# Velocity P-wave (km/s) = 4.00787 5.90069 5.04386
#
# Compressibility (1/GPa) = 0.08987204
#
# Stress axis : x y z
#
# Youngs Moduli (GPa) = 64.40054 28.33131 19.24907
#
# Poissons Ratio (x) = 0.38438 0.02877
# Poissons Ratio (y) = 0.87373 -0.16574
# Poissons Ratio (z) = 0.09625 -0.24394
#
# Static dielectric constant tensor:
#      x y z
#    x 1.731950 0.017280 -0.003840 
#    y 0.017280 1.695300 -0.010460 
#    z -0.003840 -0.010460 1.752820 
# 
# From -- ./inp_files/495040.got.cif
#   From: 2010.05.17/outbox.cif.g08.bks.cpg/sg2_248_cif.got.tgz:495040.got - 2010.06.03 11:33:40.
