data_PCOD9093128
_publ_section_title
;
Structure prediction by ZEFSAII (Michael W. Deem and Ramdas Pophale) SiO2 
 PCOD9093128
Probable space group: P -1
;
_chemical_formula_sum "Si O2"
_cell_formula_units_Z 14
_cell_length_a 12.284326
_cell_length_b 9.808908
_cell_length_c 7.044508
_cell_angle_alpha 114.677532
_cell_angle_beta 60.755316
_cell_angle_gamma 135.188295
_cell_volume 518.505824
_symmetry_space_group_name_H-M "P -1"
_symmetry_group_IT_number 2
_symmetry_cell_setting 'triclinic'
loop_
_space_group_symop_operation_xyz
x,y,z
-x,-y,-z
loop_
_atom_site_type_symbol
_atom_site_label
_atom_site_fract_x
_atom_site_fract_y
_atom_site_fract_z
Si Si1 0.587874 0.978159 0.156635
Si Si2 0.187901 0.379484 0.363452
Si Si3 0.916389 0.958648 0.345505
Si Si4 0.797319 0.563861 0.032911
Si Si5 0.890900 0.381570 0.243754
Si Si6 0.306727 0.947478 0.479707
Si Si7 0.456538 0.373644 0.159011
O O1 0.618836 0.844883 0.954323
O O2 0.740405 0.206521 0.144542
O O3 0.421370 0.939698 0.239445
O O4 0.751712 0.498554 0.810890
O O5 0.058046 0.168025 0.256524
O O6 0.118227 0.449984 0.604873
O O7 0.321329 0.382398 0.357523
O O8 0.000000 0.000000 0.500000
O O9 0.880515 0.780447 0.161874
O O10 0.764407 0.953800 0.480476
O O11 0.582988 0.930442 0.358761
O O12 0.612938 0.449598 0.192995
O O13 0.937685 0.548038 0.932268
O O14 0.839125 0.260174 0.418966
O O15 0.500000 0.500000 0.000000
#
# Coordination Sequence:
#
# PCOD9093128 Si02
#       7
#     2   2   2   2   2   2   2
#     4   9  18  33  60  95 120 151 196 265 308 344
#     4  11  21  38  65  93 122 155 207 258 305 359
#     4  12  26  41  59  85 130 174 201 243 306 374
#     4  11  22  36  62  93 120 155 210 256 303 350
#     4  10  20  34  65  97 118 150 200 264 308 345
#     4   9  18  33  62  89 125 147 206 247 312 348
#     4  10  20  31  59  95 125 146 193 257 315 352
#
# _framework density 27.000664
#
# number of rings (size 3 to 8) (size 9 to 14) (size 15 to 20)
#    0.857    0.857    1.429    5.143    4.000    0.000 
#    0.000    1.429    0.000    1.714    0.000    0.000 
#    0.000    0.000    0.000    0.000    0.000    0.000 
#
# Total GULP energy -78235.156974 kJ/mol
# GULP energy per Si atom -5588.225498 kJ/mol
# Density = 2.693921 g / cm^3
# Si number density = 27.000664 Si / 1000 Ang^3
#
#
#
# Elastic Constant Matrix: (Units=GPa)
#
#
# Indices 1 2 3 4 5 6 
#
# 1 144.7542 29.6590 97.1958 3.1165 -53.5660 15.5855
# 2 29.6590 115.7377 66.9958 23.6892 -23.2502 13.6978
# 3 97.1958 66.9958 190.6922 25.9130 -47.6590 9.8048
# 4 3.1165 23.6892 25.9130 44.9401 1.1246 -6.0140
# 5 -53.5660 -23.2502 -47.6590 1.1246 69.4736 -9.4362
# 6 15.5855 13.6978 9.8048 -6.0140 -9.4362 38.4946
#
#
#
# Elastic Compliance Matrix: (Units=1/GPa)
#
#
# Indices 1 2 3 4 5 6 
#
# 1 0.012873 0.001169 -0.005441 0.001133 0.006221 -0.002540
# 2 0.001169 0.012357 -0.003468 -0.005221 0.002162 -0.004273
# 3 -0.005441 -0.003468 0.010120 -0.003576 0.001744 0.000728
# 4 0.001133 -0.005221 -0.003576 0.027856 -0.002972 0.005934
# 5 0.006221 0.002162 0.001744 -0.002972 0.021297 0.001024
# 6 -0.002540 -0.004273 0.000728 0.005934 0.001024 0.029519
#
#
# Mechanical properties :
#
#
# Convention : Reuss Voigt Hill
#
# Bulk Modulus (GPa) = 50.32431 93.20948 71.76689
# Shear Modulus (GPa) = 36.73125 47.73722 42.23424
#
# Velocity S-wave (km/s) = 3.69234 4.20932 3.95928
# Velocity P-wave (km/s) = 6.07095 7.63025 6.89482
#
# Compressibility (1/GPa) = 0.01987111
#
# Stress axis : x y z
#
# Youngs Moduli (GPa) = 77.68146 80.92887 98.81724
#
# Poissons Ratio (x) = -0.09461 0.53763
# Poissons Ratio (y) = -0.09082 0.34265
# Poissons Ratio (z) = 0.42263 0.28063
#
# Static dielectric constant tensor:
#      x y z
#    x 2.214560 -0.113290 0.065450 
#    y -0.113290 2.227590 -0.142620 
#    z 0.065450 -0.142620 2.097540 
# 
# From -- ./inp_files/453273.got.cif
#   From: 2010.05.17/outbox.cif.g08.bks.cpg/sg2_227_cif.got.tgz:453273.got - 2010.06.03 11:33:40.
