data_PCOD9093977
_publ_section_title
;
Structure prediction by ZEFSAII (Michael W. Deem and Ramdas Pophale) SiO2 
 PCOD9093977
Probable space group: P -1
;
_chemical_formula_sum "Si O2"
_cell_formula_units_Z 16
_cell_length_a 14.444412
_cell_length_b 13.278739
_cell_length_c 14.271560
_cell_angle_alpha 109.299305
_cell_angle_beta 19.865656
_cell_angle_gamma 108.592935
_cell_volume 877.644565
_symmetry_space_group_name_H-M "P -1"
_symmetry_group_IT_number 2
_symmetry_cell_setting 'triclinic'
loop_
_space_group_symop_operation_xyz
x,y,z
-x,-y,-z
loop_
_atom_site_type_symbol
_atom_site_label
_atom_site_fract_x
_atom_site_fract_y
_atom_site_fract_z
Si Si1 0.533930 0.945470 0.294829
Si Si2 0.862294 0.810208 0.417990
Si Si3 0.785283 0.097853 0.229448
Si Si4 0.011947 0.048413 0.280175
Si Si5 0.676746 0.315622 0.141282
Si Si6 0.513539 0.461482 0.582875
Si Si7 0.016678 0.674826 0.947290
Si Si8 0.245282 0.076867 0.259569
O O1 0.408952 0.893565 0.492288
O O2 0.300843 0.927182 0.433930
O O3 0.591037 0.065632 0.316578
O O4 0.815288 0.922302 0.967909
O O5 0.593327 0.758824 0.609570
O O6 0.758119 0.833792 0.629824
O O7 0.982726 0.920689 0.290943
O O8 0.114788 0.732213 0.146482
O O9 0.942959 0.207567 0.095139
O O10 0.000000 0.000000 0.000000
O O11 0.166298 0.104611 0.237273
O O12 0.569763 0.432127 0.251465
O O13 0.856890 0.323731 0.067534
O O14 0.500000 0.500000 0.500000
O O15 0.805664 0.411471 0.304238
O O16 0.290723 0.367105 0.774903
O O17 0.000000 0.000000 0.500000
O O18 0.500000 0.000000 0.000000
#
# Coordination Sequence:
#
# PCOD9093977 Si02
#       8
#     2   2   2   2   2   2   2   2
#     4  11  23  34  52  73 107 140 181 221 248 300
#     4  11  20  31  52  76 105 139 174 216 261 310
#     4  11  24  38  53  78 113 138 187 227 254 308
#     4  11  20  35  51  74 105 148 179 205 264 321
#     4  11  20  33  53  77 105 136 186 214 255 323
#     4  10  21  36  51  75 103 137 181 222 256 317
#     4  11  22  35  55  71 107 149 172 213 277 296
#     4  10  20  34  49  74 108 140 178 217 258 323
#
# _framework density 18.230613999999999
#
# number of rings (size 3 to 8) (size 9 to 14) (size 15 to 20)
#    0.000    1.250    1.250    9.000    3.500    0.000 
#    0.000    0.000    0.000    0.000    0.000    0.000 
#    0.000   20.000    0.000    0.000    0.000    0.000 
#
# Total GULP energy -89179.320234 kJ/mol
# GULP energy per Si atom -5573.707515 kJ/mol
# Density = 1.818912 g / cm^3
# Si number density = 18.230614 Si / 1000 Ang^3
#
#
#
# Elastic Constant Matrix: (Units=GPa)
#
#
# Indices 1 2 3 4 5 6 
#
# 1 39.6309 1.6977 13.4239 3.3726 0.3631 5.3735
# 2 1.6977 56.8035 12.1492 0.8539 13.1407 -3.1640
# 3 13.4239 12.1492 104.1101 0.7276 5.9411 3.9366
# 4 3.3726 0.8539 0.7276 36.0461 1.7153 2.6112
# 5 0.3631 13.1407 5.9411 1.7153 26.5381 -3.3521
# 6 5.3735 -3.1640 3.9366 2.6112 -3.3521 16.7922
#
#
#
# Elastic Compliance Matrix: (Units=1/GPa)
#
#
# Indices 1 2 3 4 5 6 
#
# 1 0.027568 -0.000489 -0.003167 -0.001915 -0.000304 -0.007935
# 2 -0.000489 0.020317 -0.001874 -0.000143 -0.009298 0.002590
# 3 -0.003167 -0.001874 0.010406 0.000366 -0.001656 -0.002167
# 4 -0.001915 -0.000143 0.000366 0.028348 -0.002371 -0.004381
# 5 -0.000304 -0.009298 -0.001656 -0.002371 0.043805 0.007847
# 6 -0.007935 0.002590 -0.002167 -0.004381 0.007847 0.065334
#
#
# Mechanical properties :
#
#
# Convention : Reuss Voigt Hill
#
# Bulk Modulus (GPa) = 21.17258 28.34289 24.75774
# Shear Modulus (GPa) = 22.46358 27.42684 24.94521
#
# Velocity S-wave (km/s) = 3.51406 3.88292 3.70309
# Velocity P-wave (km/s) = 5.30130 5.97355 5.64744
#
# Compressibility (1/GPa) = 0.04723089
#
# Stress axis : x y z
#
# Youngs Moduli (GPa) = 36.27390 49.21895 96.09752
#
# Poissons Ratio (x) = 0.02409 0.30431
# Poissons Ratio (y) = 0.01775 0.18011
# Poissons Ratio (z) = 0.11487 0.09225
#
# Static dielectric constant tensor:
#      x y z
#    x 1.794120 0.027320 0.003010 
#    y 0.027320 1.652000 0.027120 
#    z 0.003010 0.027120 1.660170 
# 
# From -- ./inp_files/532543.got.cif
#   From: 2010.05.17/outbox.cif.g08.bks.cpg/sg2_267_cif.got.tgz:532543.got - 2010.06.03 11:33:40.
