data_PCOD9093643
_publ_section_title
;
Structure prediction by ZEFSAII (Michael W. Deem and Ramdas Pophale) SiO2 
 PCOD9093643
Probable space group: P -1
;
_chemical_formula_sum "Si O2"
_cell_formula_units_Z 14
_cell_length_a 7.262918
_cell_length_b 8.080893
_cell_length_c 19.760635
_cell_angle_alpha 91.636552
_cell_angle_beta 54.688904
_cell_angle_gamma 54.022407
_cell_volume 635.831574
_symmetry_space_group_name_H-M "P -1"
_symmetry_group_IT_number 2
_symmetry_cell_setting 'triclinic'
loop_
_space_group_symop_operation_xyz
x,y,z
-x,-y,-z
loop_
_atom_site_type_symbol
_atom_site_label
_atom_site_fract_x
_atom_site_fract_y
_atom_site_fract_z
Si Si1 0.598189 0.621687 0.784735
Si Si2 0.342216 0.820748 0.381955
Si Si3 0.398734 0.424332 0.374100
Si Si4 0.289618 0.118115 0.153241
Si Si5 0.409700 0.102055 0.444600
Si Si6 0.991979 0.274318 0.068745
Si Si7 0.695247 0.200751 0.768684
O O1 0.566349 0.658569 0.711132
O O2 0.796527 0.340083 0.752278
O O3 0.223959 0.777582 0.891708
O O4 0.744819 0.701201 0.790814
O O5 0.522638 0.546863 0.354168
O O6 0.271912 0.865566 0.317581
O O7 0.513321 0.895474 0.371300
O O8 0.000000 0.000000 0.500000
O O9 0.532853 0.215852 0.395949
O O10 0.995182 0.661401 0.471580
O O11 0.173698 0.012499 0.212897
O O12 0.113647 0.228003 0.119542
O O13 0.687243 0.892294 0.048468
O O14 0.500000 0.000000 0.500000
O O15 0.701840 0.568218 0.125438
#
# Coordination Sequence:
#
# PCOD9093643 Si02
#       7
#     2   2   2   2   2   2   2
#     4   9  20  38  55  81 112 145 180 226 275 324
#     4   9  18  36  54  75 110 139 173 224 265 313
#     4   9  19  38  50  74 114 133 176 231 258 317
#     4  11  19  39  59  77 117 147 175 237 274 316
#     4  10  20  33  55  79 100 144 183 211 273 325
#     4   9  22  37  54  89 109 139 196 220 269 343
#     4   9  20  37  56  81 109 145 185 223 274 328
#
# _framework density 22.018408999999998
#
# number of rings (size 3 to 8) (size 9 to 14) (size 15 to 20)
#    0.857    1.714    0.000    1.714    0.000    1.714 
#   10.286    1.429    0.000    0.000    0.000    0.000 
#    0.000    0.000    0.000    0.000    0.000    0.000 
#
# Total GULP energy -78116.545835 kJ/mol
# GULP energy per Si atom -5579.753274 kJ/mol
# Density = 2.196829 g / cm^3
# Si number density = 22.018409 Si / 1000 Ang^3
#
#
#
# Elastic Constant Matrix: (Units=GPa)
#
#
# Indices 1 2 3 4 5 6 
#
# 1 92.0965 36.3205 24.7681 -4.2161 9.4671 20.4766
# 2 36.3205 153.5975 34.8802 -22.1166 25.4368 15.5975
# 3 24.7681 34.8802 76.5874 4.8365 11.2677 20.2058
# 4 -4.2161 -22.1166 4.8365 29.6807 0.6697 -11.6748
# 5 9.4671 25.4368 11.2677 0.6697 41.0046 8.6856
# 6 20.4766 15.5975 20.2058 -11.6748 8.6856 22.0782
#
#
#
# Elastic Compliance Matrix: (Units=1/GPa)
#
#
# Indices 1 2 3 4 5 6 
#
# 1 0.015343 -0.003725 0.001792 -0.008218 0.002329 -0.018500
# 2 -0.003725 0.010711 -0.006555 0.013178 -0.006626 0.011463
# 3 0.001792 -0.006555 0.024929 -0.021759 0.004144 -0.032982
# 4 -0.008218 0.013178 -0.021759 0.070210 -0.014367 0.061004
# 5 0.002329 -0.006626 0.004144 -0.014367 0.031565 -0.021286
# 6 -0.018500 0.011463 -0.032982 0.061004 -0.021286 0.125171
#
#
# Mechanical properties :
#
#
# Convention : Reuss Voigt Hill
#
# Bulk Modulus (GPa) = 29.40665 57.13543 43.27104
# Shear Modulus (GPa) = 16.32706 33.64022 24.98364
#
# Velocity S-wave (km/s) = 2.72604 3.91298 3.37214
# Velocity P-wave (km/s) = 4.82627 6.81326 5.90395
#
# Compressibility (1/GPa) = 0.03400591
#
# Stress axis : x y z
#
# Youngs Moduli (GPa) = 65.17575 93.36279 40.11467
#
# Poissons Ratio (x) = 0.34782 -0.07188
# Poissons Ratio (y) = 0.24281 0.26294
# Poissons Ratio (z) = -0.11679 0.61197
#
# Static dielectric constant tensor:
#      x y z
#    x 1.830110 0.001040 -0.096640 
#    y 0.001040 1.814710 0.046900 
#    z -0.096640 0.046900 1.819290 
# 
# From -- ./inp_files/294000.got.cif
#   From: 2010.05.17/outbox.cif.g08.bks.cpg/sg2_147_cif.got.tgz:294000.got - 2010.06.03 11:33:40.
