data_PCOD9093046
_publ_section_title
;
Structure prediction by ZEFSAII (Michael W. Deem and Ramdas Pophale) SiO2 
 PCOD9093046
Probable space group: P -1
;
_chemical_formula_sum "Si O2"
_cell_formula_units_Z 14
_cell_length_a 5.106430
_cell_length_b 17.515239
_cell_length_c 6.394255
_cell_angle_alpha 90.985824
_cell_angle_beta 72.797646
_cell_angle_gamma 104.758728
_cell_volume 527.248931
_symmetry_space_group_name_H-M "P -1"
_symmetry_group_IT_number 2
_symmetry_cell_setting 'triclinic'
loop_
_space_group_symop_operation_xyz
x,y,z
-x,-y,-z
loop_
_atom_site_type_symbol
_atom_site_label
_atom_site_fract_x
_atom_site_fract_y
_atom_site_fract_z
Si Si1 0.486356 0.426757 0.683496
Si Si2 0.226194 0.557638 0.799863
Si Si3 0.966289 0.693574 0.449231
Si Si4 0.005136 0.087346 0.571334
Si Si5 0.642496 0.179632 0.406766
Si Si6 0.537897 0.693760 0.935532
Si Si7 0.953984 0.813150 0.074215
O O1 0.483336 0.514144 0.761229
O O2 0.745138 0.431925 0.459003
O O3 0.188300 0.388914 0.629720
O O4 0.479242 0.369707 0.877121
O O5 0.252115 0.645868 0.884015
O O6 0.000000 0.500000 0.000000
O O7 0.759678 0.695014 0.695082
O O8 0.961163 0.753750 0.261007
O O9 0.270435 0.737305 0.483251
O O10 0.312090 0.145011 0.445181
O O11 0.993489 0.102255 0.823549
O O12 0.762569 0.117827 0.512611
O O13 0.000000 0.000000 0.500000
O O14 0.806439 0.187662 0.150319
O O15 0.656094 0.778024 0.022450
#
# Coordination Sequence:
#
# PCOD9093046 Si02
#       7
#     2   2   2   2   2   2   2
#     4   9  18  34  52  73 110 148 187 248 299 345
#     4  10  20  31  48  76 107 146 195 240 297 360
#     4   8  17  36  58  82 111 150 196 246 299 355
#     4  11  24  41  63  94 127 160 202 248 299 363
#     4  10  22  40  64  92 123 162 204 246 300 362
#     4   9  17  35  56  78 110 148 194 245 300 359
#     4   9  20  39  62  85 117 156 198 250 304 357
#
# _framework density 26.552924999999998
#
# number of rings (size 3 to 8) (size 9 to 14) (size 15 to 20)
#    0.000    2.571    0.000    0.857    0.000    5.143 
#    0.000   24.286    0.000    0.000    0.000    0.000 
#    0.000    0.000    0.000    0.000    0.000    0.000 
#
# Total GULP energy -78139.796178 kJ/mol
# GULP energy per Si atom -5581.414013 kJ/mol
# Density = 2.649249 g / cm^3
# Si number density = 26.552925 Si / 1000 Ang^3
#
#
#
# Elastic Constant Matrix: (Units=GPa)
#
#
# Indices 1 2 3 4 5 6 
#
# 1 58.2023 23.1787 29.3893 0.5669 5.9158 3.1724
# 2 23.1787 113.5849 23.3666 41.2292 12.1078 7.1134
# 3 29.3893 23.3666 183.4673 12.8883 -15.9977 7.8705
# 4 0.5669 41.2292 12.8883 49.8297 6.8071 -1.1301
# 5 5.9158 12.1078 -15.9977 6.8071 51.0085 -11.0589
# 6 3.1724 7.1134 7.8705 -1.1301 -11.0589 40.3458
#
#
#
# Elastic Compliance Matrix: (Units=1/GPa)
#
#
# Indices 1 2 3 4 5 6 
#
# 1 0.021264 -0.005197 -0.003362 0.005343 -0.003178 -0.000821
# 2 -0.005197 0.014576 -0.000247 -0.011729 -0.002019 -0.002995
# 3 -0.003362 -0.000247 0.006386 -0.001774 0.002630 -0.000266
# 4 0.005343 -0.011729 -0.001774 0.030491 -0.001960 0.002311
# 5 -0.003178 -0.002019 0.002630 -0.001960 0.022908 0.006317
# 6 -0.000821 -0.002995 -0.000266 0.002311 0.006317 0.027227
#
#
# Mechanical properties :
#
#
# Convention : Reuss Voigt Hill
#
# Bulk Modulus (GPa) = 40.62781 56.34706 48.48744
# Shear Modulus (GPa) = 33.63181 46.85811 40.24496
#
# Velocity S-wave (km/s) = 3.56279 4.20540 3.89736
# Velocity P-wave (km/s) = 5.67966 6.69681 6.20910
#
# Compressibility (1/GPa) = 0.02461368
#
# Stress axis : x y z
#
# Youngs Moduli (GPa) = 47.02709 68.60816 156.59266
#
# Poissons Ratio (x) = 0.35656 0.52640
# Poissons Ratio (y) = 0.24440 0.03875
# Poissons Ratio (z) = 0.15809 0.01698
#
# Static dielectric constant tensor:
#      x y z
#    x 2.273900 -0.020310 0.003840 
#    y -0.020310 2.086600 0.038870 
#    z 0.003840 0.038870 2.084580 
# 
# From -- ./inp_files/10340.got.cif
#   From: 2010.05.17/outbox.cif.g08.bks.cpg/sg2_6_cif.got.tgz:10340.got - 2010.06.03 11:33:40.
