data_PCOD9093711
_publ_section_title
;
Structure prediction by ZEFSAII (Michael W. Deem and Ramdas Pophale) SiO2 
 PCOD9093711
Probable space group: P -1
;
_chemical_formula_sum "Si O2"
_cell_formula_units_Z 16
_cell_length_a 12.057642
_cell_length_b 12.375125
_cell_length_c 7.968458
_cell_angle_alpha 98.044977
_cell_angle_beta 108.843086
_cell_angle_gamma 48.993552
_cell_volume 844.860683
_symmetry_space_group_name_H-M "P -1"
_symmetry_group_IT_number 2
_symmetry_cell_setting 'triclinic'
loop_
_space_group_symop_operation_xyz
x,y,z
-x,-y,-z
loop_
_atom_site_type_symbol
_atom_site_label
_atom_site_fract_x
_atom_site_fract_y
_atom_site_fract_z
Si Si1 0.008160 0.062427 0.848313
Si Si2 0.632470 0.378825 0.162064
Si Si3 0.449652 0.397659 0.550978
Si Si4 0.300666 0.048688 0.543290
Si Si5 0.755804 0.328235 0.634531
Si Si6 0.517437 0.844509 0.299326
Si Si7 0.349588 0.892932 0.881762
Si Si8 0.959513 0.176668 0.369699
O O1 0.870015 0.232171 0.820385
O O2 0.173870 0.014963 0.886701
O O3 0.992794 0.976256 0.682204
O O4 0.000000 0.000000 0.000000
O O5 0.589687 0.474481 0.324833
O O6 0.624565 0.253220 0.152486
O O7 0.814790 0.292308 0.200706
O O8 0.500000 0.500000 0.000000
O O9 0.627557 0.309348 0.572188
O O10 0.329572 0.502355 0.368022
O O11 0.425400 0.304577 0.625868
O O12 0.354672 0.139086 0.624894
O O13 0.117820 0.146992 0.446532
O O14 0.384142 0.959906 0.392798
O O15 0.356948 0.944584 0.712482
O O16 0.874745 0.243061 0.520344
O O17 0.456538 0.868369 0.083657
#
# Coordination Sequence:
#
# PCOD9093711 Si02
#       8
#     2   2   2   2   2   2   2   2
#     4  11  21  32  56  92 121 148 191 261 309 354
#     4  10  21  36  58  93 121 154 188 255 313 364
#     4  10  21  35  58  87 121 153 196 245 309 367
#     4  11  24  41  64  84 122 168 206 251 290 355
#     4  10  20  33  56  85 115 150 188 246 310 362
#     4  11  24  42  60  89 121 163 213 246 289 365
#     4  11  22  39  64  87 122 157 204 249 309 358
#     4  10  21  36  57  86 116 152 199 238 308 358
#
# _framework density 18.938033999999998
#
# number of rings (size 3 to 8) (size 9 to 14) (size 15 to 20)
#    0.000    1.500    2.500    3.000   12.250    0.000 
#    0.000    2.500    0.000    0.000    0.000    5.250 
#    0.000    0.000    0.000    0.000    0.000    0.000 
#
# Total GULP energy -89111.206019 kJ/mol
# GULP energy per Si atom -5569.450376 kJ/mol
# Density = 1.889493 g / cm^3
# Si number density = 18.938034 Si / 1000 Ang^3
#
#
#
# Elastic Constant Matrix: (Units=GPa)
#
#
# Indices 1 2 3 4 5 6 
#
# 1 99.7248 39.5024 38.7015 -10.1343 17.6488 -1.1383
# 2 39.5024 81.0950 29.6211 -24.2395 16.6541 -0.8297
# 3 38.7015 29.6211 80.0150 -7.8094 7.4435 0.0932
# 4 -10.1343 -24.2395 -7.8094 41.0756 -0.6819 -1.0535
# 5 17.6488 16.6541 7.4435 -0.6819 31.4658 -1.7664
# 6 -1.1383 -0.8297 0.0932 -1.0535 -1.7664 30.4433
#
#
#
# Elastic Compliance Matrix: (Units=1/GPa)
#
#
# Indices 1 2 3 4 5 6 
#
# 1 0.014485 -0.004259 -0.004991 0.000039 -0.004680 0.000171
# 2 -0.004259 0.020295 -0.003797 0.010093 -0.007217 0.000336
# 3 -0.004991 -0.003797 0.016191 -0.000386 0.000954 -0.000298
# 4 0.000039 0.010093 -0.000386 0.030189 -0.004559 0.001058
# 5 -0.004680 -0.007217 0.000954 -0.004559 0.037995 0.001672
# 6 0.000171 0.000336 -0.000298 0.001058 0.001672 0.032998
#
#
# Mechanical properties :
#
#
# Convention : Reuss Voigt Hill
#
# Bulk Modulus (GPa) = 40.19594 52.94275 46.56934
# Shear Modulus (GPa) = 26.80398 30.79760 28.80079
#
# Velocity S-wave (km/s) = 3.76620 4.03703 3.90396
# Velocity P-wave (km/s) = 6.33904 7.05313 6.70559
#
# Compressibility (1/GPa) = 0.02487814
#
# Stress axis : x y z
#
# Youngs Moduli (GPa) = 69.03484 49.27329 61.76162
#
# Poissons Ratio (x) = 0.20984 0.30824
# Poissons Ratio (y) = 0.29400 0.23452
# Poissons Ratio (z) = 0.34454 0.18710
#
# Static dielectric constant tensor:
#      x y z
#    x 1.629610 -0.016570 -0.010990 
#    y -0.016570 1.777980 -0.182710 
#    z -0.010990 -0.182710 1.998300 
# 
# From -- ./inp_files/254260.got.cif
#   From: 2010.05.17/outbox.cif.g08.bks.cpg/sg2_128_cif.got.tgz:254260.got - 2010.06.03 11:33:40.
