data_PCOD9093522
_publ_section_title
;
Structure prediction by ZEFSAII (Michael W. Deem and Ramdas Pophale) SiO2 
 PCOD9093522
Probable space group: P -1
;
_chemical_formula_sum "Si O2"
_cell_formula_units_Z 16
_cell_length_a 11.303865
_cell_length_b 12.277183
_cell_length_c 12.403938
_cell_angle_alpha 112.918178
_cell_angle_beta 103.215685
_cell_angle_gamma 25.383636
_cell_volume 645.743646
_symmetry_space_group_name_H-M "P -1"
_symmetry_group_IT_number 2
_symmetry_cell_setting 'triclinic'
loop_
_space_group_symop_operation_xyz
x,y,z
-x,-y,-z
loop_
_atom_site_type_symbol
_atom_site_label
_atom_site_fract_x
_atom_site_fract_y
_atom_site_fract_z
Si Si1 0.721588 0.145789 0.360230
Si Si2 0.433663 0.217625 0.458238
Si Si3 0.304645 0.083548 0.112858
Si Si4 0.238035 0.137123 0.870388
Si Si5 0.334696 0.426656 0.021440
Si Si6 0.105536 0.392017 0.650381
Si Si7 0.752054 0.319078 0.065887
Si Si8 0.601834 0.432881 0.726183
O O1 0.561306 0.235604 0.467608
O O2 0.539393 0.399811 0.350066
O O3 0.727506 0.019042 0.241572
O O4 0.054867 0.894402 0.344130
O O5 0.296520 0.306520 0.579258
O O6 0.166755 0.423811 0.401307
O O7 0.702237 0.888173 0.379414
O O8 0.026219 0.404285 0.210237
O O9 0.563078 0.934936 0.158920
O O10 0.383573 0.882412 0.092047
O O11 0.341974 0.035623 0.975384
O O12 0.895219 0.460961 0.930819
O O13 0.158914 0.646395 0.972824
O O14 0.406731 0.449981 0.144198
O O15 0.603145 0.473752 0.210511
O O16 0.500000 0.500000 0.000000
O O17 0.000000 0.000000 0.000000
#
# Coordination Sequence:
#
# PCOD9093522 Si02
#       8
#     2   2   2   2   2   2   2   2
#     4  11  19  34  55  77 106 136 180 212 269 303
#     4  10  21  38  54  75 102 144 178 231 255 305
#     4  11  21  33  50  76 109 148 176 209 253 322
#     4  10  21  31  48  77 114 143 172 205 255 319
#     4  10  21  33  51  74 112 143 179 207 266 315
#     4  10  22  37  54  74 106 141 188 213 263 300
#     4  10  20  35  53  72 107 143 175 219 261 313
#     4  10  20  33  52  80 101 139 174 222 260 315
#
# _framework density 24.777635
#
# number of rings (size 3 to 8) (size 9 to 14) (size 15 to 20)
#    0.000    1.750    2.500    3.375    3.500    1.000 
#    0.000    0.000    0.000    0.000    0.000    1.750 
#    0.000    0.000    0.000    0.000    0.000    0.000 
#
# Total GULP energy -89333.949512 kJ/mol
# GULP energy per Si atom -5583.371844 kJ/mol
# Density = 2.472124 g / cm^3
# Si number density = 24.777635 Si / 1000 Ang^3
#
#
#
# Elastic Constant Matrix: (Units=GPa)
#
#
# Indices 1 2 3 4 5 6 
#
# 1 61.8100 20.6419 15.2757 5.4507 -19.4881 1.5531
# 2 20.6419 180.1405 27.8141 12.2784 -13.2523 16.2963
# 3 15.2757 27.8141 53.4312 1.0993 -18.2381 10.6501
# 4 5.4507 12.2784 1.0993 32.7350 3.3293 -9.1148
# 5 -19.4881 -13.2523 -18.2381 3.3293 39.9301 -0.0201
# 6 1.5531 16.2963 10.6501 -9.1148 -0.0201 32.0753
#
#
#
# Elastic Compliance Matrix: (Units=1/GPa)
#
#
# Indices 1 2 3 4 5 6 
#
# 1 0.020209 -0.000986 -0.001901 -0.004130 0.009011 -0.001014
# 2 -0.000986 0.006607 -0.002005 -0.003357 0.001074 -0.003597
# 3 -0.001901 -0.002005 0.025538 -0.003138 0.010329 -0.008254
# 4 -0.004130 -0.003357 -0.003138 0.037137 -0.007653 0.013496
# 5 0.009011 0.001074 0.010329 -0.007653 0.035151 -0.006564
# 6 -0.001014 -0.003597 -0.008254 0.013496 -0.006564 0.039625
#
#
# Mechanical properties :
#
#
# Convention : Reuss Voigt Hill
#
# Bulk Modulus (GPa) = 23.49092 46.98279 35.23685
# Shear Modulus (GPa) = 26.56180 36.39141 31.47661
#
# Velocity S-wave (km/s) = 3.27770 3.83655 3.56808
# Velocity P-wave (km/s) = 4.88116 6.21517 5.58812
#
# Compressibility (1/GPa) = 0.04256964
#
# Stress axis : x y z
#
# Youngs Moduli (GPa) = 49.48393 151.35507 39.15688
#
# Poissons Ratio (x) = 0.14922 0.07445
# Poissons Ratio (y) = 0.04879 0.07851
# Poissons Ratio (z) = 0.09409 0.30345
#
# Static dielectric constant tensor:
#      x y z
#    x 2.247580 -0.009250 -0.077290 
#    y -0.009250 1.952960 0.022710 
#    z -0.077290 0.022710 2.037560 
# 
# From -- ./inp_files/533765.got.cif
#   From: 2010.05.17/outbox.cif.g08.bks.cpg/sg2_267_cif.got.tgz:533765.got - 2010.06.03 11:33:40.
