data_PCOD9093521
_publ_section_title
;
Structure prediction by ZEFSAII (Michael W. Deem and Ramdas Pophale) SiO2 
 PCOD9093521
Probable space group: P -1
;
_chemical_formula_sum "Si O2"
_cell_formula_units_Z 14
_cell_length_a 13.119646
_cell_length_b 10.353419
_cell_length_c 16.976413
_cell_angle_alpha 116.062380
_cell_angle_beta 159.150189
_cell_angle_gamma 77.876932
_cell_volume 574.174922
_symmetry_space_group_name_H-M "P -1"
_symmetry_group_IT_number 2
_symmetry_cell_setting 'triclinic'
loop_
_space_group_symop_operation_xyz
x,y,z
-x,-y,-z
loop_
_atom_site_type_symbol
_atom_site_label
_atom_site_fract_x
_atom_site_fract_y
_atom_site_fract_z
Si Si1 0.465182 0.639968 0.464311
Si Si2 0.936906 0.824273 0.490840
Si Si3 0.462825 0.909537 0.137138
Si Si4 0.233876 0.684927 0.772035
Si Si5 0.680109 0.577884 0.035233
Si Si6 0.329257 0.461820 0.164181
Si Si7 0.448312 0.205020 0.273309
O O1 0.500000 0.500000 0.500000
O O2 0.558225 0.626546 0.437886
O O3 0.640801 0.798838 0.699723
O O4 0.062714 0.582418 0.143682
O O5 0.225974 0.946971 0.663708
O O6 0.169394 0.817490 0.722232
O O7 0.689185 0.881160 0.353615
O O8 0.620705 0.607997 0.183453
O O9 0.312384 0.007977 0.091442
O O10 0.203911 0.716415 0.850509
O O11 0.000000 0.500000 0.500000
O O12 0.624563 0.728622 0.054349
O O13 0.101995 0.662367 0.372432
O O14 0.554169 0.515480 0.836196
O O15 0.310219 0.295959 0.145103
#
# Coordination Sequence:
#
# PCOD9093521 Si02
#       7
#     2   2   2   2   2   2   2
#     4   8  16  32  54  83 110 137 180 223 264 320
#     4  10  22  36  51  75 109 147 186 224 265 316
#     4  11  22  35  52  75 110 148 181 226 271 312
#     4  10  22  37  53  75 105 144 188 227 267 320
#     4  10  20  33  52  79 108 143 187 225 264 319
#     4   9  17  32  55  81 111 143 177 223 269 314
#     4  10  20  33  54  83 110 142 182 220 269 324
#
# _framework density 24.382815000000001
#
# number of rings (size 3 to 8) (size 9 to 14) (size 15 to 20)
#    0.000    2.286    0.000    3.000    0.000    9.714 
#    0.000    0.000    0.000    0.857    0.000   44.000 
#    0.000    0.000    0.000    0.286    0.000    0.000 
#
# Total GULP energy -77954.798505 kJ/mol
# GULP energy per Si atom -5568.199893 kJ/mol
# Density = 2.432732 g / cm^3
# Si number density = 24.382815 Si / 1000 Ang^3
#
#
#
# Elastic Constant Matrix: (Units=GPa)
#
#
# Indices 1 2 3 4 5 6 
#
# 1 106.9053 39.0584 36.6465 -1.5148 -16.6819 -37.8687
# 2 39.0584 125.6861 72.2847 -28.6628 -12.4751 -32.4457
# 3 36.6465 72.2847 132.9262 -3.9783 -18.1832 -3.5999
# 4 -1.5148 -28.6628 -3.9783 63.7390 -5.8210 -10.3067
# 5 -16.6819 -12.4751 -18.1832 -5.8210 35.3959 1.0449
# 6 -37.8687 -32.4457 -3.5999 -10.3067 1.0449 42.8044
#
#
#
# Elastic Compliance Matrix: (Units=1/GPa)
#
#
# Indices 1 2 3 4 5 6 
#
# 1 0.018449 0.005997 -0.006453 0.006990 0.007999 0.021813
# 2 0.005997 0.024286 -0.012811 0.015081 0.006514 0.026110
# 3 -0.006453 -0.012811 0.015566 -0.007547 -0.000331 -0.015920
# 4 0.006990 0.015081 -0.007547 0.026688 0.008437 0.023201
# 5 0.007999 0.006514 -0.000331 0.008437 0.035147 0.013160
# 6 0.021813 0.026110 -0.015920 0.023201 0.013160 0.066377
#
#
# Mechanical properties :
#
#
# Convention : Reuss Voigt Hill
#
# Bulk Modulus (GPa) = 31.47819 73.49964 52.48891
# Shear Modulus (GPa) = 22.35780 42.88975 32.62378
#
# Velocity S-wave (km/s) = 3.03140 4.19861 3.66181
# Velocity P-wave (km/s) = 5.01902 7.32898 6.28110
#
# Compressibility (1/GPa) = 0.03176803
#
# Stress axis : x y z
#
# Youngs Moduli (GPa) = 54.20343 41.17559 64.24222
#
# Poissons Ratio (x) = -0.24694 0.41457
# Poissons Ratio (y) = -0.32507 0.82298
# Poissons Ratio (z) = 0.34979 0.52748
#
# Static dielectric constant tensor:
#      x y z
#    x 1.969570 -0.013430 0.021410 
#    y -0.013430 1.965300 0.010700 
#    z 0.021410 0.010700 2.046520 
# 
# From -- ./inp_files/573437.got.cif
#   From: 2010.05.17/outbox.cif.g08.bks.cpg/sg2_287_cif.got.tgz:573437.got - 2010.06.03 11:33:40.
