data_PCOD9093606
_publ_section_title
;
Structure prediction by ZEFSAII (Michael W. Deem and Ramdas Pophale) SiO2 
 PCOD9093606
Probable space group: P -1
;
_chemical_formula_sum "Si O2"
_cell_formula_units_Z 16
_cell_length_a 11.949945
_cell_length_b 8.802205
_cell_length_c 14.910404
_cell_angle_alpha 145.415200
_cell_angle_beta 64.555853
_cell_angle_gamma 101.485608
_cell_volume 766.461180
_symmetry_space_group_name_H-M "P -1"
_symmetry_group_IT_number 2
_symmetry_cell_setting 'triclinic'
loop_
_space_group_symop_operation_xyz
x,y,z
-x,-y,-z
loop_
_atom_site_type_symbol
_atom_site_label
_atom_site_fract_x
_atom_site_fract_y
_atom_site_fract_z
Si Si1 0.075593 0.225204 0.602604
Si Si2 0.094434 0.538294 0.065532
Si Si3 0.917483 0.929793 0.775273
Si Si4 0.399181 0.405289 0.307424
Si Si5 0.844664 0.498075 0.464328
Si Si6 0.623713 0.665590 0.193497
Si Si7 0.344803 0.874246 0.977335
Si Si8 0.649160 0.044153 0.531341
O O1 0.110235 0.376562 0.577781
O O2 0.981337 0.452205 0.811752
O O3 0.212446 0.056643 0.518465
O O4 0.000000 0.000000 0.500000
O O5 0.095882 0.853486 0.195411
O O6 0.245406 0.351656 0.915167
O O7 0.000000 0.500000 0.000000
O O8 0.876489 0.672684 0.622330
O O9 0.062773 0.817355 0.706750
O O10 0.808741 0.067154 0.953759
O O11 0.307066 0.461254 0.452581
O O12 0.553670 0.280592 0.208467
O O13 0.363653 0.689882 0.400171
O O14 0.369918 0.162482 0.138206
O O15 0.622178 0.347828 0.058698
O O16 0.477907 0.855359 0.311216
O O17 0.641952 0.793234 0.346477
#
# Coordination Sequence:
#
# PCOD9093606 Si02
#       8
#     2   2   2   2   2   2   2   2
#     4  12  24  37  56  91 123 150 191 252 295 340
#     4  11  20  37  62  86 114 154 197 236 290 352
#     4   9  18  34  56  80 109 153 189 229 282 350
#     4   9  17  32  57  83 106 150 197 233 282 350
#     4  10  20  33  54  81 115 146 189 236 287 340
#     4   9  19  36  62  86 112 154 201 235 286 361
#     4   8  16  30  55  83 107 137 198 243 271 332
#     4  10  20  37  62  87 112 153 201 240 288 353
#
# _framework density 20.875160000000001
#
# number of rings (size 3 to 8) (size 9 to 14) (size 15 to 20)
#    0.000    2.250    2.500    0.750    3.500    0.000 
#    0.000    2.500    0.000    6.750    0.000    0.000 
#    0.000    0.000    0.000    0.000    0.000    0.000 
#
# Total GULP energy -89099.287825 kJ/mol
# GULP energy per Si atom -5568.705489 kJ/mol
# Density = 2.082765 g / cm^3
# Si number density = 20.875160 Si / 1000 Ang^3
#
#
#
# Elastic Constant Matrix: (Units=GPa)
#
#
# Indices 1 2 3 4 5 6 
#
# 1 65.1894 11.0964 41.2965 -16.0902 -31.5132 11.9845
# 2 11.0964 66.0395 46.9402 -20.4266 -24.1923 10.5975
# 3 41.2965 46.9402 117.4712 -30.5243 -51.4271 10.2606
# 4 -16.0902 -20.4266 -30.5243 43.9619 22.3277 -9.0576
# 5 -31.5132 -24.1923 -51.4271 22.3277 42.4869 -9.3581
# 6 11.9845 10.5975 10.2606 -9.0576 -9.3581 14.4010
#
#
#
# Elastic Compliance Matrix: (Units=1/GPa)
#
#
# Indices 1 2 3 4 5 6 
#
# 1 0.026947 0.006099 -0.003841 -0.001194 0.016277 -0.014350
# 2 0.006099 0.024450 -0.008202 0.003260 0.004041 -0.012547
# 3 -0.003841 -0.008202 0.021177 0.001336 0.019031 0.007351
# 4 -0.001194 0.003260 0.001336 0.033305 -0.012627 0.010385
# 5 0.016277 0.004041 0.019031 -0.012627 0.069097 0.006880
# 6 -0.014350 -0.012547 0.007351 0.010385 0.006880 0.096381
#
#
# Mechanical properties :
#
#
# Convention : Reuss Voigt Hill
#
# Bulk Modulus (GPa) = 16.47841 49.70734 33.09288
# Shear Modulus (GPa) = 16.47596 30.12778 23.30187
#
# Velocity S-wave (km/s) = 2.81243 3.80312 3.34466
# Velocity P-wave (km/s) = 4.29619 6.56874 5.55003
#
# Compressibility (1/GPa) = 0.06068546
#
# Stress axis : x y z
#
# Youngs Moduli (GPa) = 37.10978 40.90058 47.22164
#
# Poissons Ratio (x) = -0.24944 0.18138
# Poissons Ratio (y) = -0.22632 0.38729
# Poissons Ratio (z) = 0.14254 0.33545
#
# Static dielectric constant tensor:
#      x y z
#    x 1.785220 0.063830 -0.042230 
#    y 0.063830 1.753850 -0.001020 
#    z -0.042230 -0.001020 1.835660 
# 
# From -- ./inp_files/320311.got.cif
#   From: 2010.05.17/outbox.cif.g08.bks.cpg/sg2_161_cif.got.tgz:320311.got - 2010.06.03 11:33:40.
