data_PCOD9093178
_publ_section_title
;
Structure prediction by ZEFSAII (Michael W. Deem and Ramdas Pophale) SiO2 
 PCOD9093178
Probable space group: P -1
;
_chemical_formula_sum "Si O2"
_cell_formula_units_Z 16
_cell_length_a 14.349718
_cell_length_b 23.876320
_cell_length_c 21.146942
_cell_angle_alpha 169.032785
_cell_angle_beta 139.666500
_cell_angle_gamma 40.838181
_cell_volume 890.176197
_symmetry_space_group_name_H-M "P -1"
_symmetry_group_IT_number 2
_symmetry_cell_setting 'triclinic'
loop_
_space_group_symop_operation_xyz
x,y,z
-x,-y,-z
loop_
_atom_site_type_symbol
_atom_site_label
_atom_site_fract_x
_atom_site_fract_y
_atom_site_fract_z
Si Si1 0.900020 0.556360 0.450838
Si Si2 0.860427 0.053299 0.201734
Si Si3 0.428795 0.687551 0.612643
Si Si4 0.376203 0.516584 0.902311
Si Si5 0.420689 0.243185 0.488203
Si Si6 0.453354 0.583946 0.757209
Si Si7 0.158610 0.625583 0.578710
Si Si8 0.183294 0.018431 0.303981
O O1 0.753692 0.749911 0.601418
O O2 0.000000 0.500000 0.500000
O O3 0.003415 0.693807 0.605404
O O4 0.853359 0.241999 0.052349
O O5 0.742550 0.244440 0.392708
O O6 0.816471 0.138616 0.201208
O O7 0.028699 0.116824 0.364027
O O8 0.846403 0.705087 0.819203
O O9 0.500000 0.500000 0.500000
O O10 0.466073 0.535895 0.396847
O O11 0.500000 0.000000 0.000000
O O12 0.439548 0.417949 0.756983
O O13 0.259953 0.282585 0.603035
O O14 0.500000 0.500000 0.000000
O O15 0.294546 0.839389 0.210237
O O16 0.475511 0.387370 0.612722
O O17 0.486155 0.911934 0.157182
O O18 0.285514 0.600230 0.667126
#
# Coordination Sequence:
#
# PCOD9093178 Si02
#       8
#     2   2   2   2   2   2   2   2
#     4  10  20  32  49  78 115 157 174 209 269 335
#     4  11  20  37  51  76 112 147 193 237 254 312
#     4  12  22  35  53  76 109 164 206 223 262 313
#     4  11  23  43  64  84 110 143 186 242 298 351
#     4  11  23  36  51  80 113 142 190 230 276 340
#     4  12  22  34  50  77 112 152 193 226 262 317
#     4  11  21  31  50  72 109 158 190 216 259 307
#     4  10  22  37  57  88 110 143 193 231 279 342
#
# _framework density 17.973970000000001
#
# number of rings (size 3 to 8) (size 9 to 14) (size 15 to 20)
#    0.000    1.000    3.750    5.625    1.750    1.500 
#    0.000    0.000    0.000    0.000    0.000    5.250 
#    0.000    0.000    0.000    0.000    0.000    0.000 
#
# Total GULP energy -89419.342833 kJ/mol
# GULP energy per Si atom -5588.708927 kJ/mol
# Density = 1.793306 g / cm^3
# Si number density = 17.973970 Si / 1000 Ang^3
#
#
#
# Elastic Constant Matrix: (Units=GPa)
#
#
# Indices 1 2 3 4 5 6 
#
# 1 109.8021 22.1928 32.3058 6.6848 -16.6488 -1.3154
# 2 22.1928 71.5098 -2.2558 -6.1343 -7.2097 4.5568
# 3 32.3058 -2.2558 35.2922 13.4004 -4.0785 -3.0243
# 4 6.6848 -6.1343 13.4004 28.4316 3.8001 -1.3656
# 5 -16.6488 -7.2097 -4.0785 3.8001 27.4612 5.8185
# 6 -1.3154 4.5568 -3.0243 -1.3656 5.8185 20.5894
#
#
#
# Elastic Compliance Matrix: (Units=1/GPa)
#
#
# Indices 1 2 3 4 5 6 
#
# 1 0.014826 -0.004210 -0.013745 0.001190 0.006053 -0.001772
# 2 -0.004210 0.016125 0.004139 0.001949 0.002854 -0.003907
# 3 -0.013745 0.004139 0.048928 -0.019016 0.001890 0.003598
# 4 0.001190 0.001949 -0.019016 0.045500 -0.008360 0.002232
# 5 0.006053 0.002854 0.001890 -0.008360 0.045082 -0.013262
# 6 -0.001772 -0.003907 0.003598 0.002232 -0.013262 0.053744
#
#
# Mechanical properties :
#
#
# Convention : Reuss Voigt Hill
#
# Bulk Modulus (GPa) = 19.13922 35.67665 27.40794
# Shear Modulus (GPa) = 18.56994 26.25386 22.41190
#
# Velocity S-wave (km/s) = 3.21776 3.82600 3.53499
# Velocity P-wave (km/s) = 4.94740 6.27773 5.65184
#
# Compressibility (1/GPa) = 0.05224872
#
# Stress axis : x y z
#
# Youngs Moduli (GPa) = 67.44813 62.01544 20.43811
#
# Poissons Ratio (x) = 0.26106 0.28092
# Poissons Ratio (y) = 0.28393 -0.08460
# Poissons Ratio (z) = 0.92707 -0.25669
#
# Static dielectric constant tensor:
#      x y z
#    x 1.653480 -0.001190 0.004750 
#    y -0.001190 1.619060 0.018260 
#    z 0.004750 0.018260 1.634420 
# 
# From -- ./inp_files/533972.got.cif
#   From: 2010.05.17/outbox.cif.g08.bks.cpg/sg2_267_cif.got.tgz:533972.got - 2010.06.03 11:33:40.
