data_PCOD9093754
_publ_section_title
;
Structure prediction by ZEFSAII (Michael W. Deem and Ramdas Pophale) SiO2 
 PCOD9093754
Probable space group: P -1
;
_chemical_formula_sum "Si O2"
_cell_formula_units_Z 14
_cell_length_a 9.020737
_cell_length_b 12.255212
_cell_length_c 17.292032
_cell_angle_alpha 151.192430
_cell_angle_beta 131.668055
_cell_angle_gamma 56.096316
_cell_volume 686.492647
_symmetry_space_group_name_H-M "P -1"
_symmetry_group_IT_number 2
_symmetry_cell_setting 'triclinic'
loop_
_space_group_symop_operation_xyz
x,y,z
-x,-y,-z
loop_
_atom_site_type_symbol
_atom_site_label
_atom_site_fract_x
_atom_site_fract_y
_atom_site_fract_z
Si Si1 0.979370 0.365106 0.490101
Si Si2 0.109797 0.830464 0.881409
Si Si3 0.602029 0.766163 0.401123
Si Si4 0.719999 0.995829 0.108660
Si Si5 0.772170 0.477543 0.840382
Si Si6 0.812121 0.515059 0.055155
Si Si7 0.594859 0.357719 0.028720
O O1 0.000000 0.500000 0.500000
O O2 0.998708 0.578768 0.687580
O O3 0.174156 0.224359 0.483795
O O4 0.784889 0.193829 0.315180
O O5 0.324607 0.797342 0.973243
O O6 0.137454 0.934965 0.871383
O O7 0.000000 0.000000 0.000000
O O8 0.449068 0.625789 0.318476
O O9 0.607975 0.611188 0.229063
O O10 0.500000 0.000000 0.500000
O O11 0.765160 0.748090 0.999756
O O12 0.500000 0.000000 0.000000
O O13 0.956631 0.401978 0.807119
O O14 0.805560 0.411852 0.901593
O O15 0.734747 0.357486 0.001728
O O16 0.637084 0.689491 0.100932
#
# Coordination Sequence:
#
# PCOD9093754 Si02
#       7
#     2   2   2   2   2   2   2
#     4   9  20  37  59  86 116 157 199 242 296 359
#     4  10  20  38  60  86 117 158 198 239 296 359
#     4  10  21  37  58  84 120 155 200 245 298 365
#     4  11  21  36  63  86 116 153 200 254 295 347
#     4  10  20  33  57  85 114 152 201 242 292 353
#     4   9  18  32  54  81 116 146 199 231 291 347
#     4   9  18  35  55  82 120 151 193 238 292 355
#
# _framework density 20.393519000000001
#
# number of rings (size 3 to 8) (size 9 to 14) (size 15 to 20)
#    0.000    2.286    0.000    4.286    6.000    0.000 
#    2.571    1.429    3.143    0.000    0.000    0.000 
#    0.000    0.000    0.000    0.000    0.000    0.000 
#
# Total GULP energy -77938.335613 kJ/mol
# GULP energy per Si atom -5567.023972 kJ/mol
# Density = 2.034710 g / cm^3
# Si number density = 20.393519 Si / 1000 Ang^3
#
#
#
# Elastic Constant Matrix: (Units=GPa)
#
#
# Indices 1 2 3 4 5 6 
#
# 1 102.5817 13.4603 27.7090 -0.2076 5.6641 -6.8285
# 2 13.4603 92.0733 36.7748 9.1424 -6.8722 -10.1266
# 3 27.7090 36.7748 95.3297 10.6672 17.4306 -25.2458
# 4 -0.2076 9.1424 10.6672 32.2858 -9.1724 5.6122
# 5 5.6641 -6.8722 17.4306 -9.1724 26.5913 1.0292
# 6 -6.8285 -10.1266 -25.2458 5.6122 1.0292 32.8000
#
#
#
# Elastic Compliance Matrix: (Units=1/GPa)
#
#
# Indices 1 2 3 4 5 6 
#
# 1 0.010648 -0.000408 -0.003411 0.001578 0.000438 -0.000818
# 2 -0.000408 0.014447 -0.008130 0.001835 0.009880 -0.002506
# 3 -0.003411 -0.008130 0.027072 -0.017812 -0.026096 0.021483
# 4 0.001578 0.001835 -0.017812 0.048536 0.029409 -0.022042
# 5 0.000438 0.009880 -0.026096 0.029409 0.068250 -0.024117
# 6 -0.000818 -0.002506 0.021483 -0.022042 -0.024117 0.050607
#
#
# Mechanical properties :
#
#
# Convention : Reuss Voigt Hill
#
# Bulk Modulus (GPa) = 35.37559 49.54143 42.45851
# Shear Modulus (GPa) = 19.77219 32.47146 26.12183
#
# Velocity S-wave (km/s) = 3.11711 3.99462 3.58283
# Velocity P-wave (km/s) = 5.50811 6.75437 6.16282
#
# Compressibility (1/GPa) = 0.02826808
#
# Stress axis : x y z
#
# Youngs Moduli (GPa) = 93.91664 69.21628 36.93919
#
# Poissons Ratio (x) = 0.02826 0.12599
# Poissons Ratio (y) = 0.03834 0.30033
# Poissons Ratio (z) = 0.32033 0.56275
#
# Static dielectric constant tensor:
#      x y z
#    x 1.762360 -0.011030 0.038790 
#    y -0.011030 1.780600 -0.064520 
#    z 0.038790 -0.064520 1.833870 
# 
# From -- ./inp_files/171789.got.cif
#   From: 2010.05.17/outbox.cif.g08.bks.cpg/sg2_86_cif.got.tgz:171789.got - 2010.06.03 11:33:40.
