data_PCOD9093842
_publ_section_title
;
Structure prediction by ZEFSAII (Michael W. Deem and Ramdas Pophale) SiO2 
 PCOD9093842
Probable space group: P -1
;
_chemical_formula_sum "Si O2"
_cell_formula_units_Z 16
_cell_length_a 9.231612
_cell_length_b 9.541417
_cell_length_c 7.754832
_cell_angle_alpha 73.867385
_cell_angle_beta 76.483935
_cell_angle_gamma 77.201435
_cell_volume 628.965681
_symmetry_space_group_name_H-M "P -1"
_symmetry_group_IT_number 2
_symmetry_cell_setting 'triclinic'
loop_
_space_group_symop_operation_xyz
x,y,z
-x,-y,-z
loop_
_atom_site_type_symbol
_atom_site_label
_atom_site_fract_x
_atom_site_fract_y
_atom_site_fract_z
Si Si1 0.468320 0.975717 0.814528
Si Si2 0.719113 0.741650 0.705170
Si Si3 0.212447 0.225102 0.775248
Si Si4 0.765338 0.241566 0.094012
Si Si5 0.639785 0.474912 0.604506
Si Si6 0.636921 0.566204 0.123511
Si Si7 0.905105 0.235637 0.683589
Si Si8 0.928195 0.892601 0.794925
O O1 0.613756 0.902939 0.691214
O O2 0.358579 0.857351 0.873637
O O3 0.371465 0.124940 0.717890
O O4 0.500000 0.000000 0.000000
O O5 0.688420 0.627388 0.605198
O O6 0.670943 0.654875 0.915736
O O7 0.879954 0.783799 0.701192
O O8 0.258877 0.375307 0.780494
O O9 0.082798 0.240256 0.662565
O O10 0.151541 0.143036 0.988998
O O11 0.692066 0.393600 0.147197
O O12 0.894655 0.148741 0.207014
O O13 0.846246 0.271370 0.883646
O O14 0.500000 0.500000 0.500000
O O15 0.542306 0.407142 0.803493
O O16 0.790506 0.356041 0.566697
O O17 0.887977 0.066606 0.706149
#
# Coordination Sequence:
#
# PCOD9093842 Si02
#       8
#     2   2   2   2   2   2   2   2
#     4  12  18  31  54  92 129 150 188 243 296 355
#     4  11  22  36  63  92 120 157 199 247 301 352
#     4  10  21  32  58  98 123 153 190 245 304 356
#     4  11  19  33  58  92 127 149 192 246 298 359
#     4  12  27  43  59  84 123 163 204 249 298 353
#     4  11  22  37  62  92 116 156 199 250 300 350
#     4  11  20  37  59  86 127 159 191 241 305 355
#     4  10  20  33  58  96 126 149 189 250 308 348
#
# _framework density 25.438586000000001
#
# number of rings (size 3 to 8) (size 9 to 14) (size 15 to 20)
#    0.000    1.000    7.500    1.875    3.500    1.500 
#    0.000    1.250    0.000    1.500    0.000    0.000 
#    0.000    0.000    0.000    0.000    0.000    0.000 
#
# Total GULP energy -89592.506955 kJ/mol
# GULP energy per Si atom -5599.531685 kJ/mol
# Density = 2.538069 g / cm^3
# Si number density = 25.438586 Si / 1000 Ang^3
#
#
#
# Elastic Constant Matrix: (Units=GPa)
#
#
# Indices 1 2 3 4 5 6 
#
# 1 159.2617 78.9728 31.6075 -19.6047 42.8677 31.8777
# 2 78.9728 158.8597 41.3609 -22.6680 38.9718 22.1659
# 3 31.6075 41.3609 84.2953 2.6968 31.0877 12.2766
# 4 -19.6047 -22.6680 2.6968 35.6534 1.5377 12.1391
# 5 42.8677 38.9718 31.0877 1.5377 39.1078 -9.1734
# 6 31.8777 22.1659 12.2766 12.1391 -9.1734 55.1257
#
#
#
# Elastic Compliance Matrix: (Units=1/GPa)
#
#
# Indices 1 2 3 4 5 6 
#
# 1 0.028613 0.008269 0.012194 0.036509 -0.060268 -0.040655
# 2 0.008269 0.016551 0.004673 0.024365 -0.035813 -0.023802
# 3 0.012194 0.004673 0.024502 0.018530 -0.044289 -0.025837
# 4 0.036509 0.024365 0.018530 0.090873 -0.099395 -0.071587
# 5 -0.060268 -0.035813 -0.044289 -0.099395 0.192969 0.113114
# 6 -0.040655 -0.023802 -0.025837 -0.071587 0.113114 0.091562
#
#
# Mechanical properties :
#
#
# Convention : Reuss Voigt Hill
#
# Bulk Modulus (GPa) = 8.33774 78.47767 43.40771
# Shear Modulus (GPa) = 11.50014 42.67574 27.08794
#
# Velocity S-wave (km/s) = 2.12851 4.10029 3.26672
# Velocity P-wave (km/s) = 3.05376 7.30297 5.59727
#
# Compressibility (1/GPa) = 0.11993662
#
# Stress axis : x y z
#
# Youngs Moduli (GPa) = 34.94957 60.41814 40.81377
#
# Poissons Ratio (x) = -0.49957 -0.49767
# Poissons Ratio (y) = -0.28898 -0.19073
# Poissons Ratio (z) = -0.42617 -0.28235
#
# Static dielectric constant tensor:
#      x y z
#    x 2.010750 -0.059720 -0.002460 
#    y -0.059720 1.976940 0.056170 
#    z -0.002460 0.056170 2.208810 
# 
# From -- ./inp_files/381705.got.cif
#   From: 2010.05.17/outbox.cif.g08.bks.cpg/sg2_191_cif.got.tgz:381705.got - 2010.06.03 11:33:40.
