data_PCOD9093378
_publ_section_title
;
Structure prediction by ZEFSAII (Michael W. Deem and Ramdas Pophale) SiO2 
 PCOD9093378
Probable space group: P -1
;
_chemical_formula_sum "Si O2"
_cell_formula_units_Z 16
_cell_length_a 11.959256
_cell_length_b 20.782773
_cell_length_c 7.778301
_cell_angle_alpha 48.340548
_cell_angle_beta 123.216685
_cell_angle_gamma 147.562846
_cell_volume 774.299166
_symmetry_space_group_name_H-M "P -1"
_symmetry_group_IT_number 2
_symmetry_cell_setting 'triclinic'
loop_
_space_group_symop_operation_xyz
x,y,z
-x,-y,-z
loop_
_atom_site_type_symbol
_atom_site_label
_atom_site_fract_x
_atom_site_fract_y
_atom_site_fract_z
Si Si1 0.034517 0.479887 0.793508
Si Si2 0.457958 0.078299 0.276482
Si Si3 0.966875 0.886699 0.862214
Si Si4 0.760822 0.804757 0.484670
Si Si5 0.084456 0.669109 0.699141
Si Si6 0.636508 0.310872 0.550186
Si Si7 0.394188 0.036087 0.892194
Si Si8 0.005241 0.172979 0.641884
O O1 0.013161 0.570476 0.664205
O O2 0.248602 0.577700 0.696422
O O3 0.829839 0.361100 0.719898
O O4 0.024282 0.418347 0.064031
O O5 0.667009 0.226493 0.255651
O O6 0.500000 0.000000 0.500000
O O7 0.444796 0.080962 0.054709
O O8 0.224259 0.982150 0.314407
O O9 0.793174 0.804173 0.716180
O O10 0.911021 0.828471 0.109218
O O11 0.091226 0.039109 0.706960
O O12 0.145676 0.911083 0.895724
O O13 0.519142 0.710088 0.426743
O O14 0.843776 0.772061 0.486997
O O15 0.037786 0.747045 0.502130
O O16 0.487349 0.158544 0.637128
O O17 0.500000 0.000000 0.000000
#
# Coordination Sequence:
#
# PCOD9093378 Si02
#       8
#     2   2   2   2   2   2   2   2
#     4  10  22  41  61  81 119 154 211 247 289 353
#     4   9  19  32  53  90 116 140 185 235 315 347
#     4   9  21  36  56  93 122 159 190 231 316 369
#     4  10  21  40  59  87 126 158 196 239 302 373
#     4  10  21  39  60  90 114 158 199 251 299 348
#     4  10  22  40  60  85 114 163 196 248 301 347
#     4  10  20  32  58  90 119 144 188 251 303 356
#     4  10  21  38  62  91 124 152 193 250 306 363
#
# _framework density 20.663845999999999
#
# number of rings (size 3 to 8) (size 9 to 14) (size 15 to 20)
#    0.000    2.250    1.250    0.375    8.750    2.000 
#    6.750    1.250    0.000    0.000    0.000    0.000 
#    0.000    0.000    0.000    0.000    0.000    0.000 
#
# Total GULP energy -89238.461588 kJ/mol
# GULP energy per Si atom -5577.403849 kJ/mol
# Density = 2.061681 g / cm^3
# Si number density = 20.663846 Si / 1000 Ang^3
#
#
#
# Elastic Constant Matrix: (Units=GPa)
#
#
# Indices 1 2 3 4 5 6 
#
# 1 62.4899 10.7499 13.9405 -4.7381 -2.5263 16.6938
# 2 10.7499 33.5109 18.4008 -4.5649 -10.5529 11.2936
# 3 13.9405 18.4008 74.6308 4.9638 -11.8301 1.8374
# 4 -4.7381 -4.5649 4.9638 27.5565 4.3984 -4.1400
# 5 -2.5263 -10.5529 -11.8301 4.3984 27.6115 -3.9161
# 6 16.6938 11.2936 1.8374 -4.1400 -3.9161 21.8346
#
#
#
# Elastic Compliance Matrix: (Units=1/GPa)
#
#
# Indices 1 2 3 4 5 6 
#
# 1 0.021256 0.000544 -0.004243 0.002460 -0.002345 -0.016130
# 2 0.000544 0.045558 -0.009610 0.004742 0.009676 -0.020537
# 3 -0.004243 -0.009610 0.017587 -0.005328 0.005269 0.006669
# 4 0.002460 0.004742 -0.005328 0.039835 -0.006229 0.002551
# 5 -0.002345 0.009676 0.005269 -0.006229 0.043367 0.002941
# 6 -0.016130 -0.020537 0.006669 0.002551 0.002941 0.069203
#
#
# Mechanical properties :
#
#
# Convention : Reuss Voigt Hill
#
# Bulk Modulus (GPa) = 17.30637 28.53486 22.92062
# Shear Modulus (GPa) = 17.68753 23.90322 20.79537
#
# Velocity S-wave (km/s) = 2.92886 3.40481 3.17577
# Velocity P-wave (km/s) = 4.45320 5.41258 4.95616
#
# Compressibility (1/GPa) = 0.05778220
#
# Stress axis : x y z
#
# Youngs Moduli (GPa) = 47.04489 21.95020 56.86143
#
# Poissons Ratio (x) = -0.01193 0.24125
# Poissons Ratio (y) = -0.02558 0.54644
# Poissons Ratio (z) = 0.19960 0.21094
#
# Static dielectric constant tensor:
#      x y z
#    x 1.748550 0.007730 -0.011550 
#    y 0.007730 1.770390 0.015140 
#    z -0.011550 0.015140 1.786940 
# 
# From -- ./inp_files/284668.got.cif
#   From: 2010.05.17/outbox.cif.g08.bks.cpg/sg2_143_cif.got.tgz:284668.got - 2010.06.03 11:33:40.
