data_PCOD9093087
_publ_section_title
;
Structure prediction by ZEFSAII (Michael W. Deem and Ramdas Pophale) SiO2 
 PCOD9093087
Probable space group: P -1
;
_chemical_formula_sum "Si O2"
_cell_formula_units_Z 16
_cell_length_a 23.628923
_cell_length_b 20.894733
_cell_length_c 14.337595
_cell_angle_alpha 25.533436
_cell_angle_beta 23.303253
_cell_angle_gamma 18.760260
_cell_volume 870.353027
_symmetry_space_group_name_H-M "P -1"
_symmetry_group_IT_number 2
_symmetry_cell_setting 'triclinic'
loop_
_space_group_symop_operation_xyz
x,y,z
-x,-y,-z
loop_
_atom_site_type_symbol
_atom_site_label
_atom_site_fract_x
_atom_site_fract_y
_atom_site_fract_z
Si Si1 0.637382 0.308096 0.262187
Si Si2 0.438571 0.867815 0.534776
Si Si3 0.705906 0.471563 0.784858
Si Si4 0.110858 0.090105 0.040175
Si Si5 0.504301 0.152565 0.117990
Si Si6 0.110399 0.948281 0.032594
Si Si7 0.828138 0.635908 0.506057
Si Si8 0.355481 0.557508 0.725507
O O1 0.556515 0.211885 0.469623
O O2 0.591298 0.390706 0.328012
O O3 0.586645 0.470455 0.048515
O O4 0.876648 0.128367 0.133639
O O5 0.574191 0.669357 0.658097
O O6 0.496852 0.997027 0.284938
O O7 0.222414 0.991221 0.744344
O O8 0.812181 0.266664 0.835278
O O9 0.846374 0.484857 0.607893
O O10 0.152360 0.225064 0.760488
O O11 0.272100 0.955863 0.054132
O O12 0.875157 0.250199 0.205270
O O13 0.151200 0.951804 0.074274
O O14 0.381458 0.222994 0.308055
O O15 0.391633 0.359658 0.957774
O O16 0.000000 0.500000 0.500000
O O17 0.500000 0.500000 0.500000
#
# Coordination Sequence:
#
# PCOD9093087 Si02
#       8
#     2   2   2   2   2   2   2   2
#     4  10  21  36  56  84 118 160 193 238 292 348
#     4  11  21  32  55  92 122 154 186 223 311 375
#     4  11  20  31  52  91 126 155 182 229 297 373
#     4  11  22  39  60  94 120 154 197 240 305 366
#     4  12  23  37  63  86 127 156 190 251 303 354
#     4  10  20  31  53  85 128 155 184 223 292 366
#     4  12  20  33  57  93 130 158 186 232 305 373
#     4  11  26  45  64  83 111 161 217 256 287 335
#
# _framework density 18.383344999999998
#
# number of rings (size 3 to 8) (size 9 to 14) (size 15 to 20)
#    0.000    1.000    5.000    4.875    3.500    0.500 
#    0.000    0.625    0.000    0.750    0.000    0.000 
#    0.000    0.000    0.000    0.000    0.000    0.000 
#
# Total GULP energy -89379.574653 kJ/mol
# GULP energy per Si atom -5586.223416 kJ/mol
# Density = 1.834150 g / cm^3
# Si number density = 18.383345 Si / 1000 Ang^3
#
#
#
# Elastic Constant Matrix: (Units=GPa)
#
#
# Indices 1 2 3 4 5 6 
#
# 1 134.5738 57.8500 35.3292 -4.4560 -32.2011 15.6535
# 2 57.8500 95.4445 35.4585 2.4454 -4.6267 8.8944
# 3 35.3292 35.4585 47.5807 11.1543 -5.6964 21.9107
# 4 -4.4560 2.4454 11.1543 22.3227 7.8663 -2.7253
# 5 -32.2011 -4.6267 -5.6964 7.8663 27.3137 -3.9710
# 6 15.6535 8.8944 21.9107 -2.7253 -3.9710 34.1146
#
#
#
# Elastic Compliance Matrix: (Units=1/GPa)
#
#
# Indices 1 2 3 4 5 6 
#
# 1 0.015420 -0.007045 -0.003883 0.000031 0.016039 -0.000875
# 2 -0.007045 0.019306 -0.016237 0.009061 -0.009838 0.008207
# 3 -0.003883 -0.016237 0.063474 -0.039379 0.011943 -0.036507
# 4 0.000031 0.009061 -0.039379 0.075320 -0.024542 0.026075
# 5 0.016039 -0.009838 0.011943 -0.024542 0.062371 -0.007165
# 6 -0.000875 0.008207 -0.036507 0.026075 -0.007165 0.052271
#
#
# Mechanical properties :
#
#
# Convention : Reuss Voigt Hill
#
# Bulk Modulus (GPa) = 22.79581 59.43049 41.11315
# Shear Modulus (GPa) = 14.00107 26.68093 20.34100
#
# Velocity S-wave (km/s) = 2.76273 3.81381 3.33000
# Velocity P-wave (km/s) = 4.75438 7.19668 6.09903
#
# Compressibility (1/GPa) = 0.04386771
#
# Stress axis : x y z
#
# Youngs Moduli (GPa) = 64.85288 51.79771 15.75456
#
# Poissons Ratio (x) = 0.36492 0.06118
# Poissons Ratio (y) = 0.45689 0.25581
# Poissons Ratio (z) = 0.25184 0.84106
#
# Static dielectric constant tensor:
#      x y z
#    x 1.689360 -0.027500 -0.021850 
#    y -0.027500 1.681650 -0.004030 
#    z -0.021850 -0.004030 1.600630 
# 
# From -- ./inp_files/336440.got.cif
#   From: 2010.05.17/outbox.cif.g08.bks.cpg/sg2_169_cif.got.tgz:336440.got - 2010.06.03 11:33:40.
