data_PCOD9093844
_publ_section_title
;
Structure prediction by ZEFSAII (Michael W. Deem and Ramdas Pophale) SiO2 
 PCOD9093844
Probable space group: P -1
;
_chemical_formula_sum "Si O2"
_cell_formula_units_Z 14
_cell_length_a 18.286221
_cell_length_b 14.089657
_cell_length_c 9.694525
_cell_angle_alpha 111.862998
_cell_angle_beta 62.535331
_cell_angle_gamma 158.855310
_cell_volume 786.330122
_symmetry_space_group_name_H-M "P -1"
_symmetry_group_IT_number 2
_symmetry_cell_setting 'triclinic'
loop_
_space_group_symop_operation_xyz
x,y,z
-x,-y,-z
loop_
_atom_site_type_symbol
_atom_site_label
_atom_site_fract_x
_atom_site_fract_y
_atom_site_fract_z
Si Si1 0.170026 0.905778 0.219221
Si Si2 0.215006 0.794747 0.903150
Si Si3 0.828584 0.153118 0.511398
Si Si4 0.928257 0.576392 0.822822
Si Si5 0.211850 0.454366 0.836500
Si Si6 0.440915 0.981717 0.249601
Si Si7 0.521994 0.639549 0.607501
O O1 0.098312 0.765960 0.347369
O O2 0.969374 0.720791 0.210530
O O3 0.330514 0.175949 0.284471
O O4 0.286858 0.961124 0.043959
O O5 0.393399 0.913750 0.784846
O O6 0.129169 0.753905 0.821017
O O7 0.000000 0.500000 0.000000
O O8 0.012251 0.342616 0.344191
O O9 0.713457 0.130268 0.575107
O O10 0.650933 0.858632 0.503691
O O11 0.723278 0.265772 0.841609
O O12 0.876294 0.619133 0.975682
O O13 0.414241 0.762879 0.804444
O O14 0.299141 0.441568 0.727104
O O15 0.500000 0.500000 0.500000
#
# Coordination Sequence:
#
# PCOD9093844 Si02
#       7
#     2   2   2   2   2   2   2
#     4   9  19  35  53  77 108 130 187 212 260 317
#     4  11  20  31  56  78 109 151 182 208 250 322
#     4   9  22  36  51  78 115 135 177 234 264 305
#     4  11  21  35  50  81 116 141 178 219 262 311
#     4  10  20  33  59  75 102 145 180 216 259 323
#     4  11  20  32  52  77 111 153 180 200 261 321
#     4   9  20  39  61  76  99 139 184 227 272 319
#
# _framework density 17.804227000000001
#
# number of rings (size 3 to 8) (size 9 to 14) (size 15 to 20)
#    0.857    1.143    2.857    2.571    0.000    1.143 
#    5.143    0.714    0.000    3.429    0.000    0.000 
#    0.000    0.000    0.000    0.000    0.000    0.000 
#
# Total GULP energy -77966.203248 kJ/mol
# GULP energy per Si atom -5569.014518 kJ/mol
# Density = 1.776370 g / cm^3
# Si number density = 17.804227 Si / 1000 Ang^3
#
#
#
# Elastic Constant Matrix: (Units=GPa)
#
#
# Indices 1 2 3 4 5 6 
#
# 1 86.0722 34.8714 40.8582 10.8181 -33.4259 7.1299
# 2 34.8714 58.3676 19.2490 19.1619 -16.8878 3.0087
# 3 40.8582 19.2490 66.1745 2.5399 -22.5368 0.2813
# 4 10.8181 19.1619 2.5399 22.0901 -4.1205 -8.4164
# 5 -33.4259 -16.8878 -22.5368 -4.1205 35.2441 6.2382
# 6 7.1299 3.0087 0.2813 -8.4164 6.2382 27.4722
#
#
#
# Elastic Compliance Matrix: (Units=1/GPa)
#
#
# Indices 1 2 3 4 5 6 
#
# 1 0.027682 -0.003111 -0.008695 -0.011755 0.020485 -0.015007
# 2 -0.003111 0.034127 -0.003231 -0.031455 0.010291 -0.014870
# 3 -0.008695 -0.003231 0.022862 0.006612 0.005020 0.003262
# 4 -0.011755 -0.031455 0.006612 0.088497 -0.018319 0.037700
# 5 0.020485 0.010291 0.005020 -0.018319 0.058287 -0.025342
# 6 -0.015007 -0.014870 0.003262 0.037700 -0.025342 0.059195
#
#
# Mechanical properties :
#
#
# Convention : Reuss Voigt Hill
#
# Bulk Modulus (GPa) = 18.31613 44.50793 31.41203
# Shear Modulus (GPa) = 14.75257 24.67034 19.71145
#
# Velocity S-wave (km/s) = 2.88166 3.72646 3.33095
# Velocity P-wave (km/s) = 4.62405 6.60062 5.69868
#
# Compressibility (1/GPa) = 0.05459668
#
# Stress axis : x y z
#
# Youngs Moduli (GPa) = 36.12432 29.30192 43.74050
#
# Poissons Ratio (x) = 0.09116 0.38034
# Poissons Ratio (y) = 0.11239 0.14133
# Poissons Ratio (z) = 0.31412 0.09468
#
# Static dielectric constant tensor:
#      x y z
#    x 1.622810 0.017590 -0.005810 
#    y 0.017590 1.626340 -0.001400 
#    z -0.005810 -0.001400 1.629260 
# 
# From -- ./inp_files/307683.got.cif
#   From: 2010.05.17/outbox.cif.g08.bks.cpg/sg2_154_cif.got.tgz:307683.got - 2010.06.03 11:33:40.
