data_PCOD9093884
_publ_section_title
;
Structure prediction by ZEFSAII (Michael W. Deem and Ramdas Pophale) SiO2 
 PCOD9093884
Probable space group: P -1
;
_chemical_formula_sum "Si O2"
_cell_formula_units_Z 14
_cell_length_a 14.349598
_cell_length_b 24.031160
_cell_length_c 5.449525
_cell_angle_alpha 89.523920
_cell_angle_beta 93.626195
_cell_angle_gamma 19.865123
_cell_volume 624.424073
_symmetry_space_group_name_H-M "P -1"
_symmetry_group_IT_number 2
_symmetry_cell_setting 'triclinic'
loop_
_space_group_symop_operation_xyz
x,y,z
-x,-y,-z
loop_
_atom_site_type_symbol
_atom_site_label
_atom_site_fract_x
_atom_site_fract_y
_atom_site_fract_z
Si Si1 0.110031 0.250899 0.017835
Si Si2 0.497900 0.130366 0.302017
Si Si3 0.286150 0.884316 0.789209
Si Si4 0.134967 0.756876 0.469271
Si Si5 0.468169 0.066789 0.689216
Si Si6 0.614509 0.482218 0.204849
Si Si7 0.064214 0.895803 0.780058
O O1 0.282649 0.206775 0.154598
O O2 0.279464 0.097013 0.090431
O O3 0.814037 0.410546 0.088320
O O4 0.158338 0.235007 0.741383
O O5 0.459474 0.215047 0.203080
O O6 0.501353 0.110052 0.590203
O O7 0.823493 0.935172 0.302784
O O8 0.127445 0.981255 0.496229
O O9 0.308477 0.805312 0.829270
O O10 0.107726 0.002335 0.998326
O O11 0.361372 0.649821 0.312750
O O12 0.204653 0.655117 0.563403
O O13 0.158185 0.782125 0.715208
O O14 0.500000 0.000000 0.500000
O O15 0.500000 0.500000 0.000000
#
# Coordination Sequence:
#
# PCOD9093884 Si02
#       7
#     2   2   2   2   2   2   2
#     4  10  21  34  52  76 111 150 191 235 283 339
#     4  10  20  33  60  80 111 140 189 242 287 337
#     4   9  19  33  59  91 116 140 189 242 304 342
#     4  10  23  36  56  80 114 152 191 237 287 341
#     4   9  19  30  51  75 104 143 183 231 281 327
#     4  11  25  36  51  80 117 159 195 227 280 355
#     4   9  19  36  57  87 119 147 182 245 297 349
#
# _framework density 22.420659000000001
#
# number of rings (size 3 to 8) (size 9 to 14) (size 15 to 20)
#    0.000    2.286    1.429    0.000   14.000    1.143 
#    0.000    0.000    0.000    0.857    0.000    2.000 
#    0.000    0.000    0.000    0.000    0.000    0.000 
#
# Total GULP energy -77953.246900 kJ/mol
# GULP energy per Si atom -5568.089064 kJ/mol
# Density = 2.236963 g / cm^3
# Si number density = 22.420659 Si / 1000 Ang^3
#
#
#
# Elastic Constant Matrix: (Units=GPa)
#
#
# Indices 1 2 3 4 5 6 
#
# 1 148.2302 30.9607 32.3529 11.4043 2.4117 -45.0738
# 2 30.9607 68.7880 19.6790 22.1775 -1.8423 -33.9323
# 3 32.3529 19.6790 74.8566 22.8960 -7.7113 -15.8938
# 4 11.4043 22.1775 22.8960 31.3442 -11.9096 -12.4926
# 5 2.4117 -1.8423 -7.7113 -11.9096 38.7300 6.4214
# 6 -45.0738 -33.9323 -15.8938 -12.4926 6.4214 39.1024
#
#
#
# Elastic Compliance Matrix: (Units=1/GPa)
#
#
# Indices 1 2 3 4 5 6 
#
# 1 0.011463 0.002941 -0.003068 0.000777 -0.003489 0.015341
# 2 0.002941 0.031246 0.000180 -0.015599 -0.007917 0.026895
# 3 -0.003068 0.000180 0.018476 -0.012436 0.000029 0.000153
# 4 0.000777 -0.015599 -0.012436 0.056406 0.014417 -0.002042
# 5 -0.003489 -0.007917 0.000029 0.014417 0.032011 -0.011531
# 6 0.015341 0.026895 0.000153 -0.002042 -0.011531 0.067900
#
#
# Mechanical properties :
#
#
# Convention : Reuss Voigt Hill
#
# Bulk Modulus (GPa) = 16.31474 50.87335 33.59404
# Shear Modulus (GPa) = 21.02380 35.76081 28.39231
#
# Velocity S-wave (km/s) = 3.06551 3.99807 3.56244
# Velocity P-wave (km/s) = 4.45222 6.63720 5.65131
#
# Compressibility (1/GPa) = 0.06129428
#
# Stress axis : x y z
#
# Youngs Moduli (GPa) = 87.23580 32.00408 54.12295
#
# Poissons Ratio (x) = -0.09414 0.16603
# Poissons Ratio (y) = -0.25660 -0.00977
# Poissons Ratio (z) = 0.26761 -0.00578
#
# Static dielectric constant tensor:
#      x y z
#    x 1.917130 0.001310 -0.033720 
#    y 0.001310 1.858890 -0.058790 
#    z -0.033720 -0.058790 2.045880 
# 
# From -- ./inp_files/101566.got.cif
#   From: 2010.05.17/outbox.cif.g08.bks.cpg/sg2_51_cif.got.tgz:101566.got - 2010.06.03 11:33:40.
