data_PCOD9093367
_publ_section_title
;
Structure prediction by ZEFSAII (Michael W. Deem and Ramdas Pophale) SiO2 
 PCOD9093367
Probable space group: P -1
;
_chemical_formula_sum "Si O2"
_cell_formula_units_Z 13
_cell_length_a 7.645551
_cell_length_b 13.776454
_cell_length_c 5.394021
_cell_angle_alpha 79.984471
_cell_angle_beta 84.019501
_cell_angle_gamma 60.611358
_cell_volume 487.369157
_symmetry_space_group_name_H-M "P -1"
_symmetry_group_IT_number 2
_symmetry_cell_setting 'triclinic'
loop_
_space_group_symop_operation_xyz
x,y,z
-x,-y,-z
loop_
_atom_site_type_symbol
_atom_site_label
_atom_site_fract_x
_atom_site_fract_y
_atom_site_fract_z
Si Si1 0.484100 0.730477 0.519882
Si Si2 0.269749 0.035714 0.555685
Si Si3 0.199323 0.512384 0.529447
Si Si4 0.000000 0.500000 0.000000
Si Si5 0.332003 0.237614 0.029001
Si Si6 0.900034 0.242623 0.665384
Si Si7 0.138079 0.077185 0.062129
O O1 0.611340 0.593978 0.562370
O O2 0.563520 0.762088 0.245409
O O3 0.255299 0.766697 0.488733
O O4 0.538215 0.773100 0.741697
O O5 0.176774 0.009761 0.338907
O O6 0.123390 0.171214 0.550751
O O7 0.500000 0.000000 0.500000
O O8 0.163771 0.627656 0.368115
O O9 0.000000 0.500000 0.500000
O O10 0.186160 0.510336 0.827335
O O11 0.863560 0.639058 0.968966
O O12 0.775723 0.001468 0.156458
O O13 0.271643 0.139900 0.054494
O O14 0.072243 0.821858 0.049868
#
# Coordination Sequence:
#
# PCOD9093367 Si02
#       7
#     2   2   2   1   2   2   2
#     4  11  24  37  57  90 132 161 196 251 300 354
#     4  10  22  40  68  94 117 151 205 258 302 360
#     4  11  20  39  55  90 119 169 205 245 281 365
#     4  10  20  32  58  78 120 156 216 240 274 338
#     4  11  22  38  59  87 120 167 205 244 293 359
#     4  10  24  38  63  90 126 158 202 252 314 346
#     4  10  22  38  66  90 117 156 210 244 301 363
#
# _framework density 26.673829000000001
#
# number of rings (size 3 to 8) (size 9 to 14) (size 15 to 20)
#    0.923    0.615    1.538    4.615    2.154    0.000 
#    0.000    2.308    0.000    5.538    0.000    0.000 
#    0.000    0.000    0.000    0.000    0.000    0.000 
#
# Total GULP energy -72524.042872 kJ/mol
# GULP energy per Si atom -5578.772529 kJ/mol
# Density = 2.661312 g / cm^3
# Si number density = 26.673829 Si / 1000 Ang^3
#
#
#
# Elastic Constant Matrix: (Units=GPa)
#
#
# Indices 1 2 3 4 5 6 
#
# 1 157.3258 60.5154 48.6939 -6.6783 37.2533 -9.5890
# 2 60.5154 168.2504 43.3308 -0.1269 -3.3380 -5.8043
# 3 48.6939 43.3308 147.9182 2.1105 47.4081 2.1654
# 4 -6.6783 -0.1269 2.1105 25.4651 -0.6765 -7.6526
# 5 37.2533 -3.3380 47.4081 -0.6765 48.3897 3.9147
# 6 -9.5890 -5.8043 2.1654 -7.6526 3.9147 28.4461
#
#
#
# Elastic Compliance Matrix: (Units=1/GPa)
#
#
# Indices 1 2 3 4 5 6 
#
# 1 0.010271 -0.003829 0.000499 0.003874 -0.009005 0.004925
# 2 -0.003829 0.008300 -0.003342 -0.000641 0.006822 -0.000454
# 3 0.000499 -0.003342 0.011360 -0.001162 -0.011755 -0.000073
# 4 0.003874 -0.000641 -0.001162 0.044381 -0.002362 0.013528
# 5 -0.009005 0.006822 -0.011755 -0.002362 0.040110 -0.006904
# 6 0.004925 -0.000454 -0.000073 0.013528 -0.006904 0.041317
#
#
# Mechanical properties :
#
#
# Convention : Reuss Voigt Hill
#
# Bulk Modulus (GPa) = 60.28093 86.50828 73.39460
# Shear Modulus (GPa) = 28.63487 41.85714 35.24600
#
# Velocity S-wave (km/s) = 3.28001 3.96564 3.63901
# Velocity P-wave (km/s) = 6.08219 7.31236 6.72546
#
# Compressibility (1/GPa) = 0.01658899
#
# Stress axis : x y z
#
# Youngs Moduli (GPa) = 97.35865 120.47584 88.02646
#
# Poissons Ratio (x) = 0.46126 -0.04392
# Poissons Ratio (y) = 0.37275 0.29416
# Poissons Ratio (z) = -0.04857 0.40260
#
# Static dielectric constant tensor:
#      x y z
#    x 2.098200 -0.016060 0.079680 
#    y -0.016060 2.079620 -0.037520 
#    z 0.079680 -0.037520 2.257260 
# 
# From -- ./inp_files/177329.got.cif
#   From: 2010.05.17/outbox.cif.g08.bks.cpg/sg2_89_cif.got.tgz:177329.got - 2010.06.03 11:33:40.
