data_PCOD9093502
_publ_section_title
;
Structure prediction by ZEFSAII (Michael W. Deem and Ramdas Pophale) SiO2 
 PCOD9093502
Probable space group: P -1
;
_chemical_formula_sum "Si O2"
_cell_formula_units_Z 16
_cell_length_a 24.026267
_cell_length_b 9.457836
_cell_length_c 15.853706
_cell_angle_alpha 44.626691
_cell_angle_beta 163.639053
_cell_angle_gamma 139.171347
_cell_volume 661.458047
_symmetry_space_group_name_H-M "P -1"
_symmetry_group_IT_number 2
_symmetry_cell_setting 'triclinic'
loop_
_space_group_symop_operation_xyz
x,y,z
-x,-y,-z
loop_
_atom_site_type_symbol
_atom_site_label
_atom_site_fract_x
_atom_site_fract_y
_atom_site_fract_z
Si Si1 0.015720 0.932950 0.236390
Si Si2 0.806763 0.198226 0.598184
Si Si3 0.462327 0.148334 0.252703
Si Si4 0.792493 0.247068 0.830550
Si Si5 0.336293 0.495460 0.839263
Si Si6 0.345316 0.534408 0.146024
Si Si7 0.800681 0.548657 0.846295
Si Si8 0.224513 0.706572 0.739890
O O1 0.180227 0.957465 0.390033
O O2 0.145628 0.897536 0.520277
O O3 0.812546 0.709205 0.011914
O O4 0.933828 0.123062 0.051146
O O5 0.596069 0.118112 0.380888
O O6 0.827431 0.426989 0.485324
O O7 0.008839 0.241994 0.932247
O O8 0.636928 0.284300 0.518492
O O9 0.348019 0.927496 0.229789
O O10 0.313295 0.273480 0.949256
O O11 0.905431 0.447037 0.971023
O O12 0.370607 0.662284 0.897454
O O13 0.500000 0.500000 0.000000
O O14 0.586337 0.549985 0.492818
O O15 0.283668 0.571277 0.135884
O O16 0.319406 0.703058 0.970271
O O17 0.000000 0.500000 0.500000
#
# Coordination Sequence:
#
# PCOD9093502 Si02
#       8
#     2   2   2   2   2   2   2   2
#     4   9  18  33  53  77 104 137 178 216 256 314
#     4   9  20  37  57  78 103 140 182 217 256 313
#     4  10  20  35  56  78 105 141 180 217 259 312
#     4  11  21  33  53  83 113 137 168 217 273 315
#     4   9  17  32  55  80 101 131 181 228 254 293
#     4   9  17  32  53  75 105 143 178 214 258 313
#     4  10  20  33  51  81 112 136 172 221 270 310
#     4   9  15  28  52  75  96 135 185 217 245 302
#
# _framework density 24.188984999999999
#
# number of rings (size 3 to 8) (size 9 to 14) (size 15 to 20)
#    0.000    2.500    0.000    4.500    0.000    1.000 
#    0.000    2.500    0.000    1.500    0.000   11.375 
#    0.000    0.000    0.000    0.000    0.000    0.000 
#
# Total GULP energy -89288.096722 kJ/mol
# GULP energy per Si atom -5580.506045 kJ/mol
# Density = 2.413393 g / cm^3
# Si number density = 24.188985 Si / 1000 Ang^3
#
#
#
# Elastic Constant Matrix: (Units=GPa)
#
#
# Indices 1 2 3 4 5 6 
#
# 1 135.6635 28.3662 59.6476 -18.6054 -6.0061 -17.0829
# 2 28.3662 65.6205 37.2755 -4.2109 -7.7645 -2.9686
# 3 59.6476 37.2755 137.9584 -26.6623 -24.5405 2.0297
# 4 -18.6054 -4.2109 -26.6623 25.3777 6.6300 -1.6829
# 5 -6.0061 -7.7645 -24.5405 6.6300 46.8001 -9.0070
# 6 -17.0829 -2.9686 2.0297 -1.6829 -9.0070 32.5313
#
#
#
# Elastic Compliance Matrix: (Units=1/GPa)
#
#
# Indices 1 2 3 4 5 6 
#
# 1 0.010577 -0.002213 -0.003248 0.004416 -0.000238 0.005717
# 2 -0.002213 0.018767 -0.004627 -0.003593 0.001096 0.000957
# 3 -0.003248 -0.004627 0.012265 0.008664 0.003749 -0.001407
# 4 0.004416 -0.003593 0.008664 0.051949 -0.002165 0.003539
# 5 -0.000238 0.001096 0.003749 -0.002165 0.025055 0.006566
# 6 0.005717 0.000957 -0.001407 0.003539 0.006566 0.035918
#
#
# Mechanical properties :
#
#
# Convention : Reuss Voigt Hill
#
# Bulk Modulus (GPa) = 46.65960 65.53566 56.09763
# Shear Modulus (GPa) = 27.49488 35.20538 31.35013
#
# Velocity S-wave (km/s) = 3.37511 3.81915 3.60397
# Velocity P-wave (km/s) = 5.87537 6.82641 6.36867
#
# Compressibility (1/GPa) = 0.02143181
#
# Stress axis : x y z
#
# Youngs Moduli (GPa) = 94.54380 53.28565 81.53174
#
# Poissons Ratio (x) = 0.11794 0.26482
# Poissons Ratio (y) = 0.20925 0.37726
# Poissons Ratio (z) = 0.30709 0.24656
#
# Static dielectric constant tensor:
#      x y z
#    x 1.987650 0.078180 0.016530 
#    y 0.078180 1.987650 0.003750 
#    z 0.016530 0.003750 1.903500 
# 
# From -- ./inp_files/542513.got.cif
#   From: 2010.05.17/outbox.cif.g08.bks.cpg/sg2_272_cif.got.tgz:542513.got - 2010.06.03 11:33:40.
