data_PCOD9093199
_publ_section_title
;
Structure prediction by ZEFSAII (Michael W. Deem and Ramdas Pophale) SiO2 
 PCOD9093199
Probable space group: P -1
;
_chemical_formula_sum "Si O2"
_cell_formula_units_Z 16
_cell_length_a 13.313047
_cell_length_b 12.276020
_cell_length_c 18.751894
_cell_angle_alpha 144.352520
_cell_angle_beta 22.920476
_cell_angle_gamma 148.925224
_cell_volume 611.737177
_symmetry_space_group_name_H-M "P -1"
_symmetry_group_IT_number 2
_symmetry_cell_setting 'triclinic'
loop_
_space_group_symop_operation_xyz
x,y,z
-x,-y,-z
loop_
_atom_site_type_symbol
_atom_site_label
_atom_site_fract_x
_atom_site_fract_y
_atom_site_fract_z
Si Si1 0.540158 0.311291 0.175445
Si Si2 0.359453 0.014443 0.796920
Si Si3 0.751875 0.824919 0.469135
Si Si4 0.262576 0.400383 0.285494
Si Si5 0.786484 0.884644 0.190160
Si Si6 0.828369 0.453296 0.709199
Si Si7 0.175343 0.397248 0.571813
Si Si8 0.002358 0.817413 0.155024
O O1 0.423908 0.283200 0.155538
O O2 0.290936 0.289642 0.381135
O O3 0.779511 0.562924 0.156716
O O4 0.686790 0.176682 0.038162
O O5 0.609469 0.979032 0.653426
O O6 0.316724 0.976308 0.718299
O O7 0.499328 0.269505 0.841497
O O8 0.054356 0.892600 0.972233
O O9 0.453871 0.607387 0.530443
O O10 0.923398 0.766633 0.385488
O O11 0.934787 0.886568 0.310888
O O12 0.506170 0.651663 0.259008
O O13 0.175558 0.363885 0.239756
O O14 0.006123 0.379075 0.496455
O O15 0.920761 0.930778 0.206045
O O16 0.983545 0.479510 0.697430
#
# Coordination Sequence:
#
# PCOD9093199 Si02
#       8
#     2   2   2   2   2   2   2   2
#     4   8  14  27  50  74  93 128 173 210 241 295
#     4  10  20  33  54  79 105 132 171 218 261 299
#     4  10  20  32  50  79 106 134 171 218 258 301
#     4   8  15  29  53  77  98 128 178 215 240 294
#     4   9  18  33  53  77 103 139 175 206 250 318
#     4   9  17  32  53  78 103 134 173 214 254 305
#     4   9  18  32  51  74 103 135 173 211 255 307
#     4   9  16  28  48  72  99 129 170 210 247 292
#
# _framework density 26.155024000000001
#
# number of rings (size 3 to 8) (size 9 to 14) (size 15 to 20)
#    0.000    3.000    0.000    1.500    0.000    4.000 
#    0.000    0.000    0.000   20.250    0.000    0.000 
#    0.000    0.000    0.000    0.000    0.000    0.000 
#
# Total GULP energy -89326.249000 kJ/mol
# GULP energy per Si atom -5582.890563 kJ/mol
# Density = 2.609549 g / cm^3
# Si number density = 26.155024 Si / 1000 Ang^3
#
#
#
# Elastic Constant Matrix: (Units=GPa)
#
#
# Indices 1 2 3 4 5 6 
#
# 1 227.5033 33.6076 15.3623 -10.8094 -13.1460 -32.4260
# 2 33.6076 104.4000 20.5392 -7.2895 -5.3570 -22.1021
# 3 15.3623 20.5392 70.9583 -24.0480 -9.2471 -8.4350
# 4 -10.8094 -7.2895 -24.0480 27.6972 -1.0062 -1.5097
# 5 -13.1460 -5.3570 -9.2471 -1.0062 28.6382 -7.4340
# 6 -32.4260 -22.1021 -8.4350 -1.5097 -7.4340 31.6335
#
#
#
# Elastic Compliance Matrix: (Units=1/GPa)
#
#
# Indices 1 2 3 4 5 6 
#
# 1 0.005993 0.000056 0.002047 0.004793 0.005747 0.008308
# 2 0.000056 0.012219 -0.000625 0.003397 0.004749 0.009707
# 3 0.002047 -0.000625 0.024943 0.023441 0.012938 0.012472
# 4 0.004793 0.003397 0.023441 0.060998 0.017909 0.020656
# 5 0.005747 0.004749 0.012938 0.017909 0.049797 0.025216
# 6 0.008308 0.009707 0.012472 0.020656 0.025216 0.057147
#
#
# Mechanical properties :
#
#
# Convention : Reuss Voigt Hill
#
# Bulk Modulus (GPa) = 21.68649 60.20887 40.94768
# Shear Modulus (GPa) = 22.37011 39.81729 31.09370
#
# Velocity S-wave (km/s) = 2.92771 3.90597 3.45167
# Velocity P-wave (km/s) = 4.44276 6.58879 5.61918
#
# Compressibility (1/GPa) = 0.04611165
#
# Stress axis : x y z
#
# Youngs Moduli (GPa) = 166.86441 81.83867 40.09078
#
# Poissons Ratio (x) = -0.00462 -0.08206
# Poissons Ratio (y) = -0.00942 0.02507
# Poissons Ratio (z) = -0.34157 0.05117
#
# Static dielectric constant tensor:
#      x y z
#    x 2.138000 0.067410 -0.063380 
#    y 0.067410 2.191480 0.028710 
#    z -0.063380 0.028710 1.992220 
# 
# From -- ./inp_files/391094.got.cif
#   From: 2010.05.17/outbox.cif.g08.bks.cpg/sg2_196_cif.got.tgz:391094.got - 2010.06.03 11:33:40.
