data_PCOD9093468
_publ_section_title
;
Structure prediction by ZEFSAII (Michael W. Deem and Ramdas Pophale) SiO2 
 PCOD9093468
Probable space group: P -1
;
_chemical_formula_sum "Si O2"
_cell_formula_units_Z 14
_cell_length_a 23.395042
_cell_length_b 5.730856
_cell_length_c 9.833418
_cell_angle_alpha 41.062426
_cell_angle_beta 48.689449
_cell_angle_gamma 50.775530
_cell_volume 625.834898
_symmetry_space_group_name_H-M "P -1"
_symmetry_group_IT_number 2
_symmetry_cell_setting 'triclinic'
loop_
_space_group_symop_operation_xyz
x,y,z
-x,-y,-z
loop_
_atom_site_type_symbol
_atom_site_label
_atom_site_fract_x
_atom_site_fract_y
_atom_site_fract_z
Si Si1 0.171423 0.069813 0.151439
Si Si2 0.883265 0.904912 0.487802
Si Si3 0.298737 0.806903 0.857417
Si Si4 0.455421 0.272907 0.771024
Si Si5 0.176946 0.907377 0.789162
Si Si6 0.948449 0.026402 0.822840
Si Si7 0.452470 0.790459 0.759399
O O1 0.164611 0.930718 0.374668
O O2 0.086872 0.137006 0.179125
O O3 0.192372 0.461212 0.954275
O O4 0.233475 0.788933 0.080174
O O5 0.918477 0.470370 0.654718
O O6 0.957491 0.072766 0.274800
O O7 0.832849 0.953939 0.409136
O O8 0.360323 0.453155 0.849407
O O9 0.245164 0.004293 0.729477
O O10 0.361553 0.957229 0.778881
O O11 0.500000 0.500000 0.500000
O O12 0.466184 0.888179 0.848323
O O13 0.477202 0.376527 0.842931
O O14 0.095293 0.053736 0.937771
O O15 0.500000 0.000000 0.500000
#
# Coordination Sequence:
#
# PCOD9093468 Si02
#       7
#     2   2   2   2   2   2   2
#     4  10  20  33  50  77 108 141 181 233 278 331
#     4  10  20  35  54  74 106 143 187 227 284 328
#     4   9  18  29  48  72 114 136 182 228 275 331
#     4   8  14  25  44  71 103 135 178 224 266 319
#     4  10  20  33  51  78 108 143 180 233 281 329
#     4   9  20  36  52  75 104 141 188 236 267 337
#     4   8  14  25  45  72 104 136 179 225 268 321
#
# _framework density 22.370118999999999
#
# number of rings (size 3 to 8) (size 9 to 14) (size 15 to 20)
#    0.857    2.000    0.000    1.714    0.000    2.857 
#    0.000    0.000    0.000    0.000    0.000    2.000 
#    0.000    0.714    0.000    0.000    0.000    0.000 
#
# Total GULP energy -77942.277732 kJ/mol
# GULP energy per Si atom -5567.305552 kJ/mol
# Density = 2.231920 g / cm^3
# Si number density = 22.370119 Si / 1000 Ang^3
#
#
#
# Elastic Constant Matrix: (Units=GPa)
#
#
# Indices 1 2 3 4 5 6 
#
# 1 31.3260 46.3913 72.8021 -12.3129 -5.6658 84.5832
# 2 46.3913 119.0295 49.8806 18.7790 16.0822 19.6848
# 3 72.8021 49.8806 57.5778 37.0496 28.9711 -19.9678
# 4 -12.3129 18.7790 37.0496 22.7800 14.3923 22.5786
# 5 -5.6658 16.0822 28.9711 14.3923 31.0299 25.0641
# 6 84.5832 19.6848 -19.9678 22.5786 25.0641 7.3259
#
#
#
# Elastic Compliance Matrix: (Units=1/GPa)
#
#
# Indices 1 2 3 4 5 6 
#
# 1 0.004719 -0.003527 0.005655 -0.006957 -0.004093 0.005855
# 2 -0.003527 0.012622 -0.005477 -0.002133 -0.000098 -0.001220
# 3 0.005655 -0.005477 0.012841 -0.004359 0.002476 -0.010612
# 4 -0.006957 -0.002133 -0.004359 0.056612 -0.033266 0.013511
# 5 -0.004093 -0.000098 0.002476 -0.033266 0.046498 -0.002289
# 6 0.005855 -0.001220 -0.010612 0.013511 -0.002289 0.009448
#
#
# Mechanical properties :
#
#
# Convention : Reuss Voigt Hill
#
# Bulk Modulus (GPa) = 42.57946 60.67568 51.62757
# Shear Modulus (GPa) = 31.79337 14.81777 23.30557
#
# Velocity S-wave (km/s) = 3.77403 2.57649 3.23122
# Velocity P-wave (km/s) = 6.16980 6.00279 6.08687
#
# Compressibility (1/GPa) = 0.02348550
#
# Stress axis : x y z
#
# Youngs Moduli (GPa) = 211.92160 79.22370 77.87348
#
# Poissons Ratio (x) = 0.27940 -0.44040
# Poissons Ratio (y) = 0.74738 0.42653
# Poissons Ratio (z) = -1.19849 0.43393
#
# Static dielectric constant tensor:
#      x y z
#    x 1.846000 0.040590 -0.025950 
#    y 0.040590 1.872890 -0.013810 
#    z -0.025950 -0.013810 1.793460 
# 
# From -- ./inp_files/12980.got.cif
#   From: 2010.05.17/outbox.cif.g08.bks.cpg/sg2_7_cif.got.tgz:12980.got - 2010.06.03 11:33:40.
