data_PCOD9093819
_publ_section_title
;
Structure prediction by ZEFSAII (Michael W. Deem and Ramdas Pophale) SiO2 
 PCOD9093819
Probable space group: P -1
;
_chemical_formula_sum "Si O2"
_cell_formula_units_Z 16
_cell_length_a 18.895341
_cell_length_b 11.156242
_cell_length_c 14.401514
_cell_angle_alpha 29.087469
_cell_angle_beta 23.905659
_cell_angle_gamma 37.540080
_cell_volume 597.790623
_symmetry_space_group_name_H-M "P -1"
_symmetry_group_IT_number 2
_symmetry_cell_setting 'triclinic'
loop_
_space_group_symop_operation_xyz
x,y,z
-x,-y,-z
loop_
_atom_site_type_symbol
_atom_site_label
_atom_site_fract_x
_atom_site_fract_y
_atom_site_fract_z
Si Si1 0.237826 0.975950 0.256454
Si Si2 0.692760 0.720335 0.516775
Si Si3 0.038467 0.433014 0.183233
Si Si4 0.784838 0.292765 0.357015
Si Si5 0.600103 0.685788 0.441696
Si Si6 0.307737 0.551526 0.122860
Si Si7 0.201897 0.729183 0.948044
Si Si8 0.531075 0.962773 0.780993
O O1 0.188649 0.930791 0.452878
O O2 0.112061 0.777384 0.489292
O O3 0.204955 0.259859 0.084234
O O4 0.428282 0.919129 0.029871
O O5 0.705062 0.698417 0.405259
O O6 0.740218 0.495873 0.680393
O O7 0.783500 0.974574 0.269739
O O8 0.481910 0.725557 0.782996
O O9 0.043464 0.594672 0.974309
O O10 0.069275 0.604531 0.118783
O O11 0.675275 0.476910 0.426885
O O12 0.669613 0.182859 0.485849
O O13 0.397442 0.643941 0.743611
O O14 0.598681 0.929691 0.213426
O O15 0.372355 0.281794 0.196799
O O16 0.171860 0.644605 0.147655
#
# Coordination Sequence:
#
# PCOD9093819 Si02
#       8
#     2   2   2   2   2   2   2   2
#     4  11  24  38  58  90 120 154 190 236 292 352
#     4  10  21  34  54  90 116 151 189 241 290 334
#     4  11  23  40  60  86 120 155 193 233 291 351
#     4  12  22  40  60  88 118 155 191 239 292 345
#     4  11  20  34  60  86 118 149 189 242 286 335
#     4  10  20  33  58  88 117 147 189 245 291 334
#     4  11  20  37  58  85 117 153 191 238 284 344
#     4  12  21  37  62  88 120 150 192 244 293 337
#
# _framework density 26.765225999999998
#
# number of rings (size 3 to 8) (size 9 to 14) (size 15 to 20)
#    0.000    1.000    3.750    5.625    1.750    0.000 
#    0.000    0.000    0.000    3.750    0.000    0.000 
#    0.000    0.000    0.000    0.000    0.000    0.000 
#
# Total GULP energy -89634.993876 kJ/mol
# GULP energy per Si atom -5602.187117 kJ/mol
# Density = 2.670431 g / cm^3
# Si number density = 26.765226 Si / 1000 Ang^3
#
#
#
# Elastic Constant Matrix: (Units=GPa)
#
#
# Indices 1 2 3 4 5 6 
#
# 1 157.0840 -2.9189 46.1097 -19.6528 21.3824 28.8910
# 2 -2.9189 78.9780 28.3287 -3.8541 -8.8251 24.6691
# 3 46.1097 28.3287 125.4429 -6.9172 8.3054 15.1894
# 4 -19.6528 -3.8541 -6.9172 40.6189 8.9575 -4.3433
# 5 21.3824 -8.8251 8.3054 8.9575 55.8634 -10.3790
# 6 28.8910 24.6691 15.1894 -4.3433 -10.3790 34.9479
#
#
#
# Elastic Compliance Matrix: (Units=1/GPa)
#
#
# Indices 1 2 3 4 5 6 
#
# 1 0.011207 0.005019 -0.003001 0.005414 -0.006277 -0.012694
# 2 0.005019 0.019276 -0.004001 0.002204 -0.001650 -0.016232
# 3 -0.003001 -0.004001 0.009951 0.000129 -0.000845 0.000746
# 4 0.005414 0.002204 0.000129 0.028556 -0.007191 -0.004674
# 5 -0.006277 -0.001650 -0.000845 -0.007191 0.023712 0.012870
# 6 -0.012694 -0.016232 0.000746 -0.004674 0.012870 0.053483
#
#
# Mechanical properties :
#
#
# Convention : Reuss Voigt Hill
#
# Bulk Modulus (GPa) = 27.42330 56.06043 41.74186
# Shear Modulus (GPa) = 30.80541 45.61841 38.21191
#
# Velocity S-wave (km/s) = 3.39624 4.13291 3.78255
# Velocity P-wave (km/s) = 5.06433 6.61553 5.89121
#
# Compressibility (1/GPa) = 0.03646534
#
# Stress axis : x y z
#
# Youngs Moduli (GPa) = 89.23157 51.87821 100.48824
#
# Poissons Ratio (x) = -0.26035 0.30161
# Poissons Ratio (y) = -0.44781 0.40210
# Poissons Ratio (z) = 0.26783 0.20759
#
# Static dielectric constant tensor:
#      x y z
#    x 2.177070 -0.035340 -0.004660 
#    y -0.035340 2.088430 0.028370 
#    z -0.004660 0.028370 2.044560 
# 
# From -- ./inp_files/541058.got.cif
#   From: 2010.05.17/outbox.cif.g08.bks.cpg/sg2_271_cif.got.tgz:541058.got - 2010.06.03 11:33:40.
