data_PCOD9093511
_publ_section_title
;
Structure prediction by ZEFSAII (Michael W. Deem and Ramdas Pophale) SiO2 
 PCOD9093511
Probable space group: P -1
;
_chemical_formula_sum "Si O2"
_cell_formula_units_Z 16
_cell_length_a 20.795973
_cell_length_b 30.363708
_cell_length_c 14.767944
_cell_angle_alpha 160.225759
_cell_angle_beta 164.989196
_cell_angle_gamma 19.860270
_cell_volume 762.112313
_symmetry_space_group_name_H-M "P -1"
_symmetry_group_IT_number 2
_symmetry_cell_setting 'triclinic'
loop_
_space_group_symop_operation_xyz
x,y,z
-x,-y,-z
loop_
_atom_site_type_symbol
_atom_site_label
_atom_site_fract_x
_atom_site_fract_y
_atom_site_fract_z
Si Si1 0.186121 0.168310 0.343415
Si Si2 0.041620 0.591759 0.065894
Si Si3 0.943403 0.469815 0.517387
Si Si4 0.385265 0.376371 0.791092
Si Si5 0.515718 0.294058 0.158140
Si Si6 0.452353 0.079502 0.351057
Si Si7 0.918155 0.172056 0.160532
Si Si8 0.639962 0.782932 0.024094
O O1 0.991084 0.318506 0.331317
O O2 0.295906 0.081042 0.233989
O O3 0.039454 0.113534 0.114547
O O4 0.420719 0.197687 0.774833
O O5 0.260917 0.440439 0.096273
O O6 0.223804 0.686077 0.487975
O O7 0.797375 0.659933 0.933106
O O8 0.929452 0.572342 0.778490
O O9 0.207458 0.449227 0.776194
O O10 0.705736 0.530326 0.240338
O O11 0.333776 0.228179 0.425650
O O12 0.695478 0.326022 0.136751
O O13 0.549400 0.248078 0.219559
O O14 0.497117 0.936395 0.083535
O O15 0.734489 0.089792 0.785950
O O16 0.132033 0.195168 0.560478
#
# Coordination Sequence:
#
# PCOD9093511 Si02
#       8
#     2   2   2   2   2   2   2   2
#     4   9  17  32  51  77 100 127 163 206 248 288
#     4  10  20  33  52  71 101 134 163 197 251 290
#     4   9  17  35  54  71  99 132 163 209 244 286
#     4   8  18  34  53  75  96 128 167 205 250 279
#     4   9  20  32  49  75 101 130 163 205 240 296
#     4   9  19  32  49  73 106 129 161 203 245 291
#     4   9  19  30  51  79  99 126 162 204 248 294
#     4  11  20  32  50  77 104 132 160 198 247 300
#
# _framework density 20.99428
#
# number of rings (size 3 to 8) (size 9 to 14) (size 15 to 20)
#    0.750    2.000    0.000    1.500    3.500    3.500 
#    0.000    0.625    0.000    0.750    0.000    0.000 
#    0.000    0.000    0.000    0.000    0.000    0.000 
#
# Total GULP energy -89184.153171 kJ/mol
# GULP energy per Si atom -5574.009573 kJ/mol
# Density = 2.094650 g / cm^3
# Si number density = 20.994280 Si / 1000 Ang^3
#
#
#
# Elastic Constant Matrix: (Units=GPa)
#
#
# Indices 1 2 3 4 5 6 
#
# 1 69.4742 19.3597 -0.4626 6.3335 -2.4938 4.5020
# 2 19.3597 46.4487 -1.9358 1.9830 -4.5163 -0.0841
# 3 -0.4626 -1.9358 6.3182 3.0636 2.5631 -1.7024
# 4 6.3335 1.9830 3.0636 10.1573 -4.0873 -0.4020
# 5 -2.4938 -4.5163 2.5631 -4.0873 14.4924 0.5208
# 6 4.5020 -0.0841 -1.7024 -0.4020 0.5208 23.2888
#
#
#
# Elastic Compliance Matrix: (Units=1/GPa)
#
#
# Indices 1 2 3 4 5 6 
#
# 1 0.017627 -0.006900 0.006309 -0.013219 -0.003849 -0.003113
# 2 -0.006900 0.025176 0.005264 0.000165 0.005713 0.001685
# 3 0.006309 0.005264 0.245865 -0.107280 -0.071606 0.016521
# 4 -0.013219 0.000165 -0.107280 0.164311 0.063229 -0.003864
# 5 -0.003849 0.005713 -0.071606 0.063229 0.100818 -0.005633
# 6 -0.003113 0.001685 0.016521 -0.003864 -0.005633 0.044814
#
#
# Mechanical properties :
#
#
# Convention : Reuss Voigt Hill
#
# Bulk Modulus (GPa) = 3.35553 17.35152 10.35353
# Shear Modulus (GPa) = 7.26109 16.60635 11.93372
#
# Velocity S-wave (km/s) = 1.86175 2.81551 2.38676
# Velocity P-wave (km/s) = 2.49465 4.34192 3.54087
#
# Compressibility (1/GPa) = 0.29801590
#
# Stress axis : x y z
#
# Youngs Moduli (GPa) = 56.73062 39.72073 4.06727
#
# Poissons Ratio (x) = 0.27406 -0.02566
# Poissons Ratio (y) = 0.39142 -0.02141
# Poissons Ratio (z) = -0.35793 -0.20910
#
# Static dielectric constant tensor:
#      x y z
#    x 1.754860 0.016770 0.039510 
#    y 0.016770 1.881170 0.032370 
#    z 0.039510 0.032370 1.739880 
# 
# From -- ./inp_files/436020.got.cif
#   From: 2010.05.17/outbox.cif.g08.bks.cpg/sg2_219_cif.got.tgz:436020.got - 2010.06.03 11:33:40.
