data_PCOD9093983
_publ_section_title
;
Structure prediction by ZEFSAII (Michael W. Deem and Ramdas Pophale) SiO2 
 PCOD9093983
Probable space group: P -1
;
_chemical_formula_sum "Si O2"
_cell_formula_units_Z 10
_cell_length_a 11.848460
_cell_length_b 21.645486
_cell_length_c 5.475367
_cell_angle_alpha 52.089735
_cell_angle_beta 120.843633
_cell_angle_gamma 158.524575
_cell_volume 397.035736
_symmetry_space_group_name_H-M "P -1"
_symmetry_group_IT_number 2
_symmetry_cell_setting 'triclinic'
loop_
_space_group_symop_operation_xyz
x,y,z
-x,-y,-z
loop_
_atom_site_type_symbol
_atom_site_label
_atom_site_fract_x
_atom_site_fract_y
_atom_site_fract_z
Si Si1 0.455112 0.409951 0.967406
Si Si2 0.098822 0.423590 0.257586
Si Si3 0.151929 0.990420 0.910111
Si Si4 0.973712 0.578458 0.303332
Si Si5 0.627209 0.841209 0.752764
O O1 0.664471 0.518310 0.688856
O O2 0.609803 0.415672 0.261000
O O3 0.097225 0.207625 0.982276
O O4 0.500000 0.500000 0.000000
O O5 0.881307 0.308654 0.057173
O O6 0.323137 0.623673 0.017058
O O7 0.932693 0.335724 0.543122
O O8 0.922636 0.942065 0.804917
O O9 0.385336 0.127356 0.606617
O O10 0.292744 0.060239 0.168111
O O11 0.000000 0.500000 0.500000
#
# Coordination Sequence:
#
# PCOD9093983 Si02
#       5
#     2   2   2   2   2
#     4   9  21  33  49  76 107 131 159 197 247 302
#     4   9  19  32  52  74 102 126 165 206 248 283
#     4   9  17  26  45  69 101 123 153 196 251 284
#     4  10  20  34  50  73 100 131 170 201 241 287
#     4   9  16  28  45  71  99 119 156 206 247 278
#
# _framework density 25.186651999999999
#
# number of rings (size 3 to 8) (size 9 to 14) (size 15 to 20)
#    1.200    1.600    0.000    1.800    8.400    0.800 
#    0.000    0.000    0.000    0.000    0.000    8.400 
#    0.000    0.000    0.000    0.000    0.000    0.000 
#
# Total GULP energy -55728.178206 kJ/mol
# GULP energy per Si atom -5572.817821 kJ/mol
# Density = 2.512933 g / cm^3
# Si number density = 25.186652 Si / 1000 Ang^3
#
#
#
# Elastic Constant Matrix: (Units=GPa)
#
#
# Indices 1 2 3 4 5 6 
#
# 1 159.0295 65.6320 44.2440 4.4372 -31.3344 -23.6238
# 2 65.6320 96.0515 46.8224 10.2922 -33.2624 -37.2637
# 3 44.2440 46.8224 95.6529 34.1018 -37.4873 -20.4559
# 4 4.4372 10.2922 34.1018 39.6267 -17.7565 -20.8381
# 5 -31.3344 -33.2624 -37.4873 -17.7565 51.7992 13.9401
# 6 -23.6238 -37.2637 -20.4559 -20.8381 13.9401 55.9438
#
#
#
# Elastic Compliance Matrix: (Units=1/GPa)
#
#
# Indices 1 2 3 4 5 6 
#
# 1 0.009220 -0.004543 -0.002343 0.003459 0.001930 0.000818
# 2 -0.004543 0.023942 -0.008042 0.011557 0.007101 0.013624
# 3 -0.002343 -0.008042 0.022655 -0.017969 0.005289 -0.006073
# 4 0.003459 0.011557 -0.017969 0.051612 0.008931 0.019588
# 5 0.001930 0.007101 0.005289 0.008931 0.031100 0.003056
# 6 0.000818 0.013624 -0.006073 0.019588 0.003056 0.031609
#
#
# Mechanical properties :
#
#
# Convention : Reuss Voigt Hill
#
# Bulk Modulus (GPa) = 38.51841 73.79229 56.15535
# Shear Modulus (GPa) = 23.96397 42.40964 33.18680
#
# Velocity S-wave (km/s) = 3.08791 4.10788 3.63386
# Velocity P-wave (km/s) = 5.29528 7.20148 6.32066
#
# Compressibility (1/GPa) = 0.02596161
#
# Stress axis : x y z
#
# Youngs Moduli (GPa) = 108.45830 41.76812 44.14071
#
# Poissons Ratio (x) = 0.18975 0.10340
# Poissons Ratio (y) = 0.49271 0.35498
# Poissons Ratio (z) = 0.25407 0.33590
#
# Static dielectric constant tensor:
#      x y z
#    x 2.040700 0.072250 0.064000 
#    y 0.072250 2.077930 0.079040 
#    z 0.064000 0.079040 2.162860 
# 
# From -- ./inp_files/25426.got.cif
#   From: 2010.05.17/outbox.cif.g08.bks.cpg/sg2_13_cif.got.tgz:25426.got - 2010.06.03 11:33:40.
