data_PCOD9093400
_publ_section_title
;
Structure prediction by ZEFSAII (Michael W. Deem and Ramdas Pophale) SiO2 
 PCOD9093400
Probable space group: P -1
;
_chemical_formula_sum "Si O2"
_cell_formula_units_Z 16
_cell_length_a 7.355390
_cell_length_b 14.030392
_cell_length_c 14.559318
_cell_angle_alpha 153.478421
_cell_angle_beta 61.985496
_cell_angle_gamma 106.775007
_cell_volume 558.302136
_symmetry_space_group_name_H-M "P -1"
_symmetry_group_IT_number 2
_symmetry_cell_setting 'triclinic'
loop_
_space_group_symop_operation_xyz
x,y,z
-x,-y,-z
loop_
_atom_site_type_symbol
_atom_site_label
_atom_site_fract_x
_atom_site_fract_y
_atom_site_fract_z
Si Si1 0.074237 0.711279 0.629591
Si Si2 0.445909 0.854573 0.011371
Si Si3 0.830024 0.221456 0.843767
Si Si4 0.813695 0.459974 0.872060
Si Si5 0.262755 0.775937 0.816302
Si Si6 0.421684 0.099657 0.801090
Si Si7 0.125572 0.357664 0.556389
Si Si8 0.679784 0.096058 0.497852
O O1 0.067764 0.668234 0.485374
O O2 0.000000 0.500000 0.500000
O O3 0.270059 0.720784 0.658435
O O4 0.900452 0.966235 0.906639
O O5 0.297944 0.722332 0.981069
O O6 0.638067 0.829180 0.017366
O O7 0.316123 0.121917 0.286876
O O8 0.463927 0.778744 0.836822
O O9 0.827386 0.410935 0.934171
O O10 0.073994 0.060535 0.667920
O O11 0.272930 0.293240 0.937253
O O12 0.048841 0.363585 0.684182
O O13 0.661696 0.332393 0.752003
O O14 0.178468 0.580533 0.708442
O O15 0.376403 0.889075 0.584924
O O16 0.500000 0.000000 0.500000
O O17 0.669588 0.097437 0.730150
#
# Coordination Sequence:
#
# PCOD9093400 Si02
#       8
#     2   2   2   2   2   2   2   2
#     4   8  16  33  57  94 127 148 200 254 302 387
#     4   9  20  38  54  84 126 155 208 257 299 361
#     4  10  23  43  56  86 127 160 216 267 292 373
#     4  12  23  40  58  86 125 164 218 261 303 362
#     4   9  17  33  60  90 120 163 197 245 325 367
#     4  10  25  40  56  85 122 161 216 264 300 364
#     4  10  20  32  60  89 121 162 202 258 309 368
#     4  12  24  39  63  81 115 172 211 257 320 349
#
# _framework density 28.658315000000002
#
# number of rings (size 3 to 8) (size 9 to 14) (size 15 to 20)
#    0.750    1.250    2.500    0.750    3.500    1.500 
#    0.000    0.000    0.000    0.750    0.000   30.625 
#    0.000    0.000    0.000    0.000    0.000    0.000 
#
# Total GULP energy -89425.003637 kJ/mol
# GULP energy per Si atom -5589.062727 kJ/mol
# Density = 2.859309 g / cm^3
# Si number density = 28.658315 Si / 1000 Ang^3
#
#
#
# Elastic Constant Matrix: (Units=GPa)
#
#
# Indices 1 2 3 4 5 6 
#
# 1 106.8483 36.6686 61.6429 3.3429 19.3521 -12.5233
# 2 36.6686 162.9671 41.6008 -7.1395 6.9883 -6.5953
# 3 61.6429 41.6008 123.7478 11.7110 26.8155 -23.0292
# 4 3.3429 -7.1395 11.7110 52.0949 -5.8987 16.4655
# 5 19.3521 6.9883 26.8155 -5.8987 63.8378 4.1532
# 6 -12.5233 -6.5953 -23.0292 16.4655 4.1532 46.0950
#
#
#
# Elastic Compliance Matrix: (Units=1/GPa)
#
#
# Indices 1 2 3 4 5 6 
#
# 1 0.013579 -0.001500 -0.005728 -0.000240 -0.001623 0.000845
# 2 -0.001500 0.007053 -0.002281 0.002116 0.000926 -0.001377
# 3 -0.005728 -0.002281 0.015127 -0.006679 -0.005542 0.008560
# 4 -0.000240 0.002116 -0.006679 0.025715 0.005856 -0.012812
# 5 -0.001623 0.000926 -0.005542 0.005856 0.019374 -0.006915
# 6 0.000845 -0.001377 0.008560 -0.012812 -0.006915 0.031203
#
#
# Mechanical properties :
#
#
# Convention : Reuss Voigt Hill
#
# Bulk Modulus (GPa) = 59.73382 74.82087 67.27734
# Shear Modulus (GPa) = 36.58949 49.31560 42.95254
#
# Velocity S-wave (km/s) = 3.57704 4.15277 3.87561
# Velocity P-wave (km/s) = 6.16027 7.01132 6.59953
#
# Compressibility (1/GPa) = 0.01674094
#
# Stress axis : x y z
#
# Youngs Moduli (GPa) = 73.64268 141.77874 66.10568
#
# Poissons Ratio (x) = 0.21264 0.37868
# Poissons Ratio (y) = 0.11045 0.15080
# Poissons Ratio (z) = 0.42185 0.32342
#
# Static dielectric constant tensor:
#      x y z
#    x 2.251590 0.029050 -0.074780 
#    y 0.029050 2.353080 -0.059510 
#    z -0.074780 -0.059510 2.336570 
# 
# From -- ./inp_files/504703.got.cif
#   From: 2010.05.17/outbox.cif.g08.bks.cpg/sg2_253_cif.got.tgz:504703.got - 2010.06.03 11:33:40.
