data_PCOD9093778
_publ_section_title
;
Structure prediction by ZEFSAII (Michael W. Deem and Ramdas Pophale) SiO2 
 PCOD9093778
Probable space group: P -1
;
_chemical_formula_sum "Si O2"
_cell_formula_units_Z 16
_cell_length_a 17.946433
_cell_length_b 11.837978
_cell_length_c 14.645168
_cell_angle_alpha 29.312576
_cell_angle_beta 39.425044
_cell_angle_gamma 29.692908
_cell_volume 753.095897
_symmetry_space_group_name_H-M "P -1"
_symmetry_group_IT_number 2
_symmetry_cell_setting 'triclinic'
loop_
_space_group_symop_operation_xyz
x,y,z
-x,-y,-z
loop_
_atom_site_type_symbol
_atom_site_label
_atom_site_fract_x
_atom_site_fract_y
_atom_site_fract_z
Si Si1 0.626894 0.018669 0.690583
Si Si2 0.346597 0.402673 0.179141
Si Si3 0.789556 0.198187 0.651877
Si Si4 0.264434 0.259071 0.033291
Si Si5 0.665958 0.699381 0.537971
Si Si6 0.706826 0.418883 0.386726
Si Si7 0.706126 0.024841 0.136447
Si Si8 0.957771 0.740372 0.948405
O O1 0.717990 0.143498 0.533086
O O2 0.463837 0.316720 0.604557
O O3 0.686755 0.758608 0.746102
O O4 0.623749 0.888334 0.882974
O O5 0.278303 0.421072 0.329209
O O6 0.530507 0.195301 0.156358
O O7 0.290636 0.732643 0.986821
O O8 0.662683 0.476048 0.636869
O O9 0.807863 0.306171 0.462098
O O10 0.739952 0.999222 0.815542
O O11 0.929904 0.000341 0.728360
O O12 0.280507 0.415249 0.823982
O O13 0.097357 0.543056 0.024105
O O14 0.500000 0.000000 0.500000
O O15 0.754060 0.771875 0.341463
O O16 0.808075 0.891925 0.043116
O O17 0.000000 0.500000 0.000000
#
# Coordination Sequence:
#
# PCOD9093778 Si02
#       8
#     2   2   2   2   2   2   2   2
#     4  10  22  39  58  91 119 156 206 252 294 364
#     4  10  21  37  62  88 122 151 202 255 303 355
#     4  10  21  36  58  90 124 149 201 251 298 356
#     4  10  23  40  60  85 124 167 199 241 301 361
#     4  10  20  33  57  90 119 152 194 249 304 354
#     4  10  21  38  60  87 120 160 200 256 303 346
#     4  10  21  38  58  92 119 159 196 252 310 346
#     4  10  22  39  59  90 127 159 203 242 298 369
#
# _framework density 21.245633999999999
#
# number of rings (size 3 to 8) (size 9 to 14) (size 15 to 20)
#    0.000    2.000    1.250    1.875    7.000    1.500 
#    4.500    0.625    0.000    1.500    0.000    0.000 
#    0.000    0.000    0.000    0.000    0.000    0.000 
#
# Total GULP energy -89135.822856 kJ/mol
# GULP energy per Si atom -5570.988929 kJ/mol
# Density = 2.119728 g / cm^3
# Si number density = 21.245634 Si / 1000 Ang^3
#
#
#
# Elastic Constant Matrix: (Units=GPa)
#
#
# Indices 1 2 3 4 5 6 
#
# 1 63.6740 30.9329 42.0295 -11.0673 12.1506 25.9769
# 2 30.9329 93.7513 37.4099 0.8480 3.8737 21.9808
# 3 42.0295 37.4099 135.4325 -0.8416 18.6051 24.5107
# 4 -11.0673 0.8480 -0.8416 30.5408 5.9355 3.5557
# 5 12.1506 3.8737 18.6051 5.9355 27.2695 -6.5071
# 6 25.9769 21.9808 24.5107 3.5557 -6.5071 36.2916
#
#
#
# Elastic Compliance Matrix: (Units=1/GPa)
#
#
# Indices 1 2 3 4 5 6 
#
# 1 0.045080 -0.004482 -0.001210 0.027293 -0.033494 -0.037416
# 2 -0.004482 0.013693 -0.001906 -0.001835 0.000927 -0.003453
# 3 -0.001210 -0.001906 0.010786 0.002440 -0.008769 -0.007076
# 4 0.027293 -0.001835 0.002440 0.052671 -0.032438 -0.031049
# 5 -0.033494 0.000927 -0.008769 -0.032438 0.075495 0.046049
# 6 -0.037416 -0.003453 -0.007076 -0.031049 0.046049 0.072505
#
#
# Mechanical properties :
#
#
# Convention : Reuss Voigt Hill
#
# Bulk Modulus (GPa) = 18.39404 57.06695 37.73049
# Shear Modulus (GPa) = 16.47195 30.98607 23.72901
#
# Velocity S-wave (km/s) = 2.78746 3.82313 3.34561
# Velocity P-wave (km/s) = 4.36308 6.81229 5.72031
#
# Compressibility (1/GPa) = 0.05436544
#
# Stress axis : x y z
#
# Youngs Moduli (GPa) = 22.18260 73.02754 92.71386
#
# Poissons Ratio (x) = 0.32730 0.11216
# Poissons Ratio (y) = 0.09942 0.17667
# Poissons Ratio (z) = 0.02683 0.13916
#
# Static dielectric constant tensor:
#      x y z
#    x 1.870400 -0.079730 -0.043780 
#    y -0.079730 1.810680 0.042840 
#    z -0.043780 0.042840 1.885950 
# 
# From -- ./inp_files/471773.got.cif
#   From: 2010.05.17/outbox.cif.g08.bks.cpg/sg2_236_cif.got.tgz:471773.got - 2010.06.03 11:33:40.
