data_PCOD9093015
_publ_section_title
;
Structure prediction by ZEFSAII (Michael W. Deem and Ramdas Pophale) SiO2 
 PCOD9093015
Probable space group: P -1
;
_chemical_formula_sum "Si O2"
_cell_formula_units_Z 14
_cell_length_a 7.037903
_cell_length_b 9.511815
_cell_length_c 16.580452
_cell_angle_alpha 89.404184
_cell_angle_beta 36.211279
_cell_angle_gamma 107.695206
_cell_volume 556.533457
_symmetry_space_group_name_H-M "P -1"
_symmetry_group_IT_number 2
_symmetry_cell_setting 'triclinic'
loop_
_space_group_symop_operation_xyz
x,y,z
-x,-y,-z
loop_
_atom_site_type_symbol
_atom_site_label
_atom_site_fract_x
_atom_site_fract_y
_atom_site_fract_z
Si Si1 0.727078 0.839058 0.923775
Si Si2 0.789831 0.103232 0.514021
Si Si3 0.602438 0.447585 0.840830
Si Si4 0.421270 0.749904 0.562713
Si Si5 0.486175 0.262756 0.173937
Si Si6 0.770566 0.092328 0.000114
Si Si7 0.806962 0.214894 0.688250
O O1 0.627028 0.677209 0.006873
O O2 0.974463 0.004030 0.891561
O O3 0.801733 0.836786 0.803539
O O4 0.338491 0.839554 0.041502
O O5 0.653007 0.191742 0.498119
O O6 0.770618 0.155390 0.609862
O O7 0.231179 0.179021 0.339001
O O8 0.565705 0.908585 0.571144
O O9 0.437015 0.556337 0.865380
O O10 0.667989 0.341646 0.751670
O O11 0.029388 0.586095 0.723193
O O12 0.756994 0.714789 0.440028
O O13 0.831529 0.234863 0.040946
O O14 0.448958 0.938428 0.163685
#
# Coordination Sequence:
#
# PCOD9093015 Si02
#       7
#     2   2   2   2   2   2   2
#     4   8  15  30  47  78 103 137 176 222 252 313
#     4  10  21  34  57  79 106 142 182 209 262 317
#     4  10  20  30  52  81 109 136 175 218 274 302
#     4  10  20  34  51  83 108 139 175 220 258 317
#     4   9  16  30  49  77 103 139 177 218 251 317
#     4   8  16  28  53  75 101 138 183 209 260 310
#     4  11  20  36  55  80 109 142 172 219 263 317
#
# _framework density 25.155721
#
# number of rings (size 3 to 8) (size 9 to 14) (size 15 to 20)
#    0.857    1.714    1.429    1.286    0.000    2.286 
#    0.000    0.000    0.000    3.429    0.000  133.000 
#    0.000    0.000    0.000    0.000    0.000    0.000 
#
# Total GULP energy -78058.546219 kJ/mol
# GULP energy per Si atom -5575.610444 kJ/mol
# Density = 2.509847 g / cm^3
# Si number density = 25.155721 Si / 1000 Ang^3
#
#
#
# Elastic Constant Matrix: (Units=GPa)
#
#
# Indices 1 2 3 4 5 6 
#
# 1 99.0402 28.4903 51.2638 3.9411 17.5952 -11.4266
# 2 28.4903 161.3298 35.4054 17.6527 4.3233 -18.5035
# 3 51.2638 35.4054 81.5670 26.8096 24.3499 10.1922
# 4 3.9411 17.6527 26.8096 42.7583 3.3033 -0.7652
# 5 17.5952 4.3233 24.3499 3.3033 46.8572 11.2922
# 6 -11.4266 -18.5035 10.1922 -0.7652 11.2922 24.3519
#
#
#
# Elastic Compliance Matrix: (Units=1/GPa)
#
#
# Indices 1 2 3 4 5 6 
#
# 1 0.023319 0.002079 -0.020641 0.010720 -0.004681 0.023668
# 2 0.002079 0.008319 -0.006077 0.000437 -0.000896 0.010269
# 3 -0.020641 -0.006077 0.039406 -0.020557 -0.003535 -0.029803
# 4 0.010720 0.000437 -0.020557 0.035330 0.000555 0.014819
# 5 -0.004681 -0.000896 -0.003535 0.000555 0.028497 -0.014594
# 6 0.023668 0.010269 -0.029803 0.014819 -0.014594 0.079680
#
#
# Mechanical properties :
#
#
# Convention : Reuss Voigt Hill
#
# Bulk Modulus (GPa) = 45.94455 63.58399 54.76427
# Shear Modulus (GPa) = 18.44447 37.91199 28.17823
#
# Velocity S-wave (km/s) = 2.71073 3.88634 3.35050
# Velocity P-wave (km/s) = 5.30105 6.74309 6.06508
#
# Compressibility (1/GPa) = 0.02176537
#
# Stress axis : x y z
#
# Youngs Moduli (GPa) = 42.88431 120.20687 25.37666
#
# Poissons Ratio (x) = -0.24991 0.52380
# Poissons Ratio (y) = -0.08916 0.15422
# Poissons Ratio (z) = 0.88518 0.73050
#
# Static dielectric constant tensor:
#      x y z
#    x 2.093350 0.048540 -0.108850 
#    y 0.048540 2.059940 0.078850 
#    z -0.108850 0.078850 2.007230 
# 
# From -- ./inp_files/398968.got.cif
#   From: 2010.05.17/outbox.cif.g08.bks.cpg/sg2_200_cif.got.tgz:398968.got - 2010.06.03 11:33:40.
