data_PCOD9093092
_publ_section_title
;
Structure prediction by ZEFSAII (Michael W. Deem and Ramdas Pophale) SiO2 
 PCOD9093092
Probable space group: P -1
;
_chemical_formula_sum "Si O2"
_cell_formula_units_Z 16
_cell_length_a 23.666359
_cell_length_b 7.122078
_cell_length_c 13.921213
_cell_angle_alpha 128.253086
_cell_angle_beta 158.295567
_cell_angle_gamma 58.539432
_cell_volume 669.856147
_symmetry_space_group_name_H-M "P -1"
_symmetry_group_IT_number 2
_symmetry_cell_setting 'triclinic'
loop_
_space_group_symop_operation_xyz
x,y,z
-x,-y,-z
loop_
_atom_site_type_symbol
_atom_site_label
_atom_site_fract_x
_atom_site_fract_y
_atom_site_fract_z
Si Si1 0.130650 0.198429 0.657860
Si Si2 0.600110 0.036553 0.766170
Si Si3 0.373640 0.452103 0.373542
Si Si4 0.053734 0.680686 0.775030
Si Si5 0.533420 0.807000 0.122471
Si Si6 0.459476 0.316408 0.113505
Si Si7 0.215525 0.700842 0.705055
Si Si8 0.289173 0.937494 0.364990
O O1 0.000908 0.217754 0.378958
O O2 0.289576 0.235538 0.861088
O O3 0.136158 0.446314 0.808031
O O4 0.131849 0.935090 0.625909
O O5 0.700748 0.823643 0.850627
O O6 0.463319 0.979391 0.610387
O O7 0.500000 0.000000 0.500000
O O8 0.712944 0.263192 0.062019
O O9 0.500000 0.500000 0.500000
O O10 0.268064 0.655527 0.275560
O O11 0.457274 0.475851 0.617452
O O12 0.906755 0.549084 0.564021
O O13 0.160352 0.905329 0.069245
O O14 0.540208 0.646972 0.987903
O O15 0.682580 0.851477 0.443859
O O16 0.362324 0.725502 0.872905
O O17 0.541234 0.084341 0.187273
#
# Coordination Sequence:
#
# PCOD9093092 Si02
#       8
#     2   2   2   2   2   2   2   2
#     4  10  21  34  55  83 115 149 189 229 290 348
#     4  10  20  31  54  80 113 140 184 242 284 327
#     4   9  16  29  54  80 109 141 181 229 285 328
#     4  11  22  34  58  81 118 154 186 229 289 352
#     4   8  17  35  60  81 107 146 194 239 281 327
#     4   9  16  32  60  84 106 150 192 232 283 342
#     4  10  21  38  56  84 116 151 189 235 286 342
#     4   9  18  35  51  78 108 146 186 230 282 335
#
# _framework density 23.885728
#
# number of rings (size 3 to 8) (size 9 to 14) (size 15 to 20)
#    0.000    2.500    0.000    4.875    5.250    0.000 
#    0.000    1.250    0.000   13.500    0.000    0.000 
#    0.000    0.000    0.000    0.000    0.000    0.000 
#
# Total GULP energy -89197.248448 kJ/mol
# GULP energy per Si atom -5574.828028 kJ/mol
# Density = 2.383136 g / cm^3
# Si number density = 23.885728 Si / 1000 Ang^3
#
#
#
# Elastic Constant Matrix: (Units=GPa)
#
#
# Indices 1 2 3 4 5 6 
#
# 1 91.9121 3.6447 44.1584 15.7392 -21.0539 -17.3227
# 2 3.6447 83.3308 14.2737 8.8454 -14.7197 9.6014
# 3 44.1584 14.2737 124.5871 12.7904 -23.9556 -5.9252
# 4 15.7392 8.8454 12.7904 30.8195 3.7522 -7.5945
# 5 -21.0539 -14.7197 -23.9556 3.7522 41.0567 6.0481
# 6 -17.3227 9.6014 -5.9252 -7.5945 6.0481 26.1296
#
#
#
# Elastic Compliance Matrix: (Units=1/GPa)
#
#
# Indices 1 2 3 4 5 6 
#
# 1 0.016331 0.000937 -0.003774 -0.006212 0.006133 0.006401
# 2 0.000937 0.015313 -0.000167 -0.008048 0.007968 -0.009227
# 3 -0.003774 -0.000167 0.010569 -0.003536 0.004816 -0.002187
# 4 -0.006212 -0.008048 -0.003536 0.044674 -0.014329 0.014338
# 5 0.006133 0.007968 0.004816 -0.014329 0.035990 -0.010265
# 6 0.006401 -0.009227 -0.002187 0.014338 -0.010265 0.051952
#
#
# Mechanical properties :
#
#
# Convention : Reuss Voigt Hill
#
# Bulk Modulus (GPa) = 27.62083 47.10930 37.36507
# Shear Modulus (GPa) = 25.91938 35.45138 30.68538
#
# Velocity S-wave (km/s) = 3.29772 3.85672 3.58812
# Velocity P-wave (km/s) = 5.10772 6.29269 5.73092
#
# Compressibility (1/GPa) = 0.03620455
#
# Stress axis : x y z
#
# Youngs Moduli (GPa) = 61.23208 65.30475 94.62077
#
# Poissons Ratio (x) = -0.06122 0.35713
# Poissons Ratio (y) = -0.05740 0.01582
# Poissons Ratio (z) = 0.23111 0.01092
#
# Static dielectric constant tensor:
#      x y z
#    x 0.055540 1.024100 0.822870 
#    y 1.024100 1.511100 -0.509350 
#    z 0.822870 -0.509350 1.528970 
# 
# From -- ./inp_files/543873.got.cif
#   From: 2010.05.17/outbox.cif.g08.bks.cpg/sg2_272_cif.got.tgz:543873.got - 2010.06.03 11:33:40.
