data_PCOD9093304
_publ_section_title
;
Structure prediction by ZEFSAII (Michael W. Deem and Ramdas Pophale) SiO2 
 PCOD9093304
Probable space group: P -1
;
_chemical_formula_sum "Si O2"
_cell_formula_units_Z 16
_cell_length_a 5.262805
_cell_length_b 14.179598
_cell_length_c 23.976879
_cell_angle_alpha 147.665954
_cell_angle_beta 68.768256
_cell_angle_gamma 102.460434
_cell_volume 877.307964
_symmetry_space_group_name_H-M "P -1"
_symmetry_group_IT_number 2
_symmetry_cell_setting 'triclinic'
loop_
_space_group_symop_operation_xyz
x,y,z
-x,-y,-z
loop_
_atom_site_type_symbol
_atom_site_label
_atom_site_fract_x
_atom_site_fract_y
_atom_site_fract_z
Si Si1 0.396877 0.296125 0.173959
Si Si2 0.339443 0.959786 0.073346
Si Si3 0.181334 0.092910 0.574430
Si Si4 0.900484 0.201234 0.762437
Si Si5 0.340396 0.440473 0.883931
Si Si6 0.582647 0.212649 0.896564
Si Si7 0.926260 0.488304 0.237745
Si Si8 0.981066 0.704247 0.972921
O O1 0.656472 0.393651 0.213990
O O2 0.125254 0.437798 0.249455
O O3 0.348863 0.164374 0.162157
O O4 0.464341 0.159999 0.047504
O O5 0.383801 0.898907 0.104007
O O6 0.047106 0.898692 0.051854
O O7 0.151338 0.302052 0.664407
O O8 0.063759 0.083400 0.641728
O O9 0.500000 0.000000 0.500000
O O10 0.000000 0.000000 0.500000
O O11 0.643485 0.327489 0.814332
O O12 0.744781 0.118674 0.783936
O O13 0.124454 0.307645 0.825585
O O14 0.262989 0.570734 0.901769
O O15 0.309542 0.598334 0.011156
O O16 0.250001 0.273274 0.949573
O O17 0.100320 0.394122 0.123851
#
# Coordination Sequence:
#
# PCOD9093304 Si02
#       8
#     2   2   2   2   2   2   2   2
#     4  10  21  35  56  83 120 155 190 221 271 335
#     4   9  21  32  52  85 124 158 184 222 262 329
#     4  12  26  44  62  83 110 145 198 258 298 332
#     4  12  25  36  58  80 114 154 196 231 294 340
#     4  11  21  35  51  84 118 158 189 218 265 350
#     4  11  21  34  53  86 123 159 187 222 272 347
#     4  11  21  37  59  83 110 154 191 234 284 337
#     4  10  20  32  55  81 126 154 188 219 267 341
#
# _framework density 18.237611000000001
#
# number of rings (size 3 to 8) (size 9 to 14) (size 15 to 20)
#    0.000    1.250    3.750    2.250    8.750    1.500 
#    0.000    0.000    0.000    0.000    0.000    5.250 
#    0.000    0.000    0.000    0.000    0.000    0.000 
#
# Total GULP energy -89116.895431 kJ/mol
# GULP energy per Si atom -5569.805964 kJ/mol
# Density = 1.819610 g / cm^3
# Si number density = 18.237611 Si / 1000 Ang^3
#
#
#
# Elastic Constant Matrix: (Units=GPa)
#
#
# Indices 1 2 3 4 5 6 
#
# 1 119.4848 40.3414 34.0276 0.3242 -10.1517 3.0563
# 2 40.3414 117.3046 43.5208 -4.9324 -4.4769 8.3430
# 3 34.0276 43.5208 71.4343 -11.3580 -8.5495 11.6565
# 4 0.3242 -4.9324 -11.3580 26.5902 6.1055 2.6768
# 5 -10.1517 -4.4769 -8.5495 6.1055 22.1145 3.8629
# 6 3.0563 8.3430 11.6565 2.6768 3.8629 21.7698
#
#
#
# Elastic Compliance Matrix: (Units=1/GPa)
#
#
# Indices 1 2 3 4 5 6 
#
# 1 0.010522 -0.002249 -0.003928 -0.003155 0.003508 0.001253
# 2 -0.002249 0.011520 -0.005940 -0.000105 -0.000836 -0.000757
# 3 -0.003928 -0.005940 0.023521 0.008877 0.005710 -0.011871
# 4 -0.003155 -0.000105 0.008877 0.044268 -0.008837 -0.008145
# 5 0.003508 -0.000836 0.005710 -0.008837 0.053335 -0.011607
# 6 0.001253 -0.000757 -0.011871 -0.008145 -0.011607 0.055467
#
#
# Mechanical properties :
#
#
# Convention : Reuss Voigt Hill
#
# Bulk Modulus (GPa) = 46.88699 60.44481 53.66590
# Shear Modulus (GPa) = 21.74143 26.78384 24.26264
#
# Velocity S-wave (km/s) = 3.45646 3.83640 3.65137
# Velocity P-wave (km/s) = 6.45711 7.26903 6.87506
#
# Compressibility (1/GPa) = 0.02132788
#
# Stress axis : x y z
#
# Youngs Moduli (GPa) = 95.04031 86.80849 42.51537
#
# Poissons Ratio (x) = 0.19524 0.16701
# Poissons Ratio (y) = 0.21375 0.25254
# Poissons Ratio (z) = 0.37333 0.51565
#
# Static dielectric constant tensor:
#      x y z
#    x 1.730050 -0.000690 0.007020 
#    y -0.000690 1.694860 -0.023940 
#    z 0.007020 -0.023940 1.604970 
# 
# From -- ./inp_files/604586.got.cif
#   From: 2010.05.17/outbox.cif.g08.bks.cpg/sg2_303_cif.got.tgz:604586.got - 2010.06.03 11:33:40.
