data_PCOD9093089
_publ_section_title
;
Structure prediction by ZEFSAII (Michael W. Deem and Ramdas Pophale) SiO2 
 PCOD9093089
Probable space group: P -1
;
_chemical_formula_sum "Si O2"
_cell_formula_units_Z 16
_cell_length_a 16.165792
_cell_length_b 26.204246
_cell_length_c 27.160752
_cell_angle_alpha 169.205581
_cell_angle_beta 155.107637
_cell_angle_gamma 26.627646
_cell_volume 906.394889
_symmetry_space_group_name_H-M "P -1"
_symmetry_group_IT_number 2
_symmetry_cell_setting 'triclinic'
loop_
_space_group_symop_operation_xyz
x,y,z
-x,-y,-z
loop_
_atom_site_type_symbol
_atom_site_label
_atom_site_fract_x
_atom_site_fract_y
_atom_site_fract_z
Si Si1 0.058063 0.136502 0.109991
Si Si2 0.299165 0.675307 0.976022
Si Si3 0.989818 0.204844 0.896132
Si Si4 0.792791 0.293246 0.289741
Si Si5 0.019366 0.115054 0.935042
Si Si6 0.534561 0.111774 0.568243
Si Si7 0.380146 0.498825 0.509550
Si Si8 0.763940 0.271984 0.455012
O O1 0.163639 0.421446 0.440926
O O2 0.856936 0.213218 0.043536
O O3 0.000000 0.000000 0.000000
O O4 0.206756 0.930998 0.965439
O O5 0.164950 0.689565 0.966307
O O6 0.466758 0.884807 0.278188
O O7 0.397357 0.381479 0.742799
O O8 0.023104 0.049593 0.818587
O O9 0.757312 0.189952 0.750141
O O10 0.130772 0.025396 0.766207
O O11 0.073264 0.501938 0.232936
O O12 0.637814 0.342969 0.298038
O O13 0.978392 0.167488 0.302181
O O14 0.210024 0.277825 0.207842
O O15 0.500000 0.000000 0.500000
O O16 0.587216 0.343137 0.464489
O O17 0.334273 0.678215 0.605402
#
# Coordination Sequence:
#
# PCOD9093089 Si02
#       8
#     2   2   2   2   2   2   2   2
#     4  11  24  38  57  81 111 143 180 230 286 329
#     4  11  22  36  53  77 105 147 177 226 264 314
#     4  11  22  34  47  71 111 145 192 219 255 294
#     4  11  19  34  55  77 109 142 177 216 271 335
#     4  10  20  31  54  73 110 144 185 218 260 316
#     4  12  24  33  53  77 107 148 198 215 252 316
#     4  10  20  33  52  77 106 147 191 211 274 324
#     4  10  23  32  50  73 111 149 183 230 258 308
#
# _framework density 17.652349999999998
#
# number of rings (size 3 to 8) (size 9 to 14) (size 15 to 20)
#    0.000    1.250    5.000    3.000    5.250    1.500 
#    0.000    0.000    0.000    0.000    0.000    0.000 
#    0.000   20.000    0.000    0.000    0.000    0.000 
#
# Total GULP energy -89144.480889 kJ/mol
# GULP energy per Si atom -5571.530056 kJ/mol
# Density = 1.761217 g / cm^3
# Si number density = 17.652350 Si / 1000 Ang^3
#
#
#
# Elastic Constant Matrix: (Units=GPa)
#
#
# Indices 1 2 3 4 5 6 
#
# 1 56.0245 14.8070 4.1694 16.0688 -8.9016 -10.6953
# 2 14.8070 50.8154 11.3051 3.8998 -8.4936 -17.5394
# 3 4.1694 11.3051 43.7415 19.6724 0.4055 4.2732
# 4 16.0688 3.8998 19.6724 30.8063 -9.3209 1.5764
# 5 -8.9016 -8.4936 0.4055 -9.3209 17.7630 4.8032
# 6 -10.6953 -17.5394 4.2732 1.5764 4.8032 27.4313
#
#
#
# Elastic Compliance Matrix: (Units=1/GPa)
#
#
# Indices 1 2 3 4 5 6 
#
# 1 0.024587 -0.004997 0.005635 -0.016278 -0.000506 0.006538
# 2 -0.004997 0.032066 -0.014832 0.011472 0.014405 0.017683
# 3 0.005635 -0.014832 0.042494 -0.034093 -0.020887 -0.008290
# 4 -0.016278 0.011472 -0.034093 0.072859 0.037544 -0.004462
# 5 -0.000506 0.014405 -0.020887 0.037544 0.084370 -0.004664
# 6 0.006538 0.017683 -0.008290 -0.004462 -0.004664 0.052674
#
#
# Mechanical properties :
#
#
# Convention : Reuss Voigt Hill
#
# Bulk Modulus (GPa) = 14.13227 23.46049 18.79638
# Shear Modulus (GPa) = 13.84949 23.22011 18.53480
#
# Velocity S-wave (km/s) = 2.80406 3.63080 3.24387
# Velocity P-wave (km/s) = 4.30197 5.55842 4.97006
#
# Compressibility (1/GPa) = 0.07076002
#
# Stress axis : x y z
#
# Youngs Moduli (GPa) = 40.67150 31.18606 23.53256
#
# Poissons Ratio (x) = 0.15583 -0.13260
# Poissons Ratio (y) = 0.20323 0.34903
# Poissons Ratio (z) = -0.22918 0.46254
#
# Static dielectric constant tensor:
#      x y z
#    x 1.642960 -0.027000 -0.027990 
#    y -0.027000 1.617600 0.006040 
#    z -0.027990 0.006040 1.688220 
# 
# From -- ./inp_files/525267.got.cif
#   From: 2010.05.17/outbox.cif.g08.bks.cpg/sg2_263_cif.got.tgz:525267.got - 2010.06.03 11:33:40.
