data_PCOD9093879
_publ_section_title
;
Structure prediction by ZEFSAII (Michael W. Deem and Ramdas Pophale) SiO2 
 PCOD9093879
Probable space group: P -1
;
_chemical_formula_sum "Si O2"
_cell_formula_units_Z 15
_cell_length_a 9.523907
_cell_length_b 23.190065
_cell_length_c 12.608002
_cell_angle_alpha 153.923637
_cell_angle_beta 35.377129
_cell_angle_gamma 144.265026
_cell_volume 673.314943
_symmetry_space_group_name_H-M "P -1"
_symmetry_group_IT_number 2
_symmetry_cell_setting 'triclinic'
loop_
_space_group_symop_operation_xyz
x,y,z
-x,-y,-z
loop_
_atom_site_type_symbol
_atom_site_label
_atom_site_fract_x
_atom_site_fract_y
_atom_site_fract_z
Si Si1 0.241660 0.525334 0.163209
Si Si2 0.040726 0.279895 0.714918
Si Si3 0.214766 0.820144 0.621576
Si Si4 0.883979 0.753017 0.912527
Si Si5 0.287293 0.300131 0.392110
Si Si6 0.000000 0.500000 0.500000
Si Si7 0.348024 0.008778 0.497991
Si Si8 0.612339 0.379768 0.137207
O O1 0.285706 0.676977 0.336341
O O2 0.066786 0.522840 0.369003
O O3 0.500000 0.500000 0.000000
O O4 0.127728 0.401714 0.947003
O O5 0.270036 0.278110 0.492295
O O6 0.884559 0.130226 0.605139
O O7 0.820601 0.324554 0.861485
O O8 0.442156 0.948618 0.653113
O O9 0.114651 0.826837 0.812845
O O10 0.967382 0.802432 0.670685
O O11 0.645874 0.655898 0.829610
O O12 0.958352 0.653305 0.783616
O O13 0.774680 0.868721 0.216251
O O14 0.526924 0.302767 0.175725
O O15 0.282793 0.457428 0.640812
O O16 0.500000 0.000000 0.500000
#
# Coordination Sequence:
#
# PCOD9093879 Si02
#       8
#     2   2   2   2   2   1   2   2
#     4  11  25  42  67  91 120 170 225 273 310 369
#     4  12  24  37  60  99 132 164 206 261 328 384
#     4  10  21  40  61  91 128 169 214 256 316 376
#     4  10  22  40  65  91 130 171 214 261 312 377
#     4  10  20  33  59  93 131 159 203 265 325 374
#     4  10  24  46  66  90 118 170 226 268 306 362
#     4  12  23  38  62  98 140 171 194 256 330 393
#     4  10  20  34  60  96 128 162 206 270 321 369
#
# _framework density 22.277837999999999
#
# number of rings (size 3 to 8) (size 9 to 14) (size 15 to 20)
#    0.000    1.333    4.000    1.200    5.600    1.600 
#    0.000    2.667    0.000    3.200    0.000    0.000 
#    0.000    0.000    0.000    0.000    0.000    0.000 
#
# Total GULP energy -83572.902164 kJ/mol
# GULP energy per Si atom -5571.526811 kJ/mol
# Density = 2.222713 g / cm^3
# Si number density = 22.277838 Si / 1000 Ang^3
#
#
#
# Elastic Constant Matrix: (Units=GPa)
#
#
# Indices 1 2 3 4 5 6 
#
# 1 26.1923 20.8702 -0.8838 -2.2498 -3.0617 -6.6904
# 2 20.8702 131.2238 10.4080 -8.3585 11.1645 -10.1204
# 3 -0.8838 10.4080 48.7927 -1.3038 -12.5279 -1.6136
# 4 -2.2498 -8.3585 -1.3038 31.3163 -2.9183 2.2505
# 5 -3.0617 11.1645 -12.5279 -2.9183 27.8211 -0.3730
# 6 -6.6904 -10.1204 -1.6136 2.2505 -0.3730 26.5232
#
#
#
# Elastic Compliance Matrix: (Units=1/GPa)
#
#
# Indices 1 2 3 4 5 6 
#
# 1 0.049106 -0.008445 0.006108 0.001949 0.011876 0.009538
# 2 -0.008445 0.010004 -0.003897 0.001200 -0.006556 0.001256
# 3 0.006108 -0.003897 0.025053 0.001602 0.013707 0.001635
# 4 0.001949 0.001200 0.001602 0.032943 0.003887 -0.001694
# 5 0.011876 -0.006556 0.013707 0.003887 0.046484 0.001652
# 6 0.009538 0.001256 0.001635 -0.001694 0.001652 0.040854
#
#
# Mechanical properties :
#
#
# Convention : Reuss Voigt Hill
#
# Bulk Modulus (GPa) = 13.94800 29.66642 21.80721
# Shear Modulus (GPa) = 20.76319 28.85307 24.80813
#
# Velocity S-wave (km/s) = 3.05620 3.60272 3.34065
# Velocity P-wave (km/s) = 4.32762 5.53639 4.96890
#
# Compressibility (1/GPa) = 0.07169484
#
# Stress axis : x y z
#
# Youngs Moduli (GPa) = 20.36402 99.96201 39.91548
#
# Poissons Ratio (x) = 0.84419 -0.24379
# Poissons Ratio (y) = 0.17198 0.15553
# Poissons Ratio (z) = -0.12437 0.38951
#
# Static dielectric constant tensor:
#      x y z
#    x 1.854250 0.006400 -0.010980 
#    y 0.006400 1.843400 -0.020810 
#    z -0.010980 -0.020810 1.827430 
# 
# From -- ./inp_files/405010.got.cif
#   From: 2010.05.17/outbox.cif.g08.bks.cpg/sg2_203_cif.got.tgz:405010.got - 2010.06.03 11:33:40.
