data_PCOD9093432
_publ_section_title
;
Structure prediction by ZEFSAII (Michael W. Deem and Ramdas Pophale) SiO2 
 PCOD9093432
Probable space group: P -1
;
_chemical_formula_sum "Si O2"
_cell_formula_units_Z 12
_cell_length_a 10.003556
_cell_length_b 7.332447
_cell_length_c 14.134577
_cell_angle_alpha 124.047022
_cell_angle_beta 39.348409
_cell_angle_gamma 136.793108
_cell_volume 450.030068
_symmetry_space_group_name_H-M "P -1"
_symmetry_group_IT_number 2
_symmetry_cell_setting 'triclinic'
loop_
_space_group_symop_operation_xyz
x,y,z
-x,-y,-z
loop_
_atom_site_type_symbol
_atom_site_label
_atom_site_fract_x
_atom_site_fract_y
_atom_site_fract_z
Si Si1 0.668561 0.466646 0.218496
Si Si2 0.120787 0.074914 0.351291
Si Si3 0.243693 0.795387 0.436652
Si Si4 0.723917 0.306597 0.832292
Si Si5 0.815104 0.074160 0.977512
Si Si6 0.229029 0.812262 0.761272
O O1 0.387424 0.361450 0.305204
O O2 0.741611 0.290935 0.064962
O O3 0.675220 0.362072 0.289945
O O4 0.895024 0.770839 0.168432
O O5 0.892319 0.057125 0.417496
O O6 0.190435 0.873704 0.218686
O O7 0.000000 0.000000 0.500000
O O8 0.295909 0.782078 0.291836
O O9 0.000000 0.500000 0.500000
O O10 0.532116 0.963695 0.364713
O O11 0.959076 0.608927 0.801354
O O12 0.440986 0.207960 0.993386
O O13 0.822401 0.065771 0.084814
#
# Coordination Sequence:
#
# PCOD9093432 Si02
#       6
#     2   2   2   2   2   2
#     4   8  13  27  46  69  95 114 143 185 225 264
#     4   9  15  31  46  66  91 119 150 183 224 266
#     4  10  20  33  45  63  94 123 151 186 220 266
#     4   9  17  29  50  69  89 118 149 187 224 262
#     4   7  14  27  42  72  97 109 142 186 228 261
#     4   9  16  28  48  69  91 119 147 184 225 262
#
# _framework density 26.664887
#
# number of rings (size 3 to 8) (size 9 to 14) (size 15 to 20)
#    1.000    2.333    3.333    0.000    0.000    2.000 
#    0.000    0.000    0.000    4.000    0.000    2.333 
#    0.000    0.000    0.000    0.000    0.000    0.000 
#
# Total GULP energy -66845.075986 kJ/mol
# GULP energy per Si atom -5570.422999 kJ/mol
# Density = 2.660420 g / cm^3
# Si number density = 26.664887 Si / 1000 Ang^3
#
#
#
# Elastic Constant Matrix: (Units=GPa)
#
#
# Indices 1 2 3 4 5 6 
#
# 1 55.5586 35.4631 51.9282 -13.1073 -21.0233 27.8190
# 2 35.4631 133.6217 78.6147 -62.5518 -24.3754 40.9683
# 3 51.9282 78.6147 127.9842 -52.8106 -26.0732 21.1158
# 4 -13.1073 -62.5518 -52.8106 61.9471 24.6032 -15.4591
# 5 -21.0233 -24.3754 -26.0732 24.6032 43.0722 -9.3529
# 6 27.8190 40.9683 21.1158 -15.4591 -9.3529 42.0800
#
#
#
# Elastic Compliance Matrix: (Units=1/GPa)
#
#
# Indices 1 2 3 4 5 6 
#
# 1 0.058540 0.001829 -0.024983 -0.023310 0.020880 -0.031868
# 2 0.001829 0.020766 -0.006007 0.013446 -0.001679 -0.013846
# 3 -0.024983 -0.006007 0.024369 0.015665 -0.006661 0.014410
# 4 -0.023310 0.013446 0.015665 0.048013 -0.020052 0.007641
# 5 0.020880 -0.001679 -0.006661 -0.020052 0.038208 -0.007702
# 6 -0.031868 -0.013846 0.014410 0.007641 -0.007702 0.052176
#
#
# Mechanical properties :
#
#
# Convention : Reuss Voigt Hill
#
# Bulk Modulus (GPa) = 22.04858 72.13073 47.08965
# Shear Modulus (GPa) = 15.84734 39.49708 27.67221
#
# Velocity S-wave (km/s) = 2.44050 3.85286 3.22495
# Velocity P-wave (km/s) = 4.02841 6.84852 5.61829
#
# Compressibility (1/GPa) = 0.04535440
#
# Stress axis : x y z
#
# Youngs Moduli (GPa) = 17.08230 48.15655 41.03559
#
# Poissons Ratio (x) = -0.08810 1.02518
# Poissons Ratio (y) = -0.03125 0.24650
# Poissons Ratio (z) = 0.42676 0.28928
#
# Static dielectric constant tensor:
#      x y z
#    x 2.212060 -0.081320 0.023100 
#    y -0.081320 2.193750 -0.043410 
#    z 0.023100 -0.043410 2.129520 
# 
# From -- ./inp_files/324409.got.cif
#   From: 2010.05.17/outbox.cif.g08.bks.cpg/sg2_163_cif.got.tgz:324409.got - 2010.06.03 11:33:40.
