data_PCOD9093437
_publ_section_title
;
Structure prediction by ZEFSAII (Michael W. Deem and Ramdas Pophale) SiO2 
 PCOD9093437
Probable space group: P -1
;
_chemical_formula_sum "Si O2"
_cell_formula_units_Z 16
_cell_length_a 12.663775
_cell_length_b 6.993002
_cell_length_c 11.550617
_cell_angle_alpha 101.198543
_cell_angle_beta 143.751670
_cell_angle_gamma 74.587871
_cell_volume 582.711787
_symmetry_space_group_name_H-M "P -1"
_symmetry_group_IT_number 2
_symmetry_cell_setting 'triclinic'
loop_
_space_group_symop_operation_xyz
x,y,z
-x,-y,-z
loop_
_atom_site_type_symbol
_atom_site_label
_atom_site_fract_x
_atom_site_fract_y
_atom_site_fract_z
Si Si1 0.162644 0.498688 0.790363
Si Si2 0.581796 0.253298 0.357943
Si Si3 0.259917 0.558437 0.132161
Si Si4 0.213562 0.920259 0.672641
Si Si5 0.945811 0.782758 0.996644
Si Si6 0.750751 0.690333 0.383436
Si Si7 0.673277 0.913390 0.564098
Si Si8 0.764952 0.910127 0.064570
O O1 0.273310 0.452832 0.763226
O O2 0.144562 0.280944 0.800063
O O3 0.964456 0.622763 0.599148
O O4 0.250890 0.587581 0.989261
O O5 0.464535 0.453332 0.330757
O O6 0.712016 0.266601 0.365782
O O7 0.695050 0.103239 0.529249
O O8 0.416222 0.151898 0.152683
O O9 0.127732 0.401817 0.030086
O O10 0.152898 0.740356 0.131746
O O11 0.279971 0.099122 0.685546
O O12 0.278053 0.911804 0.861049
O O13 0.000000 0.000000 0.500000
O O14 0.829131 0.826570 0.781959
O O15 0.889040 0.939734 0.068503
O O16 0.654045 0.747687 0.428946
O O17 0.500000 0.000000 0.500000
#
# Coordination Sequence:
#
# PCOD9093437 Si02
#       8
#     2   2   2   2   2   2   2   2
#     4   8  14  27  43  68  91 115 154 200 235 272
#     4   9  18  29  49  73  96 124 159 202 242 273
#     4   9  15  26  43  67  98 123 148 193 246 285
#     4  10  20  33  48  68  97 132 165 195 236 290
#     4   9  16  25  42  70 100 126 148 187 247 292
#     4   9  17  26  44  66  94 124 155 194 240 274
#     4  11  16  25  40  72 104 125 145 194 243 292
#     4   9  17  29  49  73  98 122 158 201 244 278
#
# _framework density 27.457826000000001
#
# number of rings (size 3 to 8) (size 9 to 14) (size 15 to 20)
#    0.000    3.000    3.750    0.375    0.000    1.000 
#    0.000    0.000    0.000    6.750    0.000    0.000 
#    0.000    0.000    0.000    0.000    0.000    0.000 
#
# Total GULP energy -89358.596160 kJ/mol
# GULP energy per Si atom -5584.912260 kJ/mol
# Density = 2.739533 g / cm^3
# Si number density = 27.457826 Si / 1000 Ang^3
#
#
#
# Elastic Constant Matrix: (Units=GPa)
#
#
# Indices 1 2 3 4 5 6 
#
# 1 170.9551 76.3114 45.5219 6.3279 -37.5535 -58.7739
# 2 76.3114 87.8754 46.4056 2.7243 -14.8510 -46.0768
# 3 45.5219 46.4056 117.2588 9.7462 -26.6629 -25.1119
# 4 6.3279 2.7243 9.7462 39.9657 -11.5212 -8.1222
# 5 -37.5535 -14.8510 -26.6629 -11.5212 61.2514 -2.8785
# 6 -58.7739 -46.0768 -25.1119 -8.1222 -2.8785 74.8025
#
#
#
# Elastic Compliance Matrix: (Units=1/GPa)
#
#
# Indices 1 2 3 4 5 6 
#
# 1 0.012135 -0.006558 0.000585 0.001553 0.006684 0.006118
# 2 -0.006558 0.024235 -0.005405 0.002483 0.000357 0.008245
# 3 0.000585 -0.005405 0.011667 -0.001214 0.003949 0.001068
# 4 0.001553 0.002483 -0.001214 0.027932 0.006544 0.005627
# 5 0.006684 0.000357 0.003949 0.006544 0.023857 0.008426
# 6 0.006118 0.008245 0.001068 0.005627 0.008426 0.024547
#
#
# Mechanical properties :
#
#
# Convention : Reuss Voigt Hill
#
# Bulk Modulus (GPa) = 39.55278 79.17412 59.36345
# Shear Modulus (GPa) = 32.14251 49.06060 40.60155
#
# Velocity S-wave (km/s) = 3.42513 4.23160 3.84954
# Velocity P-wave (km/s) = 5.48436 7.26448 6.43626
#
# Compressibility (1/GPa) = 0.02528268
#
# Stress axis : x y z
#
# Youngs Moduli (GPa) = 82.40563 41.26211 85.70886
#
# Poissons Ratio (x) = 0.27060 -0.05016
# Poissons Ratio (y) = 0.54042 0.46324
# Poissons Ratio (z) = -0.04823 0.22301
#
# Static dielectric constant tensor:
#      x y z
#    x 2.166700 -0.063790 -0.006300 
#    y -0.063790 2.398030 0.020910 
#    z -0.006300 0.020910 2.093790 
# 
# From -- ./inp_files/449132.got.cif
#   From: 2010.05.17/outbox.cif.g08.bks.cpg/sg2_225_cif.got.tgz:449132.got - 2010.06.03 11:33:40.
