data_PCOD9093208
_publ_section_title
;
Structure prediction by ZEFSAII (Michael W. Deem and Ramdas Pophale) SiO2 
 PCOD9093208
Probable space group: P -1
;
_chemical_formula_sum "Si O2"
_cell_formula_units_Z 16
_cell_length_a 10.249339
_cell_length_b 11.985652
_cell_length_c 13.132739
_cell_angle_alpha 33.263397
_cell_angle_beta 84.683337
_cell_angle_gamma 105.236064
_cell_volume 689.141401
_symmetry_space_group_name_H-M "P -1"
_symmetry_group_IT_number 2
_symmetry_cell_setting 'triclinic'
loop_
_space_group_symop_operation_xyz
x,y,z
-x,-y,-z
loop_
_atom_site_type_symbol
_atom_site_label
_atom_site_fract_x
_atom_site_fract_y
_atom_site_fract_z
Si Si1 0.933068 0.560432 0.055374
Si Si2 0.255245 0.027692 0.764517
Si Si3 0.780141 0.266807 0.632540
Si Si4 0.015850 0.769432 0.569388
Si Si5 0.710114 0.486573 0.657327
Si Si6 0.748607 0.637250 0.868440
Si Si7 0.082003 0.858680 0.117169
Si Si8 0.534476 0.167753 0.115017
O O1 0.923398 0.392127 0.275154
O O2 0.773497 0.524214 0.053445
O O3 0.000000 0.500000 0.000000
O O4 0.077782 0.857080 0.849260
O O5 0.354133 0.924998 0.797172
O O6 0.332730 0.323090 0.514617
O O7 0.211304 0.954706 0.942083
O O8 0.703392 0.336968 0.673359
O O9 0.829825 0.106159 0.809128
O O10 0.935079 0.549325 0.365904
O O11 0.651415 0.090957 0.688180
O O12 0.897818 0.658576 0.562591
O O13 0.882444 0.705474 0.716681
O O14 0.175889 0.071810 0.329409
O O15 0.590696 0.294504 0.901891
O O16 0.576626 0.394916 0.014097
O O17 0.000000 0.000000 0.000000
#
# Coordination Sequence:
#
# PCOD9093208 Si02
#       8
#     2   2   2   2   2   2   2   2
#     4  10  16  29  51  85 117 143 183 241 287 336
#     4  12  21  34  61  91 117 148 197 242 290 340
#     4  11  24  42  60  81 120 156 193 240 295 349
#     4   9  16  27  48  78 115 145 184 226 282 340
#     4  11  20  33  57  88 116 150 188 241 291 334
#     4   9  17  28  49  80 119 147 178 226 293 343
#     4  11  24  43  61  81 110 162 207 234 278 352
#     4  11  23  36  56  91 125 148 184 247 302 343
#
# _framework density 23.217296999999999
#
# number of rings (size 3 to 8) (size 9 to 14) (size 15 to 20)
#    0.000    1.500    7.500    0.375    1.750    1.500 
#    0.000    0.000    0.000    0.750    0.000    8.750 
#    0.000    0.000    0.000    0.000    0.000    0.000 
#
# Total GULP energy -89387.001653 kJ/mol
# GULP energy per Si atom -5586.687603 kJ/mol
# Density = 2.316445 g / cm^3
# Si number density = 23.217297 Si / 1000 Ang^3
#
#
#
# Elastic Constant Matrix: (Units=GPa)
#
#
# Indices 1 2 3 4 5 6 
#
# 1 41.3436 21.0434 30.8411 -8.3935 16.0712 -3.5773
# 2 21.0434 76.4137 9.2890 -15.6143 -8.3578 4.8449
# 3 30.8411 9.2890 77.3440 -11.5759 20.6969 9.0017
# 4 -8.3935 -15.6143 -11.5759 35.3027 2.8848 -8.0591
# 5 16.0712 -8.3578 20.6969 2.8848 32.6863 -7.6957
# 6 -3.5773 4.8449 9.0017 -8.0591 -7.6957 34.7648
#
#
#
# Elastic Compliance Matrix: (Units=1/GPa)
#
#
# Indices 1 2 3 4 5 6 
#
# 1 0.049847 -0.013579 -0.013648 0.004582 -0.017943 0.007646
# 2 -0.013579 0.018737 0.001272 0.004407 0.010014 -0.001100
# 3 -0.013648 0.001272 0.022243 0.003408 -0.009380 -0.008628
# 4 0.004582 0.004407 0.003408 0.034213 -0.004935 0.005814
# 5 -0.017943 0.010014 -0.009380 -0.004935 0.050525 0.009227
# 6 0.007646 -0.001100 -0.008628 0.005814 0.009227 0.035329
#
#
# Mechanical properties :
#
#
# Convention : Reuss Voigt Hill
#
# Bulk Modulus (GPa) = 25.69610 35.27202 30.48406
# Shear Modulus (GPa) = 18.13059 29.47926 23.80492
#
# Velocity S-wave (km/s) = 2.79751 3.56717 3.20552
# Velocity P-wave (km/s) = 4.63965 5.67374 5.18255
#
# Compressibility (1/GPa) = 0.03891641
#
# Stress axis : x y z
#
# Youngs Moduli (GPa) = 20.06130 53.37021 44.95753
#
# Poissons Ratio (x) = 0.72473 0.61360
# Poissons Ratio (y) = 0.27242 -0.05719
# Poissons Ratio (z) = 0.27381 -0.06789
#
# Static dielectric constant tensor:
#      x y z
#    x 1.944460 -0.015670 -0.030270 
#    y -0.015670 1.897940 -0.006390 
#    z -0.030270 -0.006390 1.864660 
# 
# From -- ./inp_files/520633.got.cif
#   From: 2010.05.17/outbox.cif.g08.bks.cpg/sg2_261_cif.got.tgz:520633.got - 2010.06.03 11:33:40.
