data_PCOD9093959
_publ_section_title
;
Structure prediction by ZEFSAII (Michael W. Deem and Ramdas Pophale) SiO2 
 PCOD9093959
Probable space group: P -1
;
_chemical_formula_sum "Si O2"
_cell_formula_units_Z 16
_cell_length_a 7.611548
_cell_length_b 9.186966
_cell_length_c 22.196675
_cell_angle_alpha 30.323806
_cell_angle_beta 115.306580
_cell_angle_gamma 101.161882
_cell_volume 654.056548
_symmetry_space_group_name_H-M "P -1"
_symmetry_group_IT_number 2
_symmetry_cell_setting 'triclinic'
loop_
_space_group_symop_operation_xyz
x,y,z
-x,-y,-z
loop_
_atom_site_type_symbol
_atom_site_label
_atom_site_fract_x
_atom_site_fract_y
_atom_site_fract_z
Si Si1 0.721257 0.238770 0.808180
Si Si2 0.730675 0.511412 0.330470
Si Si3 0.635849 0.621738 0.145387
Si Si4 0.769880 0.483931 0.477616
Si Si5 0.110918 0.739047 0.298621
Si Si6 0.855195 0.345663 0.092727
Si Si7 0.529733 0.204518 0.182035
Si Si8 0.025977 0.587678 0.132242
O O1 0.499173 0.206647 0.795115
O O2 0.744795 0.361007 0.702491
O O3 0.758346 0.458751 0.786600
O O4 0.917126 0.922428 0.964201
O O5 0.698422 0.430511 0.285838
O O6 0.743041 0.348172 0.456265
O O7 0.940625 0.579618 0.332882
O O8 0.530437 0.443676 0.149866
O O9 0.853071 0.590031 0.155692
O O10 0.500000 0.000000 0.000000
O O11 0.773970 0.312714 0.601879
O O12 0.000000 0.500000 0.500000
O O13 0.610156 0.840368 0.337449
O O14 0.964287 0.102853 0.143960
O O15 0.698602 0.229422 0.149346
O O16 0.024284 0.360255 0.160003
O O17 0.700033 0.667306 0.926755
#
# Coordination Sequence:
#
# PCOD9093959 Si02
#       8
#     2   2   2   2   2   2   2   2
#     4  11  23  38  62  93 130 168 211 260 314 386
#     4  11  21  40  63  90 125 168 212 259 316 375
#     4  11  20  35  63  96 126 167 211 259 323 378
#     4  10  21  41  64  94 127 168 218 259 317 380
#     4  11  23  42  68  93 124 172 216 258 320 376
#     4  10  20  37  63  96 129 158 214 271 311 377
#     4  10  20  33  64 101 122 164 216 263 316 380
#     4  10  22  36  57  94 131 162 203 261 320 373
#
# _framework density 24.462719
#
# number of rings (size 3 to 8) (size 9 to 14) (size 15 to 20)
#    0.000    1.500    5.000    1.500    3.500    1.000 
#    0.000    5.000    0.000    1.500    0.000    0.000 
#    0.000    0.000    0.000    0.000    0.000    0.000 
#
# Total GULP energy -89306.892497 kJ/mol
# GULP energy per Si atom -5581.680781 kJ/mol
# Density = 2.440704 g / cm^3
# Si number density = 24.462719 Si / 1000 Ang^3
#
#
#
# Elastic Constant Matrix: (Units=GPa)
#
#
# Indices 1 2 3 4 5 6 
#
# 1 82.7142 26.1568 19.4644 20.8315 -17.5574 -3.9075
# 2 26.1568 102.7512 20.9538 39.1775 -4.0675 -1.6411
# 3 19.4644 20.9538 87.3898 23.4960 -5.4289 -9.2292
# 4 20.8315 39.1775 23.4960 45.2012 -13.1392 -5.8730
# 5 -17.5574 -4.0675 -5.4289 -13.1392 20.1413 8.4408
# 6 -3.9075 -1.6411 -9.2292 -5.8730 8.4408 24.9331
#
#
#
# Elastic Compliance Matrix: (Units=1/GPa)
#
#
# Indices 1 2 3 4 5 6 
#
# 1 0.016614 -0.003342 -0.002443 0.000375 0.014843 -0.003457
# 2 -0.003342 0.015939 0.000471 -0.015290 -0.009702 0.000383
# 3 -0.002443 0.000471 0.014072 -0.007462 -0.005137 0.004839
# 4 0.000375 -0.015290 -0.007462 0.046499 0.026250 -0.001644
# 5 0.014843 -0.009702 -0.005137 0.026250 0.086079 -0.023172
# 6 -0.003457 0.000383 0.004839 -0.001644 -0.023172 0.048839
#
#
# Mechanical properties :
#
#
# Convention : Reuss Voigt Hill
#
# Bulk Modulus (GPa) = 27.77906 45.11168 36.44537
# Shear Modulus (GPa) = 19.94658 31.80712 25.87685
#
# Velocity S-wave (km/s) = 2.85860 3.60978 3.25592
# Velocity P-wave (km/s) = 4.71972 5.98791 5.39123
#
# Compressibility (1/GPa) = 0.03599834
#
# Stress axis : x y z
#
# Youngs Moduli (GPa) = 60.18866 62.73994 71.06166
#
# Poissons Ratio (x) = 0.20967 0.17361
# Poissons Ratio (y) = 0.20114 -0.03349
# Poissons Ratio (z) = 0.14704 -0.02957
#
# Static dielectric constant tensor:
#      x y z
#    x 1.963040 0.015180 -0.034290 
#    y 0.015180 2.018250 0.008840 
#    z -0.034290 0.008840 1.959320 
# 
# From -- ./inp_files/587773.got.cif
#   From: 2010.05.17/outbox.cif.g08.bks.cpg/sg2_294_cif.got.tgz:587773.got - 2010.06.03 11:33:40.
