data_PCOD9093984
_publ_section_title
;
Structure prediction by ZEFSAII (Michael W. Deem and Ramdas Pophale) SiO2 
 PCOD9093984
Probable space group: P -1
;
_chemical_formula_sum "Si O2"
_cell_formula_units_Z 16
_cell_length_a 12.773353
_cell_length_b 5.503303
_cell_length_c 16.770615
_cell_angle_alpha 116.680225
_cell_angle_beta 61.522498
_cell_angle_gamma 83.982779
_cell_volume 846.154905
_symmetry_space_group_name_H-M "P -1"
_symmetry_group_IT_number 2
_symmetry_cell_setting 'triclinic'
loop_
_space_group_symop_operation_xyz
x,y,z
-x,-y,-z
loop_
_atom_site_type_symbol
_atom_site_label
_atom_site_fract_x
_atom_site_fract_y
_atom_site_fract_z
Si Si1 0.392868 0.285959 0.037936
Si Si2 0.074765 0.035536 0.097840
Si Si3 0.791191 0.664378 0.638405
Si Si4 0.983397 0.099496 0.428368
Si Si5 0.464924 0.766393 0.175886
Si Si6 0.151660 0.083276 0.905283
Si Si7 0.876436 0.528451 0.763877
Si Si8 0.286483 0.520179 0.874260
O O1 0.408906 0.566699 0.115068
O O2 0.242321 0.360985 0.115127
O O3 0.432159 0.209513 0.921064
O O4 0.500000 0.000000 0.000000
O O5 0.057463 0.244340 0.210163
O O6 0.080337 0.195321 0.034306
O O7 0.962401 0.917674 0.110839
O O8 0.214547 0.756305 0.006212
O O9 0.844055 0.379322 0.518936
O O10 0.801941 0.564372 0.711940
O O11 0.901871 0.792688 0.612578
O O12 0.651306 0.925521 0.713771
O O13 0.000000 0.000000 0.500000
O O14 0.017157 0.806638 0.320655
O O15 0.558517 0.603364 0.190483
O O16 0.228456 0.269263 0.868690
O O17 0.239846 0.737762 0.846408
#
# Coordination Sequence:
#
# PCOD9093984 Si02
#       8
#     2   2   2   2   2   2   2   2
#     4  11  21  31  44  76 116 140 173 211 261 331
#     4   9  20  31  53  75 107 145 182 221 272 314
#     4  10  20  35  51  76 104 143 182 224 262 318
#     4   9  20  37  52  68 105 137 188 228 262 308
#     4  11  22  30  50  76 109 149 176 212 269 331
#     4   9  20  36  51  74 112 144 184 226 261 321
#     4  11  19  33  53  79 106 147 176 225 266 320
#     4  10  20  34  50  75 107 146 180 216 263 323
#
# _framework density 18.909067
#
# number of rings (size 3 to 8) (size 9 to 14) (size 15 to 20)
#    0.750    1.250    2.500    1.875    3.500    1.000 
#    0.000    0.000    0.000    0.000    0.000    1.750 
#    0.000    0.000    0.000    0.000    0.000    0.000 
#
# Total GULP energy -89075.831654 kJ/mol
# GULP energy per Si atom -5567.239478 kJ/mol
# Density = 1.886603 g / cm^3
# Si number density = 18.909067 Si / 1000 Ang^3
#
#
#
# Elastic Constant Matrix: (Units=GPa)
#
#
# Indices 1 2 3 4 5 6 
#
# 1 59.7270 2.0585 36.5548 26.6867 -9.7041 1.8856
# 2 2.0585 59.7373 32.8345 18.5153 -6.8334 1.6655
# 3 36.5548 32.8345 114.6503 36.2093 -24.3158 -1.4428
# 4 26.6867 18.5153 36.2093 39.7434 -5.5920 -4.9028
# 5 -9.7041 -6.8334 -24.3158 -5.5920 17.3632 8.6573
# 6 1.8856 1.6655 -1.4428 -4.9028 8.6573 23.4305
#
#
#
# Elastic Compliance Matrix: (Units=1/GPa)
#
#
# Indices 1 2 3 4 5 6 
#
# 1 0.031401 0.009621 -0.001441 -0.023416 0.019449 -0.015386
# 2 0.009621 0.024161 -0.003410 -0.014341 0.010217 -0.009478
# 3 -0.001441 -0.003410 0.019915 -0.013157 0.027076 -0.011173
# 4 -0.023416 -0.014341 -0.013157 0.058344 -0.031255 0.025850
# 5 0.019449 0.010217 0.027076 -0.031255 0.127373 -0.054227
# 6 -0.015386 -0.009478 -0.011173 0.025850 -0.054227 0.069349
#
#
# Mechanical properties :
#
#
# Convention : Reuss Voigt Hill
#
# Bulk Modulus (GPa) = 11.76222 41.89002 26.82612
# Shear Modulus (GPa) = 14.31263 26.95187 20.63225
#
# Velocity S-wave (km/s) = 2.75420 3.77947 3.30681
# Velocity P-wave (km/s) = 4.04328 6.42241 5.36635
#
# Compressibility (1/GPa) = 0.08501799
#
# Stress axis : x y z
#
# Youngs Moduli (GPa) = 31.84579 41.38966 50.21304
#
# Poissons Ratio (x) = -0.39822 0.07234
# Poissons Ratio (y) = -0.30640 0.17123
# Poissons Ratio (z) = 0.04588 0.14114
#
# Static dielectric constant tensor:
#      x y z
#    x 1.689950 -0.019700 0.018160 
#    y -0.019700 1.818200 -0.027280 
#    z 0.018160 -0.027280 1.734270 
# 
# From -- ./inp_files/564163.got.cif
#   From: 2010.05.17/outbox.cif.g08.bks.cpg/sg2_283_cif.got.tgz:564163.got - 2010.06.03 11:33:40.
