data_PCOD9093858
_publ_section_title
;
Structure prediction by ZEFSAII (Michael W. Deem and Ramdas Pophale) SiO2 
 PCOD9093858
Probable space group: P -1
;
_chemical_formula_sum "Si O2"
_cell_formula_units_Z 16
_cell_length_a 9.743004
_cell_length_b 10.216702
_cell_length_c 13.310586
_cell_angle_alpha 54.525107
_cell_angle_beta 80.345281
_cell_angle_gamma 48.190703
_cell_volume 749.993700
_symmetry_space_group_name_H-M "P -1"
_symmetry_group_IT_number 2
_symmetry_cell_setting 'triclinic'
loop_
_space_group_symop_operation_xyz
x,y,z
-x,-y,-z
loop_
_atom_site_type_symbol
_atom_site_label
_atom_site_fract_x
_atom_site_fract_y
_atom_site_fract_z
Si Si1 0.917440 0.966947 0.119788
Si Si2 0.250797 0.268996 0.292695
Si Si3 0.822562 0.279519 0.604173
Si Si4 0.433859 0.781800 0.419536
Si Si5 0.443207 0.843874 0.818092
Si Si6 0.846521 0.721497 0.103221
Si Si7 0.459651 0.940767 0.150839
Si Si8 0.872179 0.726741 0.478327
O O1 0.901799 0.797815 0.152730
O O2 0.060062 0.862523 0.245234
O O3 0.692808 0.176038 0.098934
O O4 0.000000 0.000000 0.000000
O O5 0.375516 0.317683 0.211052
O O6 0.215429 0.286933 0.407675
O O7 0.037906 0.457835 0.181116
O O8 0.357392 0.011603 0.371732
O O9 0.630566 0.539968 0.546339
O O10 0.739543 0.203637 0.580610
O O11 0.972680 0.258585 0.526084
O O12 0.492484 0.778942 0.300327
O O13 0.528790 0.895766 0.868026
O O14 0.289643 0.066419 0.667599
O O15 0.650894 0.780699 0.127950
O O16 0.754315 0.900364 0.944305
O O17 0.000000 0.500000 0.500000
#
# Coordination Sequence:
#
# PCOD9093858 Si02
#       8
#     2   2   2   2   2   2   2   2
#     4  10  20  38  60  82 113 155 196 238 287 349
#     4  11  21  35  58  86 116 147 190 252 299 334
#     4  10  21  37  57  83 115 155 198 231 286 359
#     4  10  21  36  56  82 116 151 190 244 294 341
#     4   9  20  33  53  83 112 144 190 236 284 344
#     4  10  20  33  59  86 110 149 198 238 288 352
#     4   9  18  36  55  81 112 149 194 236 284 348
#     4  11  20  35  58  82 112 151 190 236 292 351
#
# _framework density 21.333511999999999
#
# number of rings (size 3 to 8) (size 9 to 14) (size 15 to 20)
#    0.000    2.000    0.000    5.625    0.000    3.500 
#    0.000    0.625    0.000    9.000    0.000    0.000 
#    0.000    0.000    0.000    0.000    0.000    0.000 
#
# Total GULP energy -89145.146498 kJ/mol
# GULP energy per Si atom -5571.571656 kJ/mol
# Density = 2.128496 g / cm^3
# Si number density = 21.333512 Si / 1000 Ang^3
#
#
#
# Elastic Constant Matrix: (Units=GPa)
#
#
# Indices 1 2 3 4 5 6 
#
# 1 76.0623 23.6979 13.9378 8.2686 6.6180 -12.7979
# 2 23.6979 91.8259 31.5240 13.2982 -4.0078 -26.0193
# 3 13.9378 31.5240 68.6412 15.8424 8.5820 -20.2910
# 4 8.2686 13.2982 15.8424 36.8020 -12.1725 -9.3954
# 5 6.6180 -4.0078 8.5820 -12.1725 31.8193 0.4690
# 6 -12.7979 -26.0193 -20.2910 -9.3954 0.4690 21.3934
#
#
#
# Elastic Compliance Matrix: (Units=1/GPa)
#
#
# Indices 1 2 3 4 5 6 
#
# 1 0.015527 -0.002427 0.001179 -0.003272 -0.005195 0.006132
# 2 -0.002427 0.017488 -0.003208 0.001269 0.003804 0.017248
# 3 0.001179 -0.003208 0.023854 -0.008897 -0.010719 0.015756
# 4 -0.003272 0.001269 -0.008897 0.039338 0.018170 0.008025
# 5 -0.005195 0.003804 -0.010719 0.018170 0.042853 -0.001607
# 6 0.006132 0.017248 0.015756 0.008025 -0.001607 0.089892
#
#
# Mechanical properties :
#
#
# Convention : Reuss Voigt Hill
#
# Bulk Modulus (GPa) = 20.85283 41.64987 31.25135
# Shear Modulus (GPa) = 19.69682 29.16092 24.42887
#
# Velocity S-wave (km/s) = 3.04185 3.70118 3.38759
# Velocity P-wave (km/s) = 4.70458 6.15066 5.47557
#
# Compressibility (1/GPa) = 0.04795512
#
# Stress axis : x y z
#
# Youngs Moduli (GPa) = 64.40518 57.18369 41.92253
#
# Poissons Ratio (x) = 0.13881 -0.04944
# Poissons Ratio (y) = 0.15634 0.13450
# Poissons Ratio (z) = -0.07596 0.18346
#
# Static dielectric constant tensor:
#      x y z
#    x 1.861830 -0.026950 -0.023220 
#    y -0.026950 1.845770 0.035090 
#    z -0.023220 0.035090 1.819890 
# 
# From -- ./inp_files/500015.got.cif
#   From: 2010.05.17/outbox.cif.g08.bks.cpg/sg2_251_cif.got.tgz:500015.got - 2010.06.03 11:33:40.
