data_PCOD9093900
_publ_section_title
;
Structure prediction by ZEFSAII (Michael W. Deem and Ramdas Pophale) SiO2 
 PCOD9093900
Probable space group: P -1
;
_chemical_formula_sum "Si O2"
_cell_formula_units_Z 16
_cell_length_a 12.685973
_cell_length_b 18.727671
_cell_length_c 16.047737
_cell_angle_alpha 22.413149
_cell_angle_beta 53.847171
_cell_angle_gamma 41.528549
_cell_volume 881.615324
_symmetry_space_group_name_H-M "P -1"
_symmetry_group_IT_number 2
_symmetry_cell_setting 'triclinic'
loop_
_space_group_symop_operation_xyz
x,y,z
-x,-y,-z
loop_
_atom_site_type_symbol
_atom_site_label
_atom_site_fract_x
_atom_site_fract_y
_atom_site_fract_z
Si Si1 0.096571 0.086604 0.401041
Si Si2 0.770636 0.830232 0.901020
Si Si3 0.935303 0.303569 0.636009
Si Si4 0.783701 0.405165 0.316808
Si Si5 0.702503 0.283501 0.651842
Si Si6 0.575132 0.335881 0.369500
Si Si7 0.921723 0.740779 0.109828
Si Si8 0.830004 0.255195 0.913927
O O1 0.105486 0.235457 0.164418
O O2 0.021682 0.752045 0.639958
O O3 0.298474 0.833516 0.585058
O O4 0.000000 0.000000 0.500000
O O5 0.612904 0.125369 0.641750
O O6 0.713223 0.671543 0.091306
O O7 0.869048 0.768082 0.008516
O O8 0.771210 0.357473 0.610694
O O9 0.943331 0.513144 0.382842
O O10 0.912589 0.287897 0.761254
O O11 0.095272 0.026373 0.825801
O O12 0.789682 0.264752 0.544724
O O13 0.659841 0.430667 0.277021
O O14 0.500000 0.500000 0.500000
O O15 0.766849 0.011525 0.931403
O O16 0.376701 0.546029 0.211717
O O17 0.090805 0.709009 0.082938
#
# Coordination Sequence:
#
# PCOD9093900 Si02
#       8
#     2   2   2   2   2   2   2   2
#     4   8  17  34  58  84 114 146 185 234 288 334
#     4  10  20  33  60  90 107 148 187 235 285 333
#     4  10  22  37  56  78 111 160 192 225 286 341
#     4  11  18  35  58  85 118 148 183 238 286 336
#     4  11  22  34  56  88 119 144 186 239 282 329
#     4   9  20  35  56  86 111 142 190 240 278 329
#     4  11  21  38  57  82 115 151 189 229 289 342
#     4  10  22  39  56  78 115 154 194 232 277 344
#
# _framework density 18.148506000000001
#
# number of rings (size 3 to 8) (size 9 to 14) (size 15 to 20)
#    0.750    1.250    2.500    1.500    0.000    2.500 
#    0.000    0.000    0.000   12.750    0.000    0.000 
#    0.000    0.000    0.000    0.000    0.000    0.000 
#
# Total GULP energy -89100.417944 kJ/mol
# GULP energy per Si atom -5568.776122 kJ/mol
# Density = 1.810720 g / cm^3
# Si number density = 18.148506 Si / 1000 Ang^3
#
#
#
# Elastic Constant Matrix: (Units=GPa)
#
#
# Indices 1 2 3 4 5 6 
#
# 1 100.4445 29.2550 50.3819 -30.2916 3.5797 -4.7600
# 2 29.2550 50.7288 33.0664 -15.4081 5.4999 -9.2060
# 3 50.3819 33.0664 119.0991 -18.9496 -14.4343 -20.3677
# 4 -30.2916 -15.4081 -18.9496 24.3456 -2.9432 9.8378
# 5 3.5797 5.4999 -14.4343 -2.9432 34.0476 -6.9446
# 6 -4.7600 -9.2060 -20.3677 9.8378 -6.9446 18.4147
#
#
#
# Elastic Compliance Matrix: (Units=1/GPa)
#
#
# Indices 1 2 3 4 5 6 
#
# 1 0.023582 -0.001524 -0.010304 0.029455 -0.009210 -0.025272
# 2 -0.001524 0.028696 -0.006718 0.010985 -0.006761 -0.001897
# 3 -0.010304 -0.006718 0.019224 -0.011140 0.014817 0.026779
# 4 0.029455 0.010985 -0.011140 0.097032 -0.012587 -0.055800
# 5 -0.009210 -0.006761 0.014817 -0.012587 0.043511 0.033762
# 6 -0.025272 -0.001897 0.026779 -0.055800 0.033762 0.118985
#
#
# Mechanical properties :
#
#
# Convention : Reuss Voigt Hill
#
# Bulk Modulus (GPa) = 29.06297 55.07545 42.06921
# Shear Modulus (GPa) = 13.17203 25.86620 19.51911
#
# Velocity S-wave (km/s) = 2.69697 3.77935 3.28307
# Velocity P-wave (km/s) = 5.07415 7.03261 6.13207
#
# Compressibility (1/GPa) = 0.03440805
#
# Stress axis : x y z
#
# Youngs Moduli (GPa) = 42.40602 34.84793 52.01955
#
# Poissons Ratio (x) = 0.05312 0.53601
# Poissons Ratio (y) = 0.06464 0.34948
# Poissons Ratio (z) = 0.43695 0.23412
#
# Static dielectric constant tensor:
#      x y z
#    x 1.620740 0.014020 -0.016010 
#    y 0.014020 1.665380 -0.005820 
#    z -0.016010 -0.005820 1.664640 
# 
# From -- ./inp_files/570542.got.cif
#   From: 2010.05.17/outbox.cif.g08.bks.cpg/sg2_286_cif.got.tgz:570542.got - 2010.06.03 11:33:40.
