data_PCOD9093621
_publ_section_title
;
Structure prediction by ZEFSAII (Michael W. Deem and Ramdas Pophale) SiO2 
 PCOD9093621
Probable space group: P -1
;
_chemical_formula_sum "Si O2"
_cell_formula_units_Z 16
_cell_length_a 5.260381
_cell_length_b 12.360794
_cell_length_c 12.476755
_cell_angle_alpha 66.163645
_cell_angle_beta 111.125666
_cell_angle_gamma 129.332832
_cell_volume 567.707400
_symmetry_space_group_name_H-M "P -1"
_symmetry_group_IT_number 2
_symmetry_cell_setting 'triclinic'
loop_
_space_group_symop_operation_xyz
x,y,z
-x,-y,-z
loop_
_atom_site_type_symbol
_atom_site_label
_atom_site_fract_x
_atom_site_fract_y
_atom_site_fract_z
Si Si1 0.274439 0.861147 0.943917
Si Si2 0.877870 0.486869 0.674461
Si Si3 0.623061 0.742544 0.154667
Si Si4 0.221814 0.062626 0.189759
Si Si5 0.702700 0.265275 0.566319
Si Si6 0.028893 0.907069 0.422219
Si Si7 0.783195 0.712322 0.642418
Si Si8 0.561633 0.486292 0.137441
O O1 0.925478 0.843769 0.894750
O O2 0.339160 0.748869 0.049276
O O3 0.447476 0.890671 0.841653
O O4 0.500000 0.000000 0.000000
O O5 0.541944 0.351777 0.728256
O O6 0.920395 0.405799 0.615652
O O7 0.806628 0.607827 0.604392
O O8 0.156365 0.539648 0.786533
O O9 0.938035 0.903442 0.162732
O O10 0.702860 0.645508 0.139693
O O11 0.229619 0.052375 0.324110
O O12 0.356168 0.152149 0.620192
O O13 0.561373 0.305082 0.428460
O O14 0.862859 0.183884 0.587879
O O15 0.046809 0.872076 0.565136
O O16 0.736445 0.636100 0.780586
O O17 0.500000 0.500000 0.000000
#
# Coordination Sequence:
#
# PCOD9093621 Si02
#       8
#     2   2   2   2   2   2   2   2
#     4  10  22  33  55  86 121 156 196 233 295 367
#     4  11  21  35  58  78 125 152 202 241 299 352
#     4  10  21  35  54  82 113 165 193 250 290 346
#     4  11  20  35  55  90 122 155 190 235 299 371
#     4  10  20  33  55  87 118 151 189 225 305 357
#     4  10  20  33  54  84 121 151 184 233 293 363
#     4   9  22  36  53  86 114 156 195 245 297 357
#     4  11  25  40  59  83 116 165 215 251 288 345
#
# _framework density 28.183533000000001
#
# number of rings (size 3 to 8) (size 9 to 14) (size 15 to 20)
#    0.750    1.000    1.250    4.125    8.750    3.000 
#    0.000    0.000    0.000    0.000    0.000    1.750 
#    0.000    0.000    0.000    0.000    0.000    0.000 
#
# Total GULP energy -89453.890008 kJ/mol
# GULP energy per Si atom -5590.868125 kJ/mol
# Density = 2.811939 g / cm^3
# Si number density = 28.183533 Si / 1000 Ang^3
#
#
#
# Elastic Constant Matrix: (Units=GPa)
#
#
# Indices 1 2 3 4 5 6 
#
# 1 151.3845 14.7090 39.3548 1.4462 6.4423 -3.2970
# 2 14.7090 81.0863 30.5061 3.2718 4.0696 -2.8633
# 3 39.3548 30.5061 161.7306 -17.0595 0.3769 -10.1111
# 4 1.4462 3.2718 -17.0595 50.2030 -8.1792 -2.6964
# 5 6.4423 4.0696 0.3769 -8.1792 46.1155 -6.1789
# 6 -3.2970 -2.8633 -10.1111 -2.6964 -6.1789 38.0717
#
#
#
# Elastic Compliance Matrix: (Units=1/GPa)
#
#
# Indices 1 2 3 4 5 6 
#
# 1 0.007167 -0.000553 -0.001746 -0.000954 -0.001126 -0.000135
# 2 -0.000553 0.013578 -0.002642 -0.002012 -0.001471 -0.000110
# 3 -0.001746 -0.002642 0.007561 0.003106 0.001245 0.002080
# 4 -0.000954 -0.002012 0.003106 0.022035 0.004582 0.002895
# 5 -0.001126 -0.001471 0.001245 0.004582 0.023342 0.004235
# 6 -0.000135 -0.000110 0.002080 0.002895 0.004235 0.027691
#
#
# Mechanical properties :
#
#
# Convention : Reuss Voigt Hill
#
# Bulk Modulus (GPa) = 54.27769 62.59347 58.43558
# Shear Modulus (GPa) = 42.58965 47.52014 45.05489
#
# Velocity S-wave (km/s) = 3.89157 4.11066 4.00262
# Velocity P-wave (km/s) = 6.28434 6.69235 6.49155
#
# Compressibility (1/GPa) = 0.01842378
#
# Stress axis : x y z
#
# Youngs Moduli (GPa) = 139.51907 73.64815 132.25269
#
# Poissons Ratio (x) = 0.04072 0.23095
# Poissons Ratio (y) = 0.07715 0.34945
# Poissons Ratio (z) = 0.24364 0.19460
#
# Static dielectric constant tensor:
#      x y z
#    x 2.161670 0.086040 -0.082040 
#    y 0.086040 2.227040 -0.004760 
#    z -0.082040 -0.004760 2.276870 
# 
# From -- ./inp_files/367695.got.cif
#   From: 2010.05.17/outbox.cif.g08.bks.cpg/sg2_184_cif.got.tgz:367695.got - 2010.06.03 11:33:40.
