data_PCOD9093184
_publ_section_title
;
Structure prediction by ZEFSAII (Michael W. Deem and Ramdas Pophale) SiO2 
 PCOD9093184
Probable space group: P -1
;
_chemical_formula_sum "Si O2"
_cell_formula_units_Z 14
_cell_length_a 25.609855
_cell_length_b 11.846661
_cell_length_c 5.514392
_cell_angle_alpha 123.997167
_cell_angle_beta 120.358224
_cell_angle_gamma 23.228597
_cell_volume 546.868496
_symmetry_space_group_name_H-M "P -1"
_symmetry_group_IT_number 2
_symmetry_cell_setting 'triclinic'
loop_
_space_group_symop_operation_xyz
x,y,z
-x,-y,-z
loop_
_atom_site_type_symbol
_atom_site_label
_atom_site_fract_x
_atom_site_fract_y
_atom_site_fract_z
Si Si1 0.442505 0.344277 0.173123
Si Si2 0.920936 0.062098 0.706848
Si Si3 0.642081 0.791353 0.247175
Si Si4 0.502627 0.689882 0.246029
Si Si5 0.212635 0.166894 0.065725
Si Si6 0.149035 0.569785 0.307641
Si Si7 0.965025 0.682124 0.439090
O O1 0.418994 0.481673 0.523690
O O2 0.592449 0.986587 0.144978
O O3 0.369006 0.346351 0.990624
O O4 0.428336 0.455217 0.025741
O O5 0.996668 0.872816 0.403778
O O6 0.906438 0.948720 0.675140
O O7 0.815568 0.379531 0.731502
O O8 0.000000 0.000000 0.000000
O O9 0.776584 0.551587 0.411000
O O10 0.539937 0.064136 0.533172
O O11 0.367284 0.871295 0.142711
O O12 0.186907 0.344689 0.035552
O O13 0.108758 0.412157 0.328030
O O14 0.147470 0.161190 0.805281
O O15 0.000000 0.500000 0.500000
#
# Coordination Sequence:
#
# PCOD9093184 Si02
#       7
#     2   2   2   2   2   2   2
#     4   9  17  28  45  75 109 134 167 216 265 315
#     4  10  20  33  49  74 103 140 170 216 259 318
#     4   8  17  27  46  72 102 137 167 214 262 314
#     4   9  17  28  47  70 108 133 168 212 267 312
#     4   9  19  32  49  75  96 140 168 221 256 316
#     4   9  18  34  50  72 105 134 174 210 265 316
#     4  10  20  32  50  72 103 133 179 218 258 315
#
# _framework density 25.600306
#
# number of rings (size 3 to 8) (size 9 to 14) (size 15 to 20)
#    0.857    2.000    0.000    1.286    2.000    3.429 
#    0.000    0.000    0.000    0.000    0.000    2.000 
#    0.000    0.000    0.000    0.000    0.000    0.000 
#
# Total GULP energy -77954.434532 kJ/mol
# GULP energy per Si atom -5568.173895 kJ/mol
# Density = 2.554204 g / cm^3
# Si number density = 25.600306 Si / 1000 Ang^3
#
#
#
# Elastic Constant Matrix: (Units=GPa)
#
#
# Indices 1 2 3 4 5 6 
#
# 1 136.1036 18.3850 48.5771 -8.2505 6.4546 16.6822
# 2 18.3850 43.5721 11.9722 5.8046 0.1144 9.5647
# 3 48.5771 11.9722 121.9623 -25.9668 17.2861 4.8415
# 4 -8.2505 5.8046 -25.9668 23.7099 -3.7697 7.5709
# 5 6.4546 0.1144 17.2861 -3.7697 49.3254 1.8735
# 6 16.6822 9.5647 4.8415 7.5709 1.8735 39.2711
#
#
#
# Elastic Compliance Matrix: (Units=1/GPa)
#
#
# Indices 1 2 3 4 5 6 
#
# 1 0.009250 -0.002599 -0.002956 0.001672 0.000083 -0.003258
# 2 -0.002599 0.027226 -0.003949 -0.010783 0.000951 -0.003007
# 3 -0.002956 -0.003949 0.013456 0.014872 -0.003101 -0.002161
# 4 0.001672 -0.010783 0.014872 0.065721 0.000096 -0.012592
# 5 0.000083 0.000951 -0.003101 0.000096 0.021390 -0.000923
# 6 -0.003258 -0.003007 -0.002161 -0.012592 -0.000923 0.030318
#
#
# Mechanical properties :
#
#
# Convention : Reuss Voigt Hill
#
# Bulk Modulus (GPa) = 32.33563 51.05630 41.69596
# Shear Modulus (GPa) = 25.42261 37.30821 31.36541
#
# Velocity S-wave (km/s) = 3.15470 3.82165 3.50408
# Velocity P-wave (km/s) = 5.09195 6.28174 5.71787
#
# Compressibility (1/GPa) = 0.03092564
#
# Stress axis : x y z
#
# Youngs Moduli (GPa) = 108.10757 36.72965 74.31798
#
# Poissons Ratio (x) = 0.09544 0.21966
# Poissons Ratio (y) = 0.28092 0.29347
# Poissons Ratio (z) = 0.31953 0.14504
#
# Static dielectric constant tensor:
#      x y z
#    x 2.185130 -0.029500 -0.085250 
#    y -0.029500 2.165800 0.089720 
#    z -0.085250 0.089720 2.117220 
# 
# From -- ./inp_files/126641.got.cif
#   From: 2010.05.17/outbox.cif.g08.bks.cpg/sg2_64_cif.got.tgz:126641.got - 2010.06.03 11:33:40.
