data_PCOD9093698
_publ_section_title
;
Structure prediction by ZEFSAII (Michael W. Deem and Ramdas Pophale) SiO2 
 PCOD9093698
Probable space group: P -1
;
_chemical_formula_sum "Si O2"
_cell_formula_units_Z 14
_cell_length_a 8.970635
_cell_length_b 14.337511
_cell_length_c 9.476172
_cell_angle_alpha 118.266916
_cell_angle_beta 48.498373
_cell_angle_gamma 98.162654
_cell_volume 776.192282
_symmetry_space_group_name_H-M "P -1"
_symmetry_group_IT_number 2
_symmetry_cell_setting 'triclinic'
loop_
_space_group_symop_operation_xyz
x,y,z
-x,-y,-z
loop_
_atom_site_type_symbol
_atom_site_label
_atom_site_fract_x
_atom_site_fract_y
_atom_site_fract_z
Si Si1 0.571134 0.499992 0.118023
Si Si2 0.668251 0.724177 0.312005
Si Si3 0.851116 0.465487 0.453576
Si Si4 0.315803 0.131501 0.842278
Si Si5 0.981402 0.758861 0.674539
Si Si6 0.974712 0.625900 0.296104
Si Si7 0.295750 0.901761 0.598276
O O1 0.604222 0.618580 0.217817
O O2 0.386004 0.482782 0.318405
O O3 0.500000 0.500000 0.000000
O O4 0.790761 0.412989 0.932394
O O5 0.768852 0.777641 0.160248
O O6 0.459008 0.819519 0.539813
O O7 0.818399 0.688542 0.322377
O O8 0.900406 0.335864 0.357798
O O9 0.000000 0.500000 0.500000
O O10 0.908698 0.516311 0.309442
O O11 0.560692 0.099226 0.631768
O O12 0.239569 0.023364 0.782584
O O13 0.238322 0.184506 0.077552
O O14 0.968202 0.700490 0.492538
O O15 0.111315 0.848244 0.644969
#
# Coordination Sequence:
#
# PCOD9093698 Si02
#       7
#     2   2   2   2   2   2   2
#     4  12  20  37  58  80 113 155 187 216 265 342
#     4  10  21  40  55  81 120 140 182 238 275 316
#     4  10  20  33  56  81 111 147 188 214 265 338
#     4   9  20  36  65  77 104 147 191 227 275 328
#     4  11  19  35  60  81 107 147 191 223 268 334
#     4  11  24  35  53  88 118 144 182 230 276 322
#     4   9  19  39  61  80 104 145 195 224 274 332
#
# _framework density 18.036767000000001
#
# number of rings (size 3 to 8) (size 9 to 14) (size 15 to 20)
#    0.857    0.857    4.286    1.714    2.000    0.571 
#    2.571    1.429    0.000    0.000    0.000    0.000 
#    0.000    0.000    0.000    0.000    0.000    0.000 
#
# Total GULP energy -77990.598153 kJ/mol
# GULP energy per Si atom -5570.757011 kJ/mol
# Density = 1.799571 g / cm^3
# Si number density = 18.036767 Si / 1000 Ang^3
#
#
#
# Elastic Constant Matrix: (Units=GPa)
#
#
# Indices 1 2 3 4 5 6 
#
# 1 74.0803 34.2929 18.2505 -0.2057 -4.6751 -3.4162
# 2 34.2929 78.0324 19.6778 5.0577 5.4687 18.2329
# 3 18.2505 19.6778 87.5047 2.1557 -10.8757 11.3725
# 4 -0.2057 5.0577 2.1557 16.6875 4.9995 -0.2922
# 5 -4.6751 5.4687 -10.8757 4.9995 13.9066 -1.7983
# 6 -3.4162 18.2329 11.3725 -0.2922 -1.7983 18.0032
#
#
#
# Elastic Compliance Matrix: (Units=1/GPa)
#
#
# Indices 1 2 3 4 5 6 
#
# 1 0.024111 -0.016957 -0.002582 0.001590 0.015409 0.024944
# 2 -0.016957 0.030762 -0.001434 -0.003273 -0.022365 -0.035754
# 3 -0.002582 -0.001434 0.014902 -0.005343 0.012326 -0.007307
# 4 0.001590 -0.003273 -0.005343 0.069727 -0.026719 0.005455
# 5 0.015409 -0.022365 0.012326 -0.026719 0.108777 0.028220
# 6 0.024944 -0.035754 -0.007307 0.005455 0.028220 0.104012
#
#
# Mechanical properties :
#
#
# Convention : Reuss Voigt Hill
#
# Bulk Modulus (GPa) = 35.92926 42.67333 39.30130
# Shear Modulus (GPa) = 12.39116 20.87921 16.63518
#
# Velocity S-wave (km/s) = 2.62390 3.40603 3.04022
# Velocity P-wave (km/s) = 5.39843 6.25927 5.84472
#
# Compressibility (1/GPa) = 0.02783247
#
# Stress axis : x y z
#
# Youngs Moduli (GPa) = 41.47413 32.50720 67.10502
#
# Poissons Ratio (x) = 0.55121 0.17324
# Poissons Ratio (y) = 0.70326 0.09620
# Poissons Ratio (z) = 0.10707 0.04660
#
# Static dielectric constant tensor:
#      x y z
#    x 1.586700 0.003920 -0.018250 
#    y 0.003920 1.640710 -0.008450 
#    z -0.018250 -0.008450 1.651970 
# 
# From -- ./inp_files/197745.got.cif
#   From: 2010.05.17/outbox.cif.g08.bks.cpg/sg2_99_cif.got.tgz:197745.got - 2010.06.03 11:33:40.
