data_PCOD9093850
_publ_section_title
;
Structure prediction by ZEFSAII (Michael W. Deem and Ramdas Pophale) SiO2 
 PCOD9093850
Probable space group: P -1
;
_chemical_formula_sum "Si O2"
_cell_formula_units_Z 16
_cell_length_a 12.038805
_cell_length_b 5.317678
_cell_length_c 19.494492
_cell_angle_alpha 108.724848
_cell_angle_beta 128.782807
_cell_angle_gamma 49.959212
_cell_volume 737.750698
_symmetry_space_group_name_H-M "P -1"
_symmetry_group_IT_number 2
_symmetry_cell_setting 'triclinic'
loop_
_space_group_symop_operation_xyz
x,y,z
-x,-y,-z
loop_
_atom_site_type_symbol
_atom_site_label
_atom_site_fract_x
_atom_site_fract_y
_atom_site_fract_z
Si Si1 0.570431 0.730261 0.778007
Si Si2 0.781319 0.984650 0.263059
Si Si3 0.932747 0.122956 0.908909
Si Si4 0.932219 0.943660 0.181775
Si Si5 0.184159 0.167392 0.515426
Si Si6 0.664058 0.440803 0.373789
Si Si7 0.248534 0.182267 0.256004
Si Si8 0.097745 0.259678 0.339596
O O1 0.756387 0.505268 0.870645
O O2 0.527636 0.486920 0.706798
O O3 0.592877 0.911861 0.741327
O O4 0.394249 0.976564 0.776074
O O5 0.790287 0.990061 0.184836
O O6 0.967163 0.656274 0.332057
O O7 0.757534 0.286456 0.322159
O O8 0.082016 0.051972 0.905591
O O9 0.862741 0.925289 0.833127
O O10 0.000000 0.000000 0.000000
O O11 0.116802 0.584520 0.235340
O O12 0.969402 0.196296 0.245617
O O13 0.311626 0.284865 0.570995
O O14 0.161332 0.090343 0.422596
O O15 0.000000 0.500000 0.500000
O O16 0.246607 0.864507 0.564038
O O17 0.257073 0.133016 0.336669
#
# Coordination Sequence:
#
# PCOD9093850 Si02
#       8
#     2   2   2   2   2   2   2   2
#     4   9  21  37  58  85 121 156 196 243 320 364
#     4   9  19  34  57  83 118 160 193 245 308 352
#     4  10  21  39  66  88 109 150 201 251 302 376
#     4   9  19  36  57  87 115 153 201 241 305 360
#     4  12  21  35  56  91 124 164 217 257 294 350
#     4  10  24  34  57  89 126 166 204 258 307 353
#     4   9  20  38  60  80 117 152 199 242 309 368
#     4  10  20  33  59  82 117 159 206 252 288 354
#
# _framework density 21.687543000000002
#
# number of rings (size 3 to 8) (size 9 to 14) (size 15 to 20)
#    0.750    1.500    1.250    1.125    5.250    3.000 
#    0.000    1.875    0.000    7.500    0.000    0.000 
#    0.000    0.000    0.000    0.000    0.000    0.000 
#
# Total GULP energy -89157.062979 kJ/mol
# GULP energy per Si atom -5572.316436 kJ/mol
# Density = 2.163818 g / cm^3
# Si number density = 21.687543 Si / 1000 Ang^3
#
#
#
# Elastic Constant Matrix: (Units=GPa)
#
#
# Indices 1 2 3 4 5 6 
#
# 1 171.8402 16.3915 46.7768 -11.0605 -44.9611 -10.1574
# 2 16.3915 40.7764 16.9570 -7.2990 -6.5730 -3.0848
# 3 46.7768 16.9570 101.7416 -25.3416 -43.0148 -10.6170
# 4 -11.0605 -7.2990 -25.3416 28.6659 8.7956 -1.8201
# 5 -44.9611 -6.5730 -43.0148 8.7956 43.6808 5.9650
# 6 -10.1574 -3.0848 -10.6170 -1.8201 5.9650 28.5193
#
#
#
# Elastic Compliance Matrix: (Units=1/GPa)
#
#
# Indices 1 2 3 4 5 6 
#
# 1 0.008148 -0.001898 0.000204 0.000438 0.008062 0.001114
# 2 -0.001898 0.027194 -0.003480 0.003933 -0.002314 0.001705
# 3 0.000204 -0.003480 0.021526 0.013140 0.017573 0.004873
# 4 0.000438 0.003933 0.013140 0.047109 0.003436 0.007761
# 5 0.008062 -0.002314 0.017573 0.003436 0.047533 -0.000559
# 6 0.001114 0.001705 0.004873 0.007761 -0.000559 0.038072
#
#
# Mechanical properties :
#
#
# Convention : Reuss Voigt Hill
#
# Bulk Modulus (GPa) = 21.49624 52.73432 37.11528
# Shear Modulus (GPa) = 23.20857 35.78871 29.49864
#
# Velocity S-wave (km/s) = 3.27484 4.06667 3.69204
# Velocity P-wave (km/s) = 4.92268 6.81312 5.94354
#
# Compressibility (1/GPa) = 0.04651976
#
# Stress axis : x y z
#
# Youngs Moduli (GPa) = 122.72424 36.77230 46.45591
#
# Poissons Ratio (x) = 0.06980 -0.00948
# Poissons Ratio (y) = 0.23294 0.16168
# Poissons Ratio (z) = -0.02503 0.12798
#
# Static dielectric constant tensor:
#      x y z
#    x 1.882980 -0.000500 0.007860 
#    y -0.000500 1.908880 -0.016360 
#    z 0.007860 -0.016360 1.767100 
# 
# From -- ./inp_files/564248.got.cif
#   From: 2010.05.17/outbox.cif.g08.bks.cpg/sg2_283_cif.got.tgz:564248.got - 2010.06.03 11:33:40.
