data_PCOD9093812
_publ_section_title
;
Structure prediction by ZEFSAII (Michael W. Deem and Ramdas Pophale) SiO2 
 PCOD9093812
Probable space group: P -1
;
_chemical_formula_sum "Si O2"
_cell_formula_units_Z 16
_cell_length_a 8.008261
_cell_length_b 11.637804
_cell_length_c 12.586803
_cell_angle_alpha 68.643114
_cell_angle_beta 135.656180
_cell_angle_gamma 88.051933
_cell_volume 681.050797
_symmetry_space_group_name_H-M "P -1"
_symmetry_group_IT_number 2
_symmetry_cell_setting 'triclinic'
loop_
_space_group_symop_operation_xyz
x,y,z
-x,-y,-z
loop_
_atom_site_type_symbol
_atom_site_label
_atom_site_fract_x
_atom_site_fract_y
_atom_site_fract_z
Si Si1 0.833735 0.270244 0.443348
Si Si2 0.905660 0.368774 0.657166
Si Si3 0.360102 0.185051 0.427251
Si Si4 0.263917 0.515086 0.088490
Si Si5 0.084335 0.560482 0.766011
Si Si6 0.690413 0.059754 0.809274
Si Si7 0.351606 0.946407 0.605013
Si Si8 0.412690 0.660000 0.277924
O O1 0.972670 0.268826 0.619810
O O2 0.521729 0.376343 0.284809
O O3 0.907713 0.349024 0.359007
O O4 0.836780 0.129066 0.450181
O O5 0.684837 0.519947 0.464159
O O6 0.772198 0.327323 0.708209
O O7 0.119705 0.412968 0.790156
O O8 0.637165 0.108602 0.644859
O O9 0.422493 0.148820 0.346155
O O10 0.204923 0.341732 0.343018
O O11 0.211338 0.097759 0.434690
O O12 0.268815 0.638140 0.117135
O O13 0.274003 0.539281 0.959866
O O14 0.000000 0.500000 0.000000
O O15 0.545052 0.204372 0.756554
O O16 0.526277 0.968875 0.771761
O O17 0.000000 0.000000 0.000000
#
# Coordination Sequence:
#
# PCOD9093812 Si02
#       8
#     2   2   2   2   2   2   2   2
#     4  11  24  37  58  88 121 157 187 233 300 352
#     4  10  20  37  60  85 116 148 194 240 284 350
#     4   9  20  37  60  82 112 151 201 238 284 331
#     4  11  23  37  60  86 119 150 195 243 285 342
#     4  12  22  39  58  85 124 156 188 235 294 356
#     4  10  20  33  58  86 114 138 190 253 283 324
#     4   9  20  38  58  84 115 147 202 238 283 337
#     4  10  20  35  60  90 109 146 199 242 293 322
#
# _framework density 23.493106000000001
#
# number of rings (size 3 to 8) (size 9 to 14) (size 15 to 20)
#    0.750    1.000    2.500    2.250    5.250    0.500 
#    0.000    0.000    0.000    0.750    0.000    0.000 
#    0.000    0.000    0.000    0.000    0.000    0.000 
#
# Total GULP energy -89225.062322 kJ/mol
# GULP energy per Si atom -5576.566395 kJ/mol
# Density = 2.343963 g / cm^3
# Si number density = 23.493106 Si / 1000 Ang^3
#
#
#
# Elastic Constant Matrix: (Units=GPa)
#
#
# Indices 1 2 3 4 5 6 
#
# 1 63.5579 23.2708 1.3237 13.8897 -18.0671 4.9456
# 2 23.2708 170.7376 45.5330 49.0916 -16.7567 9.6938
# 3 1.3237 45.5330 70.1801 33.7356 -7.7044 -4.9979
# 4 13.8897 49.0916 33.7356 43.2704 -10.6557 0.7433
# 5 -18.0671 -16.7567 -7.7044 -10.6557 24.1744 -3.9181
# 6 4.9456 9.6938 -4.9979 0.7433 -3.9181 28.1179
#
#
#
# Elastic Compliance Matrix: (Units=1/GPa)
#
#
# Indices 1 2 3 4 5 6 
#
# 1 0.021303 -0.001072 0.004540 -0.005696 0.014039 -0.000463
# 2 -0.001072 0.009163 -0.002144 -0.008133 0.000791 -0.003026
# 3 0.004540 -0.002144 0.024751 -0.017715 0.002830 0.005203
# 4 -0.005696 -0.008133 -0.017715 0.049532 0.006330 0.000230
# 5 0.014039 0.000791 0.002830 0.006330 0.056996 0.005536
# 6 -0.000463 -0.003026 0.005203 0.000230 0.005536 0.038379
#
#
# Mechanical properties :
#
#
# Convention : Reuss Voigt Hill
#
# Bulk Modulus (GPa) = 17.28135 49.41452 33.34793
# Shear Modulus (GPa) = 23.06646 34.73572 28.90109
#
# Velocity S-wave (km/s) = 3.13683 3.84936 3.51122
# Velocity P-wave (km/s) = 4.52675 6.39031 5.53749
#
# Compressibility (1/GPa) = 0.05786585
#
# Stress axis : x y z
#
# Youngs Moduli (GPa) = 46.94070 109.13807 40.40248
#
# Poissons Ratio (x) = 0.11704 -0.18344
# Poissons Ratio (y) = 0.05034 0.08661
# Poissons Ratio (z) = -0.21313 0.23395
#
# Static dielectric constant tensor:
#      x y z
#    x 1.938730 0.030410 0.031750 
#    y 0.030410 1.987740 0.031280 
#    z 0.031750 0.031280 1.954580 
# 
# From -- ./inp_files/387183.got.cif
#   From: 2010.05.17/outbox.cif.g08.bks.cpg/sg2_194_cif.got.tgz:387183.got - 2010.06.03 11:33:40.
