data_PCOD9093189
_publ_section_title
;
Structure prediction by ZEFSAII (Michael W. Deem and Ramdas Pophale) SiO2 
 PCOD9093189
Probable space group: P -1
;
_chemical_formula_sum "Si O2"
_cell_formula_units_Z 14
_cell_length_a 4.947646
_cell_length_b 5.583489
_cell_length_c 23.861211
_cell_angle_alpha 121.007871
_cell_angle_beta 58.964669
_cell_angle_gamma 99.206427
_cell_volume 479.064403
_symmetry_space_group_name_H-M "P -1"
_symmetry_group_IT_number 2
_symmetry_cell_setting 'triclinic'
loop_
_space_group_symop_operation_xyz
x,y,z
-x,-y,-z
loop_
_atom_site_type_symbol
_atom_site_label
_atom_site_fract_x
_atom_site_fract_y
_atom_site_fract_z
Si Si1 0.672563 0.772586 0.526753
Si Si2 0.415438 0.702635 0.903934
Si Si3 0.227909 0.759014 0.046236
Si Si4 0.391390 0.338754 0.236196
Si Si5 0.129232 0.285231 0.617216
Si Si6 0.481328 0.816573 0.666674
Si Si7 0.960905 0.190532 0.812534
O O1 0.500000 0.500000 0.500000
O O2 0.932766 0.762378 0.448075
O O3 0.753485 0.792122 0.586593
O O4 0.397783 0.036766 0.577633
O O5 0.336271 0.685885 0.844041
O O6 0.687566 0.435435 0.852465
O O7 0.597119 0.968794 0.929841
O O8 0.151560 0.730744 0.985164
O O9 0.965511 0.765354 0.124086
O O10 0.500000 0.500000 0.000000
O O11 0.453771 0.259066 0.284622
O O12 0.171703 0.643029 0.301287
O O13 0.186901 0.101135 0.208506
O O14 0.279025 0.575740 0.639163
O O15 0.258620 0.119793 0.730909
#
# Coordination Sequence:
#
# PCOD9093189 Si02
#       7
#     2   2   2   2   2   2   2
#     4   9  18  35  54  71  97 130 163 201 243 288
#     4   9  16  30  52  73  98 131 163 200 244 287
#     4   8  15  29  52  74  94 130 169 198 239 288
#     4  10  20  32  50  76 101 127 162 201 243 291
#     4   9  19  36  53  71  98 130 163 200 242 289
#     4  10  20  33  51  75 100 128 162 200 244 291
#     4   9  18  33  51  72 100 130 162 201 242 287
#
# _framework density 29.223628999999999
#
# number of rings (size 3 to 8) (size 9 to 14) (size 15 to 20)
#    0.000    2.857    0.000    0.857    0.000    1.714 
#    0.000    7.143    0.000   29.143    0.000    0.000 
#    0.000    0.000    0.000    0.000    0.000    0.000 
#
# Total GULP energy -78413.244441 kJ/mol
# GULP energy per Si atom -5600.946032 kJ/mol
# Density = 2.915711 g / cm^3
# Si number density = 29.223629 Si / 1000 Ang^3
#
#
#
# Elastic Constant Matrix: (Units=GPa)
#
#
# Indices 1 2 3 4 5 6 
#
# 1 86.5956 24.6020 53.5898 -11.9000 7.6467 -1.7744
# 2 24.6020 100.6608 84.6142 -6.9794 -7.1941 -15.0270
# 3 53.5898 84.6142 280.4394 -44.3655 40.7079 -12.9582
# 4 -11.9000 -6.9794 -44.3655 98.1210 -13.7341 6.1276
# 5 7.6467 -7.1941 40.7079 -13.7341 51.9510 -12.4852
# 6 -1.7744 -15.0270 -12.9582 6.1276 -12.4852 54.2524
#
#
#
# Elastic Compliance Matrix: (Units=1/GPa)
#
#
# Indices 1 2 3 4 5 6 
#
# 1 0.013337 -0.001881 -0.001800 0.000601 -0.000841 -0.000776
# 2 -0.001881 0.016406 -0.005642 -0.000813 0.007972 0.005061
# 3 -0.001800 -0.005642 0.006625 0.001683 -0.005629 -0.001525
# 4 0.000601 -0.000813 0.001683 0.011191 0.001251 -0.000779
# 5 -0.000841 0.007972 -0.005629 0.001251 0.026871 0.006879
# 6 -0.000776 0.005061 -0.001525 -0.000779 0.006879 0.021116
#
#
# Mechanical properties :
#
#
# Convention : Reuss Voigt Hill
#
# Bulk Modulus (GPa) = 56.42818 88.14531 72.28674
# Shear Modulus (GPa) = 41.63184 61.19087 51.41135
#
# Velocity S-wave (km/s) = 3.77848 4.58086 4.19888
# Velocity P-wave (km/s) = 6.19571 7.62934 6.94959
#
# Compressibility (1/GPa) = 0.01772164
#
# Stress axis : x y z
#
# Youngs Moduli (GPa) = 74.97902 60.95362 150.94034
#
# Poissons Ratio (x) = 0.11466 0.27167
# Poissons Ratio (y) = 0.14104 0.85166
# Poissons Ratio (z) = 0.13495 0.34392
#
# Static dielectric constant tensor:
#      x y z
#    x 2.227140 0.002430 0.008100 
#    y 0.002430 2.359490 -0.095330 
#    z 0.008100 -0.095330 2.284510 
# 
# From -- ./inp_files/7549.got.cif
#   From: 2010.05.17/outbox.cif.g08.bks.cpg/sg2_4_cif.got.tgz:7549.got - 2010.06.03 11:33:40.
