data_PCOD9093583
_publ_section_title
;
Structure prediction by ZEFSAII (Michael W. Deem and Ramdas Pophale) SiO2 
 PCOD9093583
Probable space group: P -1
;
_chemical_formula_sum "Si O2"
_cell_formula_units_Z 12
_cell_length_a 15.251920
_cell_length_b 9.842495
_cell_length_c 7.775918
_cell_angle_alpha 119.566767
_cell_angle_beta 133.323866
_cell_angle_gamma 33.181266
_cell_volume 455.081930
_symmetry_space_group_name_H-M "P -1"
_symmetry_group_IT_number 2
_symmetry_cell_setting 'triclinic'
loop_
_space_group_symop_operation_xyz
x,y,z
-x,-y,-z
loop_
_atom_site_type_symbol
_atom_site_label
_atom_site_fract_x
_atom_site_fract_y
_atom_site_fract_z
Si Si1 0.651462 0.551777 0.111487
Si Si2 0.554697 0.325374 0.762201
Si Si3 0.949123 0.756841 0.605254
Si Si4 0.117523 0.499166 0.039319
Si Si5 0.129731 0.840329 0.406758
Si Si6 0.465100 0.873171 0.713290
O O1 0.498539 0.714078 0.162200
O O2 0.847447 0.447214 0.356023
O O3 0.700090 0.317706 0.998127
O O4 0.566223 0.696594 0.907060
O O5 0.354830 0.619744 0.630800
O O6 0.588123 0.182172 0.555615
O O7 0.896201 0.994951 0.662670
O O8 0.754367 0.861869 0.354940
O O9 0.012775 0.629908 0.796884
O O10 0.108362 0.685370 0.217172
O O11 0.349279 0.217926 0.163528
O O12 0.000000 0.500000 0.000000
O O13 0.000000 0.000000 0.500000
#
# Coordination Sequence:
#
# PCOD9093583 Si02
#       6
#     2   2   2   2   2   2
#     4  10  20  33  53  91 132 156 196 270 324 360
#     4  10  20  33  55  91 136 154 198 267 328 357
#     4  11  22  37  66  93 123 163 219 264 309 374
#     4  10  25  43  62  90 131 171 207 257 328 387
#     4  11  21  38  66 100 123 159 218 268 311 375
#     4  10  22  37  60  89 125 164 215 256 317 377
#
# _framework density 26.368877000000001
#
# number of rings (size 3 to 8) (size 9 to 14) (size 15 to 20)
#    0.000    1.667    3.333    1.000    7.000    0.667 
#    0.000    0.833    0.000    1.000    0.000    0.000 
#    0.000    0.000    0.000    0.000    0.000    0.000 
#
# Total GULP energy -67097.536203 kJ/mol
# GULP energy per Si atom -5591.461350 kJ/mol
# Density = 2.630886 g / cm^3
# Si number density = 26.368877 Si / 1000 Ang^3
#
#
#
# Elastic Constant Matrix: (Units=GPa)
#
#
# Indices 1 2 3 4 5 6 
#
# 1 213.7109 48.2552 73.9130 -10.4667 24.7622 12.6947
# 2 48.2552 77.4737 51.7586 15.8706 13.0417 20.0072
# 3 73.9130 51.7586 105.5102 -2.5219 14.4802 -11.0680
# 4 -10.4667 15.8706 -2.5219 33.1578 -11.7313 -2.5734
# 5 24.7622 13.0417 14.4802 -11.7313 61.3922 -8.3693
# 6 12.6947 20.0072 -11.0680 -2.5734 -8.3693 41.9818
#
#
#
# Elastic Compliance Matrix: (Units=1/GPa)
#
#
# Indices 1 2 3 4 5 6 
#
# 1 0.006870 0.000490 -0.005178 0.000475 -0.002118 -0.004069
# 2 0.000490 0.049933 -0.027297 -0.034264 -0.015877 -0.036407
# 3 -0.005178 -0.027297 0.028429 0.018375 0.008075 0.024806
# 4 0.000475 -0.034264 0.018375 0.056411 0.017342 0.027945
# 5 -0.002118 -0.015877 0.008075 0.017342 0.024135 0.016210
# 6 -0.004069 -0.036407 0.024806 0.027945 0.016210 0.053885
#
#
# Mechanical properties :
#
#
# Convention : Reuss Voigt Hill
#
# Bulk Modulus (GPa) = 47.03284 82.72760 64.88022
# Shear Modulus (GPa) = 17.19877 42.15756 29.67816
#
# Velocity S-wave (km/s) = 2.55666 4.00279 3.35849
# Velocity P-wave (km/s) = 5.15661 7.26666 6.30060
#
# Compressibility (1/GPa) = 0.02126174
#
# Stress axis : x y z
#
# Youngs Moduli (GPa) = 145.56892 20.02703 35.17534
#
# Poissons Ratio (x) = -0.00982 0.18213
# Poissons Ratio (y) = -0.07140 0.96019
# Poissons Ratio (z) = 0.75373 0.54668
#
# Static dielectric constant tensor:
#      x y z
#    x 2.107930 -0.045550 0.045430 
#    y -0.045550 2.166590 -0.006870 
#    z 0.045430 -0.006870 2.043110 
# 
# From -- ./inp_files/199130.got.cif
#   From: 2010.05.17/outbox.cif.g08.bks.cpg/sg2_100_cif.got.tgz:199130.got - 2010.06.03 11:33:40.
