data_PCOD9093904
_publ_section_title
;
Structure prediction by ZEFSAII (Michael W. Deem and Ramdas Pophale) SiO2 
 PCOD9093904
Probable space group: P -1
;
_chemical_formula_sum "Si O2"
_cell_formula_units_Z 10
_cell_length_a 15.028583
_cell_length_b 12.760406
_cell_length_c 9.818042
_cell_angle_alpha 126.655745
_cell_angle_beta 124.926127
_cell_angle_gamma 19.325356
_cell_volume 499.563472
_symmetry_space_group_name_H-M "P -1"
_symmetry_group_IT_number 2
_symmetry_cell_setting 'triclinic'
loop_
_space_group_symop_operation_xyz
x,y,z
-x,-y,-z
loop_
_atom_site_type_symbol
_atom_site_label
_atom_site_fract_x
_atom_site_fract_y
_atom_site_fract_z
Si Si1 0.201412 0.842220 0.445863
Si Si2 0.397363 0.105162 0.337661
Si Si3 0.392657 0.832311 0.190114
Si Si4 0.131627 0.872975 0.871920
Si Si5 0.183856 0.145961 0.540280
O O1 0.500000 0.500000 0.500000
O O2 0.178239 0.020138 0.524738
O O3 0.000000 0.000000 0.500000
O O4 0.103504 0.877837 0.250410
O O5 0.083890 0.481994 0.364964
O O6 0.500000 0.000000 0.500000
O O7 0.452630 0.891927 0.195105
O O8 0.564915 0.033236 0.353074
O O9 0.646318 0.487180 0.223806
O O10 0.199782 0.086974 0.346579
O O11 0.280940 0.845966 0.000305
O O12 0.000000 0.000000 0.000000
#
# Coordination Sequence:
#
# PCOD9093904 Si02
#       5
#     2   2   2   2   2
#     4  12  25  42  63  89 125 168 207 250 308 370
#     4  10  20  33  60  91 126 156 196 257 312 357
#     4  10  21  36  61  97 126 156 204 260 318 352
#     4  11  23  38  65  92 130 157 206 263 306 364
#     4  11  21  38  59  91 124 159 205 253 301 370
#
# _framework density 20.017475999999998
#
# number of rings (size 3 to 8) (size 9 to 14) (size 15 to 20)
#    0.000    1.200    2.000    7.200    5.600    0.000 
#    0.000    0.000    0.000    7.200    0.000    0.000 
#    0.000    0.000    0.000    0.000    0.000    0.000 
#
# Total GULP energy -55752.567900 kJ/mol
# GULP energy per Si atom -5575.256790 kJ/mol
# Density = 1.997192 g / cm^3
# Si number density = 20.017476 Si / 1000 Ang^3
#
#
#
# Elastic Constant Matrix: (Units=GPa)
#
#
# Indices 1 2 3 4 5 6 
#
# 1 166.7230 43.4582 41.9939 8.0561 17.4725 0.4858
# 2 43.4582 104.8148 46.5423 -17.1886 18.4197 -14.1553
# 3 41.9939 46.5423 75.3733 -18.1233 10.4052 0.4800
# 4 8.0561 -17.1886 -18.1233 27.4541 7.7832 1.6359
# 5 17.4725 18.4197 10.4052 7.7832 34.9167 5.1882
# 6 0.4858 -14.1553 0.4800 1.6359 5.1882 38.3191
#
#
#
# Elastic Compliance Matrix: (Units=1/GPa)
#
#
# Indices 1 2 3 4 5 6 
#
# 1 0.008191 -0.002684 -0.004716 -0.007281 0.000462 -0.000788
# 2 -0.002684 0.017523 -0.005535 0.010405 -0.009677 0.007442
# 3 -0.004716 -0.005535 0.023580 0.014966 -0.004745 -0.002277
# 4 -0.007281 0.010405 0.014966 0.060496 -0.020373 0.003924
# 5 0.000462 -0.009677 -0.004745 -0.020373 0.040681 -0.008159
# 6 -0.000788 0.007442 -0.002277 0.003924 -0.008159 0.029822
#
#
# Mechanical properties :
#
#
# Convention : Reuss Voigt Hill
#
# Bulk Modulus (GPa) = 42.68867 67.87778 55.28323
# Shear Modulus (GPa) = 23.36768 34.46576 28.91672
#
# Velocity S-wave (km/s) = 3.42038 4.15394 3.80488
# Velocity P-wave (km/s) = 6.08035 7.54916 6.85421
#
# Compressibility (1/GPa) = 0.02342542
#
# Stress axis : x y z
#
# Youngs Moduli (GPa) = 122.08467 57.06785 42.40805
#
# Poissons Ratio (x) = 0.15316 0.19999
# Poissons Ratio (y) = 0.32765 0.23472
# Poissons Ratio (z) = 0.57574 0.31586
#
# Static dielectric constant tensor:
#      x y z
#    x 1.790540 -0.017520 0.052870 
#    y -0.017520 1.732350 0.038620 
#    z 0.052870 0.038620 1.714390 
# 
# From -- ./inp_files/18109.got.cif
#   From: 2010.05.17/outbox.cif.g08.bks.cpg/sg2_10_cif.got.tgz:18109.got - 2010.06.03 11:33:40.
