data_PCOD9093012
_publ_section_title
;
Structure prediction by ZEFSAII (Michael W. Deem and Ramdas Pophale) SiO2 
 PCOD9093012
Probable space group: P -1
;
_chemical_formula_sum "Si O2"
_cell_formula_units_Z 16
_cell_length_a 21.277432
_cell_length_b 19.954585
_cell_length_c 12.958751
_cell_angle_alpha 157.055147
_cell_angle_beta 31.591351
_cell_angle_gamma 158.832983
_cell_volume 773.571943
_symmetry_space_group_name_H-M "P -1"
_symmetry_group_IT_number 2
_symmetry_cell_setting 'triclinic'
loop_
_space_group_symop_operation_xyz
x,y,z
-x,-y,-z
loop_
_atom_site_type_symbol
_atom_site_label
_atom_site_fract_x
_atom_site_fract_y
_atom_site_fract_z
Si Si1 0.210078 0.708177 0.501206
Si Si2 0.037288 0.268179 0.821216
Si Si3 0.119713 0.284144 0.114472
Si Si4 0.942250 0.969511 0.710743
Si Si5 0.615737 0.741593 0.943633
Si Si6 0.257655 0.116696 0.814965
Si Si7 0.300955 0.790034 0.250506
Si Si8 0.590467 0.448391 0.233066
O O1 0.302397 0.980974 0.788841
O O2 0.270507 0.735515 0.338757
O O3 0.000000 0.500000 0.500000
O O4 0.239295 0.576792 0.348570
O O5 0.205053 0.333230 0.720187
O O6 0.911115 0.086792 0.833687
O O7 0.999654 0.145407 0.589914
O O8 0.119342 0.541811 0.098016
O O9 0.064132 0.164205 0.907735
O O10 0.217211 0.234957 0.967789
O O11 0.934124 0.126286 0.209123
O O12 0.755237 0.752557 0.717988
O O13 0.614486 0.710116 0.022730
O O14 0.453921 0.567966 0.847454
O O15 0.327211 0.018297 0.521674
O O16 0.441234 0.786054 0.023156
O O17 0.500000 0.500000 0.500000
#
# Coordination Sequence:
#
# PCOD9093012 Si02
#       8
#     2   2   2   2   2   2   2   2
#     4  11  16  28  50  73 100 124 158 206 245 286
#     4   9  18  28  50  73  98 124 164 209 244 280
#     4  10  17  30  46  74 106 128 157 197 253 293
#     4  10  16  29  50  75  97 126 163 205 246 289
#     4  10  18  30  51  75 101 126 163 201 250 291
#     4   9  19  28  47  72 104 133 154 198 249 303
#     4   9  17  31  47  70 102 127 160 205 241 287
#     4  10  19  32  49  75 100 128 166 208 247 281
#
# _framework density 20.683273
#
# number of rings (size 3 to 8) (size 9 to 14) (size 15 to 20)
#    0.750    1.500    6.250    0.000    0.000    2.000 
#    0.000    0.625    0.000    6.750    0.000    4.375 
#    0.000    0.000    0.000    0.000    0.000    0.000 
#
# Total GULP energy -89076.486807 kJ/mol
# GULP energy per Si atom -5567.280425 kJ/mol
# Density = 2.063620 g / cm^3
# Si number density = 20.683273 Si / 1000 Ang^3
#
#
#
# Elastic Constant Matrix: (Units=GPa)
#
#
# Indices 1 2 3 4 5 6 
#
# 1 81.7565 -2.9073 38.6527 5.9893 -13.7622 2.0626
# 2 -2.9073 29.2061 4.0296 -6.5382 0.3161 4.8793
# 3 38.6527 4.0296 100.1730 -17.6624 -1.3147 -4.2461
# 4 5.9893 -6.5382 -17.6624 20.2439 1.2989 -2.5311
# 5 -13.7622 0.3161 -1.3147 1.2989 36.0159 1.7334
# 6 2.0626 4.8793 -4.2461 -2.5311 1.7334 19.1815
#
#
#
# Elastic Compliance Matrix: (Units=1/GPa)
#
#
# Indices 1 2 3 4 5 6 
#
# 1 0.020360 0.001000 -0.011103 -0.016910 0.008355 -0.007888
# 2 0.001000 0.038194 -0.000412 0.010611 0.000059 -0.008519
# 3 -0.011103 -0.000412 0.018169 0.020361 -0.004716 0.008433
# 4 -0.016910 0.010611 0.020361 0.078038 -0.009337 0.014767
# 5 0.008355 0.000059 -0.004716 -0.009337 0.031412 -0.006028
# 6 -0.007888 -0.008519 0.008433 0.014767 -0.006028 0.059509
#
#
# Mechanical properties :
#
#
# Convention : Reuss Voigt Hill
#
# Bulk Modulus (GPa) = 17.95488 32.29841 25.12664
# Shear Modulus (GPa) = 17.52690 26.51230 22.01960
#
# Velocity S-wave (km/s) = 2.91416 3.58414 3.26637
# Velocity P-wave (km/s) = 4.47469 5.72518 5.13812
#
# Compressibility (1/GPa) = 0.05569517
#
# Stress axis : x y z
#
# Youngs Moduli (GPa) = 49.11496 26.18214 55.03893
#
# Poissons Ratio (x) = -0.02619 0.61108
# Poissons Ratio (y) = -0.04914 0.02267
# Poissons Ratio (z) = 0.54531 0.01078
#
# Static dielectric constant tensor:
#      x y z
#    x 1.764740 -0.017330 -0.001030 
#    y -0.017330 1.895230 -0.032030 
#    z -0.001030 -0.032030 1.815550 
# 
# From -- ./inp_files/268066.got.cif
#   From: 2010.05.17/outbox.cif.g08.bks.cpg/sg2_135_cif.got.tgz:268066.got - 2010.06.03 11:33:40.
