data_PCOD9093967
_publ_section_title
;
Structure prediction by ZEFSAII (Michael W. Deem and Ramdas Pophale) SiO2 
 PCOD9093967
Probable space group: P -1
;
_chemical_formula_sum "Si O2"
_cell_formula_units_Z 16
_cell_length_a 14.650991
_cell_length_b 4.990741
_cell_length_c 14.476508
_cell_angle_alpha 57.053432
_cell_angle_beta 101.976477
_cell_angle_gamma 85.244090
_cell_volume 843.874720
_symmetry_space_group_name_H-M "P -1"
_symmetry_group_IT_number 2
_symmetry_cell_setting 'triclinic'
loop_
_space_group_symop_operation_xyz
x,y,z
-x,-y,-z
loop_
_atom_site_type_symbol
_atom_site_label
_atom_site_fract_x
_atom_site_fract_y
_atom_site_fract_z
Si Si1 0.498521 0.713169 0.128853
Si Si2 0.689186 0.351484 0.151996
Si Si3 0.186417 0.257959 0.800425
Si Si4 0.619231 0.772158 0.875665
Si Si5 0.891541 0.601796 0.741002
Si Si6 0.070553 0.232542 0.949365
Si Si7 0.192372 0.024357 0.180035
Si Si8 0.997885 0.379168 0.418768
O O1 0.725614 0.991025 0.184509
O O2 0.416370 0.515148 0.130704
O O3 0.471233 0.926498 0.175243
O O4 0.500000 0.000000 0.000000
O O5 0.777634 0.439692 0.206503
O O6 0.597970 0.445704 0.183019
O O7 0.661375 0.598233 0.013169
O O8 0.149006 0.091411 0.913346
O O9 0.097914 0.394343 0.689306
O O10 0.701855 0.922890 0.821655
O O11 0.834379 0.905423 0.731886
O O12 0.916401 0.613991 0.636500
O O13 0.996296 0.530301 0.827709
O O14 0.833068 0.315984 0.791824
O O15 0.123452 0.281158 0.046196
O O16 0.000000 0.000000 0.000000
O O17 0.000000 0.500000 0.500000
O O18 0.000000 0.000000 0.500000
#
# Coordination Sequence:
#
# PCOD9093967 Si02
#       8
#     2   2   2   2   2   2   2   2
#     4  10  20  34  47  73 107 157 189 218 258 305
#     4  11  20  33  51  74 112 140 192 222 250 313
#     4  11  22  34  54  81 101 144 187 221 267 316
#     4  11  20  31  52  74 114 155 184 212 264 309
#     4  10  22  35  53  77 105 142 183 223 266 315
#     4   9  20  32  48  71 110 144 176 213 254 303
#     4  11  20  33  51  79 112 143 183 216 249 324
#     4  11  23  42  60  77 108 140 179 235 289 323
#
# _framework density 18.960162
#
# number of rings (size 3 to 8) (size 9 to 14) (size 15 to 20)
#    0.000    1.500    1.250    6.375    3.500    5.000 
#    0.000    0.000    0.000    0.000    0.000    0.000 
#    0.000   70.000    0.000    0.000    0.000    0.000 
#
# Total GULP energy -89179.410371 kJ/mol
# GULP energy per Si atom -5573.713148 kJ/mol
# Density = 1.891701 g / cm^3
# Si number density = 18.960162 Si / 1000 Ang^3
#
#
#
# Elastic Constant Matrix: (Units=GPa)
#
#
# Indices 1 2 3 4 5 6 
#
# 1 67.6322 13.4419 13.5396 -7.9510 -6.6064 0.8696
# 2 13.4419 93.2765 10.4679 7.5545 -4.7093 -1.6234
# 3 13.5396 10.4679 52.8918 14.5922 -11.8424 -2.3738
# 4 -7.9510 7.5545 14.5922 22.9929 0.1709 -0.7023
# 5 -6.6064 -4.7093 -11.8424 0.1709 14.6508 1.9487
# 6 0.8696 -1.6234 -2.3738 -0.7023 1.9487 38.2840
#
#
#
# Elastic Compliance Matrix: (Units=1/GPa)
#
#
# Indices 1 2 3 4 5 6 
#
# 1 0.018269 -0.002717 -0.007006 0.011619 0.001677 -0.000837
# 2 -0.002717 0.011623 0.000453 -0.005057 0.002890 0.000343
# 3 -0.007006 0.000453 0.032235 -0.023185 0.023237 0.000569
# 4 0.011619 -0.005057 -0.023185 0.064005 -0.015882 0.000067
# 5 0.001677 0.002890 0.023237 -0.015882 0.089350 -0.003314
# 6 -0.000837 0.000343 0.000569 0.000067 -0.003314 0.026359
#
#
# Mechanical properties :
#
#
# Convention : Reuss Voigt Hill
#
# Bulk Modulus (GPa) = 22.94346 32.07770 27.51058
# Shear Modulus (GPa) = 18.18770 26.94227 22.56499
#
# Velocity S-wave (km/s) = 3.10055 3.77370 3.45356
# Velocity P-wave (km/s) = 4.99450 5.99524 5.51761
#
# Compressibility (1/GPa) = 0.04358540
#
# Stress axis : x y z
#
# Youngs Moduli (GPa) = 54.73734 86.03604 31.02220
#
# Poissons Ratio (x) = 0.23379 0.21735
# Poissons Ratio (y) = 0.14874 -0.01405
# Poissons Ratio (z) = 0.38351 -0.03897
#
# Static dielectric constant tensor:
#      x y z
#    x 1.721320 -0.005200 0.000570 
#    y -0.005200 1.626940 -0.037540 
#    z 0.000570 -0.037540 1.635570 
# 
# From -- ./inp_files/510747.got.cif
#   From: 2010.05.17/outbox.cif.g08.bks.cpg/sg2_256_cif.got.tgz:510747.got - 2010.06.03 11:33:40.
