data_PCOD9093526
_publ_section_title
;
Structure prediction by ZEFSAII (Michael W. Deem and Ramdas Pophale) SiO2 
 PCOD9093526
Probable space group: P -1
;
_chemical_formula_sum "Si O2"
_cell_formula_units_Z 14
_cell_length_a 8.070352
_cell_length_b 8.000083
_cell_length_c 17.103380
_cell_angle_alpha 144.186999
_cell_angle_beta 63.824288
_cell_angle_gamma 103.711312
_cell_volume 564.356636
_symmetry_space_group_name_H-M "P -1"
_symmetry_group_IT_number 2
_symmetry_cell_setting 'triclinic'
loop_
_space_group_symop_operation_xyz
x,y,z
-x,-y,-z
loop_
_atom_site_type_symbol
_atom_site_label
_atom_site_fract_x
_atom_site_fract_y
_atom_site_fract_z
Si Si1 0.225170 0.924482 0.342715
Si Si2 0.886926 0.147269 0.386807
Si Si3 0.785445 0.510818 0.157452
Si Si4 0.831351 0.986566 0.851267
Si Si5 0.147177 0.285910 0.087511
Si Si6 0.506884 0.843355 0.130386
Si Si7 0.601599 0.247254 0.602147
O O1 0.191732 0.605620 0.207615
O O2 0.424527 0.954716 0.274491
O O3 0.244496 0.917695 0.429010
O O4 0.056146 0.130566 0.408495
O O5 0.830756 0.831593 0.268315
O O6 0.983336 0.185664 0.299001
O O7 0.705720 0.347029 0.543634
O O8 0.567038 0.529002 0.233482
O O9 0.833259 0.326178 0.998028
O O10 0.930340 0.335129 0.125146
O O11 0.647948 0.004842 0.843292
O O12 0.812790 0.852152 0.888253
O O13 0.288173 0.129874 0.930673
O O14 0.500000 0.500000 0.000000
O O15 0.500000 0.000000 0.500000
#
# Coordination Sequence:
#
# PCOD9093526 Si02
#       7
#     2   2   2   2   2   2   2
#     4   9  18  35  56  77 105 137 177 222 260 310
#     4   9  20  35  56  80 104 139 181 218 261 309
#     4  10  20  34  53  78 110 142 175 218 259 306
#     4  11  20  34  55  82 109 139 175 216 262 314
#     4  10  20  33  52  81 112 141 171 213 266 315
#     4   9  18  32  52  78 103 134 174 216 260 305
#     4  10  20  35  56  80 102 136 180 223 263 307
#
# _framework density 24.807008
#
# number of rings (size 3 to 8) (size 9 to 14) (size 15 to 20)
#    0.000    2.286    0.000    4.286    0.000    2.286 
#    0.000    1.429    0.000    3.429    0.000    0.000 
#    0.000    0.000    0.000    0.000    0.000    0.000 
#
# Total GULP energy -78243.284513 kJ/mol
# GULP energy per Si atom -5588.806037 kJ/mol
# Density = 2.475055 g / cm^3
# Si number density = 24.807008 Si / 1000 Ang^3
#
#
#
# Elastic Constant Matrix: (Units=GPa)
#
#
# Indices 1 2 3 4 5 6 
#
# 1 68.1549 13.3712 23.3068 -7.6347 -2.7042 4.7363
# 2 13.3712 79.9944 40.1219 -21.6382 -21.4955 10.0541
# 3 23.3068 40.1219 95.1563 -26.4315 -3.1841 14.9844
# 4 -7.6347 -21.6382 -26.4315 47.2010 13.4824 -4.8130
# 5 -2.7042 -21.4955 -3.1841 13.4824 32.0835 -12.6509
# 6 4.7363 10.0541 14.9844 -4.8130 -12.6509 25.9711
#
#
#
# Elastic Compliance Matrix: (Units=1/GPa)
#
#
# Indices 1 2 3 4 5 6 
#
# 1 0.016076 -0.000772 -0.003477 0.000186 0.000224 -0.000483
# 2 -0.000772 0.020246 -0.008233 0.001002 0.013829 0.003975
# 3 -0.003477 -0.008233 0.018469 0.008250 -0.011802 -0.011055
# 4 0.000186 0.001002 0.008250 0.029468 -0.013327 -0.006212
# 5 0.000224 0.013829 -0.011802 -0.013327 0.055037 0.025754
# 6 -0.000483 0.003975 -0.011055 -0.006212 0.025754 0.054826
#
#
# Mechanical properties :
#
#
# Convention : Reuss Voigt Hill
#
# Bulk Modulus (GPa) = 33.52418 44.10059 38.81238
# Shear Modulus (GPa) = 21.83128 32.15150 26.99139
#
# Velocity S-wave (km/s) = 2.96977 3.60400 3.30215
# Velocity P-wave (km/s) = 5.03018 5.92743 5.49714
#
# Compressibility (1/GPa) = 0.02982922
#
# Stress axis : x y z
#
# Youngs Moduli (GPa) = 62.20377 49.39129 54.14432
#
# Poissons Ratio (x) = 0.03814 0.18824
# Poissons Ratio (y) = 0.04803 0.44574
# Poissons Ratio (z) = 0.21626 0.40661
#
# Static dielectric constant tensor:
#      x y z
#    x 1.957680 0.025300 -0.062670 
#    y 0.025300 1.995740 0.027970 
#    z -0.062670 0.027970 2.012610 
# 
# From -- ./inp_files/555684.got.cif
#   From: 2010.05.17/outbox.cif.g08.bks.cpg/sg2_278_cif.got.tgz:555684.got - 2010.06.03 11:33:40.
