data_PCOD9093430
_publ_section_title
;
Structure prediction by ZEFSAII (Michael W. Deem and Ramdas Pophale) SiO2 
 PCOD9093430
Probable space group: P -1
;
_chemical_formula_sum "Si O2"
_cell_formula_units_Z 15
_cell_length_a 12.054645
_cell_length_b 9.407987
_cell_length_c 7.473228
_cell_angle_alpha 114.527772
_cell_angle_beta 61.984862
_cell_angle_gamma 109.584489
_cell_volume 670.254714
_symmetry_space_group_name_H-M "P -1"
_symmetry_group_IT_number 2
_symmetry_cell_setting 'triclinic'
loop_
_space_group_symop_operation_xyz
x,y,z
-x,-y,-z
loop_
_atom_site_type_symbol
_atom_site_label
_atom_site_fract_x
_atom_site_fract_y
_atom_site_fract_z
Si Si1 0.831783 0.462440 0.921103
Si Si2 0.796346 0.793557 0.015280
Si Si3 0.791683 0.219191 0.336247
Si Si4 0.117190 0.433668 0.654678
Si Si5 0.873801 0.912215 0.646824
Si Si6 0.000000 0.000000 0.000000
Si Si7 0.311420 0.866840 0.233163
Si Si8 0.574003 0.978959 0.250369
O O1 0.797858 0.610234 0.913113
O O2 0.724801 0.307177 0.914956
O O3 0.964858 0.415686 0.731261
O O4 0.854620 0.527506 0.138741
O O5 0.888819 0.899684 0.847394
O O6 0.659204 0.840694 0.128990
O O7 0.879780 0.887807 0.156667
O O8 0.815591 0.408779 0.414551
O O9 0.918945 0.157401 0.149752
O O10 0.746776 0.159853 0.536425
O O11 0.679212 0.138842 0.244572
O O12 0.158780 0.270852 0.479983
O O13 0.761245 0.008455 0.744903
O O14 0.000000 0.000000 0.500000
O O15 0.461296 0.931795 0.170988
O O16 0.500000 0.000000 0.500000
#
# Coordination Sequence:
#
# PCOD9093430 Si02
#       8
#     2   2   2   2   2   1   2   2
#     4  11  25  40  66  97 136 172 215 278 332 393
#     4  11  24  40  67  95 134 174 218 267 337 383
#     4  10  21  41  68  92 132 169 217 274 332 388
#     4  11  25  41  62 102 136 166 220 274 340 387
#     4  12  26  40  67 103 133 171 221 272 331 400
#     4  10  20  32  68  94 120 160 214 266 332 374
#     4  11  24  43  67  94 132 175 221 268 326 393
#     4   9  23  43  70  96 129 176 227 268 325 395
#
# _framework density 22.379549999999998
#
# number of rings (size 3 to 8) (size 9 to 14) (size 15 to 20)
#    0.000    1.333    2.667    1.600   11.200    2.133 
#    0.000    0.667    0.000    0.000    0.000    0.000 
#    0.000    0.000    0.000    0.000    0.000    0.000 
#
# Total GULP energy -83752.263843 kJ/mol
# GULP energy per Si atom -5583.484256 kJ/mol
# Density = 2.232861 g / cm^3
# Si number density = 22.379550 Si / 1000 Ang^3
#
#
#
# Elastic Constant Matrix: (Units=GPa)
#
#
# Indices 1 2 3 4 5 6 
#
# 1 178.6360 80.5663 43.8568 13.9289 -19.0305 14.2692
# 2 80.5663 157.6091 58.5474 34.1032 3.0907 -10.8440
# 3 43.8568 58.5474 81.4074 13.6816 -3.6522 -8.2202
# 4 13.9289 34.1032 13.6816 50.2767 0.8109 4.5820
# 5 -19.0305 3.0907 -3.6522 0.8109 30.9937 6.7090
# 6 14.2692 -10.8440 -8.2202 4.5820 6.7090 30.3056
#
#
#
# Elastic Compliance Matrix: (Units=1/GPa)
#
#
# Indices 1 2 3 4 5 6 
#
# 1 0.010311 -0.005746 -0.002444 0.002465 0.008688 -0.009870
# 2 -0.005746 0.013251 -0.004727 -0.006795 -0.007127 0.008770
# 3 -0.002444 -0.004727 0.017677 -0.001332 0.000131 0.004426
# 4 0.002465 -0.006795 -0.001332 0.024895 0.003207 -0.008427
# 5 0.008688 -0.007127 0.000131 0.003207 0.041778 -0.016339
# 6 -0.009870 0.008770 0.004426 -0.008427 -0.016339 0.046874
#
#
# Mechanical properties :
#
#
# Convention : Reuss Voigt Hill
#
# Bulk Modulus (GPa) = 64.90966 87.06596 75.98781
# Shear Modulus (GPa) = 26.91715 37.96066 32.43891
#
# Velocity S-wave (km/s) = 3.47184 4.12299 3.81135
# Velocity P-wave (km/s) = 6.71852 7.85201 7.30728
#
# Compressibility (1/GPa) = 0.01540603
#
# Stress axis : x y z
#
# Youngs Moduli (GPa) = 96.98262 75.46405 56.57157
#
# Poissons Ratio (x) = 0.43361 0.13824
# Poissons Ratio (y) = 0.55726 0.26741
# Poissons Ratio (z) = 0.23699 0.35672
#
# Static dielectric constant tensor:
#      x y z
#    x 1.922650 -0.006410 0.104850 
#    y -0.006410 1.851900 -0.022640 
#    z 0.104850 -0.022640 1.911360 
# 
# From -- ./inp_files/186976.got.cif
#   From: 2010.05.17/outbox.cif.g08.bks.cpg/sg2_94_cif.got.tgz:186976.got - 2010.06.03 11:33:40.
