data_PCOD9093321
_publ_section_title
;
Structure prediction by ZEFSAII (Michael W. Deem and Ramdas Pophale) SiO2 
 PCOD9093321
Probable space group: P -1
;
_chemical_formula_sum "Si O2"
_cell_formula_units_Z 16
_cell_length_a 11.776658
_cell_length_b 15.443602
_cell_length_c 11.792377
_cell_angle_alpha 26.587114
_cell_angle_beta 124.072179
_cell_angle_gamma 108.061472
_cell_volume 681.515981
_symmetry_space_group_name_H-M "P -1"
_symmetry_group_IT_number 2
_symmetry_cell_setting 'triclinic'
loop_
_space_group_symop_operation_xyz
x,y,z
-x,-y,-z
loop_
_atom_site_type_symbol
_atom_site_label
_atom_site_fract_x
_atom_site_fract_y
_atom_site_fract_z
Si Si1 0.065127 0.195379 0.512970
Si Si2 0.480312 0.236506 0.304028
Si Si3 0.032012 0.780804 0.913643
Si Si4 0.094355 0.347757 0.590899
Si Si5 0.516605 0.423490 0.336325
Si Si6 0.784660 0.548740 0.805559
Si Si7 0.337259 0.940035 0.604510
Si Si8 0.229203 0.501141 0.653555
O O1 0.118890 0.205659 0.658637
O O2 0.167066 0.265712 0.408234
O O3 0.080101 0.960580 0.767259
O O4 0.880097 0.400877 0.143979
O O5 0.502824 0.371159 0.258609
O O6 0.635671 0.103559 0.465901
O O7 0.424169 0.077758 0.515805
O O8 0.338621 0.384404 0.961810
O O9 0.045733 0.597500 0.226587
O O10 0.133645 0.634747 0.034488
O O11 0.843627 0.927856 0.613204
O O12 0.234009 0.309193 0.799505
O O13 0.951204 0.354952 0.572266
O O14 0.405172 0.347767 0.423498
O O15 0.698541 0.360166 0.528066
O O16 0.423629 0.691035 0.994936
#
# Coordination Sequence:
#
# PCOD9093321 Si02
#       8
#     2   2   2   2   2   2   2   2
#     4  10  21  36  58  82 113 149 188 230 280 327
#     4  10  21  36  56  86 120 144 181 234 286 335
#     4  11  21  36  59  85 118 143 190 233 278 333
#     4  10  22  39  56  83 117 150 189 227 274 343
#     4  11  22  36  60  85 116 148 185 233 286 335
#     4  10  22  35  57  90 110 147 188 238 281 324
#     4  10  20  32  55  87 116 145 175 237 287 325
#     4  10  20  38  59  80 116 153 185 228 280 337
#
# _framework density 23.477073000000001
#
# number of rings (size 3 to 8) (size 9 to 14) (size 15 to 20)
#    0.000    1.750    2.500    2.625    5.250    0.000 
#    0.000   10.000    0.000    1.500    0.000    0.000 
#    0.000    0.000    0.000    0.000    0.000    0.000 
#
# Total GULP energy -89369.895839 kJ/mol
# GULP energy per Si atom -5585.618490 kJ/mol
# Density = 2.342364 g / cm^3
# Si number density = 23.477073 Si / 1000 Ang^3
#
#
#
# Elastic Constant Matrix: (Units=GPa)
#
#
# Indices 1 2 3 4 5 6 
#
# 1 141.4301 64.6731 9.9347 -1.7577 5.7519 29.0698
# 2 64.6731 164.5995 26.0282 -11.3804 4.9898 16.8899
# 3 9.9347 26.0282 44.8252 -12.5272 -6.3980 10.5978
# 4 -1.7577 -11.3804 -12.5272 33.2340 9.7465 -10.4624
# 5 5.7519 4.9898 -6.3980 9.7465 17.0317 -1.1297
# 6 29.0698 16.8899 10.5978 -10.4624 -1.1297 41.4098
#
#
#
# Elastic Compliance Matrix: (Units=1/GPa)
#
#
# Indices 1 2 3 4 5 6 
#
# 1 0.009920 -0.003434 0.000506 -0.002008 -0.001419 -0.006239
# 2 -0.003434 0.008317 -0.004101 0.002551 -0.004238 0.000597
# 3 0.000506 -0.004101 0.028315 0.005529 0.008217 -0.004308
# 4 -0.002008 0.002551 0.005529 0.042070 -0.021470 0.008998
# 5 -0.001419 -0.004238 0.008217 -0.021470 0.075626 -0.002740
# 6 -0.006239 0.000597 -0.004308 0.008998 -0.002740 0.031587
#
#
# Mechanical properties :
#
#
# Convention : Reuss Voigt Hill
#
# Bulk Modulus (GPa) = 30.77391 61.34743 46.06067
# Shear Modulus (GPa) = 22.65284 35.01635 28.83460
#
# Velocity S-wave (km/s) = 3.10964 3.86620 3.50837
# Velocity P-wave (km/s) = 5.10193 6.79099 6.00613
#
# Compressibility (1/GPa) = 0.03249506
#
# Stress axis : x y z
#
# Youngs Moduli (GPa) = 100.80309 120.24214 35.31749
#
# Poissons Ratio (x) = 0.41285 -0.01789
# Poissons Ratio (y) = 0.34611 0.14484
# Poissons Ratio (z) = -0.05105 0.49313
#
# Static dielectric constant tensor:
#      x y z
#    x 1.934360 0.014170 -0.009240 
#    y 0.014170 1.914660 0.037580 
#    z -0.009240 0.037580 1.963370 
# 
# From -- ./inp_files/432356.got.cif
#   From: 2010.05.17/outbox.cif.g08.bks.cpg/sg2_217_cif.got.tgz:432356.got - 2010.06.03 11:33:40.
