data_PCOD9093636
_publ_section_title
;
Structure prediction by ZEFSAII (Michael W. Deem and Ramdas Pophale) SiO2 
 PCOD9093636
Probable space group: P -1
;
_chemical_formula_sum "Si O2"
_cell_formula_units_Z 14
_cell_length_a 18.042002
_cell_length_b 13.632031
_cell_length_c 9.468953
_cell_angle_alpha 99.217812
_cell_angle_beta 70.755128
_cell_angle_gamma 160.850650
_cell_volume 629.484083
_symmetry_space_group_name_H-M "P -1"
_symmetry_group_IT_number 2
_symmetry_cell_setting 'triclinic'
loop_
_space_group_symop_operation_xyz
x,y,z
-x,-y,-z
loop_
_atom_site_type_symbol
_atom_site_label
_atom_site_fract_x
_atom_site_fract_y
_atom_site_fract_z
Si Si1 0.307537 0.850106 0.517179
Si Si2 0.983524 0.775681 0.969297
Si Si3 0.043128 0.338914 0.491256
Si Si4 0.219897 0.437520 0.662505
Si Si5 0.085622 0.523386 0.114578
Si Si6 0.577131 0.225326 0.879756
Si Si7 0.586690 0.707170 0.422374
O O1 0.078049 0.500023 0.515905
O O2 0.166341 0.741952 0.703059
O O3 0.500000 0.000000 0.500000
O O4 0.518324 0.175153 0.376468
O O5 0.936643 0.775458 0.143731
O O6 0.721983 0.471999 0.959552
O O7 0.979688 0.652387 0.978008
O O8 0.250241 0.113606 0.784591
O O9 0.037077 0.279627 0.633075
O O10 0.309476 0.617310 0.309360
O O11 0.801463 0.017099 0.466360
O O12 0.337834 0.482549 0.523065
O O13 0.261920 0.822403 0.999786
O O14 0.281849 0.709947 0.152810
O O15 0.500000 0.500000 0.500000
#
# Coordination Sequence:
#
# PCOD9093636 Si02
#       7
#     2   2   2   2   2   2   2
#     4  10  20  33  54  95 130 160 192 244 308 377
#     4   9  19  38  60  88 120 158 202 254 309 360
#     4  10  22  39  59  96 124 160 206 244 311 373
#     4  11  22  41  64  91 130 156 200 261 306 371
#     4   9  16  32  58  86 127 167 198 243 299 378
#     4   8  17  32  55  86 120 163 204 237 304 365
#     4  11  25  45  66  86 118 168 212 258 313 357
#
# _framework density 22.240435999999999
#
# number of rings (size 3 to 8) (size 9 to 14) (size 15 to 20)
#    0.857    1.429    1.429    0.857    2.000    2.286 
#    5.143    5.000    0.000    0.000    0.000    0.000 
#    0.000    0.000    0.000    0.000    0.000    0.000 
#
# Total GULP energy -78092.918450 kJ/mol
# GULP energy per Si atom -5578.065604 kJ/mol
# Density = 2.218982 g / cm^3
# Si number density = 22.240436 Si / 1000 Ang^3
#
#
#
# Elastic Constant Matrix: (Units=GPa)
#
#
# Indices 1 2 3 4 5 6 
#
# 1 66.8230 8.7286 16.1102 -11.1229 -0.6808 -7.0368
# 2 8.7286 15.9907 9.3214 -5.4864 -1.4178 0.7357
# 3 16.1102 9.3214 125.9446 -17.1434 7.0497 4.1652
# 4 -11.1229 -5.4864 -17.1434 21.3371 4.4736 4.0940
# 5 -0.6808 -1.4178 7.0497 4.4736 24.7800 -4.9962
# 6 -7.0368 0.7357 4.1652 4.0940 -4.9962 25.6736
#
#
#
# Elastic Compliance Matrix: (Units=1/GPa)
#
#
# Indices 1 2 3 4 5 6 
#
# 1 0.017558 -0.007220 -0.001124 0.005494 0.000281 0.004380
# 2 -0.007220 0.073038 -0.002455 0.013923 0.001017 -0.005696
# 3 -0.001124 -0.002455 0.009893 0.008689 -0.005418 -0.004283
# 4 0.005494 0.013923 0.008689 0.066422 -0.016354 -0.014077
# 5 0.000281 0.001017 -0.005418 -0.016354 0.047491 0.012777
# 6 0.004380 -0.005696 -0.004283 -0.014077 0.012777 0.045740
#
#
# Mechanical properties :
#
#
# Convention : Reuss Voigt Hill
#
# Bulk Modulus (GPa) = 12.67608 30.78652 21.73130
# Shear Modulus (GPa) = 16.23177 25.99802 21.11490
#
# Velocity S-wave (km/s) = 2.70447 3.42270 3.08456
# Velocity P-wave (km/s) = 3.93245 5.43070 4.74113
#
# Compressibility (1/GPa) = 0.07888871
#
# Stress axis : x y z
#
# Youngs Moduli (GPa) = 56.95536 13.69153 101.07959
#
# Poissons Ratio (x) = 0.09886 0.11364
# Poissons Ratio (y) = 0.41123 0.24819
# Poissons Ratio (z) = 0.06403 0.03362
#
# Static dielectric constant tensor:
#      x y z
#    x 1.850420 0.028230 0.032590 
#    y 0.028230 1.896860 0.000020 
#    z 0.032590 0.000020 1.858230 
# 
# From -- ./inp_files/347609.got.cif
#   From: 2010.05.17/outbox.cif.g08.bks.cpg/sg2_174_cif.got.tgz:347609.got - 2010.06.03 11:33:40.
