data_PCOD9093344
_publ_section_title
;
Structure prediction by ZEFSAII (Michael W. Deem and Ramdas Pophale) SiO2 
 PCOD9093344
Probable space group: P -1
;
_chemical_formula_sum "Si O2"
_cell_formula_units_Z 16
_cell_length_a 4.972903
_cell_length_b 5.602731
_cell_length_c 21.379472
_cell_angle_alpha 91.256463
_cell_angle_beta 99.924339
_cell_angle_gamma 87.769429
_cell_volume 586.243188
_symmetry_space_group_name_H-M "P -1"
_symmetry_group_IT_number 2
_symmetry_cell_setting 'triclinic'
loop_
_space_group_symop_operation_xyz
x,y,z
-x,-y,-z
loop_
_atom_site_type_symbol
_atom_site_label
_atom_site_fract_x
_atom_site_fract_y
_atom_site_fract_z
Si Si1 0.449553 0.732429 0.255369
Si Si2 0.633235 0.481364 0.625763
Si Si3 0.894620 0.519518 0.189870
Si Si4 0.710865 0.778901 0.512223
Si Si5 0.986066 0.862765 0.716806
Si Si6 0.713053 0.000088 0.952425
Si Si7 0.130689 0.505286 0.074168
Si Si8 0.078648 0.096417 0.603096
O O1 0.549561 0.600920 0.323535
O O2 0.700150 0.716809 0.217107
O O3 0.255887 0.964694 0.264252
O O4 0.213617 0.568757 0.215826
O O5 0.585711 0.605638 0.557475
O O6 0.809363 0.242851 0.614609
O O7 0.831330 0.666307 0.668826
O O8 0.889413 0.513685 0.115430
O O9 0.849299 0.271935 0.222488
O O10 0.781505 0.734559 0.441687
O O11 0.500000 0.000000 0.500000
O O12 0.986847 0.872055 0.556133
O O13 0.177871 0.985760 0.672616
O O14 0.708621 0.247678 0.915144
O O15 0.707635 0.750150 0.913248
O O16 0.500000 0.000000 0.000000
O O17 0.000000 0.000000 0.000000
O O18 0.000000 0.500000 0.000000
#
# Coordination Sequence:
#
# PCOD9093344 Si02
#       8
#     2   2   2   2   2   2   2   2
#     4  10  24  44  66  97 131 181 228 285 344 414
#     4   9  19  40  57  86 123 166 217 275 341 402
#     4  11  25  43  70  98 136 178 231 282 346 417
#     4  10  20  32  56  88 117 164 207 274 335 405
#     4   9  21  43  64  91 126 176 224 283 339 413
#     4  10  22  42  69 100 143 184 228 279 348 421
#     4  10  24  46  71 111 145 191 236 297 361 430
#     4   9  19  38  56  82 126 159 217 270 336 406
#
# _framework density 27.292432000000002
#
# number of rings (size 3 to 8) (size 9 to 14) (size 15 to 20)
#    0.000    2.250    0.000    0.750    3.500    6.500 
#   18.000    0.000    0.000    0.000    0.000    0.000 
#    0.000    0.000    0.000    0.000    0.000    0.000 
#
# Total GULP energy -89469.703102 kJ/mol
# GULP energy per Si atom -5591.856444 kJ/mol
# Density = 2.723031 g / cm^3
# Si number density = 27.292432 Si / 1000 Ang^3
#
#
#
# Elastic Constant Matrix: (Units=GPa)
#
#
# Indices 1 2 3 4 5 6 
#
# 1 97.8375 25.7783 42.6463 -3.3919 -36.0439 -3.5855
# 2 25.7783 141.4309 38.8732 -11.0633 -15.3325 17.6684
# 3 42.6463 38.8732 220.5059 -13.5507 -32.3315 1.4177
# 4 -3.3919 -11.0633 -13.5507 41.4073 -3.0055 -17.0684
# 5 -36.0439 -15.3325 -32.3315 -3.0055 47.3693 -10.7137
# 6 -3.5855 17.6684 1.4177 -17.0684 -10.7137 42.9111
#
#
#
# Elastic Compliance Matrix: (Units=1/GPa)
#
#
# Indices 1 2 3 4 5 6 
#
# 1 0.016344 -0.001916 -0.000631 0.004615 0.013339 0.007341
# 2 -0.001916 0.008130 -0.001076 0.000207 -0.000333 -0.003473
# 3 -0.000631 -0.001076 0.005520 0.002611 0.003589 0.002143
# 4 0.004615 0.000207 0.002611 0.032857 0.011075 0.016048
# 5 0.013339 -0.000333 0.003589 0.011075 0.037685 0.014947
# 6 0.007341 -0.003473 0.002143 0.016048 0.014947 0.035392
#
#
# Mechanical properties :
#
#
# Convention : Reuss Voigt Hill
#
# Bulk Modulus (GPa) = 43.96207 74.92998 59.44602
# Shear Modulus (GPa) = 33.16613 49.83598 41.50106
#
# Velocity S-wave (km/s) = 3.48977 4.27781 3.90373
# Velocity P-wave (km/s) = 5.69041 7.20511 6.49209
#
# Compressibility (1/GPa) = 0.02274688
#
# Stress axis : x y z
#
# Youngs Moduli (GPa) = 61.18506 123.00856 181.16707
#
# Poissons Ratio (x) = 0.23563 0.11433
# Poissons Ratio (y) = 0.11720 0.19502
# Poissons Ratio (z) = 0.03861 0.13242
#
# Static dielectric constant tensor:
#      x y z
#    x 2.248670 0.155570 0.037760 
#    y 0.155570 2.265740 -0.030160 
#    z 0.037760 -0.030160 2.141910 
# 
# From -- ./inp_files/14701.got.cif
#   From: 2010.05.17/outbox.cif.g08.bks.cpg/sg2_8_cif.got.tgz:14701.got - 2010.06.03 11:33:40.
