data_PCOD9093369
_publ_section_title
;
Structure prediction by ZEFSAII (Michael W. Deem and Ramdas Pophale) SiO2 
 PCOD9093369
Probable space group: P -1
;
_chemical_formula_sum "Si O2"
_cell_formula_units_Z 16
_cell_length_a 14.364274
_cell_length_b 13.153118
_cell_length_c 8.840208
_cell_angle_alpha 65.382647
_cell_angle_beta 35.717889
_cell_angle_gamma 43.466919
_cell_volume 605.599326
_symmetry_space_group_name_H-M "P -1"
_symmetry_group_IT_number 2
_symmetry_cell_setting 'triclinic'
loop_
_space_group_symop_operation_xyz
x,y,z
-x,-y,-z
loop_
_atom_site_type_symbol
_atom_site_label
_atom_site_fract_x
_atom_site_fract_y
_atom_site_fract_z
Si Si1 0.124983 0.166841 0.568542
Si Si2 0.865934 0.623262 0.289651
Si Si3 0.958878 0.342942 0.394625
Si Si4 0.395612 0.363800 0.808173
Si Si5 0.569209 0.630975 0.881067
Si Si6 0.941267 0.045389 0.721125
Si Si7 0.374650 0.137198 0.812572
Si Si8 0.131959 0.824582 0.856305
O O1 0.075703 0.290816 0.440015
O O2 0.096762 0.068670 0.564617
O O3 0.373912 0.046824 0.394298
O O4 0.934285 0.238516 0.903362
O O5 0.737787 0.648571 0.597069
O O6 0.698284 0.778810 0.306546
O O7 0.913746 0.471270 0.262695
O O8 0.127118 0.532990 0.025152
O O9 0.698132 0.460637 0.729341
O O10 0.160077 0.177070 0.140237
O O11 0.399280 0.230913 0.836722
O O12 0.596311 0.310101 0.464855
O O13 0.450370 0.360094 0.915957
O O14 0.326498 0.781537 0.026362
O O15 0.000000 0.000000 0.500000
O O16 0.001446 0.902701 0.821298
O O17 0.000000 0.000000 0.000000
#
# Coordination Sequence:
#
# PCOD9093369 Si02
#       8
#     2   2   2   2   2   2   2   2
#     4  11  22  37  59  85 122 150 188 239 287 340
#     4   9  22  35  63  86 110 146 201 235 283 335
#     4   9  22  36  58  86 117 153 188 233 299 336
#     4  11  18  36  56  89 109 146 192 249 275 328
#     4  10  21  34  57  84 118 145 192 233 289 339
#     4  11  20  36  59  85 115 149 195 234 281 339
#     4  11  19  37  63  87 109 149 201 242 272 340
#     4  10  20  32  58  84 110 146 192 228 282 335
#
# _framework density 26.420107999999999
#
# number of rings (size 3 to 8) (size 9 to 14) (size 15 to 20)
#    0.750    1.000    3.750    3.000    1.750    0.500 
#    0.000    0.625    5.500    0.750    0.000    0.000 
#    0.000    0.000    0.000    0.000    0.000    0.000 
#
# Total GULP energy -89144.220184 kJ/mol
# GULP energy per Si atom -5571.513761 kJ/mol
# Density = 2.635997 g / cm^3
# Si number density = 26.420108 Si / 1000 Ang^3
#
#
#
# Elastic Constant Matrix: (Units=GPa)
#
#
# Indices 1 2 3 4 5 6 
#
# 1 79.8948 9.7980 28.1755 -5.1731 -6.6418 -4.1141
# 2 9.7980 121.0699 56.0178 -22.0684 -36.4817 -44.3882
# 3 28.1755 56.0178 210.1112 -1.4944 -7.8692 -19.5073
# 4 -5.1731 -22.0684 -1.4944 38.9392 -41.8221 -3.3056
# 5 -6.6418 -36.4817 -7.8692 -41.8221 4.3239 5.2673
# 6 -4.1141 -44.3882 -19.5073 -3.3056 5.2673 38.4257
#
#
#
# Elastic Compliance Matrix: (Units=1/GPa)
#
#
# Indices 1 2 3 4 5 6 
#
# 1 0.012978 -0.001276 -0.001536 -0.000923 -0.001680 -0.000713
# 2 -0.001276 0.008060 -0.001565 -0.006480 -0.010808 0.009304
# 3 -0.001536 -0.001565 0.005509 0.000817 0.001525 0.000686
# 4 -0.000923 -0.006480 0.000817 0.003318 -0.016957 -0.004560
# 5 -0.001680 -0.010808 0.001525 -0.016957 -0.008974 -0.012119
# 6 -0.000713 0.009304 0.000686 -0.004560 -0.012119 0.038313
#
#
# Mechanical properties :
#
#
# Convention : Reuss Voigt Hill
#
# Bulk Modulus (GPa) = 56.19559 66.56204 61.37882
# Shear Modulus (GPa) = 67.66866 37.47674 52.57270
#
# Velocity S-wave (km/s) = 5.06638 3.77037 4.46564
# Velocity P-wave (km/s) = 7.45254 6.64851 7.06198
#
# Compressibility (1/GPa) = 0.01779499
#
# Stress axis : x y z
#
# Youngs Moduli (GPa) = 77.05108 124.06396 181.51511
#
# Poissons Ratio (x) = 0.15825 0.27880
# Poissons Ratio (y) = 0.09828 0.28407
# Poissons Ratio (z) = 0.11835 0.19416
#
# Static dielectric constant tensor:
#      x y z
#    x 2.278660 0.026970 0.071870 
#    y 0.026970 2.131860 -0.038260 
#    z 0.071870 -0.038260 2.228240 
# 
# From -- ./inp_files/337153.got.cif
#   From: 2010.05.17/outbox.cif.g08.bks.cpg/sg2_169_cif.got.tgz:337153.got - 2010.06.03 11:33:40.
