data_PCOD9093114
_publ_section_title
;
Structure prediction by ZEFSAII (Michael W. Deem and Ramdas Pophale) SiO2 
 PCOD9093114
Probable space group: P -1
;
_chemical_formula_sum "Si O2"
_cell_formula_units_Z 12
_cell_length_a 12.196841
_cell_length_b 9.157824
_cell_length_c 8.658704
_cell_angle_alpha 116.400927
_cell_angle_beta 138.871647
_cell_angle_gamma 85.619361
_cell_volume 511.994419
_symmetry_space_group_name_H-M "P -1"
_symmetry_group_IT_number 2
_symmetry_cell_setting 'triclinic'
loop_
_space_group_symop_operation_xyz
x,y,z
-x,-y,-z
loop_
_atom_site_type_symbol
_atom_site_label
_atom_site_fract_x
_atom_site_fract_y
_atom_site_fract_z
Si Si1 0.354560 0.805504 0.186315
Si Si2 0.727192 0.806303 0.074453
Si Si3 0.993982 0.804944 0.942301
Si Si4 0.600195 0.207282 0.135469
Si Si5 0.594871 0.663457 0.557036
Si Si6 0.074239 0.794434 0.379124
O O1 0.436825 0.680977 0.298362
O O2 0.500000 0.000000 0.500000
O O3 0.379967 0.798345 0.027412
O O4 0.142851 0.769134 0.981199
O O5 0.865138 0.713121 0.179068
O O6 0.833241 0.001942 0.358613
O O7 0.536828 0.708944 0.918576
O O8 0.686357 0.826222 0.860004
O O9 0.772482 0.676241 0.655119
O O10 0.068364 0.805112 0.194677
O O11 0.000000 0.000000 0.000000
O O12 0.799255 0.296699 0.470410
O O13 0.500000 0.000000 0.000000
O O14 0.500000 0.500000 0.500000
#
# Coordination Sequence:
#
# PCOD9093114 Si02
#       6
#     2   2   2   2   2   2
#     4  12  22  37  64  95 126 159 216 262 303 369
#     4   9  18  34  57  80 118 161 197 242 307 358
#     4  11  23  37  67  97 122 160 214 266 306 360
#     4  10  20  31  55  89 123 155 194 260 309 351
#     4  11  25  43  63  92 131 169 204 254 322 377
#     4   9  18  32  55  89 118 149 203 258 304 350
#
# _framework density 23.437754999999999
#
# number of rings (size 3 to 8) (size 9 to 14) (size 15 to 20)
#    0.000    1.667    1.667    5.000    7.000    0.667 
#    0.000    0.833    0.000    5.000    0.000    0.000 
#    0.000    0.000    0.000    0.000    0.000    0.000 
#
# Total GULP energy -67013.008181 kJ/mol
# GULP energy per Si atom -5584.417348 kJ/mol
# Density = 2.338441 g / cm^3
# Si number density = 23.437755 Si / 1000 Ang^3
#
#
#
# Elastic Constant Matrix: (Units=GPa)
#
#
# Indices 1 2 3 4 5 6 
#
# 1 237.3711 58.9674 80.9963 -42.1139 42.2173 -7.2007
# 2 58.9674 94.6922 47.8104 -27.9865 22.1222 15.7021
# 3 80.9963 47.8104 103.0339 -34.8599 30.5032 2.2775
# 4 -42.1139 -27.9865 -34.8599 46.8652 -7.6113 7.7926
# 5 42.2173 22.1222 30.5032 -7.6113 55.6321 -9.4170
# 6 -7.2007 15.7021 2.2775 7.7926 -9.4170 26.6863
#
#
#
# Elastic Compliance Matrix: (Units=1/GPa)
#
#
# Indices 1 2 3 4 5 6 
#
# 1 0.006423 -0.001758 -0.003094 0.001805 -0.001923 0.001826
# 2 -0.001758 0.020711 -0.001765 0.011327 -0.007511 -0.018468
# 3 -0.003094 -0.001765 0.018494 0.009920 -0.006867 -0.006695
# 4 0.001805 0.011327 0.009920 0.039171 -0.009656 -0.021870
# 5 -0.001923 -0.007511 -0.006867 -0.009656 0.027760 0.017102
# 6 0.001826 -0.018468 -0.006695 -0.021870 0.017102 0.061824
#
#
# Mechanical properties :
#
#
# Convention : Reuss Voigt Hill
#
# Bulk Modulus (GPa) = 30.86922 90.07171 60.47046
# Shear Modulus (GPa) = 25.20009 42.32493 33.76251
#
# Velocity S-wave (km/s) = 3.28257 4.25413 3.79953
# Velocity P-wave (km/s) = 5.25036 7.91478 6.71603
#
# Compressibility (1/GPa) = 0.03239473
#
# Stress axis : x y z
#
# Youngs Moduli (GPa) = 155.69815 48.28429 54.07238
#
# Poissons Ratio (x) = 0.08487 0.16730
# Poissons Ratio (y) = 0.27366 0.09542
# Poissons Ratio (z) = 0.48172 0.08520
#
# Static dielectric constant tensor:
#      x y z
#    x 1.904450 -0.044040 0.073180 
#    y -0.044040 2.001680 0.079950 
#    z 0.073180 0.079950 1.995370 
# 
# From -- ./inp_files/240822.got.cif
#   From: 2010.05.17/outbox.cif.g08.bks.cpg/sg2_121_cif.got.tgz:240822.got - 2010.06.03 11:33:40.
