data_PCOD9093566
_publ_section_title
;
Structure prediction by ZEFSAII (Michael W. Deem and Ramdas Pophale) SiO2 
 PCOD9093566
Probable space group: P -1
;
_chemical_formula_sum "Si O2"
_cell_formula_units_Z 15
_cell_length_a 7.911790
_cell_length_b 8.554391
_cell_length_c 18.810131
_cell_angle_alpha 30.563240
_cell_angle_beta 116.467966
_cell_angle_gamma 126.422786
_cell_volume 514.164350
_symmetry_space_group_name_H-M "P -1"
_symmetry_group_IT_number 2
_symmetry_cell_setting 'triclinic'
loop_
_space_group_symop_operation_xyz
x,y,z
-x,-y,-z
loop_
_atom_site_type_symbol
_atom_site_label
_atom_site_fract_x
_atom_site_fract_y
_atom_site_fract_z
Si Si1 0.159854 0.936695 0.608847
Si Si2 0.025457 0.718246 0.487874
Si Si3 0.635066 0.392656 0.341936
Si Si4 0.520388 0.917345 0.205511
Si Si5 0.853990 0.231115 0.907325
Si Si6 0.678139 0.641648 0.797934
Si Si7 0.877550 0.657369 0.965575
Si Si8 0.500000 0.500000 0.500000
O O1 0.408466 0.143038 0.562774
O O2 0.187723 0.241649 0.556037
O O3 0.000000 0.000000 0.500000
O O4 0.030945 0.572705 0.765153
O O5 0.129586 0.582237 0.620967
O O6 0.000000 0.500000 0.500000
O O7 0.193762 0.096215 0.344639
O O8 0.613115 0.689431 0.268079
O O9 0.562139 0.455045 0.226577
O O10 0.500000 0.000000 0.500000
O O11 0.334437 0.945233 0.115339
O O12 0.448895 0.725245 0.340764
O O13 0.694331 0.305352 0.100197
O O14 0.728265 0.332304 0.905675
O O15 0.989952 0.116169 0.031138
O O16 0.772272 0.793142 0.832655
O O17 0.000000 0.500000 0.000000
#
# Coordination Sequence:
#
# PCOD9093566 Si02
#       8
#     2   2   2   2   2   2   2   1
#     4  11  21  36  56  85 117 152 193 243 291 347
#     4  10  20  35  56  84 119 149 189 241 297 352
#     4   9  19  34  54  79 118 148 183 236 293 352
#     4  11  21  35  56  88 117 153 191 237 300 338
#     4   9  18  33  51  78 118 144 186 239 285 340
#     4   8  18  33  50  80 113 147 186 232 294 335
#     4  10  20  33  53  81 124 151 189 241 291 345
#     4  12  22  32  60  82 118 148 192 244 288 354
#
# _framework density 29.173552000000001
#
# number of rings (size 3 to 8) (size 9 to 14) (size 15 to 20)
#    0.000    2.133    2.667    1.600    3.733    4.800 
#    0.000    0.000    0.000    0.000    0.000   16.800 
#    0.000    0.000    0.000    0.000    0.000    0.000 
#
# Total GULP energy -83628.673508 kJ/mol
# GULP energy per Si atom -5575.244901 kJ/mol
# Density = 2.910715 g / cm^3
# Si number density = 29.173552 Si / 1000 Ang^3
#
#
#
# Elastic Constant Matrix: (Units=GPa)
#
#
# Indices 1 2 3 4 5 6 
#
# 1 95.3086 0.6664 24.0421 -5.1895 24.6336 -6.4306
# 2 0.6664 136.3743 54.8686 28.3666 3.1772 36.3468
# 3 24.0421 54.8686 137.6750 40.0908 2.1791 13.8060
# 4 -5.1895 28.3666 40.0908 84.8878 13.9017 3.3609
# 5 24.6336 3.1772 2.1791 13.9017 46.8038 -1.6221
# 6 -6.4306 36.3468 13.8060 3.3609 -1.6221 27.0242
#
#
#
# Elastic Compliance Matrix: (Units=1/GPa)
#
#
# Indices 1 2 3 4 5 6 
#
# 1 0.014136 -0.000510 -0.003794 0.003978 -0.008237 0.005000
# 2 -0.000510 0.013365 -0.002885 -0.002431 -0.000349 -0.016342
# 3 -0.003794 -0.002885 0.010558 -0.004686 0.003036 -0.001651
# 4 0.003978 -0.002431 -0.004686 0.015910 -0.006289 0.004253
# 5 -0.008237 -0.000349 0.003036 -0.006289 0.027430 -0.000613
# 6 0.005000 -0.016342 -0.001651 0.004253 -0.000613 0.060451
#
#
# Mechanical properties :
#
#
# Convention : Reuss Voigt Hill
#
# Bulk Modulus (GPa) = 42.23185 58.72359 50.47772
# Shear Modulus (GPa) = 30.46490 51.06188 40.76339
#
# Velocity S-wave (km/s) = 3.23501 4.18817 3.74207
# Velocity P-wave (km/s) = 5.33491 6.60004 6.00091
#
# Compressibility (1/GPa) = 0.02367881
#
# Stress axis : x y z
#
# Youngs Moduli (GPa) = 70.74261 74.82026 94.71413
#
# Poissons Ratio (x) = 0.03819 0.35938
# Poissons Ratio (y) = 0.03611 0.27329
# Poissons Ratio (z) = 0.26842 0.21588
#
# Static dielectric constant tensor:
#      x y z
#    x 2.810120 0.414630 -0.099870 
#    y 0.414630 2.078540 -0.197680 
#    z -0.099870 -0.197680 2.370680 
# 
# From -- ./inp_files/594369.got.cif
#   From: 2010.05.17/outbox.cif.g08.bks.cpg/sg2_298_cif.got.tgz:594369.got - 2010.06.03 11:33:40.
