data_PCOD9093361
_publ_section_title
;
Structure prediction by ZEFSAII (Michael W. Deem and Ramdas Pophale) SiO2 
 PCOD9093361
Probable space group: P -1
;
_chemical_formula_sum "Si O2"
_cell_formula_units_Z 16
_cell_length_a 13.591893
_cell_length_b 9.924266
_cell_length_c 12.349056
_cell_angle_alpha 37.946127
_cell_angle_beta 122.466571
_cell_angle_gamma 97.573302
_cell_volume 714.875593
_symmetry_space_group_name_H-M "P -1"
_symmetry_group_IT_number 2
_symmetry_cell_setting 'triclinic'
loop_
_space_group_symop_operation_xyz
x,y,z
-x,-y,-z
loop_
_atom_site_type_symbol
_atom_site_label
_atom_site_fract_x
_atom_site_fract_y
_atom_site_fract_z
Si Si1 0.168500 0.771120 0.010900
Si Si2 0.152375 0.735908 0.270965
Si Si3 0.364755 0.514499 0.870513
Si Si4 0.362094 0.097612 0.284450
Si Si5 0.149203 0.012104 0.310472
Si Si6 0.461071 0.352904 0.482599
Si Si7 0.857959 0.707366 0.349173
Si Si8 0.558372 0.908324 0.973385
O O1 0.210162 0.732187 0.188939
O O2 0.322114 0.533799 0.212211
O O3 0.134799 0.047288 0.769688
O O4 0.020619 0.797270 0.897508
O O5 0.183925 0.810487 0.358405
O O6 0.156708 0.469617 0.459284
O O7 0.000000 0.000000 0.000000
O O8 0.418588 0.357306 0.887902
O O9 0.332117 0.341712 0.038033
O O10 0.500000 0.500000 0.000000
O O11 0.230921 0.811631 0.585034
O O12 0.227942 0.154416 0.236589
O O13 0.410311 0.846026 0.394278
O O14 0.500000 0.000000 0.500000
O O15 0.500000 0.500000 0.500000
O O16 0.452254 0.142852 0.682345
O O17 0.000000 0.500000 0.500000
O O18 0.715813 0.843481 0.107342
O O19 0.500000 0.000000 0.000000
#
# Coordination Sequence:
#
# PCOD9093361 Si02
#       8
#     2   2   2   2   2   2   2   2
#     4  11  23  38  59  96 133 171 205 268 325 382
#     4  10  20  32  57  90 132 162 206 255 321 371
#     4  11  23  42  67  93 124 171 223 267 315 386
#     4  11  25  43  68  94 123 172 225 262 317 390
#     4  11  22  37  65  91 125 166 217 265 317 375
#     4  11  23  40  64  96 132 168 208 264 329 380
#     4  12  20  36  58  91 130 169 211 257 318 385
#     4  11  24  38  62  97 130 165 213 267 325 383
#
# _framework density 22.381515
#
# number of rings (size 3 to 8) (size 9 to 14) (size 15 to 20)
#    0.000    1.000    6.250    1.500    3.500    2.000 
#    0.000    0.625    0.000    0.750    0.000    0.000 
#    0.000    0.000    0.000    0.000    0.000    0.000 
#
# Total GULP energy -89207.158980 kJ/mol
# GULP energy per Si atom -5575.447436 kJ/mol
# Density = 2.233057 g / cm^3
# Si number density = 22.381515 Si / 1000 Ang^3
#
#
#
# Elastic Constant Matrix: (Units=GPa)
#
#
# Indices 1 2 3 4 5 6 
#
# 1 90.3979 14.4309 51.7814 -2.0925 14.1734 30.8267
# 2 14.4309 43.5506 4.3528 11.3866 9.4734 19.9127
# 3 51.7814 4.3528 160.6687 0.4110 7.7848 23.7685
# 4 -2.0925 11.3866 0.4110 29.2471 9.1951 2.1918
# 5 14.1734 9.4734 7.7848 9.1951 47.1013 5.7205
# 6 30.8267 19.9127 23.7685 2.1918 5.7205 31.5747
#
#
#
# Elastic Compliance Matrix: (Units=1/GPa)
#
#
# Indices 1 2 3 4 5 6 
#
# 1 0.019251 0.001577 -0.003605 0.003363 -0.004160 -0.016555
# 2 0.001577 0.037726 0.002468 -0.011717 -0.003046 -0.025824
# 3 -0.003605 0.002468 0.007901 -0.001023 -0.000043 -0.003906
# 4 0.003363 -0.011717 -0.001023 0.040923 -0.006874 0.003281
# 5 -0.004160 -0.003046 -0.000043 -0.006874 0.024188 0.002110
# 6 -0.016555 -0.025824 -0.003906 0.003281 0.002110 0.066450
#
#
# Mechanical properties :
#
#
# Convention : Reuss Voigt Hill
#
# Bulk Modulus (GPa) = 15.20748 48.41638 31.81193
# Shear Modulus (GPa) = 22.99055 36.52142 29.75599
#
# Velocity S-wave (km/s) = 3.20849 4.04390 3.65017
# Velocity P-wave (km/s) = 4.53159 6.59419 5.65768
#
# Compressibility (1/GPa) = 0.06575711
#
# Stress axis : x y z
#
# Youngs Moduli (GPa) = 51.94484 26.50682 126.55828
#
# Poissons Ratio (x) = -0.04179 0.45625
# Poissons Ratio (y) = -0.08189 -0.31230
# Poissons Ratio (z) = 0.18726 -0.06541
#
# Static dielectric constant tensor:
#      x y z
#    x 1.969720 -0.060880 0.011840 
#    y -0.060880 1.925180 -0.023910 
#    z 0.011840 -0.023910 1.861490 
# 
# From -- ./inp_files/531517.got.cif
#   From: 2010.05.17/outbox.cif.g08.bks.cpg/sg2_266_cif.got.tgz:531517.got - 2010.06.03 11:33:40.
