data_PCOD9093100
_publ_section_title
;
Structure prediction by ZEFSAII (Michael W. Deem and Ramdas Pophale) SiO2 
 PCOD9093100
Probable space group: P -1
;
_chemical_formula_sum "Si O2"
_cell_formula_units_Z 16
_cell_length_a 16.204625
_cell_length_b 7.836520
_cell_length_c 11.569825
_cell_angle_alpha 109.849440
_cell_angle_beta 69.485350
_cell_angle_gamma 150.663820
_cell_volume 672.315688
_symmetry_space_group_name_H-M "P -1"
_symmetry_group_IT_number 2
_symmetry_cell_setting 'triclinic'
loop_
_space_group_symop_operation_xyz
x,y,z
-x,-y,-z
loop_
_atom_site_type_symbol
_atom_site_label
_atom_site_fract_x
_atom_site_fract_y
_atom_site_fract_z
Si Si1 0.926859 0.148196 0.754090
Si Si2 0.189667 0.432772 0.942015
Si Si3 0.252488 0.189005 0.008630
Si Si4 0.849350 0.875232 0.331170
Si Si5 0.692377 0.292871 0.381541
Si Si6 0.583575 0.882382 0.144023
Si Si7 0.803603 0.543662 0.627274
Si Si8 0.086815 0.479286 0.220095
O O1 0.863448 0.226643 0.752879
O O2 0.119638 0.451032 0.688639
O O3 0.901938 0.118275 0.898056
O O4 0.814911 0.778951 0.687796
O O5 0.244244 0.352327 0.970749
O O6 0.091798 0.384412 0.073237
O O7 0.113186 0.201323 0.811058
O O8 0.335057 0.821096 0.911205
O O9 0.412488 0.509292 0.086920
O O10 0.292388 0.072199 0.897416
O O11 0.692093 0.501959 0.383334
O O12 0.993858 0.139213 0.419806
O O13 0.899822 0.143134 0.296374
O O14 0.690569 0.280872 0.516953
O O15 0.566094 0.949811 0.290731
O O16 0.789771 0.414406 0.727215
#
# Coordination Sequence:
#
# PCOD9093100 Si02
#       8
#     2   2   2   2   2   2   2   2
#     4  11  20  35  61  83 112 151 184 231 281 333
#     4  11  18  36  56  82 116 146 184 231 286 333
#     4  11  22  39  58  85 116 147 187 230 292 325
#     4   8  18  31  52  82 114 141 176 232 271 330
#     4  10  20  40  58  82 117 149 187 230 282 327
#     4  10  24  38  58  86 114 147 187 237 273 346
#     4   9  20  38  53  82 121 146 183 233 280 327
#     4  10  20  31  54  89 114 145 184 230 280 331
#
# _framework density 23.798345999999999
#
# number of rings (size 3 to 8) (size 9 to 14) (size 15 to 20)
#    0.750    1.250    2.500    2.250    1.750    2.000 
#    0.000    0.625    0.000    0.750    0.000    0.000 
#    0.000    0.000    0.000    0.000    0.000    0.000 
#
# Total GULP energy -89123.601323 kJ/mol
# GULP energy per Si atom -5570.225083 kJ/mol
# Density = 2.374418 g / cm^3
# Si number density = 23.798346 Si / 1000 Ang^3
#
#
#
# Elastic Constant Matrix: (Units=GPa)
#
#
# Indices 1 2 3 4 5 6 
#
# 1 100.5702 36.1411 46.2823 -1.7050 6.8161 -48.2728
# 2 36.1411 72.6573 30.6764 2.1232 3.4199 -20.7963
# 3 46.2823 30.6764 120.8343 4.3587 30.9584 -8.7509
# 4 -1.7050 2.1232 4.3587 31.2744 7.4858 -2.4166
# 5 6.8161 3.4199 30.9584 7.4858 34.3766 -0.5175
# 6 -48.2728 -20.7963 -8.7509 -2.4166 -0.5175 43.1779
#
#
#
# Elastic Compliance Matrix: (Units=1/GPa)
#
#
# Indices 1 2 3 4 5 6 
#
# 1 0.029520 -0.002359 -0.009222 0.004899 0.002076 0.030297
# 2 -0.002359 0.017979 -0.003880 -0.000997 0.002469 0.005209
# 3 -0.009222 -0.003880 0.015057 -0.000323 -0.011415 -0.009283
# 4 0.004899 -0.000997 -0.000323 0.034808 -0.008059 0.006783
# 5 0.002076 0.002469 -0.011415 -0.008059 0.040485 0.001231
# 6 0.030297 0.005209 -0.009283 0.006783 0.001231 0.058054
#
#
# Mechanical properties :
#
#
# Convention : Reuss Voigt Hill
#
# Bulk Modulus (GPa) = 31.61301 57.80682 44.70991
# Shear Modulus (GPa) = 21.06419 33.82992 27.44706
#
# Velocity S-wave (km/s) = 2.97831 3.77440 3.39974
# Velocity P-wave (km/s) = 5.01394 6.58315 5.85139
#
# Compressibility (1/GPa) = 0.03163255
#
# Stress axis : x y z
#
# Youngs Moduli (GPa) = 33.87581 55.62092 66.41384
#
# Poissons Ratio (x) = 0.13122 0.61249
# Poissons Ratio (y) = 0.07992 0.25769
# Poissons Ratio (z) = 0.31241 0.21581
#
# Static dielectric constant tensor:
#      x y z
#    x 2.008610 0.060000 -0.019370 
#    y 0.060000 1.943400 -0.043390 
#    z -0.019370 -0.043390 1.915000 
# 
# From -- ./inp_files/469517.got.cif
#   From: 2010.05.17/outbox.cif.g08.bks.cpg/sg2_235_cif.got.tgz:469517.got - 2010.06.03 11:33:40.
