data_PCOD9093370
_publ_section_title
;
Structure prediction by ZEFSAII (Michael W. Deem and Ramdas Pophale) SiO2 
 PCOD9093370
Probable space group: P -1
;
_chemical_formula_sum "Si O2"
_cell_formula_units_Z 16
_cell_length_a 22.033202
_cell_length_b 15.065565
_cell_length_c 12.041894
_cell_angle_alpha 30.020727
_cell_angle_beta 153.148854
_cell_angle_gamma 152.439031
_cell_volume 779.858051
_symmetry_space_group_name_H-M "P -1"
_symmetry_group_IT_number 2
_symmetry_cell_setting 'triclinic'
loop_
_space_group_symop_operation_xyz
x,y,z
-x,-y,-z
loop_
_atom_site_type_symbol
_atom_site_label
_atom_site_fract_x
_atom_site_fract_y
_atom_site_fract_z
Si Si1 0.484111 0.895428 0.803053
Si Si2 0.338364 0.299786 0.820291
Si Si3 0.965413 0.376202 0.905902
Si Si4 0.884915 0.945464 0.972049
Si Si5 0.864802 0.350814 0.524707
Si Si6 0.205690 0.796700 0.956925
Si Si7 0.001620 0.018130 0.643342
Si Si8 0.439251 0.256135 0.278941
O O1 0.307194 0.713628 0.730950
O O2 0.459288 0.058776 0.514484
O O3 0.576139 0.794651 0.007752
O O4 0.609512 0.059117 0.917819
O O5 0.153358 0.168742 0.655318
O O6 0.407634 0.540137 0.652194
O O7 0.384682 0.284631 0.038694
O O8 0.894845 0.412757 0.637202
O O9 0.109384 0.590616 0.950821
O O10 0.838834 0.279666 0.904139
O O11 0.018723 0.207736 0.154040
O O12 0.704376 0.777442 0.841009
O O13 0.872094 0.144385 0.759159
O O14 0.954218 0.907544 0.237557
O O15 0.000000 0.000000 0.000000
O O16 0.000000 0.500000 0.500000
O O17 0.133786 0.941546 0.656548
#
# Coordination Sequence:
#
# PCOD9093370 Si02
#       8
#     2   2   2   2   2   2   2   2
#     4  11  23  37  60  90 121 155 201 255 302 354
#     4  10  20  32  58  84 119 158 194 246 308 350
#     4  10  23  40  60  92 124 164 199 246 302 371
#     4   9  20  38  61  86 118 160 209 252 298 352
#     4  10  24  42  66  88 118 161 212 260 293 353
#     4  11  24  36  64  92 126 168 189 242 324 368
#     4  10  21  38  58  90 125 160 201 245 298 372
#     4   9  21  34  52  89 119 151 198 257 297 351
#
# _framework density 20.516553999999999
#
# number of rings (size 3 to 8) (size 9 to 14) (size 15 to 20)
#    0.000    2.000    1.250    1.500    8.750    1.000 
#    0.000    0.625    0.000    1.500    0.000    0.000 
#    0.000    0.000    0.000    0.000    0.000    0.000 
#
# Total GULP energy -89204.023329 kJ/mol
# GULP energy per Si atom -5575.251458 kJ/mol
# Density = 2.046986 g / cm^3
# Si number density = 20.516554 Si / 1000 Ang^3
#
#
#
# Elastic Constant Matrix: (Units=GPa)
#
#
# Indices 1 2 3 4 5 6 
#
# 1 61.8663 29.8935 14.2989 11.6581 3.1156 0.9950
# 2 29.8935 130.7902 32.8862 15.9273 1.1658 7.6271
# 3 14.2989 32.8862 60.4226 13.2628 0.0921 10.0919
# 4 11.6581 15.9273 13.2628 36.4745 -1.9963 8.4134
# 5 3.1156 1.1658 0.0921 -1.9963 19.0575 -1.4743
# 6 0.9950 7.6271 10.0919 8.4134 -1.4743 26.2533
#
#
#
# Elastic Compliance Matrix: (Units=1/GPa)
#
#
# Indices 1 2 3 4 5 6 
#
# 1 0.019302 -0.003435 -0.002070 -0.004640 -0.003238 0.002367
# 2 -0.003435 0.009663 -0.004000 -0.001526 -0.000221 -0.000663
# 3 -0.002070 -0.004000 0.021022 -0.003966 -0.000366 -0.005590
# 4 -0.004640 -0.001526 -0.003966 0.033116 0.003701 -0.008261
# 5 -0.003238 -0.000221 -0.000366 0.003701 0.053572 0.002150
# 6 0.002367 -0.000663 -0.005590 -0.008261 0.002150 0.043110
#
#
# Mechanical properties :
#
#
# Convention : Reuss Voigt Hill
#
# Bulk Modulus (GPa) = 32.28358 45.24846 38.76602
# Shear Modulus (GPa) = 23.90955 28.09043 25.99999
#
# Velocity S-wave (km/s) = 3.41747 3.70423 3.56373
# Velocity P-wave (km/s) = 5.59836 6.35591 5.98912
#
# Compressibility (1/GPa) = 0.03097550
#
# Stress axis : x y z
#
# Youngs Moduli (GPa) = 51.80941 103.48352 47.56906
#
# Poissons Ratio (x) = 0.35549 0.09847
# Poissons Ratio (y) = 0.17798 0.19030
# Poissons Ratio (z) = 0.10724 0.41398
#
# Static dielectric constant tensor:
#      x y z
#    x 1.790550 0.037490 -0.000710 
#    y 0.037490 1.860020 0.026520 
#    z -0.000710 0.026520 1.738140 
# 
# From -- ./inp_files/471695.got.cif
#   From: 2010.05.17/outbox.cif.g08.bks.cpg/sg2_236_cif.got.tgz:471695.got - 2010.06.03 11:33:40.
