data_PCOD9093246
_publ_section_title
;
Structure prediction by ZEFSAII (Michael W. Deem and Ramdas Pophale) SiO2 
 PCOD9093246
Probable space group: P -1
;
_chemical_formula_sum "Si O2"
_cell_formula_units_Z 16
_cell_length_a 12.147306
_cell_length_b 17.577046
_cell_length_c 7.941576
_cell_angle_alpha 57.304422
_cell_angle_beta 91.490875
_cell_angle_gamma 138.922852
_cell_volume 679.248624
_symmetry_space_group_name_H-M "P -1"
_symmetry_group_IT_number 2
_symmetry_cell_setting 'triclinic'
loop_
_space_group_symop_operation_xyz
x,y,z
-x,-y,-z
loop_
_atom_site_type_symbol
_atom_site_label
_atom_site_fract_x
_atom_site_fract_y
_atom_site_fract_z
Si Si1 0.963159 0.551205 0.131008
Si Si2 0.737409 0.826577 0.389420
Si Si3 0.898122 0.055252 0.821589
Si Si4 0.132812 0.841009 0.570941
Si Si5 0.478219 0.331061 0.931299
Si Si6 0.900731 0.811369 0.829955
Si Si7 0.637535 0.274188 0.171346
Si Si8 0.261134 0.466167 0.650588
O O1 0.056390 0.692183 0.828707
O O2 0.173098 0.633003 0.056535
O O3 0.745523 0.346196 0.276175
O O4 0.886651 0.551465 0.291516
O O5 0.466164 0.615427 0.620880
O O6 0.860863 0.825672 0.321738
O O7 0.777642 0.938682 0.128198
O O8 0.885431 0.966288 0.388528
O O9 0.887076 0.149771 0.639976
O O10 0.731859 0.881291 0.893707
O O11 0.391593 0.048660 0.401677
O O12 0.961805 0.794068 0.695562
O O13 0.347543 0.319899 0.024297
O O14 0.628190 0.460968 0.616326
O O15 0.610129 0.360088 0.025805
O O16 0.882538 0.726624 0.083763
#
# Coordination Sequence:
#
# PCOD9093246 Si02
#       8
#     2   2   2   2   2   2   2   2
#     4  10  22  36  54  77  98 135 178 209 254 299
#     4   9  17  32  49  71 106 136 162 203 249 298
#     4   8  17  31  50  74 101 137 169 199 249 303
#     4  10  20  35  54  77 105 132 167 213 253 301
#     4   9  19  34  53  76 104 137 168 207 254 300
#     4  10  20  32  52  80 105 135 167 200 256 311
#     4  10  21  38  55  73 102 135 172 216 253 294
#     4  10  20  34  52  77 106 134 169 208 249 302
#
# _framework density 23.555439
#
# number of rings (size 3 to 8) (size 9 to 14) (size 15 to 20)
#    0.000    2.500    0.000    2.250    0.000    8.000 
#    0.000    2.500    0.000    0.000    0.000   17.500 
#    0.000    0.000    0.000    0.000    0.000    0.000 
#
# Total GULP energy -89349.210444 kJ/mol
# GULP energy per Si atom -5584.325653 kJ/mol
# Density = 2.350183 g / cm^3
# Si number density = 23.555439 Si / 1000 Ang^3
#
#
#
# Elastic Constant Matrix: (Units=GPa)
#
#
# Indices 1 2 3 4 5 6 
#
# 1 101.1782 17.8150 10.8913 -9.4440 -31.8906 1.3267
# 2 17.8150 63.0391 17.7811 -20.1563 -4.4581 5.3788
# 3 10.8913 17.7811 76.2629 -0.9902 -6.5114 -0.9928
# 4 -9.4440 -20.1563 -0.9902 28.5913 6.9622 3.9924
# 5 -31.8906 -4.4581 -6.5114 6.9622 32.0706 -7.0702
# 6 1.3267 5.3788 -0.9928 3.9924 -7.0702 18.4210
#
#
#
# Elastic Compliance Matrix: (Units=1/GPa)
#
#
# Indices 1 2 3 4 5 6 
#
# 1 0.015921 -0.005370 0.000559 -0.004001 0.017869 0.008177
# 2 -0.005370 0.026914 -0.006421 0.022144 -0.011461 -0.017016
# 3 0.000559 -0.006421 0.014984 -0.005951 0.005313 0.005971
# 4 -0.004001 0.022144 -0.005951 0.057839 -0.020604 -0.026942
# 5 0.017869 -0.011461 0.005313 -0.020604 0.059440 0.029625
# 6 0.008177 -0.017016 0.005971 -0.026942 0.029625 0.076197
#
#
# Mechanical properties :
#
#
# Convention : Reuss Voigt Hill
#
# Bulk Modulus (GPa) = 28.28530 37.05053 32.66792
# Shear Modulus (GPa) = 17.51049 28.74942 23.12996
#
# Velocity S-wave (km/s) = 2.72945 3.49736 3.13699
# Velocity P-wave (km/s) = 4.68692 5.66320 5.19803
#
# Compressibility (1/GPa) = 0.03535405
#
# Stress axis : x y z
#
# Youngs Moduli (GPa) = 62.81169 37.15574 66.73827
#
# Poissons Ratio (x) = 0.19953 -0.03728
# Poissons Ratio (y) = 0.33730 0.42851
# Poissons Ratio (z) = -0.03509 0.23857
#
# Static dielectric constant tensor:
#      x y z
#    x 1.930920 0.003170 0.028550 
#    y 0.003170 1.985590 0.059560 
#    z 0.028550 0.059560 1.961570 
# 
# From -- ./inp_files/176035.got.cif
#   From: 2010.05.17/outbox.cif.g08.bks.cpg/sg2_89_cif.got.tgz:176035.got - 2010.06.03 11:33:40.
