data_PCOD9093671
_publ_section_title
;
Structure prediction by ZEFSAII (Michael W. Deem and Ramdas Pophale) SiO2 
 PCOD9093671
Probable space group: P -1
;
_chemical_formula_sum "Si O2"
_cell_formula_units_Z 16
_cell_length_a 8.866998
_cell_length_b 13.756296
_cell_length_c 8.961017
_cell_angle_alpha 97.038238
_cell_angle_beta 61.859102
_cell_angle_gamma 133.676262
_cell_volume 660.772865
_symmetry_space_group_name_H-M "P -1"
_symmetry_group_IT_number 2
_symmetry_cell_setting 'triclinic'
loop_
_space_group_symop_operation_xyz
x,y,z
-x,-y,-z
loop_
_atom_site_type_symbol
_atom_site_label
_atom_site_fract_x
_atom_site_fract_y
_atom_site_fract_z
Si Si1 0.103580 0.905012 0.651330
Si Si2 0.311862 0.694946 0.949379
Si Si3 0.571586 0.621176 0.798921
Si Si4 0.690603 0.094332 0.703433
Si Si5 0.796349 0.358113 0.665459
Si Si6 0.154376 0.832994 0.924267
Si Si7 0.888224 0.996466 0.710044
Si Si8 0.390597 0.337951 0.849213
O O1 0.322849 0.984211 0.446670
O O2 0.143408 0.847687 0.755494
O O3 0.850994 0.766610 0.659328
O O4 0.047880 0.993150 0.744334
O O5 0.192859 0.629118 0.155853
O O6 0.359827 0.608172 0.838180
O O7 0.172795 0.726424 0.939425
O O8 0.601092 0.849553 0.848381
O O9 0.517224 0.488274 0.754930
O O10 0.575877 0.635545 0.981112
O O11 0.786240 0.237437 0.628521
O O12 0.415398 0.990410 0.876753
O O13 0.871047 0.106924 0.728641
O O14 0.537442 0.301999 0.731720
O O15 0.000000 0.500000 0.500000
O O16 0.895589 0.774501 0.078996
O O17 0.000000 0.000000 0.500000
#
# Coordination Sequence:
#
# PCOD9093671 Si02
#       8
#     2   2   2   2   2   2   2   2
#     4   9  16  32  56  85 111 136 178 225 274 329
#     4   9  19  35  55  85 113 140 184 229 274 329
#     4   8  15  31  55  75 102 142 182 223 258 306
#     4  10  20  34  55  82 113 145 179 226 279 327
#     4  11  23  39  57  75 106 155 199 223 257 330
#     4  10  20  33  55  85 113 136 172 236 294 327
#     4   8  16  32  57  83 107 138 180 226 270 322
#     4   9  18  33  52  76 103 140 185 222 265 320
#
# _framework density 24.214071000000001
#
# number of rings (size 3 to 8) (size 9 to 14) (size 15 to 20)
#    0.000    2.750    0.000    1.875    0.000    4.000 
#    0.000    1.875    0.000    0.000    0.000    0.000 
#    0.000    0.000    0.000    0.000    0.000    0.000 
#
# Total GULP energy -89161.074447 kJ/mol
# GULP energy per Si atom -5572.567153 kJ/mol
# Density = 2.415896 g / cm^3
# Si number density = 24.214071 Si / 1000 Ang^3
#
#
#
# Elastic Constant Matrix: (Units=GPa)
#
#
# Indices 1 2 3 4 5 6 
#
# 1 187.4584 56.4461 71.5582 -4.4721 -27.0014 -49.3189
# 2 56.4461 84.6939 36.7906 -14.5087 -13.7736 -38.3183
# 3 71.5582 36.7906 110.2170 -22.8412 -16.7704 -7.7515
# 4 -4.4721 -14.5087 -22.8412 29.2074 -12.3663 -0.2273
# 5 -27.0014 -13.7736 -16.7704 -12.3663 45.7853 6.4170
# 6 -49.3189 -38.3183 -7.7515 -0.2273 6.4170 49.3317
#
#
#
# Elastic Compliance Matrix: (Units=1/GPa)
#
#
# Indices 1 2 3 4 5 6 
#
# 1 0.010349 -0.000344 -0.006275 -0.002691 0.001733 0.008855
# 2 -0.000344 0.024618 -0.002974 0.013031 0.007190 0.017436
# 3 -0.006275 -0.002974 0.017583 0.014040 0.006564 -0.006609
# 4 -0.002691 0.013031 0.014040 0.061071 0.023000 0.006927
# 5 0.001733 0.007190 0.006564 0.023000 0.033060 0.004154
# 6 0.008855 0.017436 -0.006609 0.006927 0.004154 0.041120
#
#
# Mechanical properties :
#
#
# Convention : Reuss Voigt Hill
#
# Bulk Modulus (GPa) = 29.97185 79.10656 54.53921
# Shear Modulus (GPa) = 22.92440 39.36985 31.14712
#
# Velocity S-wave (km/s) = 3.08025 4.03663 3.59043
# Velocity P-wave (km/s) = 5.00553 7.38014 6.30562
#
# Compressibility (1/GPa) = 0.03336464
#
# Stress axis : x y z
#
# Youngs Moduli (GPa) = 96.63118 40.62015 56.87195
#
# Poissons Ratio (x) = 0.01398 0.35688
# Poissons Ratio (y) = 0.03325 0.16911
# Poissons Ratio (z) = 0.60638 0.12078
#
# Static dielectric constant tensor:
#      x y z
#    x 2.030160 -0.007440 0.024200 
#    y -0.007440 2.019340 0.033810 
#    z 0.024200 0.033810 1.964130 
# 
# From -- ./inp_files/397411.got.cif
#   From: 2010.05.17/outbox.cif.g08.bks.cpg/sg2_199_cif.got.tgz:397411.got - 2010.06.03 11:33:40.
