data_PCOD9093301
_publ_section_title
;
Structure prediction by ZEFSAII (Michael W. Deem and Ramdas Pophale) SiO2 
 PCOD9093301
Probable space group: P -1
;
_chemical_formula_sum "Si O2"
_cell_formula_units_Z 16
_cell_length_a 24.521612
_cell_length_b 5.017496
_cell_length_c 5.478744
_cell_angle_alpha 94.149693
_cell_angle_beta 69.923698
_cell_angle_gamma 68.882495
_cell_volume 575.636540
_symmetry_space_group_name_H-M "P -1"
_symmetry_group_IT_number 2
_symmetry_cell_setting 'triclinic'
loop_
_space_group_symop_operation_xyz
x,y,z
-x,-y,-z
loop_
_atom_site_type_symbol
_atom_site_label
_atom_site_fract_x
_atom_site_fract_y
_atom_site_fract_z
Si Si1 0.461051 0.227874 0.285422
Si Si2 0.010286 0.178889 0.219266
Si Si3 0.787086 0.032355 0.181833
Si Si4 0.314969 0.833668 0.031169
Si Si5 0.425626 0.809790 0.540539
Si Si6 0.901165 0.673781 0.229356
Si Si7 0.872684 0.184591 0.669955
Si Si8 0.253243 0.446161 0.334928
O O1 0.430716 0.574572 0.305951
O O2 0.509031 0.226440 0.427700
O O3 0.408226 0.122288 0.459784
O O4 0.500000 0.000000 0.000000
O O5 0.050709 0.358354 0.070290
O O6 0.938324 0.434850 0.362370
O O7 0.057781 0.938235 0.314419
O O8 0.000000 0.000000 0.000000
O O9 0.728364 0.022598 0.129951
O O10 0.832699 0.731235 0.229470
O O11 0.763137 0.324546 0.402515
O O12 0.833987 0.071640 0.912031
O O13 0.383898 0.768759 0.819047
O O14 0.289790 0.097447 0.283808
O O15 0.298685 0.562105 0.114714
O O16 0.887372 0.982239 0.394820
O O17 0.814441 0.484504 0.695453
#
# Coordination Sequence:
#
# PCOD9093301 Si02
#       8
#     2   2   2   2   2   2   2   2
#     4  10  21  39  62  90 128 164 196 245 297 340
#     4  10  20  32  55  81 105 142 187 241 294 359
#     4   9  21  40  59  83 115 155 195 246 298 361
#     4  11  23  40  63  89 122 158 202 249 292 346
#     4  10  22  38  60  93 123 159 207 243 287 355
#     4   9  19  38  53  77 112 143 189 237 298 358
#     4   9  19  39  54  78 111 148 189 243 299 355
#     4  10  23  40  60  87 117 159 199 247 302 352
#
# _framework density 27.795314000000001
#
# number of rings (size 3 to 8) (size 9 to 14) (size 15 to 20)
#    0.000    2.250    0.000    1.500    1.750    4.500 
#   18.000    0.000    0.000    0.000    0.000    0.000 
#    0.000    0.000    0.000    0.000    0.000    0.000 
#
# Total GULP energy -89409.211137 kJ/mol
# GULP energy per Si atom -5588.075696 kJ/mol
# Density = 2.773205 g / cm^3
# Si number density = 27.795314 Si / 1000 Ang^3
#
#
#
# Elastic Constant Matrix: (Units=GPa)
#
#
# Indices 1 2 3 4 5 6 
#
# 1 74.7422 6.2542 12.8763 6.5055 -10.0569 22.4180
# 2 6.2542 99.5484 4.4635 10.4840 10.1436 16.7689
# 3 12.8763 4.4635 76.8055 19.0517 -9.4143 20.9177
# 4 6.5055 10.4840 19.0517 47.3494 1.2610 8.5676
# 5 -10.0569 10.1436 -9.4143 1.2610 44.0202 -1.9915
# 6 22.4180 16.7689 20.9177 8.5676 -1.9915 31.9646
#
#
#
# Elastic Compliance Matrix: (Units=1/GPa)
#
#
# Indices 1 2 3 4 5 6 
#
# 1 0.017576 0.000770 0.001202 -0.000795 0.003526 -0.013084
# 2 0.000770 0.011586 0.001288 -0.001834 -0.002488 -0.007125
# 3 0.001202 0.001288 0.017636 -0.005583 0.003396 -0.011352
# 4 -0.000795 -0.001834 -0.005583 0.024183 -0.001710 -0.001415
# 5 0.003526 -0.002488 0.003396 -0.001710 0.024808 -0.001386
# 6 -0.013084 -0.007125 -0.011352 -0.001415 -0.001386 0.051920
#
#
# Mechanical properties :
#
#
# Convention : Reuss Voigt Hill
#
# Bulk Modulus (GPa) = 18.75542 33.14269 25.94905
# Shear Modulus (GPa) = 31.45396 39.83365 35.64380
#
# Velocity S-wave (km/s) = 3.36762 3.78975 3.58490
# Velocity P-wave (km/s) = 4.67798 5.57667 5.14698
#
# Compressibility (1/GPa) = 0.05331793
#
# Stress axis : x y z
#
# Youngs Moduli (GPa) = 56.89594 86.31068 56.70141
#
# Poissons Ratio (x) = -0.06650 -0.06813
# Poissons Ratio (y) = -0.04384 -0.07302
# Poissons Ratio (z) = -0.06836 -0.11115
#
# Static dielectric constant tensor:
#      x y z
#    x 2.226650 -0.013910 -0.011560 
#    y -0.013910 2.384360 -0.071090 
#    z -0.011560 -0.071090 2.249400 
# 
# From -- ./inp_files/12928.got.cif
#   From: 2010.05.17/outbox.cif.g08.bks.cpg/sg2_7_cif.got.tgz:12928.got - 2010.06.03 11:33:40.
