data_PCOD9093623
_publ_section_title
;
Structure prediction by ZEFSAII (Michael W. Deem and Ramdas Pophale) SiO2 
 PCOD9093623
Probable space group: P -1
;
_chemical_formula_sum "Si O2"
_cell_formula_units_Z 13
_cell_length_a 14.027779
_cell_length_b 27.699263
_cell_length_c 22.553389
_cell_angle_alpha 11.503189
_cell_angle_beta 160.664578
_cell_angle_gamma 160.196455
_cell_volume 560.904666
_symmetry_space_group_name_H-M "P -1"
_symmetry_group_IT_number 2
_symmetry_cell_setting 'triclinic'
loop_
_space_group_symop_operation_xyz
x,y,z
-x,-y,-z
loop_
_atom_site_type_symbol
_atom_site_label
_atom_site_fract_x
_atom_site_fract_y
_atom_site_fract_z
Si Si1 0.041277 0.836284 0.664980
Si Si2 0.732209 0.266688 0.805824
Si Si3 0.861486 0.295886 0.349108
Si Si4 0.510660 0.577622 0.204349
Si Si5 0.500000 0.500000 0.500000
Si Si6 0.657792 0.958035 0.737578
Si Si7 0.740588 0.751719 0.797092
O O1 0.757754 0.606098 0.767741
O O2 0.064503 0.020094 0.401439
O O3 0.340902 0.737326 0.954893
O O4 0.000000 0.000000 0.500000
O O5 0.669180 0.407777 0.540733
O O6 0.696080 0.427411 0.648926
O O7 0.069952 0.247302 0.033262
O O8 0.500000 0.000000 0.000000
O O9 0.642945 0.176107 0.312404
O O10 0.194722 0.418061 0.378145
O O11 0.878882 0.084466 0.663306
O O12 0.715730 0.502692 0.044645
O O13 0.716220 0.763097 0.054742
O O14 0.568718 0.180877 0.453168
#
# Coordination Sequence:
#
# PCOD9093623 Si02
#       7
#     2   2   2   2   1   2   2
#     4  10  20  33  54  85 121 151 200 253 295 347
#     4  11  21  36  56  87 121 160 194 252 299 357
#     4  10  21  38  63  86 118 159 199 249 299 361
#     4  10  22  34  56  88 119 157 201 247 300 357
#     4  10  24  36  58  90 118 152 206 244 302 352
#     4  10  21  40  61  87 120 156 201 247 303 355
#     4  10  20  35  57  86 115 156 201 243 295 357
#
# _framework density 23.176843000000002
#
# number of rings (size 3 to 8) (size 9 to 14) (size 15 to 20)
#    0.000    1.846    1.538    2.308    8.615    0.000 
#    0.000    3.077    0.000    8.308    0.000    0.000 
#    0.000    0.000    0.000    0.000    0.000    0.000 
#
# Total GULP energy -72419.013525 kJ/mol
# GULP energy per Si atom -5570.693348 kJ/mol
# Density = 2.312409 g / cm^3
# Si number density = 23.176843 Si / 1000 Ang^3
#
#
#
# Elastic Constant Matrix: (Units=GPa)
#
#
# Indices 1 2 3 4 5 6 
#
# 1 70.6339 -6.6627 40.4760 -9.7272 -10.5564 -7.0598
# 2 -6.6627 34.0244 11.2563 -8.7686 3.3778 -8.8393
# 3 40.4760 11.2563 121.6712 -5.5291 -37.3146 -3.3089
# 4 -9.7272 -8.7686 -5.5291 27.4673 -4.3894 -3.1359
# 5 -10.5564 3.3778 -37.3146 -4.3894 45.1555 -10.8198
# 6 -7.0598 -8.8393 -3.3089 -3.1359 -10.8198 19.6304
#
#
#
# Elastic Compliance Matrix: (Units=1/GPa)
#
#
# Indices 1 2 3 4 5 6 
#
# 1 0.024395 0.015660 -0.006682 0.015440 0.005327 0.020101
# 2 0.015660 0.049015 -0.006026 0.024698 0.005479 0.033652
# 3 -0.006682 -0.006026 0.015008 0.001239 0.012487 0.004494
# 4 0.015440 0.024698 0.001239 0.056694 0.016721 0.035156
# 5 0.005327 0.005479 0.012487 0.016721 0.042769 0.032732
# 6 0.020101 0.033652 0.004494 0.035156 0.032732 0.097738
#
#
# Mechanical properties :
#
#
# Convention : Reuss Voigt Hill
#
# Bulk Modulus (GPa) = 10.60211 35.16320 22.88266
# Shear Modulus (GPa) = 16.06910 30.53465 23.30187
#
# Velocity S-wave (km/s) = 2.63596 3.63363 3.17424
# Velocity P-wave (km/s) = 3.72140 5.72791 4.83000
#
# Compressibility (1/GPa) = 0.09432082
#
# Stress axis : x y z
#
# Youngs Moduli (GPa) = 40.99121 20.40204 66.63287
#
# Poissons Ratio (x) = -0.31950 0.44526
# Poissons Ratio (y) = -0.64194 0.40156
# Poissons Ratio (z) = 0.27392 0.12295
#
# Static dielectric constant tensor:
#      x y z
#    x 1.867870 0.035750 -0.011710 
#    y 0.035750 1.914460 -0.030960 
#    z -0.011710 -0.030960 1.929570 
# 
# From -- ./inp_files/302607.got.cif
#   From: 2010.05.17/outbox.cif.g08.bks.cpg/sg2_152_cif.got.tgz:302607.got - 2010.06.03 11:33:40.
