data_PCOD9093579
_publ_section_title
;
Structure prediction by ZEFSAII (Michael W. Deem and Ramdas Pophale) SiO2 
 PCOD9093579
Probable space group: P -1
;
_chemical_formula_sum "Si O2"
_cell_formula_units_Z 16
_cell_length_a 9.455331
_cell_length_b 11.704380
_cell_length_c 18.472935
_cell_angle_alpha 122.356134
_cell_angle_beta 147.618596
_cell_angle_gamma 73.623489
_cell_volume 857.086855
_symmetry_space_group_name_H-M "P -1"
_symmetry_group_IT_number 2
_symmetry_cell_setting 'triclinic'
loop_
_space_group_symop_operation_xyz
x,y,z
-x,-y,-z
loop_
_atom_site_type_symbol
_atom_site_label
_atom_site_fract_x
_atom_site_fract_y
_atom_site_fract_z
Si Si1 0.227406 0.966592 0.038962
Si Si2 0.742262 0.322505 0.999255
Si Si3 0.575839 0.666970 0.266001
Si Si4 0.774795 0.220309 0.385211
Si Si5 0.695868 0.486947 0.514257
Si Si6 0.642151 0.384977 0.127382
Si Si7 0.396231 0.216120 0.095576
Si Si8 0.704192 0.516462 0.786872
O O1 0.544660 0.057092 0.237422
O O2 0.162313 0.797779 0.961777
O O3 0.235291 0.048918 0.993967
O O4 0.000000 0.000000 0.000000
O O5 0.546513 0.259708 0.823580
O O6 0.015574 0.452915 0.129466
O O7 0.587161 0.521607 0.183413
O O8 0.367962 0.605225 0.223541
O O9 0.898939 0.757794 0.459593
O O10 0.696239 0.325193 0.443107
O O11 0.695527 0.264064 0.285996
O O12 0.024595 0.582639 0.703922
O O13 0.500000 0.500000 0.500000
O O14 0.562707 0.525200 0.397055
O O15 0.587498 0.368694 0.013265
O O16 0.454413 0.246584 0.047050
O O17 0.259873 0.327315 0.107616
#
# Coordination Sequence:
#
# PCOD9093579 Si02
#       8
#     2   2   2   2   2   2   2   2
#     4  10  19  35  55  75 101 130 177 212 245 298
#     4  12  21  32  52  78 106 139 169 202 249 308
#     4  10  21  35  51  74 108 139 166 205 250 310
#     4   8  18  34  52  73 100 136 167 204 254 296
#     4  10  16  29  54  80 100 123 168 222 260 287
#     4  10  20  32  51  80 105 128 165 217 264 292
#     4   8  17  34  53  73 100 129 165 214 257 287
#     4  10  18  33  53  78 102 131 172 210 255 296
#
# _framework density 18.667888000000001
#
# number of rings (size 3 to 8) (size 9 to 14) (size 15 to 20)
#    0.750    1.500    2.500    1.500    0.000    4.000 
#    0.000    0.000    0.000    0.000    0.000    1.750 
#    0.000    0.000    0.000    0.000    0.000    0.000 
#
# Total GULP energy -89071.824596 kJ/mol
# GULP energy per Si atom -5566.989037 kJ/mol
# Density = 1.862540 g / cm^3
# Si number density = 18.667888 Si / 1000 Ang^3
#
#
#
# Elastic Constant Matrix: (Units=GPa)
#
#
# Indices 1 2 3 4 5 6 
#
# 1 95.5676 30.2192 3.4690 2.0811 -4.1651 29.8227
# 2 30.2192 43.9568 -1.1476 -2.9989 -0.4193 15.4570
# 3 3.4690 -1.1476 30.4774 -2.9794 -2.2995 12.1924
# 4 2.0811 -2.9989 -2.9794 18.3116 4.2299 -0.7368
# 5 -4.1651 -0.4193 -2.2995 4.2299 22.3774 -1.1555
# 6 29.8227 15.4570 12.1924 -0.7368 -1.1555 24.5316
#
#
#
# Elastic Compliance Matrix: (Units=1/GPa)
#
#
# Indices 1 2 3 4 5 6 
#
# 1 0.019551 -0.004993 0.007152 -0.003709 0.003736 -0.024112
# 2 -0.004993 0.034232 0.010740 0.007473 -0.001665 -0.020691
# 3 0.007152 0.010740 0.049100 0.006584 0.003293 -0.039511
# 4 -0.003709 0.007473 0.006584 0.059848 -0.011301 -0.002207
# 5 0.003736 -0.001665 0.003293 -0.011301 0.047660 -0.003224
# 6 -0.024112 -0.020691 -0.039511 -0.002207 -0.003224 0.102532
#
#
# Mechanical properties :
#
#
# Convention : Reuss Voigt Hill
#
# Bulk Modulus (GPa) = 7.77119 26.12034 16.94576
# Shear Modulus (GPa) = 15.15058 22.20822 18.67940
#
# Velocity S-wave (km/s) = 2.85192 3.45287 3.16668
# Velocity P-wave (km/s) = 3.87512 5.46982 4.74001
#
# Compressibility (1/GPa) = 0.12868048
#
# Stress axis : x y z
#
# Youngs Moduli (GPa) = 51.14875 29.21224 20.36656
#
# Poissons Ratio (x) = 0.14585 -0.14566
# Poissons Ratio (y) = 0.25537 -0.21873
# Poissons Ratio (z) = -0.36581 -0.31373
#
# Static dielectric constant tensor:
#      x y z
#    x 1.669890 0.001010 -0.012140 
#    y 0.001010 1.677870 -0.011470 
#    z -0.012140 -0.011470 1.653910 
# 
# From -- ./inp_files/558003.got.cif
#   From: 2010.05.17/outbox.cif.g08.bks.cpg/sg2_280_cif.got.tgz:558003.got - 2010.06.03 11:33:40.
