data_PCOD9093730
_publ_section_title
;
Structure prediction by ZEFSAII (Michael W. Deem and Ramdas Pophale) SiO2 
 PCOD9093730
Probable space group: P -1
;
_chemical_formula_sum "Si O2"
_cell_formula_units_Z 16
_cell_length_a 13.348510
_cell_length_b 13.961618
_cell_length_c 12.085123
_cell_angle_alpha 20.794041
_cell_angle_beta 75.612635
_cell_angle_gamma 73.980979
_cell_volume 768.230577
_symmetry_space_group_name_H-M "P -1"
_symmetry_group_IT_number 2
_symmetry_cell_setting 'triclinic'
loop_
_space_group_symop_operation_xyz
x,y,z
-x,-y,-z
loop_
_atom_site_type_symbol
_atom_site_label
_atom_site_fract_x
_atom_site_fract_y
_atom_site_fract_z
Si Si1 0.234075 0.205579 0.488435
Si Si2 0.140564 0.607562 0.394612
Si Si3 0.095426 0.738999 0.014973
Si Si4 0.570431 0.712268 0.802451
Si Si5 0.342607 0.890023 0.000084
Si Si6 0.440894 0.422794 0.797077
Si Si7 0.118294 0.034443 0.121581
Si Si8 0.648680 0.997485 0.872723
O O1 0.143247 0.453966 0.259451
O O2 0.323136 0.278736 0.303167
O O3 0.179183 0.946289 0.747853
O O4 0.290437 0.121341 0.681180
O O5 0.089071 0.690354 0.202043
O O6 0.256403 0.689518 0.263633
O O7 0.091813 0.792912 0.309347
O O8 0.138516 0.294356 0.760732
O O9 0.978626 0.867427 0.878740
O O10 0.500000 0.000000 0.500000
O O11 0.500000 0.500000 0.000000
O O12 0.591538 0.643009 0.999422
O O13 0.441603 0.717946 0.102576
O O14 0.369788 0.003062 0.989957
O O15 0.424677 0.744664 0.434900
O O16 0.373923 0.277273 0.883160
O O17 0.231125 0.953403 0.232862
#
# Coordination Sequence:
#
# PCOD9093730 Si02
#       8
#     2   2   2   2   2   2   2   2
#     4  11  24  39  65  96 122 156 209 263 316 359
#     4  10  20  33  56  89 125 166 202 249 305 375
#     4  11  21  36  61  90 122 161 205 261 311 359
#     4  12  25  46  68  91 123 162 209 262 315 362
#     4  10  22  39  61  93 133 161 201 252 312 377
#     4  12  25  41  64  88 126 170 206 251 304 372
#     4  11  21  38  57  84 129 168 207 247 300 366
#     4  11  24  39  59  93 127 171 206 242 298 380
#
# _framework density 20.827079000000001
#
# number of rings (size 3 to 8) (size 9 to 14) (size 15 to 20)
#    0.000    1.000    1.250    7.500    1.750    3.000 
#    0.000    0.000    0.000    4.500    0.000    0.000 
#    0.000    0.000    0.000    0.000    0.000    0.000 
#
# Total GULP energy -89567.836003 kJ/mol
# GULP energy per Si atom -5597.989750 kJ/mol
# Density = 2.077968 g / cm^3
# Si number density = 20.827079 Si / 1000 Ang^3
#
#
#
# Elastic Constant Matrix: (Units=GPa)
#
#
# Indices 1 2 3 4 5 6 
#
# 1 52.6986 24.7831 8.7610 11.8180 0.7936 -22.9468
# 2 24.7831 60.3132 27.5367 8.0268 2.9784 -16.8494
# 3 8.7610 27.5367 75.9714 -0.3823 -1.4222 -4.7119
# 4 11.8180 8.0268 -0.3823 42.3119 -7.2401 -2.7578
# 5 0.7936 2.9784 -1.4222 -7.2401 22.2298 -8.1231
# 6 -22.9468 -16.8494 -4.7119 -2.7578 -8.1231 37.7762
#
#
#
# Elastic Compliance Matrix: (Units=1/GPa)
#
#
# Indices 1 2 3 4 5 6 
#
# 1 0.030506 -0.007828 0.000329 -0.005351 0.003913 0.015531
# 2 -0.007828 0.025307 -0.008046 -0.002866 -0.002838 0.004710
# 3 0.000329 -0.008046 0.016053 0.001956 0.002470 -0.000713
# 4 -0.005351 -0.002866 0.001956 0.027299 0.009500 -0.000249
# 5 0.003913 -0.002838 0.002470 0.009500 0.053449 0.013606
# 6 0.015531 0.004710 -0.000713 -0.000249 0.013606 0.040825
#
#
# Mechanical properties :
#
#
# Convention : Reuss Voigt Hill
#
# Bulk Modulus (GPa) = 24.52323 34.57163 29.54743
# Shear Modulus (GPa) = 20.99765 28.99040 24.99403
#
# Velocity S-wave (km/s) = 3.17865 3.73494 3.46797
# Velocity P-wave (km/s) = 5.02712 5.93592 5.50032
#
# Compressibility (1/GPa) = 0.04077766
#
# Stress axis : x y z
#
# Youngs Moduli (GPa) = 32.78022 39.51441 62.29355
#
# Poissons Ratio (x) = 0.30930 -0.02049
# Poissons Ratio (y) = 0.25659 0.50119
# Poissons Ratio (z) = -0.01078 0.31792
#
# Static dielectric constant tensor:
#      x y z
#    x 1.818810 -0.009280 0.008490 
#    y -0.009280 1.728330 -0.011750 
#    z 0.008490 -0.011750 1.715630 
# 
# From -- ./inp_files/455349.got.cif
#   From: 2010.05.17/outbox.cif.g08.bks.cpg/sg2_228_cif.got.tgz:455349.got - 2010.06.03 11:33:40.
