data_PCOD9093325
_publ_section_title
;
Structure prediction by ZEFSAII (Michael W. Deem and Ramdas Pophale) SiO2 
 PCOD9093325
Probable space group: P -1
;
_chemical_formula_sum "Si O2"
_cell_formula_units_Z 14
_cell_length_a 12.406389
_cell_length_b 13.148922
_cell_length_c 13.068121
_cell_angle_alpha 84.736110
_cell_angle_beta 23.677642
_cell_angle_gamma 71.229472
_cell_volume 685.463505
_symmetry_space_group_name_H-M "P -1"
_symmetry_group_IT_number 2
_symmetry_cell_setting 'triclinic'
loop_
_space_group_symop_operation_xyz
x,y,z
-x,-y,-z
loop_
_atom_site_type_symbol
_atom_site_label
_atom_site_fract_x
_atom_site_fract_y
_atom_site_fract_z
Si Si1 0.567889 0.332579 0.272134
Si Si2 0.945817 0.441473 0.454694
Si Si3 0.921027 0.311713 0.164656
Si Si4 0.295145 0.836845 0.506014
Si Si5 0.424406 0.675861 0.227056
Si Si6 0.986746 0.513652 0.131113
Si Si7 0.127433 0.040590 0.790438
O O1 0.348463 0.435683 0.366001
O O2 0.274471 0.353048 0.599735
O O3 0.656184 0.566972 0.120562
O O4 0.845753 0.190732 0.006479
O O5 0.823875 0.354605 0.594189
O O6 0.000000 0.500000 0.500000
O O7 0.295294 0.355716 0.096092
O O8 0.317045 0.221634 0.821785
O O9 0.778975 0.349576 0.170236
O O10 0.000000 0.500000 0.000000
O O11 0.789541 0.241109 0.341526
O O12 0.247551 0.806738 0.433464
O O13 0.127650 0.970978 0.694408
O O14 0.152734 0.570539 0.716814
O O15 0.500000 0.000000 0.500000
O O16 0.000000 0.000000 0.000000
#
# Coordination Sequence:
#
# PCOD9093325 Si02
#       7
#     2   2   2   2   2   2   2
#     4  11  21  36  57  82 120 159 192 231 299 337
#     4  11  24  41  61  87 111 146 198 255 301 341
#     4  11  20  33  55  81 122 152 186 228 282 356
#     4  11  20  37  55  85 119 158 189 224 280 356
#     4  10  21  37  60  82 115 150 188 240 300 344
#     4  10  20  32  55  89 120 151 188 230 295 364
#     4  12  24  38  55  84 126 164 195 230 274 354
#
# _framework density 20.424136000000001
#
# number of rings (size 3 to 8) (size 9 to 14) (size 15 to 20)
#    0.000    1.143    2.857    6.000    0.000    3.429 
#    0.000    0.000    0.000    1.714    0.000    0.000 
#    0.000    0.000    0.000    0.000    0.000    0.000 
#
# Total GULP energy -78041.433267 kJ/mol
# GULP energy per Si atom -5574.388091 kJ/mol
# Density = 2.037765 g / cm^3
# Si number density = 20.424136 Si / 1000 Ang^3
#
#
#
# Elastic Constant Matrix: (Units=GPa)
#
#
# Indices 1 2 3 4 5 6 
#
# 1 85.6679 31.1546 16.5070 9.4007 8.4918 37.7916
# 2 31.1546 73.1422 57.4863 13.0247 3.9251 32.6077
# 3 16.5070 57.4863 125.2142 9.0347 7.2876 21.2006
# 4 9.4007 13.0247 9.0347 45.5747 13.3648 8.1288
# 5 8.4918 3.9251 7.2876 13.3648 20.5202 4.2826
# 6 37.7916 32.6077 21.2006 8.1288 4.2826 36.6107
#
#
#
# Elastic Compliance Matrix: (Units=1/GPa)
#
#
# Indices 1 2 3 4 5 6 
#
# 1 0.022021 0.000091 0.001210 0.000865 -0.005306 -0.023085
# 2 0.000091 0.033310 -0.011432 -0.004848 0.005549 -0.022715
# 3 0.001210 -0.011432 0.012943 0.001379 -0.004146 0.001617
# 4 0.000865 -0.004848 0.001379 0.028475 -0.018138 -0.001575
# 5 -0.005306 0.005549 -0.004146 -0.018138 0.063243 -0.000435
# 6 -0.023085 -0.022715 0.001617 -0.001575 -0.000435 0.070840
#
#
# Mechanical properties :
#
#
# Convention : Reuss Voigt Hill
#
# Bulk Modulus (GPa) = 20.82728 54.92445 37.87587
# Shear Modulus (GPa) = 18.71957 32.46621 25.59289
#
# Velocity S-wave (km/s) = 3.03073 3.99130 3.54371
# Velocity P-wave (km/s) = 4.73990 6.94197 5.94380
#
# Compressibility (1/GPa) = 0.04801394
#
# Stress axis : x y z
#
# Youngs Moduli (GPa) = 45.41023 30.02069 77.25928
#
# Poissons Ratio (x) = -0.00275 -0.09348
# Poissons Ratio (y) = -0.00415 0.88324
# Poissons Ratio (z) = -0.05495 0.34320
#
# Static dielectric constant tensor:
#      x y z
#    x 1.735030 0.018320 0.023540 
#    y 0.018320 1.847190 -0.044340 
#    z 0.023540 -0.044340 1.836210 
# 
# From -- ./inp_files/531143.got.cif
#   From: 2010.05.17/outbox.cif.g08.bks.cpg/sg2_266_cif.got.tgz:531143.got - 2010.06.03 11:33:40.
