data_PCOD9093764
_publ_section_title
;
Structure prediction by ZEFSAII (Michael W. Deem and Ramdas Pophale) SiO2 
 PCOD9093764
Probable space group: P -1
;
_chemical_formula_sum "Si O2"
_cell_formula_units_Z 15
_cell_length_a 12.511514
_cell_length_b 8.050031
_cell_length_c 11.899604
_cell_angle_alpha 51.323163
_cell_angle_beta 136.992129
_cell_angle_gamma 112.839837
_cell_volume 632.854130
_symmetry_space_group_name_H-M "P -1"
_symmetry_group_IT_number 2
_symmetry_cell_setting 'triclinic'
loop_
_space_group_symop_operation_xyz
x,y,z
-x,-y,-z
loop_
_atom_site_type_symbol
_atom_site_label
_atom_site_fract_x
_atom_site_fract_y
_atom_site_fract_z
Si Si1 0.500000 0.000000 0.500000
Si Si2 0.980662 0.374823 0.298374
Si Si3 0.012492 0.015298 0.663070
Si Si4 0.506412 0.657849 0.043674
Si Si5 0.595188 0.555638 0.726231
Si Si6 0.855122 0.652473 0.266305
Si Si7 0.356544 0.009877 0.625080
Si Si8 0.290071 0.513131 0.390429
O O1 0.358072 0.210875 0.311062
O O2 0.538734 0.061979 0.372411
O O3 0.045463 0.179945 0.517300
O O4 0.848680 0.534922 0.191785
O O5 0.116610 0.514344 0.305976
O O6 0.931095 0.230925 0.219333
O O7 0.822769 0.034839 0.517121
O O8 0.091814 0.112419 0.789752
O O9 0.426893 0.584421 0.124576
O O10 0.692942 0.657947 0.205227
O O11 0.500000 0.500000 0.000000
O O12 0.422448 0.881977 0.839177
O O13 0.411917 0.630255 0.508003
O O14 0.691164 0.435931 0.748016
O O15 0.000000 0.500000 0.500000
O O16 0.355203 0.259565 0.546135
#
# Coordination Sequence:
#
# PCOD9093764 Si02
#       8
#     1   2   2   2   2   2   2   2
#     4  10  20  34  58  82 114 158 192 242 294 366
#     4   9  17  31  55  84 111 151 205 243 277 363
#     4   9  18  34  56  85 116 156 203 241 294 363
#     4  12  22  36  61  95 124 150 202 257 304 349
#     4  10  20  35  56  86 118 160 196 249 295 362
#     4  10  20  33  57  87 116 163 196 242 300 361
#     4  10  21  37  59  92 116 154 197 253 305 349
#     4   9  20  37  57  88 119 159 205 238 303 363
#
# _framework density 23.702145999999999
#
# number of rings (size 3 to 8) (size 9 to 14) (size 15 to 20)
#    0.000    2.133    1.333    3.200    1.867    0.533 
#    0.000    1.333    0.000    4.000    3.467    0.000 
#    0.000    0.000    0.000    0.000    0.000    0.000 
#
# Total GULP energy -83542.666916 kJ/mol
# GULP energy per Si atom -5569.511128 kJ/mol
# Density = 2.364820 g / cm^3
# Si number density = 23.702146 Si / 1000 Ang^3
#
#
#
# Elastic Constant Matrix: (Units=GPa)
#
#
# Indices 1 2 3 4 5 6 
#
# 1 118.6539 -2.1163 33.5725 0.8158 -15.9172 12.0307
# 2 -2.1163 53.2669 3.4208 8.8695 9.6458 2.1426
# 3 33.5725 3.4208 69.8812 2.2442 -16.8937 9.1749
# 4 0.8158 8.8695 2.2442 16.2504 7.6451 2.6603
# 5 -15.9172 9.6458 -16.8937 7.6451 39.3979 1.3175
# 6 12.0307 2.1426 9.1749 2.6603 1.3175 39.4872
#
#
#
# Elastic Compliance Matrix: (Units=1/GPa)
#
#
# Indices 1 2 3 4 5 6 
#
# 1 0.010127 0.000456 -0.003943 -0.001060 0.002569 -0.002209
# 2 0.000456 0.021213 -0.001909 -0.009447 -0.003992 -0.000077
# 3 -0.003943 -0.001909 0.018750 -0.004575 0.007903 -0.003007
# 4 -0.001060 -0.009447 -0.004575 0.074618 -0.014468 -0.002646
# 5 0.002569 -0.003992 0.007903 -0.014468 0.033679 -0.002551
# 6 -0.002209 -0.000077 -0.003007 -0.002646 -0.002551 0.026964
#
#
# Mechanical properties :
#
#
# Convention : Reuss Voigt Hill
#
# Bulk Modulus (GPa) = 25.44655 34.61735 30.03195
# Shear Modulus (GPa) = 23.89575 32.82209 28.35892
#
# Velocity S-wave (km/s) = 3.17861 3.72529 3.46276
# Velocity P-wave (km/s) = 4.92247 5.75679 5.35590
#
# Compressibility (1/GPa) = 0.03929806
#
# Stress axis : x y z
#
# Youngs Moduli (GPa) = 98.74207 47.14075 53.33373
#
# Poissons Ratio (x) = -0.02148 0.21028
# Poissons Ratio (y) = -0.04499 0.10182
# Poissons Ratio (z) = 0.38931 0.08999
#
# Static dielectric constant tensor:
#      x y z
#    x 1.922060 -0.071410 -0.048990 
#    y -0.071410 2.119640 0.072950 
#    z -0.048990 0.072950 1.962030 
# 
# From -- ./inp_files/419006.got.cif
#   From: 2010.05.17/outbox.cif.g08.bks.cpg/sg2_210_cif.got.tgz:419006.got - 2010.06.03 11:33:40.
