data_PCOD9093107
_publ_section_title
;
Structure prediction by ZEFSAII (Michael W. Deem and Ramdas Pophale) SiO2 
 PCOD9093107
Probable space group: P -1
;
_chemical_formula_sum "Si O2"
_cell_formula_units_Z 14
_cell_length_a 13.251662
_cell_length_b 13.861529
_cell_length_c 7.955379
_cell_angle_alpha 39.230920
_cell_angle_beta 103.481733
_cell_angle_gamma 134.187269
_cell_volume 488.089592
_symmetry_space_group_name_H-M "P -1"
_symmetry_group_IT_number 2
_symmetry_cell_setting 'triclinic'
loop_
_space_group_symop_operation_xyz
x,y,z
-x,-y,-z
loop_
_atom_site_type_symbol
_atom_site_label
_atom_site_fract_x
_atom_site_fract_y
_atom_site_fract_z
Si Si1 0.475843 0.868461 0.337821
Si Si2 0.742024 0.619988 0.299728
Si Si3 0.778736 0.747313 0.693018
Si Si4 0.788336 0.065151 0.374350
Si Si5 0.053624 0.626882 0.643896
Si Si6 0.341253 0.668548 0.023988
Si Si7 0.833740 0.989627 0.046885
O O1 0.326949 0.551928 0.660978
O O2 0.653346 0.984407 0.302289
O O3 0.500000 0.000000 0.000000
O O4 0.484900 0.999523 0.318962
O O5 0.637022 0.417375 0.692668
O O6 0.957553 0.828153 0.113530
O O7 0.735494 0.788641 0.118832
O O8 0.689567 0.479930 0.948268
O O9 0.719797 0.807443 0.719086
O O10 0.000000 0.000000 0.500000
O O11 0.757271 0.831262 0.405373
O O12 0.805943 0.162049 0.433394
O O13 0.995463 0.377051 0.958111
O O14 0.137799 0.798588 0.273283
O O15 0.861521 0.491751 0.799241
#
# Coordination Sequence:
#
# PCOD9093107 Si02
#       7
#     2   2   2   2   2   2   2
#     4   9  17  33  54  77 103 141 180 216 252 313
#     4   8  15  29  53  78  96 138 180 208 252 311
#     4  11  20  32  53  85 111 134 170 222 273 305
#     4  10  20  31  55  83 105 136 178 218 260 312
#     4   9  17  34  52  78 104 137 183 216 249 309
#     4   8  15  30  51  75 104 137 171 212 255 310
#     4   9  18  32  55  78 106 136 175 220 263 310
#
# _framework density 28.683261999999999
#
# number of rings (size 3 to 8) (size 9 to 14) (size 15 to 20)
#    0.000    2.857    1.429    1.714    0.000    0.571 
#    0.000    7.143    0.000    0.857    0.000    0.000 
#    0.000    0.000    0.000    0.000    0.000    0.000 
#
# Total GULP energy -78069.414320 kJ/mol
# GULP energy per Si atom -5576.386737 kJ/mol
# Density = 2.861798 g / cm^3
# Si number density = 28.683262 Si / 1000 Ang^3
#
#
#
# Elastic Constant Matrix: (Units=GPa)
#
#
# Indices 1 2 3 4 5 6 
#
# 1 88.7649 38.4008 36.9431 -20.5192 21.5640 -7.9535
# 2 38.4008 211.1542 44.6380 -39.1397 3.2377 -27.1072
# 3 36.9431 44.6380 111.7954 -36.6627 30.9059 -21.5571
# 4 -20.5192 -39.1397 -36.6627 68.6733 -10.9514 16.8628
# 5 21.5640 3.2377 30.9059 -10.9514 28.4157 -5.7939
# 6 -7.9535 -27.1072 -21.5571 16.8628 -5.7939 36.6566
#
#
#
# Elastic Compliance Matrix: (Units=1/GPa)
#
#
# Indices 1 2 3 4 5 6 
#
# 1 0.015350 -0.002285 -0.001262 0.001368 -0.009748 -0.001271
# 2 -0.002285 0.006162 -0.001690 0.001892 0.004182 0.002858
# 3 -0.001262 -0.001690 0.015910 0.004015 -0.013832 0.003800
# 4 0.001368 0.001892 0.004015 0.019512 0.000926 -0.004772
# 5 -0.009748 0.004182 -0.013832 0.000926 0.057831 0.001558
# 6 -0.001271 0.002858 0.003800 -0.004772 0.001558 0.033794
#
#
# Mechanical properties :
#
#
# Convention : Reuss Voigt Hill
#
# Bulk Modulus (GPa) = 37.10733 72.40872 54.75803
# Shear Modulus (GPa) = 29.75935 46.19796 37.97865
#
# Velocity S-wave (km/s) = 3.22454 4.01761 3.64273
# Velocity P-wave (km/s) = 5.17963 6.84256 6.06833
#
# Compressibility (1/GPa) = 0.02694885
#
# Stress axis : x y z
#
# Youngs Moduli (GPa) = 65.14765 162.28087 62.85474
#
# Poissons Ratio (x) = 0.37080 0.07930
# Poissons Ratio (y) = 0.14886 0.10621
# Poissons Ratio (z) = 0.08219 0.27422
#
# Static dielectric constant tensor:
#      x y z
#    x 2.303000 -0.051480 0.031500 
#    y -0.051480 2.252500 -0.015330 
#    z 0.031500 -0.015330 2.429620 
# 
# From -- ./inp_files/252401.got.cif
#   From: 2010.05.17/outbox.cif.g08.bks.cpg/sg2_127_cif.got.tgz:252401.got - 2010.06.03 11:33:40.
