data_PCOD9093852
_publ_section_title
;
Structure prediction by ZEFSAII (Michael W. Deem and Ramdas Pophale) SiO2 
 PCOD9093852
Probable space group: P -1
;
_chemical_formula_sum "Si O2"
_cell_formula_units_Z 16
_cell_length_a 11.394241
_cell_length_b 14.307301
_cell_length_c 9.188337
_cell_angle_alpha 63.099787
_cell_angle_beta 78.850273
_cell_angle_gamma 31.057422
_cell_volume 624.733520
_symmetry_space_group_name_H-M "P -1"
_symmetry_group_IT_number 2
_symmetry_cell_setting 'triclinic'
loop_
_space_group_symop_operation_xyz
x,y,z
-x,-y,-z
loop_
_atom_site_type_symbol
_atom_site_label
_atom_site_fract_x
_atom_site_fract_y
_atom_site_fract_z
Si Si1 0.903158 0.636601 0.202950
Si Si2 0.050007 0.098104 0.561084
Si Si3 0.146483 0.245110 0.345591
Si Si4 0.240142 0.948284 0.039447
Si Si5 0.510154 0.063394 0.165827
Si Si6 0.715219 0.322098 0.738541
Si Si7 0.925566 0.326305 0.047051
Si Si8 0.729654 0.282731 0.241637
O O1 0.005155 0.441902 0.333813
O O2 0.748282 0.807640 0.248983
O O3 0.705343 0.785319 0.011900
O O4 0.114537 0.553836 0.149787
O O5 0.182877 0.107628 0.516673
O O6 0.801119 0.296863 0.579125
O O7 0.967649 0.131769 0.393453
O O8 0.200927 0.880192 0.733825
O O9 0.382590 0.119524 0.302372
O O10 0.973768 0.345030 0.176657
O O11 0.966823 0.141001 0.900672
O O12 0.399963 0.887990 0.924381
O O13 0.176907 0.072053 0.105382
O O14 0.346843 0.754002 0.195460
O O15 0.497871 0.550922 0.710264
O O16 0.717327 0.396010 0.065074
#
# Coordination Sequence:
#
# PCOD9093852 Si02
#       8
#     2   2   2   2   2   2   2   2
#     4   9  18  31  54  90 111 140 180 233 286 331
#     4  10  22  40  54  86 114 142 194 232 268 344
#     4  10  20  33  59  84 113 143 183 232 280 334
#     4  10  22  37  57  82 120 144 190 232 270 340
#     4   9  18  34  53  82 115 143 179 234 283 318
#     4  11  23  39  55  83 112 158 188 224 276 333
#     4   9  17  35  55  86 115 135 184 240 276 326
#     4  10  21  37  61  80 112 152 182 236 287 313
#
# _framework density 25.61092
#
# number of rings (size 3 to 8) (size 9 to 14) (size 15 to 20)
#    0.000    2.250    1.250    2.625    5.250    1.500 
#    0.000    0.625    0.000    3.750    0.000    0.000 
#    0.000    0.000    0.000    0.000    0.000    0.000 
#
# Total GULP energy -89536.164972 kJ/mol
# GULP energy per Si atom -5596.010311 kJ/mol
# Density = 2.555263 g / cm^3
# Si number density = 25.610920 Si / 1000 Ang^3
#
#
#
# Elastic Constant Matrix: (Units=GPa)
#
#
# Indices 1 2 3 4 5 6 
#
# 1 119.8763 45.7018 46.6430 -5.7609 -47.6555 -2.9660
# 2 45.7018 106.3044 38.1985 4.5237 -34.0356 -5.6506
# 3 46.6430 38.1985 92.2648 5.0542 -24.7279 -3.2532
# 4 -5.7609 4.5237 5.0542 28.1544 2.3121 -12.1873
# 5 -47.6555 -34.0356 -24.7279 2.3121 55.8382 9.4581
# 6 -2.9660 -5.6506 -3.2532 -12.1873 9.4581 33.7664
#
#
#
# Elastic Compliance Matrix: (Units=1/GPa)
#
#
# Indices 1 2 3 4 5 6 
#
# 1 0.014595 -0.001886 -0.004244 0.002799 0.009496 -0.001092
# 2 -0.001886 0.013028 -0.002902 -0.002703 0.005280 -0.000720
# 3 -0.004244 -0.002902 0.014745 -0.003685 0.001492 -0.001186
# 4 0.002799 -0.002703 -0.003685 0.045158 -0.005697 0.017333
# 5 0.009496 0.005280 0.001492 -0.005697 0.031663 -0.009064
# 6 -0.001092 -0.000720 -0.001186 0.017333 -0.009064 0.038079
#
#
# Mechanical properties :
#
#
# Convention : Reuss Voigt Hill
#
# Bulk Modulus (GPa) = 41.14752 64.39246 52.76999
# Shear Modulus (GPa) = 27.25752 36.07861 31.66807
#
# Velocity S-wave (km/s) = 3.26589 3.75736 3.52021
# Velocity P-wave (km/s) = 5.50660 6.63482 6.09686
#
# Compressibility (1/GPa) = 0.02430280
#
# Stress axis : x y z
#
# Youngs Moduli (GPa) = 68.51700 76.75765 67.81744
#
# Poissons Ratio (x) = 0.14479 0.28782
# Poissons Ratio (y) = 0.12925 0.19683
# Poissons Ratio (z) = 0.29079 0.22278
#
# Static dielectric constant tensor:
#      x y z
#    x 2.088130 -0.015020 0.050640 
#    y -0.015020 1.979320 0.006930 
#    z 0.050640 0.006930 2.088040 
# 
# From -- ./inp_files/425415.got.cif
#   From: 2010.05.17/outbox.cif.g08.bks.cpg/sg2_213_cif.got.tgz:425415.got - 2010.06.03 11:33:40.
