data_PCOD9093765
_publ_section_title
;
Structure prediction by ZEFSAII (Michael W. Deem and Ramdas Pophale) SiO2 
 PCOD9093765
Probable space group: P -1
;
_chemical_formula_sum "Si O2"
_cell_formula_units_Z 16
_cell_length_a 7.613808
_cell_length_b 12.332241
_cell_length_c 10.833357
_cell_angle_alpha 82.712583
_cell_angle_beta 114.931621
_cell_angle_gamma 131.654433
_cell_volume 671.316323
_symmetry_space_group_name_H-M "P -1"
_symmetry_group_IT_number 2
_symmetry_cell_setting 'triclinic'
loop_
_space_group_symop_operation_xyz
x,y,z
-x,-y,-z
loop_
_atom_site_type_symbol
_atom_site_label
_atom_site_fract_x
_atom_site_fract_y
_atom_site_fract_z
Si Si1 0.653491 0.240486 0.087312
Si Si2 0.876017 0.063297 0.009893
Si Si3 0.077343 0.489841 0.331119
Si Si4 0.389337 0.745653 0.212311
Si Si5 0.372492 0.359645 0.066630
Si Si6 0.289870 0.503371 0.626240
Si Si7 0.071110 0.953847 0.683772
Si Si8 0.861963 0.788211 0.397639
O O1 0.507459 0.297920 0.071831
O O2 0.930594 0.345391 0.223694
O O3 0.693037 0.261300 0.949775
O O4 0.438039 0.065570 0.081963
O O5 0.057679 0.225845 0.980552
O O6 0.926126 0.082173 0.169355
O O7 0.000000 0.000000 0.000000
O O8 0.161140 0.626509 0.255125
O O9 0.307083 0.533552 0.481325
O O10 0.851075 0.446395 0.361876
O O11 0.622525 0.919901 0.290181
O O12 0.564851 0.701375 0.277242
O O13 0.454020 0.411422 0.225400
O O14 0.500000 0.500000 0.000000
O O15 0.104066 0.324701 0.608041
O O16 0.983877 0.049847 0.642074
O O17 0.909706 0.827537 0.551435
#
# Coordination Sequence:
#
# PCOD9093765 Si02
#       8
#     2   2   2   2   2   2   2   2
#     4   9  18  36  56  80 111 159 193 223 286 351
#     4   9  18  33  58  82 111 152 182 236 294 335
#     4  10  21  36  55  83 120 161 186 228 283 357
#     4   9  17  33  61  81 110 148 195 240 283 327
#     4  10  20  33  57  87 117 139 193 248 286 332
#     4  10  22  36  55  82 123 147 192 237 288 341
#     4   8  18  34  56  85 112 140 192 241 289 332
#     4   9  18  35  58  83 114 144 192 251 278 336
#
# _framework density 23.833773000000001
#
# number of rings (size 3 to 8) (size 9 to 14) (size 15 to 20)
#    0.750    2.000    0.000    1.125    3.500    0.500 
#    2.250    0.625    5.500    1.500    0.000    0.000 
#    0.000    0.000    0.000    0.000    0.000    0.000 
#
# Total GULP energy -89203.603865 kJ/mol
# GULP energy per Si atom -5575.225242 kJ/mol
# Density = 2.377953 g / cm^3
# Si number density = 23.833773 Si / 1000 Ang^3
#
#
#
# Elastic Constant Matrix: (Units=GPa)
#
#
# Indices 1 2 3 4 5 6 
#
# 1 50.7732 11.0042 19.7245 5.3207 -5.2353 -13.0989
# 2 11.0042 143.9758 53.7023 4.0680 4.1847 14.1449
# 3 19.7245 53.7023 120.7775 11.5605 -2.0470 13.9351
# 4 5.3207 4.0680 11.5605 27.3999 -6.8859 -3.8610
# 5 -5.2353 4.1847 -2.0470 -6.8859 10.4088 0.3896
# 6 -13.0989 14.1449 13.9351 -3.8610 0.3896 33.5006
#
#
#
# Elastic Compliance Matrix: (Units=1/GPa)
#
#
# Indices 1 2 3 4 5 6 
#
# 1 0.026829 -0.001996 -0.005086 0.002835 0.014662 0.013605
# 2 -0.001996 0.008827 -0.003170 -0.001584 -0.006100 -0.003301
# 3 -0.005086 -0.003170 0.011640 -0.004788 -0.001937 -0.006022
# 4 0.002835 -0.001584 -0.004788 0.047557 0.032250 0.008875
# 5 0.014662 -0.006100 -0.001937 0.032250 0.126428 0.011361
# 6 0.013605 -0.003301 -0.006022 0.008875 0.011361 0.039959
#
#
# Mechanical properties :
#
#
# Convention : Reuss Voigt Hill
#
# Bulk Modulus (GPa) = 37.32615 53.82093 45.57354
# Shear Modulus (GPa) = 17.20136 29.66820 23.43478
#
# Velocity S-wave (km/s) = 2.68940 3.53200 3.13910
# Velocity P-wave (km/s) = 5.03377 6.26611 5.68344
#
# Compressibility (1/GPa) = 0.02679087
#
# Stress axis : x y z
#
# Youngs Moduli (GPa) = 37.27335 113.29161 85.91072
#
# Poissons Ratio (x) = 0.22615 0.43698
# Poissons Ratio (y) = 0.07441 0.27231
# Poissons Ratio (z) = 0.18959 0.35910
#
# Static dielectric constant tensor:
#      x y z
#    x 1.932120 -0.009340 0.026790 
#    y -0.009340 1.945330 0.003210 
#    z 0.026790 0.003210 1.921450 
# 
# From -- ./inp_files/399139.got.cif
#   From: 2010.05.17/outbox.cif.g08.bks.cpg/sg2_200_cif.got.tgz:399139.got - 2010.06.03 11:33:40.
