data_PCOD9093920
_publ_section_title
;
Structure prediction by ZEFSAII (Michael W. Deem and Ramdas Pophale) SiO2 
 PCOD9093920
Probable space group: P -1
;
_chemical_formula_sum "Si O2"
_cell_formula_units_Z 14
_cell_length_a 11.663384
_cell_length_b 17.519351
_cell_length_c 17.870257
_cell_angle_alpha 21.122471
_cell_angle_beta 31.497120
_cell_angle_gamma 31.565747
_cell_volume 655.610679
_symmetry_space_group_name_H-M "P -1"
_symmetry_group_IT_number 2
_symmetry_cell_setting 'triclinic'
loop_
_space_group_symop_operation_xyz
x,y,z
-x,-y,-z
loop_
_atom_site_type_symbol
_atom_site_label
_atom_site_fract_x
_atom_site_fract_y
_atom_site_fract_z
Si Si1 0.970494 0.795407 0.050873
Si Si2 0.723424 0.079986 0.794224
Si Si3 0.964235 0.776165 0.309503
Si Si4 0.105134 0.125572 0.265738
Si Si5 0.655086 0.513755 0.525983
Si Si6 0.332941 0.470703 0.876787
Si Si7 0.723984 0.482146 0.757371
O O1 0.194170 0.587592 0.139448
O O2 0.743438 0.718245 0.264139
O O3 0.014189 0.984671 0.906374
O O4 0.919604 0.916944 0.887590
O O5 0.655174 0.336344 0.623496
O O6 0.800515 0.042168 0.700778
O O7 0.500000 0.000000 0.000000
O O8 0.726638 0.729552 0.505512
O O9 0.137794 0.628167 0.408074
O O10 0.066907 0.672995 0.268122
O O11 0.906103 0.340309 0.149454
O O12 0.291114 0.236334 0.094725
O O13 0.000000 0.000000 0.500000
O O14 0.443763 0.548828 0.669217
O O15 0.498521 0.446758 0.878330
#
# Coordination Sequence:
#
# PCOD9093920 Si02
#       7
#     2   2   2   2   2   2   2
#     4  10  20  33  61  91 124 154 199 251 306 350
#     4  11  23  41  61  90 123 158 209 251 294 362
#     4   8  16  30  51  93 127 148 196 245 294 362
#     4  11  26  43  60  86 125 165 202 248 304 358
#     4   9  19  35  62  92 120 156 200 248 299 353
#     4  10  22  40  61  90 123 156 207 249 294 366
#     4   9  17  33  57  88 122 158 194 250 302 356
#
# _framework density 21.354137000000001
#
# number of rings (size 3 to 8) (size 9 to 14) (size 15 to 20)
#    0.000    2.286    1.429    1.286    2.000    4.000 
#    0.000    0.714    0.000    8.571    0.000    0.000 
#    0.000    0.000    0.000    0.000    0.000    0.000 
#
# Total GULP energy -77987.458758 kJ/mol
# GULP energy per Si atom -5570.532768 kJ/mol
# Density = 2.130553 g / cm^3
# Si number density = 21.354137 Si / 1000 Ang^3
#
#
#
# Elastic Constant Matrix: (Units=GPa)
#
#
# Indices 1 2 3 4 5 6 
#
# 1 113.1793 22.5093 39.2220 2.1273 -9.4935 -7.6228
# 2 22.5093 31.4645 -2.3416 4.7648 -8.0723 8.3144
# 3 39.2220 -2.3416 112.6778 -4.0103 -15.7281 4.2452
# 4 2.1273 4.7648 -4.0103 22.3485 1.7022 0.5494
# 5 -9.4935 -8.0723 -15.7281 1.7022 48.3412 -5.3240
# 6 -7.6228 8.3144 4.2452 0.5494 -5.3240 33.0997
#
#
#
# Elastic Compliance Matrix: (Units=1/GPa)
#
#
# Indices 1 2 3 4 5 6 
#
# 1 0.013420 -0.011860 -0.005206 0.000176 -0.000309 0.006685
# 2 -0.011860 0.047330 0.006248 -0.007971 0.006316 -0.014273
# 3 -0.005206 0.006248 0.011456 0.001059 0.003300 -0.003724
# 4 0.000176 -0.007971 0.001059 0.046793 -0.002520 0.000725
# 5 -0.000309 0.006316 0.003300 -0.002520 0.023026 0.001665
# 6 0.006685 -0.014273 -0.003724 0.000725 0.001665 0.036070
#
#
# Mechanical properties :
#
#
# Convention : Reuss Voigt Hill
#
# Bulk Modulus (GPa) = 19.77536 41.78902 30.78219
# Shear Modulus (GPa) = 23.08531 33.95334 28.51932
#
# Velocity S-wave (km/s) = 3.29153 3.99182 3.65847
# Velocity P-wave (km/s) = 4.87097 6.39204 5.68263
#
# Compressibility (1/GPa) = 0.05056799
#
# Stress axis : x y z
#
# Youngs Moduli (GPa) = 74.51817 21.12808 87.29281
#
# Poissons Ratio (x) = 0.25058 0.45448
# Poissons Ratio (y) = 0.88379 -0.54537
# Poissons Ratio (z) = 0.38797 -0.13200
#
# Static dielectric constant tensor:
#      x y z
#    x 1.836580 0.006380 -0.023870 
#    y 0.006380 1.802680 -0.025290 
#    z -0.023870 -0.025290 1.934300 
# 
# From -- ./inp_files/71801.got.cif
#   From: 2010.05.17/outbox.cif.g08.bks.cpg/sg2_36_cif.got.tgz:71801.got - 2010.06.03 11:33:40.
