data_PCOD9093363
_publ_section_title
;
Structure prediction by ZEFSAII (Michael W. Deem and Ramdas Pophale) SiO2 
 PCOD9093363
Probable space group: P -1
;
_chemical_formula_sum "Si O2"
_cell_formula_units_Z 16
_cell_length_a 17.220431
_cell_length_b 14.354538
_cell_length_c 13.672603
_cell_angle_alpha 130.081688
_cell_angle_beta 142.464084
_cell_angle_gamma 23.093346
_cell_volume 754.129671
_symmetry_space_group_name_H-M "P -1"
_symmetry_group_IT_number 2
_symmetry_cell_setting 'triclinic'
loop_
_space_group_symop_operation_xyz
x,y,z
-x,-y,-z
loop_
_atom_site_type_symbol
_atom_site_label
_atom_site_fract_x
_atom_site_fract_y
_atom_site_fract_z
Si Si1 0.779842 0.348111 0.098950
Si Si2 0.675713 0.429439 0.706484
Si Si3 0.796869 0.623250 0.617341
Si Si4 0.638313 0.632205 0.645706
Si Si5 0.752478 0.121529 0.030471
Si Si6 0.764777 0.280505 0.410886
Si Si7 0.980860 0.784454 0.549590
Si Si8 0.243940 0.064447 0.251011
O O1 0.757932 0.226196 0.027048
O O2 0.872347 0.340985 0.284865
O O3 0.005038 0.184567 0.135545
O O4 0.491018 0.641147 0.982283
O O5 0.500000 0.500000 0.500000
O O6 0.716244 0.526496 0.761751
O O7 0.505598 0.565388 0.728004
O O8 0.960405 0.130851 0.805206
O O9 0.780126 0.617723 0.713887
O O10 0.845727 0.721219 0.703684
O O11 0.991281 0.365611 0.582653
O O12 0.500576 0.841576 0.426776
O O13 0.713008 0.451616 0.532040
O O14 0.323227 0.923072 0.535525
O O15 0.689370 0.049112 0.863426
O O16 0.866109 0.243915 0.383017
O O17 0.000000 0.000000 0.500000
#
# Coordination Sequence:
#
# PCOD9093363 Si02
#       8
#     2   2   2   2   2   2   2   2
#     4  11  23  39  63  92 131 165 194 255 321 376
#     4  10  21  39  61  87 124 165 202 250 305 370
#     4  10  23  39  67  90 124 165 215 255 296 367
#     4  10  20  37  59  91 122 157 206 256 297 357
#     4  11  25  40  60  94 130 160 202 254 318 375
#     4  10  20  32  57  93 123 154 199 251 302 365
#     4  11  20  36  61  93 124 159 206 251 307 363
#     4  11  23  43  60  93 127 167 207 255 309 361
#
# _framework density 21.21651
#
# number of rings (size 3 to 8) (size 9 to 14) (size 15 to 20)
#    0.000    1.500    3.750    1.875    3.500    3.500 
#    0.000    0.625    0.000    1.500    0.000    0.000 
#    0.000    0.000    0.000    0.000    0.000    0.000 
#
# Total GULP energy -89324.627802 kJ/mol
# GULP energy per Si atom -5582.789238 kJ/mol
# Density = 2.116822 g / cm^3
# Si number density = 21.216510 Si / 1000 Ang^3
#
#
#
# Elastic Constant Matrix: (Units=GPa)
#
#
# Indices 1 2 3 4 5 6 
#
# 1 51.3430 24.3875 -9.6249 0.8776 -9.8861 -8.4074
# 2 24.3875 147.8258 34.4351 -18.7254 -3.1625 -2.8001
# 3 -9.6249 34.4351 33.8790 -8.4108 -3.4969 1.7183
# 4 0.8776 -18.7254 -8.4108 37.1902 2.8697 0.5564
# 5 -9.8861 -3.1625 -3.4969 2.8697 15.4398 -1.3883
# 6 -8.4074 -2.8001 1.7183 0.5564 -1.3883 31.6737
#
#
#
# Elastic Compliance Matrix: (Units=1/GPa)
#
#
# Indices 1 2 3 4 5 6 
#
# 1 0.035494 -0.010807 0.022587 -0.003383 0.027021 0.008484
# 2 -0.010807 0.012443 -0.015635 0.003677 -0.008719 -0.001367
# 3 0.022587 -0.015635 0.054636 0.002100 0.023482 0.002641
# 4 -0.003383 0.003677 0.002100 0.029828 -0.006616 -0.001501
# 5 0.027021 -0.008719 0.023482 -0.006616 0.087648 0.009085
# 6 0.008484 -0.001367 0.002641 -0.001501 0.009085 0.033984
#
#
# Mechanical properties :
#
#
# Convention : Reuss Voigt Hill
#
# Bulk Modulus (GPa) = 10.54146 36.82701 23.68423
# Shear Modulus (GPa) = 17.04359 29.11743 23.08051
#
# Velocity S-wave (km/s) = 2.83736 3.70860 3.30184
# Velocity P-wave (km/s) = 3.96402 5.97777 5.07184
#
# Compressibility (1/GPa) = 0.09486355
#
# Stress axis : x y z
#
# Youngs Moduli (GPa) = 28.17361 80.36602 18.30285
#
# Poissons Ratio (x) = 0.86850 -0.41340
# Poissons Ratio (y) = 0.30447 0.28617
# Poissons Ratio (z) = -0.63635 1.25653
#
# Static dielectric constant tensor:
#      x y z
#    x 1.844410 -0.019660 -0.015290 
#    y -0.019660 1.778990 0.012150 
#    z -0.015290 0.012150 1.779060 
# 
# From -- ./inp_files/535464.got.cif
#   From: 2010.05.17/outbox.cif.g08.bks.cpg/sg2_268_cif.got.tgz:535464.got - 2010.06.03 11:33:40.
