data_PCOD9093064
_publ_section_title
;
Structure prediction by ZEFSAII (Michael W. Deem and Ramdas Pophale) SiO2 
 PCOD9093064
Probable space group: P -1
;
_chemical_formula_sum "Si O2"
_cell_formula_units_Z 16
_cell_length_a 20.969084
_cell_length_b 6.874354
_cell_length_c 11.734094
_cell_angle_alpha 44.428459
_cell_angle_beta 28.588875
_cell_angle_gamma 51.216573
_cell_volume 566.592286
_symmetry_space_group_name_H-M "P -1"
_symmetry_group_IT_number 2
_symmetry_cell_setting 'triclinic'
loop_
_space_group_symop_operation_xyz
x,y,z
-x,-y,-z
loop_
_atom_site_type_symbol
_atom_site_label
_atom_site_fract_x
_atom_site_fract_y
_atom_site_fract_z
Si Si1 0.626597 0.346348 0.522687
Si Si2 0.901569 0.055143 0.868827
Si Si3 0.586431 0.615956 0.709670
Si Si4 0.645209 0.208080 0.130111
Si Si5 0.182399 0.449342 0.463733
Si Si6 0.908543 0.106870 0.201362
Si Si7 0.374037 0.313680 0.845464
Si Si8 0.924125 0.650991 0.712602
O O1 0.608800 0.398417 0.662457
O O2 0.782442 0.280923 0.289980
O O3 0.503684 0.144501 0.759224
O O4 0.605522 0.576507 0.360913
O O5 0.748871 0.984275 0.110806
O O6 0.897610 0.345776 0.825610
O O7 0.984505 0.151470 0.589916
O O8 0.985615 0.822911 0.897837
O O9 0.730994 0.662450 0.519639
O O10 0.500000 0.500000 0.000000
O O11 0.498075 0.842219 0.682352
O O12 0.729279 0.345925 0.836863
O O13 0.629663 0.442809 0.153878
O O14 0.034706 0.571796 0.669148
O O15 0.161804 0.181609 0.526447
O O16 0.000000 0.000000 0.000000
O O17 0.221492 0.209914 0.117393
#
# Coordination Sequence:
#
# PCOD9093064 Si02
#       8
#     2   2   2   2   2   2   2   2
#     4  10  20  31  51  75 100 130 166 205 248 300
#     4   8  14  25  46  70  95 124 165 201 240 286
#     4   9  18  34  52  73 101 135 168 202 243 296
#     4   8  14  29  53  73  93 131 171 207 240 286
#     4   9  17  30  52  76 101 130 167 202 248 300
#     4  11  20  31  48  77 107 129 157 210 259 289
#     4   9  16  30  48  70  96 126 169 208 242 286
#     4   8  13  26  46  69  92 126 166 204 234 281
#
# _framework density 28.238999
#
# number of rings (size 3 to 8) (size 9 to 14) (size 15 to 20)
#    0.000    3.000    0.000    4.500    0.000    0.000 
#    0.000   12.500    0.000   20.250    0.000    1.750 
#    0.000    0.000    0.000    0.000    0.000    0.000 
#
# Total GULP energy -89257.053286 kJ/mol
# GULP energy per Si atom -5578.565830 kJ/mol
# Density = 2.817473 g / cm^3
# Si number density = 28.238999 Si / 1000 Ang^3
#
#
#
# Elastic Constant Matrix: (Units=GPa)
#
#
# Indices 1 2 3 4 5 6 
#
# 1 211.9727 63.8797 75.5248 41.9694 -29.3233 -44.9267
# 2 63.8797 89.9214 28.0268 16.7122 -11.0093 -17.0297
# 3 75.5248 28.0268 162.3569 44.6305 -29.0493 -27.1793
# 4 41.9694 16.7122 44.6305 33.1942 -17.6257 -18.1146
# 5 -29.3233 -11.0093 -29.0493 -17.6257 61.5732 28.9619
# 6 -44.9267 -17.0297 -27.1793 -18.1146 28.9619 73.2486
#
#
#
# Elastic Compliance Matrix: (Units=1/GPa)
#
#
# Indices 1 2 3 4 5 6 
#
# 1 0.007751 -0.003774 -0.001183 -0.005139 -0.000039 0.002182
# 2 -0.003774 0.014299 -0.000064 -0.002127 -0.000118 0.000506
# 3 -0.001183 -0.000064 0.010038 -0.011601 0.000965 -0.000267
# 4 -0.005139 -0.002127 -0.011601 0.059040 0.006722 0.003992
# 5 -0.000039 -0.000118 0.000965 0.006722 0.021688 -0.006606
# 6 0.002182 0.000506 -0.000267 0.003992 -0.006606 0.018609
#
#
# Mechanical properties :
#
#
# Convention : Reuss Voigt Hill
#
# Bulk Modulus (GPa) = 45.36254 88.79040 67.07647
# Shear Modulus (GPa) = 33.59877 53.39117 43.49497
#
# Velocity S-wave (km/s) = 3.45309 4.35292 3.92885
# Velocity P-wave (km/s) = 5.65660 7.53490 6.66227
#
# Compressibility (1/GPa) = 0.02204462
#
# Stress axis : x y z
#
# Youngs Moduli (GPa) = 129.01443 69.93678 99.62380
#
# Poissons Ratio (x) = 0.26394 0.11786
# Poissons Ratio (y) = 0.48689 0.00642
# Poissons Ratio (z) = 0.15264 0.00450
#
# Static dielectric constant tensor:
#      x y z
#    x 2.253130 -0.003760 -0.087300 
#    y -0.003760 2.363290 -0.011080 
#    z -0.087300 -0.011080 2.289150 
# 
# From -- ./inp_files/469817.got.cif
#   From: 2010.05.17/outbox.cif.g08.bks.cpg/sg2_235_cif.got.tgz:469817.got - 2010.06.03 11:33:40.
