data_PCOD9093584
_publ_section_title
;
Structure prediction by ZEFSAII (Michael W. Deem and Ramdas Pophale) SiO2 
 PCOD9093584
Probable space group: P -1
;
_chemical_formula_sum "Si O2"
_cell_formula_units_Z 16
_cell_length_a 17.646987
_cell_length_b 11.359820
_cell_length_c 12.990540
_cell_angle_alpha 157.676087
_cell_angle_beta 55.065055
_cell_angle_gamma 122.208478
_cell_volume 810.882415
_symmetry_space_group_name_H-M "P -1"
_symmetry_group_IT_number 2
_symmetry_cell_setting 'triclinic'
loop_
_space_group_symop_operation_xyz
x,y,z
-x,-y,-z
loop_
_atom_site_type_symbol
_atom_site_label
_atom_site_fract_x
_atom_site_fract_y
_atom_site_fract_z
Si Si1 0.799396 0.274179 0.447178
Si Si2 0.917191 0.814190 0.087709
Si Si3 0.193213 0.126032 0.297535
Si Si4 0.613435 0.821364 0.732239
Si Si5 0.065152 0.711359 0.187682
Si Si6 0.036661 0.411245 0.538274
Si Si7 0.285575 0.103540 0.981006
Si Si8 0.454631 0.857275 0.754679
O O1 0.897392 0.448033 0.487119
O O2 0.733685 0.546343 0.755851
O O3 0.825157 0.999620 0.281806
O O4 0.756520 0.130707 0.259717
O O5 0.903866 0.513915 0.926729
O O6 0.989247 0.075860 0.285885
O O7 0.962531 0.667114 0.832010
O O8 0.149920 0.833231 0.151975
O O9 0.278070 0.239193 0.393490
O O10 0.108995 0.362080 0.536554
O O11 0.232294 0.069214 0.105311
O O12 0.562957 0.912152 0.738707
O O13 0.564457 0.500452 0.544466
O O14 0.590939 0.070447 0.039455
O O15 0.000000 0.000000 0.500000
O O16 0.000000 0.500000 0.000000
O O17 0.393197 0.046692 0.875683
#
# Coordination Sequence:
#
# PCOD9093584 Si02
#       8
#     2   2   2   2   2   2   2   2
#     4  11  22  33  52  75  99 132 173 209 259 297
#     4  12  22  37  49  72  97 138 174 216 245 294
#     4  10  20  35  52  76 102 135 175 199 261 294
#     4   9  18  28  50  74 105 131 158 204 241 329
#     4  12  24  38  53  70 101 141 178 214 248 292
#     4  11  20  33  52  70 102 127 171 215 258 292
#     4  10  20  33  54  76 104 132 161 214 254 316
#     4   9  16  31  47  77 105 129 156 194 270 300
#
# _framework density 19.731591999999999
#
# number of rings (size 3 to 8) (size 9 to 14) (size 15 to 20)
#    0.000    1.500    2.500    5.250    0.000    3.000 
#    0.000    0.000    0.000    0.000    0.000    1.750 
#    0.000    0.000    0.000    0.750    0.000    0.000 
#
# Total GULP energy -89231.965176 kJ/mol
# GULP energy per Si atom -5576.997824 kJ/mol
# Density = 1.968668 g / cm^3
# Si number density = 19.731592 Si / 1000 Ang^3
#
#
#
# Elastic Constant Matrix: (Units=GPa)
#
#
# Indices 1 2 3 4 5 6 
#
# 1 125.6552 14.2101 33.1948 11.4779 -8.4940 -5.0633
# 2 14.2101 27.0032 3.0119 16.5696 -4.5891 -9.6272
# 3 33.1948 3.0119 114.3282 6.5740 -8.5786 -6.2924
# 4 11.4779 16.5696 6.5740 22.0495 -8.7326 -5.1461
# 5 -8.4940 -4.5891 -8.5786 -8.7326 40.6511 8.6815
# 6 -5.0633 -9.6272 -6.2924 -5.1461 8.6815 13.9000
#
#
#
# Elastic Compliance Matrix: (Units=1/GPa)
#
#
# Indices 1 2 3 4 5 6 
#
# 1 0.009214 -0.004845 -0.002548 -0.000401 0.001191 -0.002045
# 2 -0.004845 0.092753 0.004262 -0.062214 -0.013665 0.049907
# 3 -0.002548 0.004262 0.009871 -0.003566 0.000186 0.005056
# 4 -0.000401 -0.062214 -0.003566 0.095388 0.016925 -0.020106
# 5 0.001191 -0.013665 0.000186 0.016925 0.031794 -0.022538
# 6 -0.002045 0.049907 0.005056 -0.020106 -0.022538 0.114684
#
#
# Mechanical properties :
#
#
# Convention : Reuss Voigt Hill
#
# Bulk Modulus (GPa) = 9.47172 40.86889 25.17031
# Shear Modulus (GPa) = 12.65315 29.75811 21.20563
#
# Velocity S-wave (km/s) = 2.53507 3.88770 3.28183
# Velocity P-wave (km/s) = 3.65779 6.39606 5.21004
#
# Compressibility (1/GPa) = 0.10557746
#
# Stress axis : x y z
#
# Youngs Moduli (GPa) = 108.53024 10.78130 101.30186
#
# Poissons Ratio (x) = 0.05224 0.25809
# Poissons Ratio (y) = 0.52583 -0.43176
# Poissons Ratio (z) = 0.27651 -0.04595
#
# Static dielectric constant tensor:
#      x y z
#    x 1.791220 -0.061400 -0.047990 
#    y -0.061400 1.992980 0.109020 
#    z -0.047990 0.109020 1.747720 
# 
# From -- ./inp_files/538123.got.cif
#   From: 2010.05.17/outbox.cif.g08.bks.cpg/sg2_270_cif.got.tgz:538123.got - 2010.06.03 11:33:40.
