data_PCOD9093944
_publ_section_title
;
Structure prediction by ZEFSAII (Michael W. Deem and Ramdas Pophale) SiO2 
 PCOD9093944
Probable space group: P -1
;
_chemical_formula_sum "Si O2"
_cell_formula_units_Z 16
_cell_length_a 12.590652
_cell_length_b 9.378673
_cell_length_c 13.709835
_cell_angle_alpha 41.448320
_cell_angle_beta 56.060231
_cell_angle_gamma 34.405038
_cell_volume 597.640830
_symmetry_space_group_name_H-M "P -1"
_symmetry_group_IT_number 2
_symmetry_cell_setting 'triclinic'
loop_
_space_group_symop_operation_xyz
x,y,z
-x,-y,-z
loop_
_atom_site_type_symbol
_atom_site_label
_atom_site_fract_x
_atom_site_fract_y
_atom_site_fract_z
Si Si1 0.921154 0.644724 0.277683
Si Si2 0.005467 0.895344 0.441831
Si Si3 0.323731 0.299738 0.284874
Si Si4 0.193331 0.831757 0.183558
Si Si5 0.792840 0.261014 0.060748
Si Si6 0.408281 0.342057 0.845945
Si Si7 0.433080 0.686336 0.539849
Si Si8 0.869883 0.635814 0.093329
O O1 0.976871 0.527548 0.196360
O O2 0.865416 0.482510 0.429016
O O3 0.109496 0.481498 0.321331
O O4 0.780366 0.022907 0.162764
O O5 0.093261 0.920324 0.294255
O O6 0.789743 0.081331 0.441987
O O7 0.000000 0.000000 0.500000
O O8 0.347675 0.455031 0.273738
O O9 0.447428 0.927855 0.409016
O O10 0.301276 0.461406 0.112398
O O11 0.016793 0.026405 0.093221
O O12 0.259548 0.989586 0.042241
O O13 0.693280 0.438110 0.121215
O O14 0.526266 0.392211 0.714520
O O15 0.247271 0.438945 0.805966
O O16 0.500000 0.000000 0.000000
O O17 0.500000 0.500000 0.500000
O O18 0.000000 0.500000 0.000000
#
# Coordination Sequence:
#
# PCOD9093944 Si02
#       8
#     2   2   2   2   2   2   2   2
#     4  10  20  33  62  93 129 160 200 263 315 365
#     4  11  23  38  61 100 129 162 207 266 318 365
#     4  10  20  36  64  98 127 159 211 261 321 366
#     4  11  20  36  66  98 130 161 206 264 318 372
#     4  11  19  39  61  96 129 161 211 255 320 374
#     4  12  26  41  63  93 127 171 214 256 311 382
#     4  11  24  42  64  86 126 171 210 255 314 378
#     4  12  20  39  66  94 126 162 210 260 312 373
#
# _framework density 26.771933000000001
#
# number of rings (size 3 to 8) (size 9 to 14) (size 15 to 20)
#    0.000    1.000    5.000    3.000    1.750    4.500 
#    0.000    0.625    2.750    1.500    0.000    0.000 
#    0.000    0.000    0.000    0.000    0.000    0.000 
#
# Total GULP energy -89392.622853 kJ/mol
# GULP energy per Si atom -5587.038928 kJ/mol
# Density = 2.671100 g / cm^3
# Si number density = 26.771933 Si / 1000 Ang^3
#
#
#
# Elastic Constant Matrix: (Units=GPa)
#
#
# Indices 1 2 3 4 5 6 
#
# 1 71.4503 25.1017 26.4469 -7.8323 -14.9996 6.2858
# 2 25.1017 105.4263 45.3161 -18.9194 -23.5483 19.6205
# 3 26.4469 45.3161 209.3259 -31.7976 -38.1493 24.9464
# 4 -7.8323 -18.9194 -31.7976 47.9233 18.2363 -4.9355
# 5 -14.9996 -23.5483 -38.1493 18.2363 37.9127 -11.1138
# 6 6.2858 19.6205 24.9464 -4.9355 -11.1138 49.0820
#
#
#
# Elastic Compliance Matrix: (Units=1/GPa)
#
#
# Indices 1 2 3 4 5 6 
#
# 1 0.016035 -0.002690 -0.000794 -0.000545 0.004233 0.000329
# 2 -0.002690 0.012308 -0.000973 0.002042 0.003730 -0.003031
# 3 -0.000794 -0.000973 0.006312 0.001983 0.004006 -0.001611
# 4 -0.000545 0.002042 0.001983 0.026625 -0.010162 -0.001378
# 5 0.004233 0.003730 0.004006 -0.010162 0.040482 0.004075
# 6 0.000329 -0.003031 -0.001611 -0.001378 0.004075 0.023146
#
#
# Mechanical properties :
#
#
# Convention : Reuss Voigt Hill
#
# Bulk Modulus (GPa) = 38.85180 64.43690 51.64435
# Shear Modulus (GPa) = 35.11187 46.27278 40.69233
#
# Velocity S-wave (km/s) = 3.62542 4.16192 3.90290
# Velocity P-wave (km/s) = 5.66291 6.87143 6.29623
#
# Compressibility (1/GPa) = 0.02573883
#
# Stress axis : x y z
#
# Youngs Moduli (GPa) = 62.36512 81.24869 158.43759
#
# Poissons Ratio (x) = 0.21857 0.12582
# Poissons Ratio (y) = 0.16777 0.15422
# Poissons Ratio (z) = 0.04953 0.07909
#
# Static dielectric constant tensor:
#      x y z
#    x 2.296810 -0.028530 0.162870 
#    y -0.028530 2.060210 -0.096830 
#    z 0.162870 -0.096830 2.339210 
# 
# From -- ./inp_files/528082.got.cif
#   From: 2010.05.17/outbox.cif.g08.bks.cpg/sg2_265_cif.got.tgz:528082.got - 2010.06.03 11:33:40.
