data_PCOD9093486
_publ_section_title
;
Structure prediction by ZEFSAII (Michael W. Deem and Ramdas Pophale) SiO2 
 PCOD9093486
Probable space group: P -1
;
_chemical_formula_sum "Si O2"
_cell_formula_units_Z 16
_cell_length_a 5.067364
_cell_length_b 4.952626
_cell_length_c 23.109794
_cell_angle_alpha 111.427324
_cell_angle_beta 95.131701
_cell_angle_gamma 82.818085
_cell_volume 535.055781
_symmetry_space_group_name_H-M "P -1"
_symmetry_group_IT_number 2
_symmetry_cell_setting 'triclinic'
loop_
_space_group_symop_operation_xyz
x,y,z
-x,-y,-z
loop_
_atom_site_type_symbol
_atom_site_label
_atom_site_fract_x
_atom_site_fract_y
_atom_site_fract_z
Si Si1 0.418397 0.684744 0.596554
Si Si2 0.037188 0.694859 0.443954
Si Si3 0.188205 0.816049 0.334916
Si Si4 0.416075 0.008986 0.157263
Si Si5 0.381825 0.711568 0.721060
Si Si6 0.199936 0.734240 0.037590
Si Si7 0.759858 0.265787 0.084191
Si Si8 0.968336 0.556279 0.209503
O O1 0.656543 0.437650 0.563621
O O2 0.260485 0.765690 0.660553
O O3 0.167425 0.525764 0.553835
O O4 0.606318 0.956267 0.622762
O O5 0.983165 0.783322 0.381339
O O6 0.000000 0.000000 0.500000
O O7 0.362604 0.499881 0.311165
O O8 0.093350 0.821077 0.265477
O O9 0.557173 0.998789 0.221329
O O10 0.593710 0.108920 0.115954
O O11 0.193535 0.279755 0.185690
O O12 0.312301 0.724435 0.104421
O O13 0.227596 0.546567 0.753105
O O14 0.372797 0.716604 0.980552
O O15 0.026678 0.048691 0.061754
O O16 0.000000 0.500000 0.000000
O O17 0.841306 0.550284 0.142088
#
# Coordination Sequence:
#
# PCOD9093486 Si02
#       8
#     2   2   2   2   2   2   2   2
#     4  11  24  40  68  95 123 171 210 253 309 366
#     4  11  25  44  64  94 133 166 206 257 305 365
#     4  10  22  38  64  91 124 160 206 257 305 369
#     4   9  18  34  55  77 111 153 185 244 305 355
#     4   9  19  38  58  85 121 154 199 254 305 365
#     4  10  20  33  51  76 105 145 193 243 290 360
#     4   9  19  35  53  74 108 148 188 238 302 358
#     4   9  17  36  58  79 115 151 191 248 309 354
#
# _framework density 29.903423
#
# number of rings (size 3 to 8) (size 9 to 14) (size 15 to 20)
#    0.000    2.250    1.250    0.750    1.750    2.500 
#    0.000   11.250    0.000    0.000    0.000    0.000 
#    0.000    0.000    0.000    0.000    0.000    0.000 
#
# Total GULP energy -89376.238245 kJ/mol
# GULP energy per Si atom -5586.014890 kJ/mol
# Density = 2.983536 g / cm^3
# Si number density = 29.903423 Si / 1000 Ang^3
#
#
#
# Elastic Constant Matrix: (Units=GPa)
#
#
# Indices 1 2 3 4 5 6 
#
# 1 114.0732 28.2263 72.7747 -1.4763 4.9589 24.1576
# 2 28.2263 103.6057 54.0545 5.3362 0.9144 28.1247
# 3 72.7747 54.0545 286.8937 36.5964 -9.7487 10.1533
# 4 -1.4763 5.3362 36.5964 68.1468 3.5227 -8.9309
# 5 4.9589 0.9144 -9.7487 3.5227 68.5622 -1.6838
# 6 24.1576 28.1247 10.1533 -8.9309 -1.6838 52.5392
#
#
#
# Elastic Compliance Matrix: (Units=1/GPa)
#
#
# Indices 1 2 3 4 5 6 
#
# 1 0.011797 -0.000540 -0.002962 0.001390 -0.001446 -0.004372
# 2 -0.000540 0.012541 -0.001927 -0.000749 -0.000517 -0.006236
# 3 -0.002962 -0.001927 0.004915 -0.002470 0.001092 0.001059
# 4 0.001390 -0.000749 -0.002470 0.016547 -0.001218 0.003013
# 5 -0.001446 -0.000517 0.001092 -0.001218 0.014939 0.001002
# 6 -0.004372 -0.006236 0.001059 0.003013 0.001002 0.024722
#
#
# Mechanical properties :
#
#
# Convention : Reuss Voigt Hill
#
# Bulk Modulus (GPa) = 54.36886 90.52040 72.44463
# Shear Modulus (GPa) = 48.80388 61.15078 54.97733
#
# Velocity S-wave (km/s) = 4.04425 4.52701 4.29242
# Velocity P-wave (km/s) = 6.32684 7.59353 6.98894
#
# Compressibility (1/GPa) = 0.01839288
#
# Stress axis : x y z
#
# Youngs Moduli (GPa) = 84.76960 79.74101 203.46390
#
# Poissons Ratio (x) = 0.04308 0.60274
# Poissons Ratio (y) = 0.04579 0.39208
# Poissons Ratio (z) = 0.25112 0.15366
#
# Static dielectric constant tensor:
#      x y z
#    x 2.715820 -0.280830 0.344200 
#    y -0.280830 2.539250 -0.182750 
#    z 0.344200 -0.182750 2.416090 
# 
# From -- ./inp_files/10823.got.cif
#   From: 2010.05.17/outbox.cif.g08.bks.cpg/sg2_6_cif.got.tgz:10823.got - 2010.06.03 11:33:40.
