data_PCOD9093358
_publ_section_title
;
Structure prediction by ZEFSAII (Michael W. Deem and Ramdas Pophale) SiO2 
 PCOD9093358
Probable space group: P -1
;
_chemical_formula_sum "Si O2"
_cell_formula_units_Z 16
_cell_length_a 11.459810
_cell_length_b 14.754638
_cell_length_c 9.667249
_cell_angle_alpha 74.590198
_cell_angle_beta 125.397674
_cell_angle_gamma 142.629851
_cell_volume 743.539366
_symmetry_space_group_name_H-M "P -1"
_symmetry_group_IT_number 2
_symmetry_cell_setting 'triclinic'
loop_
_space_group_symop_operation_xyz
x,y,z
-x,-y,-z
loop_
_atom_site_type_symbol
_atom_site_label
_atom_site_fract_x
_atom_site_fract_y
_atom_site_fract_z
Si Si1 0.873407 0.247322 0.146133
Si Si2 0.161636 0.379633 0.005792
Si Si3 0.353252 0.056136 0.789236
Si Si4 0.996687 0.510490 0.161311
Si Si5 0.310042 0.965489 0.309204
Si Si6 0.716392 0.911114 0.974191
Si Si7 0.303204 0.260843 0.180956
Si Si8 0.558438 0.808676 0.488226
O O1 0.938944 0.374799 0.227801
O O2 0.838895 0.132677 0.252371
O O3 0.616046 0.141987 0.939481
O O4 0.063155 0.331501 0.116570
O O5 0.190248 0.503916 0.933242
O O6 0.355574 0.398154 0.130606
O O7 0.939917 0.222082 0.821385
O O8 0.331350 0.107107 0.890288
O O9 0.338529 0.114959 0.623340
O O10 0.269802 0.682315 0.332148
O O11 0.000000 0.500000 0.000000
O O12 0.285300 0.041294 0.362701
O O13 0.500000 0.000000 0.500000
O O14 0.409786 0.066192 0.195777
O O15 0.641049 0.777021 0.895509
O O16 0.008165 0.088211 0.075784
O O17 0.427226 0.285816 0.394354
#
# Coordination Sequence:
#
# PCOD9093358 Si02
#       8
#     2   2   2   2   2   2   2   2
#     4  10  20  33  57  83 112 144 185 224 290 325
#     4  10  17  36  58  79 112 148 180 230 272 326
#     4  11  19  34  58  86 110 145 183 237 281 319
#     4  10  19  36  54  84 112 149 185 229 272 341
#     4  10  16  29  52  84 105 136 186 227 260 325
#     4   9  19  33  53  76 120 147 175 226 286 322
#     4   9  19  35  53  84 112 149 185 221 272 342
#     4  11  21  32  58  89 111 141 192 230 271 329
#
# _framework density 21.518699999999999
#
# number of rings (size 3 to 8) (size 9 to 14) (size 15 to 20)
#    0.000    2.000    6.250    0.750    1.750    0.500 
#    0.000    2.500    0.000    7.500    0.000    0.000 
#    0.000    1.250    0.000    0.000    0.000    0.000 
#
# Total GULP energy -89187.015561 kJ/mol
# GULP energy per Si atom -5574.188473 kJ/mol
# Density = 2.146972 g / cm^3
# Si number density = 21.518700 Si / 1000 Ang^3
#
#
#
# Elastic Constant Matrix: (Units=GPa)
#
#
# Indices 1 2 3 4 5 6 
#
# 1 75.7556 37.9493 25.9256 -19.4416 -7.4399 -32.6915
# 2 37.9493 78.8954 28.9310 -6.1111 -9.6173 -27.0658
# 3 25.9256 28.9310 86.3378 -27.3932 -3.5152 -12.8265
# 4 -19.4416 -6.1111 -27.3932 22.7404 -3.3278 2.0235
# 5 -7.4399 -9.6173 -3.5152 -3.3278 32.9993 -3.6945
# 6 -32.6915 -27.0658 -12.8265 2.0235 -3.6945 35.8233
#
#
#
# Elastic Compliance Matrix: (Units=1/GPa)
#
#
# Indices 1 2 3 4 5 6 
#
# 1 0.041903 -0.005440 0.009912 0.045601 0.017650 0.036923
# 2 -0.005440 0.020711 -0.005611 -0.006006 0.004669 0.009495
# 3 0.009912 -0.005611 0.024087 0.036090 0.008174 0.012235
# 4 0.045601 -0.006006 0.036090 0.125135 0.030148 0.046039
# 5 0.017650 0.004669 0.008174 0.030148 0.042379 0.025229
# 6 0.036923 0.009495 0.012235 0.046039 0.025229 0.073166
#
#
# Mechanical properties :
#
#
# Convention : Reuss Voigt Hill
#
# Bulk Modulus (GPa) = 11.84516 47.40009 29.62263
# Shear Modulus (GPa) = 13.97425 28.19145 21.08285
#
# Velocity S-wave (km/s) = 2.55110 3.62344 3.13348
# Velocity P-wave (km/s) = 3.76749 6.29134 5.18532
#
# Compressibility (1/GPa) = 0.08442264
#
# Stress axis : x y z
#
# Youngs Moduli (GPa) = 23.86448 48.28446 41.51579
#
# Poissons Ratio (x) = 0.26267 -0.41152
# Poissons Ratio (y) = 0.12982 0.23296
# Poissons Ratio (z) = -0.23655 0.27095
#
# Static dielectric constant tensor:
#      x y z
#    x 1.791650 -0.028000 0.028080 
#    y -0.028000 1.863220 -0.007670 
#    z 0.028080 -0.007670 1.799500 
# 
# From -- ./inp_files/270241.got.cif
#   From: 2010.05.17/outbox.cif.g08.bks.cpg/sg2_136_cif.got.tgz:270241.got - 2010.06.03 11:33:40.
