data_PCOD9093599
_publ_section_title
;
Structure prediction by ZEFSAII (Michael W. Deem and Ramdas Pophale) SiO2 
 PCOD9093599
Probable space group: P -1
;
_chemical_formula_sum "Si O2"
_cell_formula_units_Z 16
_cell_length_a 23.930287
_cell_length_b 22.062759
_cell_length_c 9.376522
_cell_angle_alpha 39.719205
_cell_angle_beta 133.425798
_cell_angle_gamma 163.037258
_cell_volume 891.429847
_symmetry_space_group_name_H-M "P -1"
_symmetry_group_IT_number 2
_symmetry_cell_setting 'triclinic'
loop_
_space_group_symop_operation_xyz
x,y,z
-x,-y,-z
loop_
_atom_site_type_symbol
_atom_site_label
_atom_site_fract_x
_atom_site_fract_y
_atom_site_fract_z
Si Si1 0.856710 0.260536 0.751070
Si Si2 0.906275 0.236716 0.355289
Si Si3 0.137572 0.907203 0.753194
Si Si4 0.134333 0.893782 0.168721
Si Si5 0.807128 0.593776 0.920025
Si Si6 0.453606 0.882288 0.766056
Si Si7 0.297613 0.792041 0.939387
Si Si8 0.538987 0.652922 0.256409
O O1 0.801601 0.130400 0.757163
O O2 0.000000 0.500000 0.500000
O O3 0.673315 0.098730 0.803857
O O4 0.939500 0.279572 0.974640
O O5 0.846869 0.097289 0.376712
O O6 0.900988 0.174959 0.606963
O O7 0.764880 0.168800 0.233139
O O8 0.121933 0.527070 0.174400
O O9 0.969522 0.789474 0.723979
O O10 0.338501 0.162114 0.729143
O O11 0.938248 0.712311 0.073511
O O12 0.313616 0.167206 0.945820
O O13 0.663559 0.520328 0.814131
O O14 0.664752 0.344704 0.079896
O O15 0.341357 0.811678 0.818349
O O16 0.500000 0.000000 0.500000
O O17 0.500000 0.000000 0.000000
O O18 0.500000 0.500000 0.500000
#
# Coordination Sequence:
#
# PCOD9093599 Si02
#       8
#     2   2   2   2   2   2   2   2
#     4  10  20  33  54  80 121 157 204 247 283 333
#     4  11  24  40  52  85 136 163 202 241 296 358
#     4  10  21  38  60  84 119 159 192 249 302 349
#     4  10  23  36  59  88 118 159 192 252 302 356
#     4  10  20  39  60  87 115 149 204 246 301 351
#     4  12  20  33  56  84 116 159 207 239 279 344
#     4  11  26  35  54  84 126 177 207 233 283 352
#     4  10  22  43  69  91 110 144 203 264 311 356
#
# _framework density 17.948692000000001
#
# number of rings (size 3 to 8) (size 9 to 14) (size 15 to 20)
#    0.000    1.750    3.750    3.000    7.000    2.000 
#    0.000    0.625    0.000    1.500    0.000    0.000 
#    0.000    0.000    0.000    0.000    0.000    0.000 
#
# Total GULP energy -89228.054097 kJ/mol
# GULP energy per Si atom -5576.753381 kJ/mol
# Density = 1.790784 g / cm^3
# Si number density = 17.948692 Si / 1000 Ang^3
#
#
#
# Elastic Constant Matrix: (Units=GPa)
#
#
# Indices 1 2 3 4 5 6 
#
# 1 84.9093 50.7261 63.6587 10.5358 -20.8935 3.4858
# 2 50.7261 113.5508 39.8007 5.0208 -3.3957 22.2904
# 3 63.6587 39.8007 120.0169 1.1076 -12.5957 -0.2762
# 4 10.5358 5.0208 1.1076 19.5487 -3.3158 -3.7760
# 5 -20.8935 -3.3957 -12.5957 -3.3158 35.8905 3.9777
# 6 3.4858 22.2904 -0.2762 -3.7760 3.9777 28.3784
#
#
#
# Elastic Compliance Matrix: (Units=1/GPa)
#
#
# Indices 1 2 3 4 5 6 
#
# 1 0.029743 -0.008248 -0.011739 -0.011390 0.011407 -0.000403
# 2 -0.008248 0.014851 -0.000840 -0.001811 -0.002692 -0.010524
# 3 -0.011739 -0.000840 0.014623 0.006078 -0.001583 0.003275
# 4 -0.011390 -0.001811 0.006078 0.059444 -0.000378 0.010843
# 5 0.011407 -0.002692 -0.001583 -0.000378 0.034116 -0.004134
# 6 -0.000403 -0.010524 0.003275 0.010843 -0.004134 0.045608
#
#
# Mechanical properties :
#
#
# Convention : Reuss Voigt Hill
#
# Bulk Modulus (GPa) = 56.94322 69.64978 63.29650
# Shear Modulus (GPa) = 20.33396 27.71627 24.02511
#
# Velocity S-wave (km/s) = 3.36950 3.93389 3.66258
# Velocity P-wave (km/s) = 6.85073 7.71512 7.29574
#
# Compressibility (1/GPa) = 0.01756135
#
# Stress axis : x y z
#
# Youngs Moduli (GPa) = 33.62136 67.33455 68.38622
#
# Poissons Ratio (x) = 0.55540 0.80282
# Poissons Ratio (y) = 0.27732 0.05745
# Poissons Ratio (z) = 0.39470 0.05657
#
# Static dielectric constant tensor:
#      x y z
#    x 1.652170 0.039390 -0.002200 
#    y 0.039390 1.833000 0.036670 
#    z -0.002200 0.036670 1.612040 
# 
# From -- ./inp_files/349437.got.cif
#   From: 2010.05.17/outbox.cif.g08.bks.cpg/sg2_175_cif.got.tgz:349437.got - 2010.06.03 11:33:40.
