data_PCOD9093609
_publ_section_title
;
Structure prediction by ZEFSAII (Michael W. Deem and Ramdas Pophale) SiO2 
 PCOD9093609
Probable space group: P -1
;
_chemical_formula_sum "Si O2"
_cell_formula_units_Z 16
_cell_length_a 11.333526
_cell_length_b 8.351015
_cell_length_c 12.473553
_cell_angle_alpha 84.676566
_cell_angle_beta 125.837318
_cell_angle_gamma 121.286671
_cell_volume 778.934330
_symmetry_space_group_name_H-M "P -1"
_symmetry_group_IT_number 2
_symmetry_cell_setting 'triclinic'
loop_
_space_group_symop_operation_xyz
x,y,z
-x,-y,-z
loop_
_atom_site_type_symbol
_atom_site_label
_atom_site_fract_x
_atom_site_fract_y
_atom_site_fract_z
Si Si1 0.469168 0.253310 0.705798
Si Si2 0.308029 0.123033 0.167666
Si Si3 0.381053 0.452864 0.043981
Si Si4 0.228371 0.725071 0.418002
Si Si5 0.176213 0.716588 0.071454
Si Si6 0.847207 0.393010 0.158873
Si Si7 0.607370 0.817565 0.562137
Si Si8 0.315523 0.814782 0.689971
O O1 0.495657 0.401291 0.802524
O O2 0.661119 0.285435 0.794898
O O3 0.397755 0.268523 0.551769
O O4 0.347123 0.026804 0.693121
O O5 0.284467 0.236887 0.055274
O O6 0.319684 0.209462 0.286744
O O7 0.495639 0.152404 0.237295
O O8 0.170697 0.888099 0.109983
O O9 0.500000 0.500000 0.000000
O O10 0.239768 0.497142 0.934125
O O11 0.403131 0.734295 0.482490
O O12 0.197084 0.697561 0.530846
O O13 0.056417 0.553356 0.276014
O O14 0.286023 0.945889 0.410520
O O15 0.202542 0.758525 0.954922
O O16 0.000000 0.500000 0.000000
O O17 0.761130 0.288782 0.231768
#
# Coordination Sequence:
#
# PCOD9093609 Si02
#       8
#     2   2   2   2   2   2   2   2
#     4   9  20  34  56  80 103 141 186 221 269 317
#     4  10  20  35  56  80 108 149 178 213 273 323
#     4  11  23  36  52  77 116 150 179 213 266 329
#     4   9  17  32  57  85 105 133 178 232 274 312
#     4  10  20  33  54  82 110 137 179 226 272 315
#     4  11  20  32  55  80 114 139 179 227 265 321
#     4   9  17  35  58  78 108 136 178 228 272 316
#     4   9  18  33  56  82 102 139 184 229 266 313
#
# _framework density 20.540884999999999
#
# number of rings (size 3 to 8) (size 9 to 14) (size 15 to 20)
#    0.000    2.250    1.250    4.125    1.750    2.000 
#    0.000    5.625    0.000    9.000    0.000    0.000 
#    0.000    0.000    0.000    0.000    0.000    0.000 
#
# Total GULP energy -89296.976493 kJ/mol
# GULP energy per Si atom -5581.061031 kJ/mol
# Density = 2.049413 g / cm^3
# Si number density = 20.540885 Si / 1000 Ang^3
#
#
#
# Elastic Constant Matrix: (Units=GPa)
#
#
# Indices 1 2 3 4 5 6 
#
# 1 30.7004 18.0422 22.8173 -3.7826 -21.9703 5.1777
# 2 18.0422 71.2714 40.5636 -5.4718 -14.4296 9.5123
# 3 22.8173 40.5636 114.0817 -5.9838 -32.4662 11.0766
# 4 -3.7826 -5.4718 -5.9838 33.9100 8.8528 -8.7289
# 5 -21.9703 -14.4296 -32.4662 8.8528 32.5325 0.5145
# 6 5.1777 9.5123 11.0766 -8.7289 0.5145 23.0992
#
#
#
# Elastic Compliance Matrix: (Units=1/GPa)
#
#
# Indices 1 2 3 4 5 6 
#
# 1 0.076974 -0.009089 0.005670 -0.012594 0.057389 -0.022267
# 2 -0.009089 0.019323 -0.005778 0.001388 -0.003671 -0.002543
# 3 0.005670 -0.005778 0.015367 -0.004414 0.017935 -0.008328
# 4 -0.012594 0.001388 -0.004414 0.038569 -0.023098 0.019457
# 5 0.057389 -0.003671 0.017935 -0.023098 0.092538 -0.030742
# 6 -0.022267 -0.002543 -0.008328 0.019457 -0.030742 0.061361
#
#
# Mechanical properties :
#
#
# Convention : Reuss Voigt Hill
#
# Bulk Modulus (GPa) = 10.72147 42.09999 26.41073
# Shear Modulus (GPa) = 14.13972 26.88369 20.51170
#
# Velocity S-wave (km/s) = 2.62653 3.62164 3.16346
# Velocity P-wave (km/s) = 3.79856 6.16673 5.12141
#
# Compressibility (1/GPa) = 0.09327083
#
# Stress axis : x y z
#
# Youngs Moduli (GPa) = 12.99144 51.75240 65.07388
#
# Poissons Ratio (x) = 0.47036 -0.36896
# Poissons Ratio (y) = 0.11808 0.37597
# Poissons Ratio (z) = -0.07366 0.29901
#
# Static dielectric constant tensor:
#      x y z
#    x 1.734150 0.002280 -0.038070 
#    y 0.002280 1.736530 -0.001510 
#    z -0.038070 -0.001510 1.766740 
# 
# From -- ./inp_files/175323.got.cif
#   From: 2010.05.17/outbox.cif.g08.bks.cpg/sg2_88_cif.got.tgz:175323.got - 2010.06.03 11:33:40.
