data_PCOD9093633
_publ_section_title
;
Structure prediction by ZEFSAII (Michael W. Deem and Ramdas Pophale) SiO2 
 PCOD9093633
Probable space group: P -1
;
_chemical_formula_sum "Si O2"
_cell_formula_units_Z 16
_cell_length_a 11.828818
_cell_length_b 15.643782
_cell_length_c 9.038008
_cell_angle_alpha 150.734733
_cell_angle_beta 68.383392
_cell_angle_gamma 121.416585
_cell_volume 682.626750
_symmetry_space_group_name_H-M "P -1"
_symmetry_group_IT_number 2
_symmetry_cell_setting 'triclinic'
loop_
_space_group_symop_operation_xyz
x,y,z
-x,-y,-z
loop_
_atom_site_type_symbol
_atom_site_label
_atom_site_fract_x
_atom_site_fract_y
_atom_site_fract_z
Si Si1 0.165387 0.344015 0.689551
Si Si2 0.616321 0.069217 0.242008
Si Si3 0.580601 0.317589 0.397519
Si Si4 0.540457 0.438709 0.042522
Si Si5 0.126818 0.900425 0.018948
Si Si6 0.171321 0.332333 0.325969
Si Si7 0.932963 0.145072 0.703406
Si Si8 0.693220 0.926054 0.261572
O O1 0.302133 0.498889 0.929797
O O2 0.161437 0.384678 0.579819
O O3 0.041822 0.318786 0.816779
O O4 0.159443 0.127353 0.364208
O O5 0.579209 0.228628 0.426094
O O6 0.654997 0.062638 0.382039
O O7 0.749262 0.098546 0.129620
O O8 0.490628 0.862287 0.950572
O O9 0.487459 0.429641 0.620932
O O10 0.730028 0.473960 0.516998
O O11 0.500000 0.500000 0.000000
O O12 0.437734 0.223396 0.813455
O O13 0.113729 0.806934 0.046226
O O14 0.980778 0.784709 0.838344
O O15 0.245218 0.190352 0.048836
O O16 0.807419 0.034007 0.489806
O O17 0.000000 0.000000 0.500000
#
# Coordination Sequence:
#
# PCOD9093633 Si02
#       8
#     2   2   2   2   2   2   2   2
#     4  11  19  33  57  89 115 145 190 246 288 332
#     4  11  22  41  61  82 119 158 192 233 287 349
#     4  10  24  39  59  85 118 154 195 235 288 344
#     4  11  22  36  62  90 117 148 191 243 294 333
#     4  11  20  34  59  86 116 153 188 235 294 340
#     4  11  20  35  60  89 112 144 201 247 279 330
#     4  10  20  33  54  92 117 147 184 242 291 344
#     4  11  20  35  61  90 114 148 195 243 282 340
#
# _framework density 23.438869
#
# number of rings (size 3 to 8) (size 9 to 14) (size 15 to 20)
#    0.000    1.250    5.000    3.375    1.750    2.500 
#    0.000    0.625    2.750    1.500    0.000    0.000 
#    0.000    0.000    0.000    0.000    0.000    0.000 
#
# Total GULP energy -89544.604830 kJ/mol
# GULP energy per Si atom -5596.537802 kJ/mol
# Density = 2.338552 g / cm^3
# Si number density = 23.438869 Si / 1000 Ang^3
#
#
#
# Elastic Constant Matrix: (Units=GPa)
#
#
# Indices 1 2 3 4 5 6 
#
# 1 77.2452 56.0911 85.9461 29.3185 41.0770 6.5876
# 2 56.0911 119.5141 0.9729 -10.8875 25.9629 -6.9734
# 3 85.9461 0.9729 -10.9520 -19.8299 19.3380 -13.5282
# 4 29.3185 -10.8875 -19.8299 21.4861 -2.4124 12.3508
# 5 41.0770 25.9629 19.3380 -2.4124 50.6767 -5.0585
# 6 6.5876 -6.9734 -13.5282 12.3508 -5.0585 38.6062
#
#
#
# Elastic Compliance Matrix: (Units=1/GPa)
#
#
# Indices 1 2 3 4 5 6 
#
# 1 0.003719 -0.000028 0.010374 0.003083 -0.006699 0.001132
# 2 -0.000028 0.009051 -0.004577 0.000334 -0.002897 -0.000451
# 3 0.010374 -0.004577 0.002675 -0.016338 -0.007606 0.002571
# 4 0.003083 0.000334 -0.016338 0.038128 0.003591 -0.017918
# 5 -0.006699 -0.002897 -0.007606 0.003591 0.029792 0.000709
# 6 0.001132 -0.000451 0.002571 -0.017918 0.000709 0.032354
#
#
# Mechanical properties :
#
#
# Convention : Reuss Voigt Hill
#
# Bulk Modulus (GPa) = 37.05877 52.42527 44.74202
# Shear Modulus (GPa) = 44.17966 25.00693 34.59330
#
# Velocity S-wave (km/s) = 4.34624 3.26989 3.84590
# Velocity P-wave (km/s) = 6.40559 6.05571 6.23310
#
# Compressibility (1/GPa) = 0.02698417
#
# Stress axis : x y z
#
# Youngs Moduli (GPa) = 268.88164 110.48545 373.88932
#
# Poissons Ratio (x) = 0.00306 -3.87879
# Poissons Ratio (y) = 0.00744 1.71119
# Poissons Ratio (z) = -2.78942 0.50566
#
# Static dielectric constant tensor:
#      x y z
#    x 1.858840 -0.007260 -0.052060 
#    y -0.007260 1.872580 -0.032890 
#    z -0.052060 -0.032890 1.899480 
# 
# From -- ./inp_files/188569.got.cif
#   From: 2010.05.17/outbox.cif.g08.bks.cpg/sg2_95_cif.got.tgz:188569.got - 2010.06.03 11:33:40.
