data_PCOD9093886
_publ_section_title
;
Structure prediction by ZEFSAII (Michael W. Deem and Ramdas Pophale) SiO2 
 PCOD9093886
Probable space group: P -1
;
_chemical_formula_sum "Si O2"
_cell_formula_units_Z 16
_cell_length_a 20.852779
_cell_length_b 11.518145
_cell_length_c 5.385593
_cell_angle_alpha 124.266993
_cell_angle_beta 107.175204
_cell_angle_gamma 49.053380
_cell_volume 801.797886
_symmetry_space_group_name_H-M "P -1"
_symmetry_group_IT_number 2
_symmetry_cell_setting 'triclinic'
loop_
_space_group_symop_operation_xyz
x,y,z
-x,-y,-z
loop_
_atom_site_type_symbol
_atom_site_label
_atom_site_fract_x
_atom_site_fract_y
_atom_site_fract_z
Si Si1 0.691322 0.171269 0.874375
Si Si2 0.309534 0.165861 0.530311
Si Si3 0.027816 0.845958 0.154963
Si Si4 0.588041 0.305265 0.415756
Si Si5 0.881016 0.024554 0.819138
Si Si6 0.884077 0.521203 0.319383
Si Si7 0.975122 0.652983 0.345877
Si Si8 0.412287 0.032393 0.987256
O O1 0.630335 0.285436 0.707113
O O2 0.782896 0.123547 0.878824
O O3 0.702378 0.987850 0.669278
O O4 0.650191 0.260512 0.201253
O O5 0.216704 0.355031 0.625551
O O6 0.351283 0.145404 0.819347
O O7 0.369084 0.125590 0.314445
O O8 0.095872 0.846572 0.069305
O O9 0.077463 0.639328 0.029439
O O10 0.000000 0.000000 0.500000
O O11 0.942443 0.916295 0.993118
O O12 0.500000 0.500000 0.500000
O O13 0.574091 0.154317 0.217886
O O14 0.918842 0.862170 0.467429
O O15 0.912430 0.643931 0.443592
O O16 0.938228 0.414633 0.497831
O O17 0.000000 0.500000 0.000000
O O18 0.500000 0.000000 0.000000
#
# Coordination Sequence:
#
# PCOD9093886 Si02
#       8
#     2   2   2   2   2   2   2   2
#     4  10  21  38  65  90 120 154 201 250 297 359
#     4  10  21  39  63  92 120 153 201 251 295 363
#     4  10  22  39  55  77 126 166 198 247 302 352
#     4  10  22  41  64  91 119 152 195 248 303 365
#     4  10  21  38  55  85 117 162 203 242 303 353
#     4  10  21  36  53  90 115 153 207 246 294 349
#     4  10  20  33  60  83 116 155 197 250 294 351
#     4  10  22  42  64  88 122 156 188 245 314 365
#
# _framework density 19.955155000000001
#
# number of rings (size 3 to 8) (size 9 to 14) (size 15 to 20)
#    0.000    2.000    1.250    1.500    3.500    1.000 
#    4.500    0.000    0.000    0.000    0.000    0.000 
#    0.000    0.000    0.000    0.000    0.000    0.000 
#
# Total GULP energy -89225.788145 kJ/mol
# GULP energy per Si atom -5576.611759 kJ/mol
# Density = 1.990974 g / cm^3
# Si number density = 19.955155 Si / 1000 Ang^3
#
#
#
# Elastic Constant Matrix: (Units=GPa)
#
#
# Indices 1 2 3 4 5 6 
#
# 1 131.8181 68.0347 29.9545 -6.6712 -3.0902 -15.8134
# 2 68.0347 111.8624 39.4290 3.7077 -11.7650 -14.9333
# 3 29.9545 39.4290 79.6515 -2.6996 -9.5140 -0.7831
# 4 -6.6712 3.7077 -2.6996 29.8689 6.2473 -3.0982
# 5 -3.0902 -11.7650 -9.5140 6.2473 25.3958 2.0597
# 6 -15.8134 -14.9333 -0.7831 -3.0982 2.0597 32.6512
#
#
#
# Elastic Compliance Matrix: (Units=1/GPa)
#
#
# Indices 1 2 3 4 5 6 
#
# 1 0.011997 -0.006921 -0.001333 0.004515 -0.003622 0.003270
# 2 -0.006921 0.015996 -0.004766 -0.004846 0.005729 0.003029
# 3 -0.001333 -0.004766 0.015844 0.000702 0.003604 -0.002606
# 4 0.004515 -0.004846 0.000702 0.037921 -0.011109 0.004286
# 5 -0.003622 0.005729 0.003604 -0.011109 0.045916 -0.002998
# 6 0.003270 0.003029 -0.002606 0.004286 -0.002998 0.034129
#
#
# Mechanical properties :
#
#
# Convention : Reuss Voigt Hill
#
# Bulk Modulus (GPa) = 56.18761 66.46315 61.32538
# Shear Modulus (GPa) = 25.80311 29.97744 27.89027
#
# Velocity S-wave (km/s) = 3.59981 3.88008 3.74257
# Velocity P-wave (km/s) = 6.74509 7.31108 7.03378
#
# Compressibility (1/GPa) = 0.01779752
#
# Stress axis : x y z
#
# Youngs Moduli (GPa) = 83.35464 62.51552 63.11554
#
# Poissons Ratio (x) = 0.43264 0.08415
# Poissons Ratio (y) = 0.57686 0.30080
# Poissons Ratio (z) = 0.11113 0.29794
#
# Static dielectric constant tensor:
#      x y z
#    x 1.716040 0.051720 -0.043180 
#    y 0.051720 1.695350 -0.013320 
#    z -0.043180 -0.013320 1.810820 
# 
# From -- ./inp_files/39296.got.cif
#   From: 2010.05.17/outbox.cif.g08.bks.cpg/sg2_20_cif.got.tgz:39296.got - 2010.06.03 11:33:40.
