data_PCOD9093067
_publ_section_title
;
Structure prediction by ZEFSAII (Michael W. Deem and Ramdas Pophale) SiO2 
 PCOD9093067
Probable space group: P -1
;
_chemical_formula_sum "Si O2"
_cell_formula_units_Z 16
_cell_length_a 32.513382
_cell_length_b 15.356214
_cell_length_c 5.668923
_cell_angle_alpha 111.930795
_cell_angle_beta 65.808561
_cell_angle_gamma 164.340321
_cell_volume 694.334511
_symmetry_space_group_name_H-M "P -1"
_symmetry_group_IT_number 2
_symmetry_cell_setting 'triclinic'
loop_
_space_group_symop_operation_xyz
x,y,z
-x,-y,-z
loop_
_atom_site_type_symbol
_atom_site_label
_atom_site_fract_x
_atom_site_fract_y
_atom_site_fract_z
Si Si1 0.138371 0.155233 0.825350
Si Si2 0.292668 0.667936 0.072785
Si Si3 0.830171 0.281741 0.186975
Si Si4 0.781775 0.877642 0.378204
Si Si5 0.206232 0.009719 0.036293
Si Si6 0.928516 0.959240 0.623620
Si Si7 0.160507 0.607082 0.222097
Si Si8 0.393836 0.754572 0.296373
O O1 0.205823 0.397008 0.911945
O O2 0.033610 0.928253 0.610026
O O3 0.264568 0.324446 0.704438
O O4 0.047158 0.957406 0.086012
O O5 0.477258 0.033549 0.958197
O O6 0.227490 0.634851 0.102916
O O7 0.299357 0.656684 0.322457
O O8 0.783699 0.235900 0.500077
O O9 0.019695 0.657573 0.120869
O O10 0.773589 0.061729 0.092269
O O11 0.784713 0.240754 0.005117
O O12 0.734989 0.833637 0.690187
O O13 0.972922 0.255144 0.309071
O O14 0.734716 0.827996 0.186241
O O15 0.741261 0.585879 0.669698
O O16 0.000000 0.000000 0.500000
O O17 0.500000 0.000000 0.500000
#
# Coordination Sequence:
#
# PCOD9093067 Si02
#       8
#     2   2   2   2   2   2   2   2
#     4  11  23  37  53  82 118 161 198 231 279 346
#     4  10  23  37  56  80 119 158 203 241 280 340
#     4   9  18  33  52  75 109 148 197 238 305 347
#     4  10  20  31  51  80 114 150 198 232 297 346
#     4   9  17  34  51  73 110 155 186 246 295 360
#     4  11  24  37  58  81 113 157 203 243 287 335
#     4  10  21  31  51  83 109 150 195 245 286 349
#     4  10  21  40  58  77 112 167 205 241 290 335
#
# _framework density 23.043647
#
# number of rings (size 3 to 8) (size 9 to 14) (size 15 to 20)
#    0.000    2.000    1.250    1.875    7.000    3.000 
#    0.000    0.000    0.000    0.000    0.000    0.000 
#    0.000   84.000    0.000    0.000    0.000    0.000 
#
# Total GULP energy -89073.673400 kJ/mol
# GULP energy per Si atom -5567.104587 kJ/mol
# Density = 2.299120 g / cm^3
# Si number density = 23.043647 Si / 1000 Ang^3
#
#
#
# Elastic Constant Matrix: (Units=GPa)
#
#
# Indices 1 2 3 4 5 6 
#
# 1 173.3419 23.1345 83.1712 6.0891 26.1706 -12.0716
# 2 23.1345 35.5540 24.5383 0.9551 3.3105 9.6502
# 3 83.1712 24.5383 191.7894 21.4750 25.2761 -12.3517
# 4 6.0891 0.9551 21.4750 20.3042 -3.9465 3.1459
# 5 26.1706 3.3105 25.2761 -3.9465 48.8619 4.8192
# 6 -12.0716 9.6502 -12.3517 3.1459 4.8192 14.7104
#
#
#
# Elastic Compliance Matrix: (Units=1/GPa)
#
#
# Indices 1 2 3 4 5 6 
#
# 1 0.009749 -0.010510 -0.000057 -0.006562 -0.006833 0.018488
# 2 -0.010510 0.061788 -0.013760 0.029638 0.018154 -0.072997
# 3 -0.000057 -0.013760 0.011818 -0.017577 -0.009100 0.025643
# 4 -0.006562 0.029638 -0.017577 0.083121 0.023737 -0.065138
# 5 -0.006833 0.018154 -0.009100 0.023737 0.033587 -0.041237
# 6 0.018488 -0.072997 0.025643 -0.065138 -0.041237 0.180008
#
#
# Mechanical properties :
#
#
# Convention : Reuss Voigt Hill
#
# Bulk Modulus (GPa) = 28.81723 73.59703 51.20713
# Shear Modulus (GPa) = 11.35609 34.76471 23.06040
#
# Velocity S-wave (km/s) = 2.22234 3.88834 3.16686
# Velocity P-wave (km/s) = 4.37238 7.22263 5.97010
#
# Compressibility (1/GPa) = 0.03470147
#
# Stress axis : x y z
#
# Youngs Moduli (GPa) = 102.57892 16.18435 84.61581
#
# Poissons Ratio (x) = 0.17009 0.00482
# Poissons Ratio (y) = 1.07806 1.16433
# Poissons Ratio (z) = 0.00584 0.22270
#
# Static dielectric constant tensor:
#      x y z
#    x 1.553030 0.331140 -0.438730 
#    y 0.331140 1.560140 0.451690 
#    z -0.438730 0.451690 1.356540 
# 
# From -- ./inp_files/128605.got.cif
#   From: 2010.05.17/outbox.cif.g08.bks.cpg/sg2_65_cif.got.tgz:128605.got - 2010.06.03 11:33:40.
