data_PCOD9093133
_publ_section_title
;
Structure prediction by ZEFSAII (Michael W. Deem and Ramdas Pophale) SiO2 
 PCOD9093133
Probable space group: P -1
;
_chemical_formula_sum "Si O2"
_cell_formula_units_Z 16
_cell_length_a 31.247320
_cell_length_b 9.263122
_cell_length_c 17.265166
_cell_angle_alpha 129.957905
_cell_angle_beta 163.425167
_cell_angle_gamma 41.992862
_cell_volume 887.064878
_symmetry_space_group_name_H-M "P -1"
_symmetry_group_IT_number 2
_symmetry_cell_setting 'triclinic'
loop_
_space_group_symop_operation_xyz
x,y,z
-x,-y,-z
loop_
_atom_site_type_symbol
_atom_site_label
_atom_site_fract_x
_atom_site_fract_y
_atom_site_fract_z
Si Si1 0.649651 0.236759 0.336049
Si Si2 0.132094 0.317341 0.498313
Si Si3 0.423877 0.230310 0.081565
Si Si4 0.262503 0.539197 0.171396
Si Si5 0.415686 0.820676 0.494824
Si Si6 0.167523 0.334649 0.290122
Si Si7 0.095604 0.742901 0.111043
Si Si8 0.643583 0.674736 0.249988
O O1 0.527068 0.284612 0.216490
O O2 0.789644 0.295793 0.625709
O O3 0.770932 0.958898 0.437633
O O4 0.505690 0.358515 0.057541
O O5 0.209409 0.384956 0.583754
O O6 0.217030 0.348348 0.733375
O O7 0.915113 0.439633 0.162647
O O8 0.456115 0.281252 0.240855
O O9 0.527979 0.952754 0.159278
O O10 0.276591 0.745478 0.236503
O O11 0.452313 0.306431 0.392854
O O12 0.228252 0.570509 0.214508
O O13 0.312280 0.095475 0.414080
O O14 0.260550 0.428855 0.536417
O O15 0.000000 0.500000 0.000000
O O16 0.072051 0.271991 0.167599
O O17 0.000000 0.000000 0.000000
#
# Coordination Sequence:
#
# PCOD9093133 Si02
#       8
#     2   2   2   2   2   2   2   2
#     4   9  14  24  46  72  94 121 163 202 231 279
#     4   9  14  24  44  71  94 127 156 194 239 290
#     4   8  14  25  43  68 100 122 153 196 245 281
#     4  11  19  28  49  74 104 126 159 199 247 285
#     4  10  20  32  44  74 107 126 153 207 250 281
#     4  11  21  35  53  73  97 128 166 208 244 284
#     4  12  17  31  54  76  95 131 172 195 232 297
#     4   8  15  27  45  68  94 122 160 203 239 278
#
# _framework density 18.037012000000001
#
# number of rings (size 3 to 8) (size 9 to 14) (size 15 to 20)
#    0.000    2.250    5.000    2.250    0.000    0.500 
#    0.000    1.250    0.000    0.000    0.000    0.875 
#    0.000    0.000    0.000    0.000    0.000    0.000 
#
# Total GULP energy -89114.384368 kJ/mol
# GULP energy per Si atom -5569.649023 kJ/mol
# Density = 1.799596 g / cm^3
# Si number density = 18.037012 Si / 1000 Ang^3
#
#
#
# Elastic Constant Matrix: (Units=GPa)
#
#
# Indices 1 2 3 4 5 6 
#
# 1 50.7872 15.8321 17.4699 -9.0674 -2.5915 -14.9147
# 2 15.8321 17.7583 15.2303 -1.4561 -2.4323 -12.3383
# 3 17.4699 15.2303 115.4064 13.4654 -18.3608 -3.2234
# 4 -9.0674 -1.4561 13.4654 23.7152 0.0830 1.5996
# 5 -2.5915 -2.4323 -18.3608 0.0830 38.6632 -2.3015
# 6 -14.9147 -12.3383 -3.2234 1.5996 -2.3015 18.2367
#
#
#
# Elastic Compliance Matrix: (Units=1/GPa)
#
#
# Indices 1 2 3 4 5 6 
#
# 1 0.032058 -0.013229 -0.004122 0.012742 0.000251 0.015453
# 2 -0.013229 0.135656 -0.013394 0.005536 0.005969 0.078861
# 3 -0.004122 -0.013394 0.012539 -0.008934 0.004326 -0.008887
# 4 0.012742 0.005536 -0.008934 0.051942 -0.002694 0.007692
# 5 0.000251 0.005969 0.004326 -0.002694 0.028846 0.008885
# 6 0.015453 0.078861 -0.008887 0.007692 0.008885 0.119703
#
#
# Mechanical properties :
#
#
# Convention : Reuss Voigt Hill
#
# Bulk Modulus (GPa) = 8.42011 31.22404 19.82207
# Shear Modulus (GPa) = 10.37727 25.15099 17.76413
#
# Velocity S-wave (km/s) = 2.40121 3.73823 3.14167
# Velocity P-wave (km/s) = 3.51655 5.99843 4.91667
#
# Compressibility (1/GPa) = 0.11876332
#
# Stress axis : x y z
#
# Youngs Moduli (GPa) = 31.19357 7.37156 79.75126
#
# Poissons Ratio (x) = 0.09752 0.32874
# Poissons Ratio (y) = 0.41267 1.06816
# Poissons Ratio (z) = 0.12858 0.09873
#
# Static dielectric constant tensor:
#      x y z
#    x 1.640520 0.008080 -0.036770 
#    y 0.008080 1.609030 0.020240 
#    z -0.036770 0.020240 1.669260 
# 
# From -- ./inp_files/253512.got.cif
#   From: 2010.05.17/outbox.cif.g08.bks.cpg/sg2_127_cif.got.tgz:253512.got - 2010.06.03 11:33:40.
