data_PCOD9093500
_publ_section_title
;
Structure prediction by ZEFSAII (Michael W. Deem and Ramdas Pophale) SiO2 
 PCOD9093500
Probable space group: P -1
;
_chemical_formula_sum "Si O2"
_cell_formula_units_Z 14
_cell_length_a 12.075474
_cell_length_b 19.302547
_cell_length_c 5.076466
_cell_angle_alpha 68.286342
_cell_angle_beta 66.646378
_cell_angle_gamma 43.743744
_cell_volume 744.579935
_symmetry_space_group_name_H-M "P -1"
_symmetry_group_IT_number 2
_symmetry_cell_setting 'triclinic'
loop_
_space_group_symop_operation_xyz
x,y,z
-x,-y,-z
loop_
_atom_site_type_symbol
_atom_site_label
_atom_site_fract_x
_atom_site_fract_y
_atom_site_fract_z
Si Si1 0.132464 0.596498 0.239564
Si Si2 0.458678 0.288510 0.729715
Si Si3 0.501911 0.179049 0.358912
Si Si4 0.606915 0.979546 0.675343
Si Si5 0.085993 0.402210 0.885772
Si Si6 0.368624 0.489701 0.665102
Si Si7 0.834792 0.762947 0.562939
O O1 0.247322 0.540623 0.460103
O O2 0.985914 0.714849 0.289755
O O3 0.021561 0.571471 0.303739
O O4 0.256171 0.551331 0.940718
O O5 0.531755 0.234472 0.455836
O O6 0.459641 0.371356 0.729944
O O7 0.517784 0.205551 0.013576
O O8 0.269352 0.351990 0.751618
O O9 0.318750 0.215778 0.467588
O O10 0.617805 0.063746 0.511982
O O11 0.767733 0.862923 0.641130
O O12 0.500000 0.000000 0.500000
O O13 0.500000 0.000000 0.000000
O O14 0.000000 0.500000 0.000000
O O15 0.500000 0.500000 0.500000
O O16 0.900967 0.678380 0.839415
#
# Coordination Sequence:
#
# PCOD9093500 Si02
#       7
#     2   2   2   2   2   2   2
#     4  12  22  39  58  85 113 152 193 231 288 342
#     4  11  21  35  57  81 115 149 190 228 284 338
#     4  10  20  33  53  86 115 152 184 223 278 343
#     4  10  20  33  51  80 124 159 180 216 274 349
#     4  11  20  33  55  88 120 147 181 229 284 352
#     4  12  27  42  57  80 114 154 200 243 285 337
#     4  10  21  32  55  83 122 150 183 220 282 343
#
# _framework density 18.802548000000002
#
# number of rings (size 3 to 8) (size 9 to 14) (size 15 to 20)
#    0.000    1.143    4.286    3.857    4.000    1.143 
#    0.000    0.000    0.000    0.000    0.000    6.000 
#    0.000    0.000    0.000    0.000    0.000    0.000 
#
# Total GULP energy -78015.191853 kJ/mol
# GULP energy per Si atom -5572.513704 kJ/mol
# Density = 1.875975 g / cm^3
# Si number density = 18.802548 Si / 1000 Ang^3
#
#
#
# Elastic Constant Matrix: (Units=GPa)
#
#
# Indices 1 2 3 4 5 6 
#
# 1 58.7037 35.0572 30.7258 -5.4482 -6.3812 12.6142
# 2 35.0572 117.1358 41.1216 2.5546 4.0103 20.4698
# 3 30.7258 41.1216 107.5932 8.1591 19.7847 7.0228
# 4 -5.4482 2.5546 8.1591 30.1965 2.6218 5.5475
# 5 -6.3812 4.0103 19.7847 2.6218 25.1923 0.3233
# 6 12.6142 20.4698 7.0228 5.5475 0.3233 15.2385
#
#
#
# Elastic Compliance Matrix: (Units=1/GPa)
#
#
# Indices 1 2 3 4 5 6 
#
# 1 0.031562 -0.002754 -0.010241 0.011420 0.015572 -0.022194
# 2 -0.002754 0.013018 -0.003375 0.001965 -0.000140 -0.014364
# 3 -0.010241 -0.003375 0.016039 -0.006170 -0.014116 0.008165
# 4 0.011420 0.001965 -0.006170 0.040818 0.003488 -0.024182
# 5 0.015572 -0.000140 -0.014116 0.003488 0.054495 -0.008623
# 6 -0.022194 -0.014364 0.008165 -0.024182 -0.008623 0.108514
#
#
# Mechanical properties :
#
#
# Convention : Reuss Voigt Hill
#
# Bulk Modulus (GPa) = 35.86968 55.24909 45.55939
# Shear Modulus (GPa) = 16.31427 25.89400 21.10413
#
# Velocity S-wave (km/s) = 2.94881 3.71503 3.35387
# Velocity P-wave (km/s) = 5.54188 6.91734 6.26745
#
# Compressibility (1/GPa) = 0.02787870
#
# Stress axis : x y z
#
# Youngs Moduli (GPa) = 31.68400 76.81494 62.34636
#
# Poissons Ratio (x) = 0.21158 0.63851
# Poissons Ratio (y) = 0.08727 0.21039
# Poissons Ratio (z) = 0.32449 0.25922
#
# Static dielectric constant tensor:
#      x y z
#    x 1.635800 0.020900 0.007470 
#    y 0.020900 1.813410 0.035140 
#    z 0.007470 0.035140 1.709680 
# 
# From -- ./inp_files/82130.got.cif
#   From: 2010.05.17/outbox.cif.g08.bks.cpg/sg2_42_cif.got.tgz:82130.got - 2010.06.03 11:33:40.
