data_PCOD9093085
_publ_section_title
;
Structure prediction by ZEFSAII (Michael W. Deem and Ramdas Pophale) SiO2 
 PCOD9093085
Probable space group: P -1
;
_chemical_formula_sum "Si O2"
_cell_formula_units_Z 14
_cell_length_a 14.063919
_cell_length_b 11.528629
_cell_length_c 14.315975
_cell_angle_alpha 74.151338
_cell_angle_beta 160.392551
_cell_angle_gamma 114.946335
_cell_volume 644.716205
_symmetry_space_group_name_H-M "P -1"
_symmetry_group_IT_number 2
_symmetry_cell_setting 'triclinic'
loop_
_space_group_symop_operation_xyz
x,y,z
-x,-y,-z
loop_
_atom_site_type_symbol
_atom_site_label
_atom_site_fract_x
_atom_site_fract_y
_atom_site_fract_z
Si Si1 0.282473 0.289633 0.602140
Si Si2 0.776388 0.598585 0.972914
Si Si3 0.325185 0.569588 0.412654
Si Si4 0.481143 0.898735 0.086176
Si Si5 0.271810 0.705232 0.157278
Si Si6 0.443524 0.001953 0.658318
Si Si7 0.108975 0.088637 0.981823
O O1 0.488611 0.454159 0.786748
O O2 0.314461 0.180281 0.723537
O O3 0.469828 0.277385 0.687253
O O4 0.902744 0.227124 0.238887
O O5 0.632508 0.569364 0.740596
O O6 0.843044 0.755365 0.010359
O O7 0.111363 0.594788 0.287075
O O8 0.396688 0.680830 0.375399
O O9 0.071367 0.421937 0.165851
O O10 0.596041 0.989032 0.269172
O O11 0.500000 0.000000 0.000000
O O12 0.252846 0.843683 0.116819
O O13 0.152222 0.988047 0.326746
O O14 0.553026 0.897433 0.744283
O O15 0.000000 0.000000 0.000000
#
# Coordination Sequence:
#
# PCOD9093085 Si02
#       7
#     2   2   2   2   2   2   2
#     4  10  21  36  60  86 113 147 186 245 304 349
#     4  11  21  36  52  79 116 159 200 224 273 337
#     4  10  20  31  53  78 113 154 191 235 276 334
#     4  11  23  42  67  91 112 140 189 257 321 356
#     4   9  19  33  52  82 113 144 190 241 290 336
#     4  11  22  37  57  83 115 151 196 240 288 341
#     4  12  24  37  56  83 124 169 198 225 264 336
#
# _framework density 21.714981000000002
#
# number of rings (size 3 to 8) (size 9 to 14) (size 15 to 20)
#    0.000    1.429    0.000    7.714    0.000    8.571 
#    0.000    0.000    0.000    5.143    0.000    0.000 
#    0.000    0.000    0.000    0.000    0.000    0.000 
#
# Total GULP energy -78098.083829 kJ/mol
# GULP energy per Si atom -5578.434559 kJ/mol
# Density = 2.166556 g / cm^3
# Si number density = 21.714981 Si / 1000 Ang^3
#
#
#
# Elastic Constant Matrix: (Units=GPa)
#
#
# Indices 1 2 3 4 5 6 
#
# 1 47.9021 27.4385 19.8155 -0.6707 -16.6904 12.3518
# 2 27.4385 134.6049 14.6814 -1.0175 -15.2371 1.6281
# 3 19.8155 14.6814 96.0598 -8.2180 -11.4182 -2.1544
# 4 -0.6707 -1.0175 -8.2180 37.6595 1.2617 -3.7122
# 5 -16.6904 -15.2371 -11.4182 1.2617 27.2497 -12.0594
# 6 12.3518 1.6281 -2.1544 -3.7122 -12.0594 33.8845
#
#
#
# Elastic Compliance Matrix: (Units=1/GPa)
#
#
# Indices 1 2 3 4 5 6 
#
# 1 0.031328 -0.004501 -0.004741 -0.001733 0.011382 -0.007644
# 2 -0.004501 0.008671 0.000057 0.000296 0.003157 0.002384
# 3 -0.004741 0.000057 0.012192 0.002861 0.003976 0.004229
# 4 -0.001733 0.000296 0.002861 0.027533 0.000851 0.004119
# 5 0.011382 0.003157 0.003976 0.000851 0.053781 0.015186
# 6 -0.007644 0.002384 0.004229 0.004119 0.015186 0.038309
#
#
# Mechanical properties :
#
#
# Convention : Reuss Voigt Hill
#
# Bulk Modulus (GPa) = 29.56772 44.71529 37.14150
# Shear Modulus (GPa) = 24.81911 34.20083 29.50997
#
# Velocity S-wave (km/s) = 3.38442 3.97292 3.69042
# Velocity P-wave (km/s) = 5.37757 6.45616 5.94139
#
# Compressibility (1/GPa) = 0.03382067
#
# Stress axis : x y z
#
# Youngs Moduli (GPa) = 31.92023 115.32422 82.02313
#
# Poissons Ratio (x) = 0.51909 0.38889
# Poissons Ratio (y) = 0.14368 -0.00470
# Poissons Ratio (z) = 0.15134 -0.00660
#
# Static dielectric constant tensor:
#      x y z
#    x 1.811490 0.006100 0.002010 
#    y 0.006100 1.904680 0.033490 
#    z 0.002010 0.033490 1.813600 
# 
# From -- ./inp_files/454843.got.cif
#   From: 2010.05.17/outbox.cif.g08.bks.cpg/sg2_228_cif.got.tgz:454843.got - 2010.06.03 11:33:40.
