data_PCOD9093528
_publ_section_title
;
Structure prediction by ZEFSAII (Michael W. Deem and Ramdas Pophale) SiO2 
 PCOD9093528
Probable space group: P -1
;
_chemical_formula_sum "Si O2"
_cell_formula_units_Z 16
_cell_length_a 14.707087
_cell_length_b 16.334666
_cell_length_c 9.298704
_cell_angle_alpha 38.016627
_cell_angle_beta 136.728125
_cell_angle_gamma 141.509044
_cell_volume 819.295848
_symmetry_space_group_name_H-M "P -1"
_symmetry_group_IT_number 2
_symmetry_cell_setting 'triclinic'
loop_
_space_group_symop_operation_xyz
x,y,z
-x,-y,-z
loop_
_atom_site_type_symbol
_atom_site_label
_atom_site_fract_x
_atom_site_fract_y
_atom_site_fract_z
Si Si1 0.275700 0.323475 0.468637
Si Si2 0.528580 0.358633 0.251946
Si Si3 0.217452 0.135176 0.103649
Si Si4 0.879194 0.411244 0.860173
Si Si5 0.143793 0.414188 0.678921
Si Si6 0.964082 0.721368 0.962298
Si Si7 0.040623 0.031574 0.759212
Si Si8 0.437273 0.646541 0.364982
O O1 0.205630 0.355175 0.199423
O O2 0.127834 0.191278 0.558577
O O3 0.357420 0.469960 0.463608
O O4 0.403463 0.275396 0.646415
O O5 0.398129 0.213775 0.220513
O O6 0.704177 0.429848 0.314606
O O7 0.516255 0.330859 0.446382
O O8 0.500000 0.500000 0.000000
O O9 0.179948 0.275880 0.877868
O O10 0.149458 0.049913 0.994488
O O11 0.122334 0.020930 0.281443
O O12 0.899210 0.535805 0.588351
O O13 0.707274 0.326287 0.843282
O O14 0.000000 0.500000 0.000000
O O15 0.924529 0.299035 0.987985
O O16 0.039868 0.354790 0.782600
O O17 0.016165 0.896245 0.813301
#
# Coordination Sequence:
#
# PCOD9093528 Si02
#       8
#     2   2   2   2   2   2   2   2
#     4  11  20  35  56  84 113 140 186 234 278 325
#     4   9  15  29  52  79 108 137 174 227 282 317
#     4   9  18  33  55  83 114 142 189 225 286 325
#     4  11  21  38  55  82 115 148 183 231 284 327
#     4   9  19  34  57  82 109 145 185 238 274 323
#     4  11  22  35  56  85 116 148 188 221 280 338
#     4  10  20  33  52  82 115 151 180 230 271 338
#     4  10  21  34  56  83 110 140 186 234 279 327
#
# _framework density 19.528967000000002
#
# number of rings (size 3 to 8) (size 9 to 14) (size 15 to 20)
#    0.000    2.000    1.250    5.250    0.000    1.000 
#    0.000    0.625    0.000    3.000    0.000    0.000 
#    0.000    0.000    0.000    0.000    0.000    0.000 
#
# Total GULP energy -89157.556519 kJ/mol
# GULP energy per Si atom -5572.347282 kJ/mol
# Density = 1.948452 g / cm^3
# Si number density = 19.528967 Si / 1000 Ang^3
#
#
#
# Elastic Constant Matrix: (Units=GPa)
#
#
# Indices 1 2 3 4 5 6 
#
# 1 73.2481 4.7217 8.3071 6.6425 8.7924 1.0457
# 2 4.7217 60.2961 -1.3121 14.3212 -3.3303 6.3201
# 3 8.3071 -1.3121 42.5600 11.7206 -8.7434 13.6297
# 4 6.6425 14.3212 11.7206 24.7078 9.1443 -1.3087
# 5 8.7924 -3.3303 -8.7434 9.1443 21.6610 -1.8368
# 6 1.0457 6.3201 13.6297 -1.3087 -1.8368 32.4198
#
#
#
# Elastic Compliance Matrix: (Units=1/GPa)
#
#
# Indices 1 2 3 4 5 6 
#
# 1 0.016021 -0.004900 -0.010191 0.009087 -0.014846 0.004249
# 2 -0.004900 0.031176 0.025790 -0.042319 0.033653 -0.016563
# 3 -0.010191 0.025790 0.068916 -0.069812 0.062598 -0.032944
# 4 0.009087 -0.042319 -0.069812 0.131183 -0.090577 0.037470
# 5 -0.014846 0.033653 0.062598 -0.090577 0.118383 -0.029348
# 6 0.004249 -0.016563 -0.032944 0.037470 -0.029348 0.047637
#
#
# Mechanical properties :
#
#
# Convention : Reuss Voigt Hill
#
# Bulk Modulus (GPa) = 7.27216 22.17085 14.72150
# Shear Modulus (GPa) = 11.42190 26.71687 19.06938
#
# Velocity S-wave (km/s) = 2.42103 3.70275 3.12824
# Velocity P-wave (km/s) = 3.39810 5.44591 4.53899
#
# Compressibility (1/GPa) = 0.13751069
#
# Stress axis : x y z
#
# Youngs Moduli (GPa) = 62.41714 32.07594 14.51041
#
# Poissons Ratio (x) = 0.15717 0.14788
# Poissons Ratio (y) = 0.30584 -0.37422
# Poissons Ratio (z) = 0.63610 -0.82723
#
# Static dielectric constant tensor:
#      x y z
#    x 1.723200 0.016770 0.003660 
#    y 0.016770 1.677680 0.020860 
#    z 0.003660 0.020860 1.725910 
# 
# From -- ./inp_files/312445.got.cif
#   From: 2010.05.17/outbox.cif.g08.bks.cpg/sg2_157_cif.got.tgz:312445.got - 2010.06.03 11:33:40.
