data_PCOD9093487
_publ_section_title
;
Structure prediction by ZEFSAII (Michael W. Deem and Ramdas Pophale) SiO2 
 PCOD9093487
Probable space group: P -1
;
_chemical_formula_sum "Si O2"
_cell_formula_units_Z 16
_cell_length_a 12.200810
_cell_length_b 18.352783
_cell_length_c 8.574546
_cell_angle_alpha 53.663965
_cell_angle_beta 68.110704
_cell_angle_gamma 30.813335
_cell_volume 747.958469
_symmetry_space_group_name_H-M "P -1"
_symmetry_group_IT_number 2
_symmetry_cell_setting 'triclinic'
loop_
_space_group_symop_operation_xyz
x,y,z
-x,-y,-z
loop_
_atom_site_type_symbol
_atom_site_label
_atom_site_fract_x
_atom_site_fract_y
_atom_site_fract_z
Si Si1 0.032119 0.081781 0.825388
Si Si2 0.377623 0.290984 0.317079
Si Si3 0.670352 0.364926 0.889987
Si Si4 0.228579 0.580883 0.939403
Si Si5 0.271990 0.210217 0.671593
Si Si6 0.554489 0.072369 0.206480
Si Si7 0.764232 0.836656 0.927578
Si Si8 0.167111 0.920486 0.645358
O O1 0.276496 0.960689 0.903901
O O2 0.051619 0.062453 0.652964
O O3 0.826685 0.270187 0.775098
O O4 0.000000 0.000000 0.000000
O O5 0.218783 0.339942 0.457028
O O6 0.470901 0.158449 0.309288
O O7 0.603757 0.184929 0.407431
O O8 0.268337 0.447023 0.088445
O O9 0.706881 0.422097 0.919801
O O10 0.756357 0.219269 0.122809
O O11 0.403993 0.517833 0.813950
O O12 0.959850 0.764095 0.830239
O O13 0.290009 0.119240 0.647712
O O14 0.535845 0.045061 0.799373
O O15 0.150917 0.250056 0.837257
O O16 0.333212 0.187404 0.080339
O O17 0.000000 0.000000 0.500000
#
# Coordination Sequence:
#
# PCOD9093487 Si02
#       8
#     2   2   2   2   2   2   2   2
#     4   9  17  32  55  80 103 134 176 223 256 310
#     4  10  20  33  51  76 110 136 174 214 267 320
#     4   9  19  34  56  74 109 146 174 212 264 317
#     4  10  20  35  52  79 110 147 176 208 268 323
#     4   9  19  34  53  80  98 137 176 227 260 300
#     4   9  18  33  53  80 103 132 178 221 265 304
#     4   9  20  33  55  78 102 137 177 220 262 314
#     4   9  19  31  53  85 102 132 178 226 259 302
#
# _framework density 21.391563000000001
#
# number of rings (size 3 to 8) (size 9 to 14) (size 15 to 20)
#    0.750    2.000    0.000    1.875    1.750    2.000 
#    0.000    0.000    0.000   11.250    0.000    0.000 
#    0.000    0.000    0.000    0.000    0.000    0.000 
#
# Total GULP energy -89070.919346 kJ/mol
# GULP energy per Si atom -5566.932459 kJ/mol
# Density = 2.134287 g / cm^3
# Si number density = 21.391563 Si / 1000 Ang^3
#
#
#
# Elastic Constant Matrix: (Units=GPa)
#
#
# Indices 1 2 3 4 5 6 
#
# 1 85.4112 18.4793 8.7465 8.5329 0.1070 -3.4550
# 2 18.4793 89.5702 1.8944 15.0342 10.1588 -17.2312
# 3 8.7465 1.8944 17.6285 6.2282 -11.2539 1.6277
# 4 8.5329 15.0342 6.2282 18.9399 -2.6017 -1.7737
# 5 0.1070 10.1588 -11.2539 -2.6017 24.6639 8.0971
# 6 -3.4550 -17.2312 1.6277 -1.7737 8.0971 32.2379
#
#
#
# Elastic Compliance Matrix: (Units=1/GPa)
#
#
# Indices 1 2 3 4 5 6 
#
# 1 0.013193 -0.001172 -0.008561 -0.002608 -0.004479 0.002201
# 2 -0.001172 0.018357 -0.009939 -0.011927 -0.017959 0.014042
# 3 -0.008561 -0.009939 0.111021 -0.018892 0.062147 -0.028484
# 4 -0.002608 -0.011927 -0.018892 0.070013 0.004682 -0.003024
# 5 -0.004479 -0.017959 0.062147 0.004682 0.088353 -0.035151
# 6 0.002201 0.014042 -0.028484 -0.003024 -0.035151 0.048861
#
#
# Mechanical properties :
#
#
# Convention : Reuss Voigt Hill
#
# Bulk Modulus (GPa) = 9.68737 27.87226 18.77981
# Shear Modulus (GPa) = 11.80492 26.06765 18.93629
#
# Velocity S-wave (km/s) = 2.35170 3.49463 2.97850
# Velocity P-wave (km/s) = 3.45143 5.41674 4.54166
#
# Compressibility (1/GPa) = 0.10322723
#
# Stress axis : x y z
#
# Youngs Moduli (GPa) = 75.79500 54.47644 9.00727
#
# Poissons Ratio (x) = 0.06383 0.07711
# Poissons Ratio (y) = 0.08881 0.08952
# Poissons Ratio (z) = 0.64891 0.54144
#
# Static dielectric constant tensor:
#      x y z
#    x 1.789280 0.013070 -0.015700 
#    y 0.013070 1.848520 -0.010790 
#    z -0.015700 -0.010790 1.794900 
# 
# From -- ./inp_files/281785.got.cif
#   From: 2010.05.17/outbox.cif.g08.bks.cpg/sg2_141_cif.got.tgz:281785.got - 2010.06.03 11:33:40.
