data_PCOD9093282
_publ_section_title
;
Structure prediction by ZEFSAII (Michael W. Deem and Ramdas Pophale) SiO2 
 PCOD9093282
Probable space group: P -1
;
_chemical_formula_sum "Si O2"
_cell_formula_units_Z 16
_cell_length_a 25.975707
_cell_length_b 26.445322
_cell_length_c 8.870399
_cell_angle_alpha 30.111196
_cell_angle_beta 30.056905
_cell_angle_gamma 10.675487
_cell_volume 558.407902
_symmetry_space_group_name_H-M "P -1"
_symmetry_group_IT_number 2
_symmetry_cell_setting 'triclinic'
loop_
_space_group_symop_operation_xyz
x,y,z
-x,-y,-z
loop_
_atom_site_type_symbol
_atom_site_label
_atom_site_fract_x
_atom_site_fract_y
_atom_site_fract_z
Si Si1 0.083865 0.191568 0.220519
Si Si2 0.464348 0.755689 0.996436
Si Si3 0.904672 0.175427 0.408110
Si Si4 0.913731 0.696101 0.794306
Si Si5 0.352918 0.137675 0.225843
Si Si6 0.277938 0.844750 0.932825
Si Si7 0.365648 0.246101 0.198801
Si Si8 0.285735 0.609279 0.218353
O O1 0.928222 0.429398 0.927974
O O2 0.873985 0.289559 0.491143
O O3 0.085650 0.205048 0.362744
O O4 0.395476 0.913911 0.088468
O O5 0.724727 0.439827 0.142329
O O6 0.331996 0.868473 0.874642
O O7 0.560217 0.778857 0.755716
O O8 0.215326 0.939369 0.261879
O O9 0.684332 0.305703 0.720525
O O10 0.000000 0.000000 0.500000
O O11 0.202987 0.374992 0.922975
O O12 0.669519 0.854630 0.090991
O O13 0.833828 0.771949 0.626231
O O14 0.340225 0.166010 0.365926
O O15 0.511608 0.651691 0.712053
O O16 0.962675 0.125149 0.944160
O O17 0.500000 0.500000 0.000000
#
# Coordination Sequence:
#
# PCOD9093282 Si02
#       8
#     2   2   2   2   2   2   2   2
#     4  10  21  35  50  75 106 140 172 205 255 304
#     4  11  21  35  58  79  99 129 166 220 272 309
#     4  10  20  35  55  76  95 125 172 219 261 301
#     4   8  14  27  47  68 101 134 163 195 242 312
#     4   8  14  26  45  75 102 128 155 198 256 306
#     4  11  23  40  53  72  96 134 178 216 255 303
#     4  10  20  32  54  81 108 127 161 214 266 313
#     4  12  26  38  53  70 102 141 180 217 246 292
#
# _framework density 28.652889999999999
#
# number of rings (size 3 to 8) (size 9 to 14) (size 15 to 20)
#    0.000    2.000    0.000    5.625    5.250    0.000 
#    0.000    0.000    0.000    0.000    0.000    1.750 
#    0.000    0.000    0.000    0.375    0.000    0.000 
#
# Total GULP energy -89413.614423 kJ/mol
# GULP energy per Si atom -5588.350901 kJ/mol
# Density = 2.858768 g / cm^3
# Si number density = 28.652890 Si / 1000 Ang^3
#
#
#
# Elastic Constant Matrix: (Units=GPa)
#
#
# Indices 1 2 3 4 5 6 
#
# 1 198.6536 34.4102 21.1359 4.6331 -8.6166 -14.8745
# 2 34.4102 177.7439 24.4998 21.7089 0.8150 7.0416
# 3 21.1359 24.4998 134.3746 -6.4477 0.7875 -13.7721
# 4 4.6331 21.7089 -6.4477 50.9336 -5.0421 18.6108
# 5 -8.6166 0.8150 0.7875 -5.0421 57.9258 -15.2020
# 6 -14.8745 7.0416 -13.7721 18.6108 -15.2020 68.0270
#
#
#
# Elastic Compliance Matrix: (Units=1/GPa)
#
#
# Indices 1 2 3 4 5 6 
#
# 1 0.005449 -0.000972 -0.000551 -0.000624 0.001203 0.001620
# 2 -0.000972 0.006320 -0.001175 -0.002622 -0.000582 -0.000517
# 3 -0.000551 -0.001175 0.007934 0.001081 0.000282 0.001375
# 4 -0.000624 -0.002622 0.001081 0.023135 0.000398 -0.005886
# 5 0.001203 -0.000582 0.000282 0.000398 0.018646 0.004438
# 6 0.001620 -0.000517 0.001375 -0.005886 0.004438 0.017988
#
#
# Mechanical properties :
#
#
# Convention : Reuss Voigt Hill
#
# Bulk Modulus (GPa) = 69.89762 74.54044 72.21903
# Shear Modulus (GPa) = 55.78089 64.09236 59.93662
#
# Velocity S-wave (km/s) = 4.41702 4.73467 4.57860
# Velocity P-wave (km/s) = 7.10359 7.48070 7.29458
#
# Compressibility (1/GPa) = 0.01430664
#
# Stress axis : x y z
#
# Youngs Moduli (GPa) = 183.52182 158.23521 126.04347
#
# Poissons Ratio (x) = 0.15388 0.06941
# Poissons Ratio (y) = 0.17847 0.14806
# Poissons Ratio (z) = 0.10107 0.18588
#
# Static dielectric constant tensor:
#      x y z
#    x 2.443490 0.046020 0.017900 
#    y 0.046020 2.196130 -0.069040 
#    z 0.017900 -0.069040 2.265750 
# 
# From -- ./inp_files/477155.got.cif
#   From: 2010.05.17/outbox.cif.g08.bks.cpg/sg2_239_cif.got.tgz:477155.got - 2010.06.03 11:33:40.
