data_PCOD9093667
_publ_section_title
;
Structure prediction by ZEFSAII (Michael W. Deem and Ramdas Pophale) SiO2 
 PCOD9093667
Probable space group: P -1
;
_chemical_formula_sum "Si O2"
_cell_formula_units_Z 14
_cell_length_a 15.994042
_cell_length_b 9.488220
_cell_length_c 5.336691
_cell_angle_alpha 65.537038
_cell_angle_beta 61.063952
_cell_angle_gamma 47.384030
_cell_volume 516.859567
_symmetry_space_group_name_H-M "P -1"
_symmetry_group_IT_number 2
_symmetry_cell_setting 'triclinic'
loop_
_space_group_symop_operation_xyz
x,y,z
-x,-y,-z
loop_
_atom_site_type_symbol
_atom_site_label
_atom_site_fract_x
_atom_site_fract_y
_atom_site_fract_z
Si Si1 0.521407 0.145086 0.627104
Si Si2 0.852289 0.122715 0.189536
Si Si3 0.695289 0.766935 0.862954
Si Si4 0.877142 0.427448 0.112161
Si Si5 0.654255 0.544462 0.707857
Si Si6 0.115479 0.094575 0.208980
Si Si7 0.351510 0.774692 0.263211
O O1 0.470745 0.273880 0.360526
O O2 0.537174 0.255604 0.743794
O O3 0.649600 0.935233 0.600571
O O4 0.414572 0.129222 0.858020
O O5 0.914113 0.977362 0.446454
O O6 0.888066 0.266431 0.036871
O O7 0.715956 0.237578 0.391313
O O8 0.871578 0.022104 0.973315
O O9 0.682984 0.611639 0.862922
O O10 0.826613 0.625614 0.892307
O O11 0.768254 0.484154 0.413135
O O12 0.004411 0.313266 0.148773
O O13 0.642522 0.371135 0.833288
O O14 0.255340 0.995704 0.141096
#
# Coordination Sequence:
#
# PCOD9093667 Si02
#       7
#     2   2   2   2   2   2   2
#     4  10  21  40  52  85 112 156 192 244 290 352
#     4   9  20  33  56  89 120 154 188 241 293 342
#     4  10  22  35  60  78 117 151 198 236 295 346
#     4  10  20  33  55  84 117 147 198 235 292 345
#     4  10  20  35  57  85 108 153 195 247 287 343
#     4  10  20  34  57  90 122 151 189 241 296 347
#     4   9  21  34  58  84 122 148 197 237 301 339
#
# _framework density 27.086659999999998
#
# number of rings (size 3 to 8) (size 9 to 14) (size 15 to 20)
#    0.857    1.429    0.000    2.571    2.000    1.714 
#    0.000    0.714    0.000    1.714    0.000    0.000 
#    0.000    0.000    0.000    0.000    0.000    0.000 
#
# Total GULP energy -78135.080739 kJ/mol
# GULP energy per Si atom -5581.077196 kJ/mol
# Density = 2.702501 g / cm^3
# Si number density = 27.086660 Si / 1000 Ang^3
#
#
#
# Elastic Constant Matrix: (Units=GPa)
#
#
# Indices 1 2 3 4 5 6 
#
# 1 123.6050 40.1320 18.0093 -14.6310 27.2507 -30.7524
# 2 40.1320 124.4229 29.5729 -40.5332 27.0649 -33.2256
# 3 18.0093 29.5729 78.3356 -1.0893 28.1630 -11.1838
# 4 -14.6310 -40.5332 -1.0893 48.5299 -20.0231 17.8647
# 5 27.2507 27.0649 28.1630 -20.0231 41.3500 -15.3749
# 6 -30.7524 -33.2256 -11.1838 17.8647 -15.3749 52.2057
#
#
#
# Elastic Compliance Matrix: (Units=1/GPa)
#
#
# Indices 1 2 3 4 5 6 
#
# 1 0.010717 -0.002081 0.001092 -0.002584 -0.006092 0.004312
# 2 -0.002081 0.013676 -0.004705 0.010152 0.001858 0.003543
# 3 0.001092 -0.004705 0.019908 -0.009893 -0.015743 0.000662
# 4 -0.002584 0.010152 -0.009893 0.037253 0.018129 -0.004589
# 5 -0.006092 0.001858 -0.015743 0.018129 0.047196 0.001918
# 6 0.004312 0.003543 0.000662 -0.004589 0.001918 0.026227
#
#
# Mechanical properties :
#
#
# Convention : Reuss Voigt Hill
#
# Bulk Modulus (GPa) = 30.38515 55.75466 43.06991
# Shear Modulus (GPa) = 28.19477 44.32706 36.26092
#
# Velocity S-wave (km/s) = 3.22981 4.04974 3.66279
# Velocity P-wave (km/s) = 5.01508 6.51888 5.81579
#
# Compressibility (1/GPa) = 0.03291082
#
# Stress axis : x y z
#
# Youngs Moduli (GPa) = 93.30911 73.12160 50.23132
#
# Poissons Ratio (x) = 0.15218 -0.05484
# Poissons Ratio (y) = 0.19419 0.23636
# Poissons Ratio (z) = -0.10186 0.34407
#
# Static dielectric constant tensor:
#      x y z
#    x 2.113650 -0.044210 0.001280 
#    y -0.044210 2.180500 -0.021140 
#    z 0.001280 -0.021140 2.095790 
# 
# From -- ./inp_files/97512.got.cif
#   From: 2010.05.17/outbox.cif.g08.bks.cpg/sg2_49_cif.got.tgz:97512.got - 2010.06.03 11:33:40.
