data_PCOD9093795
_publ_section_title
;
Structure prediction by ZEFSAII (Michael W. Deem and Ramdas Pophale) SiO2 
 PCOD9093795
Probable space group: P -1
;
_chemical_formula_sum "Si O2"
_cell_formula_units_Z 13
_cell_length_a 7.700723
_cell_length_b 12.726366
_cell_length_c 8.017124
_cell_angle_alpha 130.909637
_cell_angle_beta 66.850673
_cell_angle_gamma 98.179369
_cell_volume 538.423403
_symmetry_space_group_name_H-M "P -1"
_symmetry_group_IT_number 2
_symmetry_cell_setting 'triclinic'
loop_
_space_group_symop_operation_xyz
x,y,z
-x,-y,-z
loop_
_atom_site_type_symbol
_atom_site_label
_atom_site_fract_x
_atom_site_fract_y
_atom_site_fract_z
Si Si1 0.143613 0.641587 0.566399
Si Si2 0.560704 0.288021 0.891821
Si Si3 0.500000 0.500000 0.500000
Si Si4 0.348255 0.892704 0.622075
Si Si5 0.786548 0.516687 0.967719
Si Si6 0.714900 0.726861 0.463516
Si Si7 0.755063 0.799179 0.880439
O O1 0.288988 0.548574 0.537896
O O2 0.227500 0.783109 0.636423
O O3 0.126512 0.560602 0.313008
O O4 0.935097 0.694718 0.776423
O O5 0.646336 0.146416 0.615945
O O6 0.711690 0.391092 0.968611
O O7 0.403224 0.378665 0.924084
O O8 0.445060 0.255853 0.063925
O O9 0.589681 0.615038 0.468072
O O10 0.566606 0.848938 0.557159
O O11 0.266061 0.049929 0.868634
O O12 0.860440 0.628706 0.181237
O O13 0.793030 0.799149 0.669006
#
# Coordination Sequence:
#
# PCOD9093795 Si02
#       7
#     2   2   1   2   2   2   2
#     4  10  22  37  59  82 114 148 185 239 282 327
#     4   9  18  33  59  79 109 153 190 229 271 331
#     4  10  20  38  56  82 108 148 192 226 290 332
#     4   9  20  39  55  78 117 159 182 216 288 344
#     4   9  18  37  54  80 115 153 182 217 294 339
#     4  10  20  33  58  82 111 149 186 228 273 338
#     4  12  21  33  57  91 114 142 192 236 266 328
#
# _framework density 24.144566000000001
#
# number of rings (size 3 to 8) (size 9 to 14) (size 15 to 20)
#    0.000    2.154    0.000    6.000    0.000    3.077 
#    0.000    1.538    0.000    9.231    0.000   36.615 
#    0.000    0.000    0.000    0.000    0.000    0.000 
#
# Total GULP energy -72410.533893 kJ/mol
# GULP energy per Si atom -5570.041069 kJ/mol
# Density = 2.408961 g / cm^3
# Si number density = 24.144566 Si / 1000 Ang^3
#
#
#
# Elastic Constant Matrix: (Units=GPa)
#
#
# Indices 1 2 3 4 5 6 
#
# 1 82.7698 21.1103 62.0577 0.4436 -6.1138 -8.0199
# 2 21.1103 68.5044 42.2622 7.1859 1.8706 9.4734
# 3 62.0577 42.2622 237.8096 29.4278 11.0588 -6.0913
# 4 0.4436 7.1859 29.4278 20.1653 -2.9546 0.1837
# 5 -6.1138 1.8706 11.0588 -2.9546 12.5043 -23.2668
# 6 -8.0199 9.4734 -6.0913 0.1837 -23.2668 8.4493
#
#
#
# Elastic Compliance Matrix: (Units=1/GPa)
#
#
# Indices 1 2 3 4 5 6 
#
# 1 0.013616 -0.000653 -0.003918 0.004632 -0.007586 -0.010158
# 2 -0.000653 0.015656 -0.002908 -0.000023 0.009169 0.004979
# 3 -0.003918 -0.002908 0.006999 -0.009108 0.000223 0.005399
# 4 0.004632 -0.000023 -0.009108 0.062275 -0.004493 -0.015871
# 5 -0.007586 0.009169 0.000223 -0.004493 -0.010085 -0.044993
# 6 -0.010158 0.004979 0.005399 -0.015871 -0.044993 -0.016530
#
#
# Mechanical properties :
#
#
# Convention : Reuss Voigt Hill
#
# Bulk Modulus (GPa) = 46.91663 71.10492 59.01078
# Shear Modulus (GPa) = 53.19454 25.80068 39.49761
#
# Velocity S-wave (km/s) = 4.69888 3.27248 4.04899
# Velocity P-wave (km/s) = 6.99379 6.61758 6.80828
#
# Compressibility (1/GPa) = 0.02131440
#
# Stress axis : x y z
#
# Youngs Moduli (GPa) = 73.44156 63.87171 142.87312
#
# Poissons Ratio (x) = 0.04171 0.55974
# Poissons Ratio (y) = 0.04796 0.41547
# Poissons Ratio (z) = 0.28772 0.18574
#
# Static dielectric constant tensor:
#      x y z
#    x 1.988620 0.027450 -0.005430 
#    y 0.027450 1.889500 -0.076090 
#    z -0.005430 -0.076090 2.154570 
# 
# From -- ./inp_files/194575.got.cif
#   From: 2010.05.17/outbox.cif.g08.bks.cpg/sg2_98_cif.got.tgz:194575.got - 2010.06.03 11:33:40.
