data_PCOD9093244
_publ_section_title
;
Structure prediction by ZEFSAII (Michael W. Deem and Ramdas Pophale) SiO2 
 PCOD9093244
Probable space group: P -1
;
_chemical_formula_sum "Si O2"
_cell_formula_units_Z 16
_cell_length_a 27.896476
_cell_length_b 12.173012
_cell_length_c 5.209713
_cell_angle_alpha 111.126236
_cell_angle_beta 66.961060
_cell_angle_gamma 152.210063
_cell_volume 758.621418
_symmetry_space_group_name_H-M "P -1"
_symmetry_group_IT_number 2
_symmetry_cell_setting 'triclinic'
loop_
_space_group_symop_operation_xyz
x,y,z
-x,-y,-z
loop_
_atom_site_type_symbol
_atom_site_label
_atom_site_fract_x
_atom_site_fract_y
_atom_site_fract_z
Si Si1 0.352640 0.920054 0.044213
Si Si2 0.692968 0.440822 0.151515
Si Si3 0.055286 0.737225 0.549781
Si Si4 0.564790 0.228455 0.713513
Si Si5 0.938149 0.694011 0.432711
Si Si6 0.912901 0.879070 0.886244
Si Si7 0.747930 0.174218 0.304378
Si Si8 0.118249 0.787221 0.959424
O O1 0.311058 0.885866 0.376623
O O2 0.304720 0.695243 0.903467
O O3 0.318518 0.941530 0.909318
O O4 0.476362 0.142088 0.936520
O O5 0.641231 0.410021 0.471404
O O6 0.629379 0.319915 0.911576
O O7 0.809256 0.716278 0.104614
O O8 0.106706 0.856377 0.814476
O O9 0.000000 0.500000 0.500000
O O10 0.978251 0.688542 0.574432
O O11 0.137682 0.882270 0.272758
O O12 0.500000 0.000000 0.500000
O O13 0.880487 0.698124 0.648233
O O14 0.854405 0.453980 0.256360
O O15 0.032603 0.926726 0.261859
O O16 0.000000 0.000000 0.000000
O O17 0.794565 0.136864 0.227536
O O18 0.000000 0.500000 0.000000
#
# Coordination Sequence:
#
# PCOD9093244 Si02
#       8
#     2   2   2   2   2   2   2   2
#     4  11  21  33  54  81 109 143 192 229 297 343
#     4  11  21  37  56  74 113 153 194 239 285 330
#     4  10  20  35  54  76 109 156 186 236 279 332
#     4  10  21  36  56  78 105 144 197 248 291 340
#     4  11  24  36  54  79 120 163 197 227 275 336
#     4  11  26  38  55  82 121 165 208 226 267 344
#     4  12  21  33  56  82 116 152 179 232 287 348
#     4  10  20  32  52  79 111 146 183 222 294 337
#
# _framework density 21.090888
#
# number of rings (size 3 to 8) (size 9 to 14) (size 15 to 20)
#    0.000    1.250    3.750    5.250    7.000    0.000 
#    0.000    0.000    0.000    0.000    0.000    0.000 
#    0.000   20.000    0.000    0.000    0.000    0.000 
#
# Total GULP energy -89244.368488 kJ/mol
# GULP energy per Si atom -5577.773031 kJ/mol
# Density = 2.104288 g / cm^3
# Si number density = 21.090888 Si / 1000 Ang^3
#
#
#
# Elastic Constant Matrix: (Units=GPa)
#
#
# Indices 1 2 3 4 5 6 
#
# 1 117.1478 27.0170 46.6153 -10.5446 10.9358 14.9387
# 2 27.0170 35.8840 19.6806 -26.3637 -1.0016 10.0104
# 3 46.6153 19.6806 133.8258 -28.5791 4.7024 1.7401
# 4 -10.5446 -26.3637 -28.5791 34.7911 6.8575 -6.2333
# 5 10.9358 -1.0016 4.7024 6.8575 45.7089 2.5026
# 6 14.9387 10.0104 1.7401 -6.2333 2.5026 26.2623
#
#
#
# Elastic Compliance Matrix: (Units=1/GPa)
#
#
# Indices 1 2 3 4 5 6 
#
# 1 0.013581 -0.015136 -0.004980 -0.012028 -0.001024 -0.004383
# 2 -0.015136 0.085894 0.006908 0.065536 -0.004569 -0.008598
# 3 -0.004980 0.006908 0.011180 0.013839 -0.002044 0.002938
# 4 -0.012028 0.065536 0.013839 0.088755 -0.010591 0.003020
# 5 -0.001024 -0.004569 -0.002044 -0.010591 0.023950 -0.002337
# 6 -0.004383 -0.008598 0.002938 0.003020 -0.002337 0.044592
#
#
# Mechanical properties :
#
#
# Convention : Reuss Voigt Hill
#
# Bulk Modulus (GPa) = 11.87106 52.60928 32.24017
# Shear Modulus (GPa) = 15.50640 34.25545 24.88093
#
# Velocity S-wave (km/s) = 2.71443 4.03449 3.43840
# Velocity P-wave (km/s) = 3.93255 6.83381 5.57521
#
# Compressibility (1/GPa) = 0.08423848
#
# Stress axis : x y z
#
# Youngs Moduli (GPa) = 73.63471 11.64225 89.44393
#
# Poissons Ratio (x) = 0.17622 0.44545
# Poissons Ratio (y) = 1.11456 -0.61792
# Poissons Ratio (z) = 0.36672 -0.08043
#
# Static dielectric constant tensor:
#      x y z
#    x 1.807500 0.031150 -0.017830 
#    y 0.031150 1.713830 -0.054800 
#    z -0.017830 -0.054800 1.826500 
# 
# From -- ./inp_files/126876.got.cif
#   From: 2010.05.17/outbox.cif.g08.bks.cpg/sg2_64_cif.got.tgz:126876.got - 2010.06.03 11:33:40.
