data_PCOD9093498
_publ_section_title
;
Structure prediction by ZEFSAII (Michael W. Deem and Ramdas Pophale) SiO2 
 PCOD9093498
Probable space group: P -1
;
_chemical_formula_sum "Si O2"
_cell_formula_units_Z 16
_cell_length_a 5.486559
_cell_length_b 15.829422
_cell_length_c 13.602770
_cell_angle_alpha 117.407569
_cell_angle_beta 35.528953
_cell_angle_gamma 119.110836
_cell_volume 594.956440
_symmetry_space_group_name_H-M "P -1"
_symmetry_group_IT_number 2
_symmetry_cell_setting 'triclinic'
loop_
_space_group_symop_operation_xyz
x,y,z
-x,-y,-z
loop_
_atom_site_type_symbol
_atom_site_label
_atom_site_fract_x
_atom_site_fract_y
_atom_site_fract_z
Si Si1 0.515605 0.479914 0.185909
Si Si2 0.954888 0.975027 0.211052
Si Si3 0.274579 0.616715 0.208447
Si Si4 0.426396 0.108433 0.908115
Si Si5 0.246916 0.227860 0.580898
Si Si6 0.928928 0.708568 0.887184
Si Si7 0.586915 0.441156 0.344447
Si Si8 0.871696 0.148769 0.463566
O O1 0.399412 0.584956 0.257050
O O2 0.343478 0.373443 0.137183
O O3 0.334405 0.454317 0.339322
O O4 0.000000 0.500000 0.000000
O O5 0.807730 0.965588 0.140000
O O6 0.543083 0.912006 0.372293
O O7 0.359810 0.929727 0.086799
O O8 0.024235 0.079679 0.296525
O O9 0.892815 0.671523 0.344916
O O10 0.062983 0.505002 0.186267
O O11 0.691292 0.681981 0.056177
O O12 0.848569 0.169879 0.745800
O O13 0.124754 0.185125 0.066597
O O14 0.667648 0.223817 0.504095
O O15 0.205980 0.177441 0.459440
O O16 0.368677 0.669910 0.721838
O O17 0.500000 0.500000 0.500000
#
# Coordination Sequence:
#
# PCOD9093498 Si02
#       8
#     2   2   2   2   2   2   2   2
#     4  11  19  33  59  72 103 145 179 229 269 323
#     4   9  16  27  42  67 103 139 170 211 269 324
#     4  10  20  33  51  80 102 140 191 224 263 326
#     4   9  18  27  45  70 100 138 179 217 259 318
#     4   9  18  27  45  70 100 138 179 217 259 318
#     4  10  20  33  51  80 102 140 191 224 263 326
#     4  11  23  37  53  77 109 141 177 230 283 320
#     4   9  16  27  42  67 103 139 170 211 269 324
#
# _framework density 26.892724999999999
#
# number of rings (size 3 to 8) (size 9 to 14) (size 15 to 20)
#    0.000    2.250    2.500    1.500    3.500    6.000 
#    0.000    0.000    0.000    0.000    0.000    0.000 
#    0.000    6.000    0.000    0.000    0.000    0.000 
#
# Total GULP energy -89214.055040 kJ/mol
# GULP energy per Si atom -5575.878440 kJ/mol
# Density = 2.683152 g / cm^3
# Si number density = 26.892725 Si / 1000 Ang^3
#
#
#
# Elastic Constant Matrix: (Units=GPa)
#
#
# Indices 1 2 3 4 5 6 
#
# 1 88.0583 18.9558 57.8485 5.1621 11.2912 -32.4035
# 2 18.9558 64.9235 29.1422 10.3415 2.0718 -33.5635
# 3 57.8485 29.1422 115.7224 13.1788 9.0120 -31.9741
# 4 5.1621 10.3415 13.1788 49.6525 0.9939 -12.8950
# 5 11.2912 2.0718 9.0120 0.9939 45.9391 -7.6370
# 6 -32.4035 -33.5635 -31.9741 -12.8950 -7.6370 50.7912
#
#
#
# Elastic Compliance Matrix: (Units=1/GPa)
#
#
# Indices 1 2 3 4 5 6 
#
# 1 0.019587 0.002391 -0.007899 0.002024 -0.001864 0.009337
# 2 0.002391 0.024223 -0.003012 -0.000433 0.001540 0.015757
# 3 -0.007899 -0.003012 0.013928 -0.001932 -0.000416 0.001186
# 4 0.002024 -0.000433 -0.001932 0.021930 0.000325 0.005406
# 5 -0.001864 0.001540 -0.000416 0.000325 0.022741 0.003068
# 6 0.009337 0.015757 0.001186 0.005406 0.003068 0.038638
#
#
# Mechanical properties :
#
#
# Convention : Reuss Voigt Hill
#
# Bulk Modulus (GPa) = 24.57156 53.39970 38.98563
# Shear Modulus (GPa) = 29.12867 40.12708 34.62787
#
# Velocity S-wave (km/s) = 3.29468 3.86698 3.59225
# Velocity P-wave (km/s) = 4.86107 6.31171 5.63328
#
# Compressibility (1/GPa) = 0.04069745
#
# Stress axis : x y z
#
# Youngs Moduli (GPa) = 51.05557 41.28387 71.79579
#
# Poissons Ratio (x) = -0.09869 0.56710
# Poissons Ratio (y) = -0.12206 0.21624
# Poissons Ratio (z) = 0.40328 0.12434
#
# Static dielectric constant tensor:
#      x y z
#    x 2.930850 -0.109750 -0.108620 
#    y -0.109750 2.160670 -0.064950 
#    z -0.108620 -0.064950 1.817180 
# 
# From -- ./inp_files/37621.got.cif
#   From: 2010.05.17/outbox.cif.g08.bks.cpg/sg2_19_cif.got.tgz:37621.got - 2010.06.03 11:33:40.
