data_PCOD9093799
_publ_section_title
;
Structure prediction by ZEFSAII (Michael W. Deem and Ramdas Pophale) SiO2 
 PCOD9093799
Probable space group: P -1
;
_chemical_formula_sum "Si O2"
_cell_formula_units_Z 14
_cell_length_a 5.181068
_cell_length_b 21.225713
_cell_length_c 10.874392
_cell_angle_alpha 144.474230
_cell_angle_beta 60.258856
_cell_angle_gamma 121.430834
_cell_volume 586.697050
_symmetry_space_group_name_H-M "P -1"
_symmetry_group_IT_number 2
_symmetry_cell_setting 'triclinic'
loop_
_space_group_symop_operation_xyz
x,y,z
-x,-y,-z
loop_
_atom_site_type_symbol
_atom_site_label
_atom_site_fract_x
_atom_site_fract_y
_atom_site_fract_z
Si Si1 0.329194 0.072511 0.073939
Si Si2 0.928243 0.618561 0.579716
Si Si3 0.651971 0.416739 0.183754
Si Si4 0.809011 0.956578 0.356008
Si Si5 0.920184 0.834714 0.511494
Si Si6 0.560475 0.261809 0.173722
Si Si7 0.466608 0.249997 0.770371
O O1 0.281398 0.173395 0.332547
O O2 0.519964 0.131776 0.005133
O O3 0.500000 0.000000 0.000000
O O4 0.000000 0.000000 0.000000
O O5 0.906706 0.526159 0.332625
O O6 0.670103 0.564148 0.656544
O O7 0.778866 0.716083 0.718122
O O8 0.234975 0.667768 0.656726
O O9 0.711682 0.315847 0.096276
O O10 0.590861 0.372764 0.991048
O O11 0.996935 0.031759 0.324712
O O12 0.500000 0.000000 0.500000
O O13 0.719250 0.824022 0.189572
O O14 0.000000 0.000000 0.500000
O O15 0.740512 0.770597 0.335029
O O16 0.234440 0.798017 0.400727
#
# Coordination Sequence:
#
# PCOD9093799 Si02
#       7
#     2   2   2   2   2   2   2
#     4  12  26  42  62  82 116 162 203 235 271 349
#     4   9  20  36  60  92 118 146 190 248 297 342
#     4   9  21  34  64  92 117 145 194 240 309 339
#     4   8  16  31  47  72 104 141 176 219 275 330
#     4  10  22  38  52  80 115 152 190 231 285 339
#     4  10  21  38  59  87 117 153 193 247 284 340
#     4  10  20  33  58  82 114 147 181 243 293 343
#
# _framework density 23.862397999999999
#
# number of rings (size 3 to 8) (size 9 to 14) (size 15 to 20)
#    0.857    1.429    0.000    2.143    4.000    0.000 
#    5.143    0.000    0.000    5.143    0.000    0.000 
#    0.000    0.000    0.000    0.000    0.000    0.000 
#
# Total GULP energy -78137.695408 kJ/mol
# GULP energy per Si atom -5581.263958 kJ/mol
# Density = 2.380809 g / cm^3
# Si number density = 23.862398 Si / 1000 Ang^3
#
#
#
# Elastic Constant Matrix: (Units=GPa)
#
#
# Indices 1 2 3 4 5 6 
#
# 1 133.0751 23.7677 17.4570 9.6096 23.3528 -0.5271
# 2 23.7677 32.5741 3.5674 -3.1406 2.5141 1.2951
# 3 17.4570 3.5674 87.8121 2.1041 29.6249 8.3999
# 4 9.6096 -3.1406 2.1041 27.0064 7.4117 -0.4749
# 5 23.3528 2.5141 29.6249 7.4117 42.5488 6.9585
# 6 -0.5271 1.2951 8.3999 -0.4749 6.9585 26.0332
#
#
#
# Elastic Compliance Matrix: (Units=1/GPa)
#
#
# Indices 1 2 3 4 5 6 
#
# 1 0.009859 -0.007178 -0.000215 -0.003031 -0.004604 0.001801
# 2 -0.007178 0.036590 -0.000460 0.006450 0.001310 -0.002050
# 3 -0.000215 -0.000460 0.015084 0.001640 -0.010306 -0.002064
# 4 -0.003031 0.006450 0.001640 0.040749 -0.007247 0.001769
# 5 -0.004604 0.001310 -0.010306 -0.007247 0.035443 -0.006439
# 6 0.001801 -0.002050 -0.002064 0.001769 -0.006439 0.040970
#
#
# Mechanical properties :
#
#
# Convention : Reuss Voigt Hill
#
# Bulk Modulus (GPa) = 21.82132 38.11617 29.96875
# Shear Modulus (GPa) = 23.84636 33.02895 28.43766
#
# Velocity S-wave (km/s) = 3.16464 3.72444 3.45590
# Velocity P-wave (km/s) = 4.74529 5.87395 5.33953
#
# Compressibility (1/GPa) = 0.04582674
#
# Stress axis : x y z
#
# Youngs Moduli (GPa) = 101.43295 27.33019 66.29447
#
# Poissons Ratio (x) = 0.19619 0.01424
# Poissons Ratio (y) = 0.72813 0.03048
# Poissons Ratio (z) = 0.02179 0.01256
#
# Static dielectric constant tensor:
#      x y z
#    x 1.896500 -0.017820 -0.028210 
#    y -0.017820 2.003250 0.011810 
#    z -0.028210 0.011810 1.915150 
# 
# From -- ./inp_files/371458.got.cif
#   From: 2010.05.17/outbox.cif.g08.bks.cpg/sg2_186_cif.got.tgz:371458.got - 2010.06.03 11:33:40.
