data_PCOD9093296
_publ_section_title
;
Structure prediction by ZEFSAII (Michael W. Deem and Ramdas Pophale) SiO2 
 PCOD9093296
Probable space group: P -1
;
_chemical_formula_sum "Si O2"
_cell_formula_units_Z 14
_cell_length_a 17.347292
_cell_length_b 11.906498
_cell_length_c 14.972847
_cell_angle_alpha 141.565771
_cell_angle_beta 32.540552
_cell_angle_gamma 159.344161
_cell_volume 586.554097
_symmetry_space_group_name_H-M "P -1"
_symmetry_group_IT_number 2
_symmetry_cell_setting 'triclinic'
loop_
_space_group_symop_operation_xyz
x,y,z
-x,-y,-z
loop_
_atom_site_type_symbol
_atom_site_label
_atom_site_fract_x
_atom_site_fract_y
_atom_site_fract_z
Si Si1 0.268921 0.248833 0.672712
Si Si2 0.391375 0.679023 0.710951
Si Si3 0.186684 0.672641 0.212171
Si Si4 0.261082 0.222949 0.331837
Si Si5 0.315118 0.642845 0.431821
Si Si6 0.031588 0.609089 0.136990
Si Si7 0.876449 0.564636 0.693748
O O1 0.196415 0.343704 0.742303
O O2 0.384946 0.217053 0.475487
O O3 0.503249 0.552283 0.692446
O O4 0.054532 0.922133 0.730634
O O5 0.260640 0.624573 0.716510
O O6 0.533118 0.958152 0.814371
O O7 0.178112 0.510041 0.194861
O O8 0.964254 0.579520 0.403191
O O9 0.115772 0.574571 0.116750
O O10 0.336341 0.468262 0.347632
O O11 0.000000 0.000000 0.500000
O O12 0.207512 0.968199 0.187848
O O13 0.334055 0.634625 0.301242
O O14 0.500000 0.000000 0.500000
O O15 0.000000 0.500000 0.000000
O O16 0.000000 0.500000 0.500000
#
# Coordination Sequence:
#
# PCOD9093296 Si02
#       7
#     2   2   2   2   2   2   2
#     4  11  19  35  60  99 124 154 203 268 321 368
#     4  11  21  37  66  88 127 161 207 263 315 371
#     4  11  22  40  58  93 128 162 210 252 319 382
#     4  12  20  37  64  94 123 160 215 266 311 365
#     4  11  21  34  63 102 131 159 199 266 329 374
#     4  12  27  42  62  93 130 173 215 260 313 372
#     4  10  20  32  54  93 133 155 194 255 329 374
#
# _framework density 23.868216
#
# number of rings (size 3 to 8) (size 9 to 14) (size 15 to 20)
#    0.000    0.857    7.143    2.571    2.000    0.571 
#    0.000    0.000    0.000    6.857    0.000    0.000 
#    0.000    0.000    0.000    0.000    0.000    0.000 
#
# Total GULP energy -78144.773590 kJ/mol
# GULP energy per Si atom -5581.769542 kJ/mol
# Density = 2.381389 g / cm^3
# Si number density = 23.868216 Si / 1000 Ang^3
#
#
#
# Elastic Constant Matrix: (Units=GPa)
#
#
# Indices 1 2 3 4 5 6 
#
# 1 196.9182 74.4619 28.3980 13.5438 44.2435 -15.5933
# 2 74.4619 155.0028 25.9149 29.9706 23.4537 -8.0444
# 3 28.3980 25.9149 62.5069 21.1600 25.2437 -2.7531
# 4 13.5438 29.9706 21.1600 24.6278 8.8332 9.3940
# 5 44.2435 23.4537 25.2437 8.8332 31.9815 6.6306
# 6 -15.5933 -8.0444 -2.7531 9.3940 6.6306 55.4823
#
#
#
# Elastic Compliance Matrix: (Units=1/GPa)
#
#
# Indices 1 2 3 4 5 6 
#
# 1 0.009006 -0.002238 0.003107 -0.001610 -0.013711 0.004272
# 2 -0.002238 0.010656 0.003500 -0.014784 -0.004247 0.004100
# 3 0.003107 0.003500 0.035862 -0.030866 -0.029106 0.011865
# 4 -0.001610 -0.014784 -0.030866 0.087742 0.017570 -0.021084
# 5 -0.013711 -0.004247 -0.029106 0.017570 0.075177 -0.017873
# 6 0.004272 0.004100 0.011865 -0.021084 -0.017873 0.026113
#
#
# Mechanical properties :
#
#
# Convention : Reuss Voigt Hill
#
# Bulk Modulus (GPa) = 15.56178 74.66418 45.11298
# Shear Modulus (GPa) = 19.43717 41.46185 30.44951
#
# Velocity S-wave (km/s) = 2.85678 4.17239 3.57562
# Velocity P-wave (km/s) = 4.17321 7.38658 5.99905
#
# Compressibility (1/GPa) = 0.06425999
#
# Stress axis : x y z
#
# Youngs Moduli (GPa) = 111.03440 93.84729 27.88496
#
# Poissons Ratio (x) = 0.21005 -0.08663
# Poissons Ratio (y) = 0.24852 -0.09759
# Poissons Ratio (z) = -0.34497 -0.32843
#
# Static dielectric constant tensor:
#      x y z
#    x 2.051520 0.008760 -0.094870 
#    y 0.008760 1.923970 -0.045320 
#    z -0.094870 -0.045320 2.138620 
# 
# From -- ./inp_files/261899.got.cif
#   From: 2010.05.17/outbox.cif.g08.bks.cpg/sg2_131_cif.got.tgz:261899.got - 2010.06.03 11:33:40.
