data_PCOD9093971
_publ_section_title
;
Structure prediction by ZEFSAII (Michael W. Deem and Ramdas Pophale) SiO2 
 PCOD9093971
Probable space group: P -1
;
_chemical_formula_sum "Si O2"
_cell_formula_units_Z 11
_cell_length_a 9.332543
_cell_length_b 6.879294
_cell_length_c 15.622818
_cell_angle_alpha 136.872443
_cell_angle_beta 147.349481
_cell_angle_gamma 52.268260
_cell_volume 369.924454
_symmetry_space_group_name_H-M "P -1"
_symmetry_group_IT_number 2
_symmetry_cell_setting 'triclinic'
loop_
_space_group_symop_operation_xyz
x,y,z
-x,-y,-z
loop_
_atom_site_type_symbol
_atom_site_label
_atom_site_fract_x
_atom_site_fract_y
_atom_site_fract_z
Si Si1 0.405172 0.560972 0.157559
Si Si2 0.782810 0.198887 0.118440
Si Si3 0.207069 0.436757 0.507413
Si Si4 0.312281 0.105880 0.181809
Si Si5 0.000000 0.000000 0.500000
Si Si6 0.982785 0.388393 0.767270
O O1 0.590442 0.322523 0.131634
O O2 0.515626 0.624373 0.327386
O O3 0.461114 0.859151 0.229495
O O4 0.118633 0.438252 0.944663
O O5 0.813033 0.449933 0.143716
O O6 0.074995 0.186108 0.302931
O O7 0.660012 0.941297 0.921138
O O8 0.187306 0.722120 0.531172
O O9 0.000000 0.500000 0.500000
O O10 0.282127 0.423678 0.302513
O O11 0.000000 0.000000 0.000000
O O12 0.026371 0.909358 0.380684
#
# Coordination Sequence:
#
# PCOD9093971 Si02
#       6
#     2   2   2   2   1   2
#     4   9  15  27  50  72  93 127 164 195 237 292
#     4   8  14  27  47  70  95 125 156 194 241 283
#     4   9  18  31  51  74  97 127 163 201 237 289
#     4   8  14  26  44  71  98 122 159 200 240 284
#     4  10  20  34  48  68 102 132 160 200 248 284
#     4   9  17  29  46  70  99 127 159 202 241 284
#
# _framework density 29.735797000000002
#
# number of rings (size 3 to 8) (size 9 to 14) (size 15 to 20)
#    0.000    3.636    0.000    2.182    0.000    0.727 
#    0.000   14.545    0.000   21.818    0.000    0.000 
#    0.000   13.091    0.000    0.000    0.000    0.000 
#
# Total GULP energy -61269.464602 kJ/mol
# GULP energy per Si atom -5569.951327 kJ/mol
# Density = 2.966812 g / cm^3
# Si number density = 29.735797 Si / 1000 Ang^3
#
#
#
# Elastic Constant Matrix: (Units=GPa)
#
#
# Indices 1 2 3 4 5 6 
#
# 1 89.9075 34.0612 7.9466 -5.1519 -17.5063 11.6277
# 2 34.0612 172.7480 90.5540 10.2896 -22.9536 -21.9018
# 3 7.9466 90.5540 243.7512 -22.1940 -29.5731 6.9004
# 4 -5.1519 10.2896 -22.1940 49.5015 9.2978 -10.6745
# 5 -17.5063 -22.9536 -29.5731 9.2978 33.0266 1.0996
# 6 11.6277 -21.9018 6.9004 -10.6745 1.0996 59.0572
#
#
#
# Elastic Compliance Matrix: (Units=1/GPa)
#
#
# Indices 1 2 3 4 5 6 
#
# 1 0.014163 -0.003457 0.001826 0.000846 0.006643 -0.004255
# 2 -0.003457 0.009307 -0.003483 -0.003466 0.002364 0.003869
# 3 0.001826 -0.003483 0.006025 0.002579 0.003281 -0.001950
# 4 0.000846 -0.003466 0.002579 0.023967 -0.006489 0.002700
# 5 0.006643 0.002364 0.003281 -0.006489 0.040299 -0.002738
# 6 -0.004255 0.003869 -0.001950 0.002700 -0.002738 0.019972
#
#
# Mechanical properties :
#
#
# Convention : Reuss Voigt Hill
#
# Bulk Modulus (GPa) = 51.90136 85.72557 68.81346
# Shear Modulus (GPa) = 38.34816 53.24003 45.79410
#
# Velocity S-wave (km/s) = 3.59504 4.23594 3.92858
# Velocity P-wave (km/s) = 5.89275 7.26746 6.61591
#
# Compressibility (1/GPa) = 0.01926732
#
# Stress axis : x y z
#
# Youngs Moduli (GPa) = 70.60621 107.44147 165.97120
#
# Poissons Ratio (x) = 0.37141 -0.30306
# Poissons Ratio (y) = 0.24407 0.57813
# Poissons Ratio (z) = -0.12892 0.37425
#
# Static dielectric constant tensor:
#      x y z
#    x 2.428960 -0.006300 0.032430 
#    y -0.006300 2.194520 -0.317130 
#    z 0.032430 -0.317130 2.132620 
# 
# From -- ./inp_files/292083.got.cif
#   From: 2010.05.17/outbox.cif.g08.bks.cpg/sg2_147_cif.got.tgz:292083.got - 2010.06.03 11:33:40.
