data_PCOD9093097
_publ_section_title
;
Structure prediction by ZEFSAII (Michael W. Deem and Ramdas Pophale) SiO2 
 PCOD9093097
Probable space group: P -1
;
_chemical_formula_sum "Si O2"
_cell_formula_units_Z 16
_cell_length_a 12.594116
_cell_length_b 9.445021
_cell_length_c 13.210376
_cell_angle_alpha 81.789797
_cell_angle_beta 42.728039
_cell_angle_gamma 49.522567
_cell_volume 618.251159
_symmetry_space_group_name_H-M "P -1"
_symmetry_group_IT_number 2
_symmetry_cell_setting 'triclinic'
loop_
_space_group_symop_operation_xyz
x,y,z
-x,-y,-z
loop_
_atom_site_type_symbol
_atom_site_label
_atom_site_fract_x
_atom_site_fract_y
_atom_site_fract_z
Si Si1 0.507267 0.756529 0.157861
Si Si2 0.706016 0.022039 0.910913
Si Si3 0.796237 0.283055 0.608604
Si Si4 0.043466 0.490649 0.745646
Si Si5 0.732216 0.611821 0.210343
Si Si6 0.965000 0.089135 0.839589
Si Si7 0.343145 0.664757 0.754500
Si Si8 0.103642 0.588521 0.295630
O O1 0.315368 0.983102 0.194730
O O2 0.446816 0.636174 0.186350
O O3 0.491585 0.816914 0.278902
O O4 0.818446 0.546502 0.938283
O O5 0.865172 0.764939 0.858579
O O6 0.395984 0.291362 0.121537
O O7 0.863410 0.038541 0.843046
O O8 0.660754 0.430257 0.582644
O O9 0.887320 0.342779 0.608998
O O10 0.000000 0.000000 0.500000
O O11 0.090995 0.393761 0.610304
O O12 0.288950 0.321379 0.666649
O O13 0.749638 0.426500 0.204481
O O14 0.000000 0.500000 0.000000
O O15 0.254938 0.834905 0.709224
O O16 0.949084 0.237449 0.761468
O O17 0.799710 0.195941 0.051501
#
# Coordination Sequence:
#
# PCOD9093097 Si02
#       8
#     2   2   2   2   2   2   2   2
#     4   9  18  31  52  75 107 136 178 215 268 318
#     4  11  18  32  53  87 114 138 166 223 289 337
#     4  11  22  37  56  77 107 152 194 226 254 307
#     4  10  20  31  54  85 113 138 166 221 292 340
#     4   9  16  29  45  75 108 137 161 208 271 332
#     4  11  19  31  56  84 115 137 167 232 289 326
#     4  10  20  33  52  84 113 140 176 223 277 328
#     4  11  20  34  52  80 111 144 184 220 270 329
#
# _framework density 25.879449000000001
#
# number of rings (size 3 to 8) (size 9 to 14) (size 15 to 20)
#    0.000    1.750    3.750    5.625    0.000    0.000 
#    0.000    0.625    0.000    6.000    0.000    0.000 
#    0.000    0.000    0.000    0.000    0.000    0.000 
#
# Total GULP energy -89093.859071 kJ/mol
# GULP energy per Si atom -5568.366192 kJ/mol
# Density = 2.582055 g / cm^3
# Si number density = 25.879449 Si / 1000 Ang^3
#
#
#
# Elastic Constant Matrix: (Units=GPa)
#
#
# Indices 1 2 3 4 5 6 
#
# 1 256.9666 39.7767 38.3317 23.8438 -4.6308 0.4508
# 2 39.7767 50.8017 11.6185 11.0230 -5.1038 0.5598
# 3 38.3317 11.6185 48.9972 0.0870 -0.9183 -0.1129
# 4 23.8438 11.0230 0.0870 27.6479 -1.8040 -9.1219
# 5 -4.6308 -5.1038 -0.9183 -1.8040 20.7047 20.4671
# 6 0.4508 0.5598 -0.1129 -9.1219 20.4671 52.0725
#
#
#
# Elastic Compliance Matrix: (Units=1/GPa)
#
#
# Indices 1 2 3 4 5 6 
#
# 1 0.005138 -0.002256 -0.003456 -0.003835 0.001304 -0.001212
# 2 -0.002256 0.025653 -0.004109 -0.009622 0.011001 -0.006275
# 3 -0.003456 -0.004109 0.024044 0.005009 -0.002086 0.001823
# 4 -0.003835 -0.009622 0.005009 0.046808 -0.011743 0.012963
# 5 0.001304 0.011001 -0.002086 -0.011743 0.085618 -0.035843
# 6 -0.001212 -0.006275 0.001823 0.012963 -0.035843 0.035645
#
#
# Mechanical properties :
#
#
# Convention : Reuss Voigt Hill
#
# Bulk Modulus (GPa) = 28.41583 59.57992 43.99787
# Shear Modulus (GPa) = 19.66353 37.88756 28.77555
#
# Velocity S-wave (km/s) = 2.75946 3.83038 3.33814
# Velocity P-wave (km/s) = 4.59965 6.52951 5.64762
#
# Compressibility (1/GPa) = 0.03519166
#
# Stress axis : x y z
#
# Youngs Moduli (GPa) = 194.63616 38.98254 41.59088
#
# Poissons Ratio (x) = 0.08794 0.14374
# Poissons Ratio (y) = 0.43906 0.17091
# Poissons Ratio (z) = 0.67267 0.16019
#
# Static dielectric constant tensor:
#      x y z
#    x 2.122900 -0.071060 0.021680 
#    y -0.071060 2.178800 -0.114160 
#    z 0.021680 -0.114160 2.278830 
# 
# From -- ./inp_files/566764.got.cif
#   From: 2010.05.17/outbox.cif.g08.bks.cpg/sg2_284_cif.got.tgz:566764.got - 2010.06.03 11:33:40.
