data_PCOD9093311
_publ_section_title
;
Structure prediction by ZEFSAII (Michael W. Deem and Ramdas Pophale) SiO2 
 PCOD9093311
Probable space group: P -1
;
_chemical_formula_sum "Si O2"
_cell_formula_units_Z 16
_cell_length_a 15.313297
_cell_length_b 12.443222
_cell_length_c 11.323433
_cell_angle_alpha 155.816859
_cell_angle_beta 96.156268
_cell_angle_gamma 87.547184
_cell_volume 870.732368
_symmetry_space_group_name_H-M "P -1"
_symmetry_group_IT_number 2
_symmetry_cell_setting 'triclinic'
loop_
_space_group_symop_operation_xyz
x,y,z
-x,-y,-z
loop_
_atom_site_type_symbol
_atom_site_label
_atom_site_fract_x
_atom_site_fract_y
_atom_site_fract_z
Si Si1 0.705673 0.079171 0.152442
Si Si2 0.178454 0.384094 0.314972
Si Si3 0.706154 0.609422 0.291124
Si Si4 0.574174 0.048599 0.321918
Si Si5 0.002632 0.932159 0.072056
Si Si6 0.368308 0.918957 0.117282
Si Si7 0.591266 0.552275 0.991285
Si Si8 0.111914 0.458100 0.647890
O O1 0.783860 0.322504 0.427358
O O2 0.634685 0.069742 0.236363
O O3 0.661636 0.125152 0.066033
O O4 0.746294 0.805518 0.874724
O O5 0.092732 0.235395 0.086049
O O6 0.150615 0.411165 0.475317
O O7 0.669826 0.620966 0.165397
O O8 0.807439 0.559579 0.269627
O O9 0.688934 0.874559 0.622752
O O10 0.649240 0.358823 0.095491
O O11 0.471088 0.036126 0.260008
O O12 0.585263 0.787283 0.134955
O O13 0.600695 0.292913 0.657843
O O14 0.074714 0.737023 0.914904
O O15 0.000000 0.000000 0.000000
O O16 0.033514 0.217561 0.419524
O O17 0.500000 0.500000 0.000000
#
# Coordination Sequence:
#
# PCOD9093311 Si02
#       8
#     2   2   2   2   2   2   2   2
#     4  12  23  37  57  87 121 156 194 228 286 358
#     4  11  20  36  55  84 120 157 181 230 293 349
#     4  12  23  35  64  83 117 156 190 240 292 337
#     4  12  25  40  60  83 116 160 201 241 277 341
#     4  10  20  32  55  83 120 153 181 228 288 359
#     4  12  21  39  56  86 119 155 192 232 292 344
#     4  12  23  43  60  84 111 155 206 246 289 322
#     4  11  19  35  53  88 117 149 190 229 290 349
#
# _framework density 18.375336999999998
#
# number of rings (size 3 to 8) (size 9 to 14) (size 15 to 20)
#    0.000    0.500    5.000    6.750    0.000    0.000 
#    0.000    3.750    0.000    0.000    0.000   17.500 
#    0.000    0.000    0.000    0.000    0.000    0.000 
#
# Total GULP energy -89443.551636 kJ/mol
# GULP energy per Si atom -5590.221977 kJ/mol
# Density = 1.833351 g / cm^3
# Si number density = 18.375337 Si / 1000 Ang^3
#
#
#
# Elastic Constant Matrix: (Units=GPa)
#
#
# Indices 1 2 3 4 5 6 
#
# 1 55.1751 34.7012 -3.3956 -0.2321 6.1192 -20.8189
# 2 34.7012 63.4821 37.9402 -2.3978 -8.7070 -6.3306
# 3 -3.3956 37.9402 101.4183 16.7425 -14.3507 4.4441
# 4 -0.2321 -2.3978 16.7425 19.1100 -3.8959 -3.9399
# 5 6.1192 -8.7070 -14.3507 -3.8959 44.3825 3.5967
# 6 -20.8189 -6.3306 4.4441 -3.9399 3.5967 22.1167
#
#
#
# Elastic Compliance Matrix: (Units=1/GPa)
#
#
# Indices 1 2 3 4 5 6 
#
# 1 0.067270 -0.044874 0.016613 -0.013152 -0.017725 0.047680
# 2 -0.044874 0.055408 -0.023825 0.026030 0.013186 -0.019102
# 3 0.016613 -0.023825 0.022898 -0.023103 -0.001618 0.000366
# 4 -0.013152 0.026030 -0.023103 0.079450 0.005371 0.012992
# 5 -0.017725 0.013186 -0.001618 0.005371 0.028833 -0.016317
# 6 0.047680 -0.019102 0.000366 0.012992 -0.016317 0.089524
#
#
# Mechanical properties :
#
#
# Convention : Reuss Voigt Hill
#
# Bulk Modulus (GPa) = 24.15133 39.84078 31.99605
# Shear Modulus (GPa) = 10.83764 27.17716 19.00740
#
# Velocity S-wave (km/s) = 2.43120 3.84995 3.21969
# Velocity P-wave (km/s) = 4.58834 6.44139 5.59216
#
# Compressibility (1/GPa) = 0.04140559
#
# Stress axis : x y z
#
# Youngs Moduli (GPa) = 14.86536 18.04802 43.67185
#
# Poissons Ratio (x) = 0.80989 -0.72554
# Poissons Ratio (y) = 0.66707 1.04046
# Poissons Ratio (z) = -0.24696 0.42999
#
# Static dielectric constant tensor:
#      x y z
#    x 1.656020 -0.015970 0.021690 
#    y -0.015970 1.617810 0.008870 
#    z 0.021690 0.008870 1.627830 
# 
# From -- ./inp_files/437258.got.cif
#   From: 2010.05.17/outbox.cif.g08.bks.cpg/sg2_219_cif.got.tgz:437258.got - 2010.06.03 11:33:40.
