data_PCOD9093195
_publ_section_title
;
Structure prediction by ZEFSAII (Michael W. Deem and Ramdas Pophale) SiO2 
 PCOD9093195
Probable space group: P -1
;
_chemical_formula_sum "Si O2"
_cell_formula_units_Z 16
_cell_length_a 19.511113
_cell_length_b 9.571720
_cell_length_c 22.982156
_cell_angle_alpha 152.234407
_cell_angle_beta 26.100632
_cell_angle_gamma 148.445674
_cell_volume 844.310418
_symmetry_space_group_name_H-M "P -1"
_symmetry_group_IT_number 2
_symmetry_cell_setting 'triclinic'
loop_
_space_group_symop_operation_xyz
x,y,z
-x,-y,-z
loop_
_atom_site_type_symbol
_atom_site_label
_atom_site_fract_x
_atom_site_fract_y
_atom_site_fract_z
Si Si1 0.148731 0.475206 0.960940
Si Si2 0.401609 0.109279 0.667297
Si Si3 0.262377 0.479370 0.413997
Si Si4 0.459451 0.183316 0.376142
Si Si5 0.158412 0.952468 0.595512
Si Si6 0.801524 0.324866 0.131833
Si Si7 0.924705 0.059919 0.723472
Si Si8 0.751652 0.579258 0.458898
O O1 0.272767 0.273501 0.801493
O O2 0.191844 0.679961 0.944701
O O3 0.149049 0.697215 0.097198
O O4 0.962771 0.269503 0.015970
O O5 0.546730 0.352063 0.679506
O O6 0.500000 0.000000 0.500000
O O7 0.308541 0.784390 0.648683
O O8 0.163546 0.723265 0.559686
O O9 0.235341 0.405875 0.475975
O O10 0.197030 0.177169 0.312928
O O11 0.500000 0.500000 0.500000
O O12 0.630397 0.118045 0.210223
O O13 0.384526 0.264838 0.402990
O O14 0.312542 0.950356 0.436659
O O15 0.184280 0.309817 0.728952
O O16 0.999082 0.881308 0.650842
O O17 0.081409 0.250424 0.637321
#
# Coordination Sequence:
#
# PCOD9093195 Si02
#       8
#     2   2   2   2   2   2   2   2
#     4  10  20  32  50  78 111 144 177 222 276 323
#     4  10  20  34  54  76 100 134 183 226 263 314
#     4  11  20  34  57  80 110 146 182 222 266 318
#     4   9  16  31  55  81 105 132 174 225 268 310
#     4   9  18  33  56  81 104 138 186 224 259 314
#     4   9  16  31  54  79 108 140 178 223 270 317
#     4  10  22  36  52  80 115 147 178 219 271 324
#     4  10  20  35  56  82 109 141 184 226 264 313
#
# _framework density 18.950375999999999
#
# number of rings (size 3 to 8) (size 9 to 14) (size 15 to 20)
#    0.000    2.250    0.000    6.000    0.000    1.000 
#    0.000    0.000    0.000    0.750    0.000    0.000 
#    0.000    0.000    0.000    0.000    0.000    0.000 
#
# Total GULP energy -89252.055828 kJ/mol
# GULP energy per Si atom -5578.253489 kJ/mol
# Density = 1.890724 g / cm^3
# Si number density = 18.950376 Si / 1000 Ang^3
#
#
#
# Elastic Constant Matrix: (Units=GPa)
#
#
# Indices 1 2 3 4 5 6 
#
# 1 129.2104 38.7005 47.7461 -1.3031 -4.2090 0.5958
# 2 38.7005 52.0720 24.1895 -1.8285 -4.6327 22.7753
# 3 47.7461 24.1895 94.6012 -13.0747 -19.4044 12.3299
# 4 -1.3031 -1.8285 -13.0747 18.4625 2.2438 -4.7365
# 5 -4.2090 -4.6327 -19.4044 2.2438 31.1000 3.2513
# 6 0.5958 22.7753 12.3299 -4.7365 3.2513 30.4272
#
#
#
# Elastic Compliance Matrix: (Units=1/GPa)
#
#
# Indices 1 2 3 4 5 6 
#
# 1 0.013949 -0.013501 -0.006532 -0.001001 -0.005476 0.012909
# 2 -0.013501 0.045087 0.001136 -0.006093 0.009795 -0.035940
# 3 -0.006532 0.001136 0.018045 0.009141 0.010695 -0.007755
# 4 -0.001001 -0.006093 0.009141 0.062847 -0.001000 0.010766
# 5 -0.005476 0.009795 0.010695 -0.001000 0.041303 -0.016127
# 6 0.012909 -0.035940 -0.007755 0.010766 -0.016127 0.066056
#
#
# Mechanical properties :
#
#
# Convention : Reuss Voigt Hill
#
# Bulk Modulus (GPa) = 25.45329 55.23956 40.34642
# Shear Modulus (GPa) = 16.76869 27.01445 21.89157
#
# Velocity S-wave (km/s) = 2.97791 3.77972 3.40252
# Velocity P-wave (km/s) = 5.02838 6.94703 6.06407
#
# Compressibility (1/GPa) = 0.03928765
#
# Stress axis : x y z
#
# Youngs Moduli (GPa) = 71.69116 22.17935 55.41795
#
# Poissons Ratio (x) = 0.29944 0.36199
# Poissons Ratio (y) = 0.96789 -0.06298
# Poissons Ratio (z) = 0.46828 -0.02520
#
# Static dielectric constant tensor:
#      x y z
#    x 1.690610 -0.001500 -0.000080 
#    y -0.001500 1.691470 -0.013990 
#    z -0.000080 -0.013990 1.657880 
# 
# From -- ./inp_files/269552.got.cif
#   From: 2010.05.17/outbox.cif.g08.bks.cpg/sg2_135_cif.got.tgz:269552.got - 2010.06.03 11:33:40.
