data_PCOD9093934
_publ_section_title
;
Structure prediction by ZEFSAII (Michael W. Deem and Ramdas Pophale) SiO2 
 PCOD9093934
Probable space group: P -1
;
_chemical_formula_sum "Si O2"
_cell_formula_units_Z 16
_cell_length_a 8.520093
_cell_length_b 18.066975
_cell_length_c 11.802635
_cell_angle_alpha 146.766810
_cell_angle_beta 57.168879
_cell_angle_gamma 115.324764
_cell_volume 835.348299
_symmetry_space_group_name_H-M "P -1"
_symmetry_group_IT_number 2
_symmetry_cell_setting 'triclinic'
loop_
_space_group_symop_operation_xyz
x,y,z
-x,-y,-z
loop_
_atom_site_type_symbol
_atom_site_label
_atom_site_fract_x
_atom_site_fract_y
_atom_site_fract_z
Si Si1 0.017965 0.094331 0.001079
Si Si2 0.733919 0.556859 0.145082
Si Si3 0.590813 0.140729 0.170906
Si Si4 0.383607 0.410701 0.512764
Si Si5 0.017993 0.312778 0.455204
Si Si6 0.400225 0.715364 0.409292
Si Si7 0.685013 0.069241 0.475652
Si Si8 0.951078 0.271080 0.675416
O O1 0.072590 0.230945 0.216481
O O2 0.817003 0.117963 0.048375
O O3 0.176973 0.036276 0.780834
O O4 0.000000 0.000000 0.000000
O O5 0.645671 0.540571 0.284014
O O6 0.568760 0.606554 0.192324
O O7 0.876903 0.678516 0.254438
O O8 0.834769 0.415001 0.890641
O O9 0.488469 0.260808 0.290027
O O10 0.560197 0.192312 0.378248
O O11 0.500000 0.000000 0.000000
O O12 0.500000 0.500000 0.500000
O O13 0.174551 0.415406 0.549316
O O14 0.798324 0.349623 0.574412
O O15 0.025493 0.230204 0.467342
O O16 0.379937 0.813758 0.437418
O O17 0.818873 0.153321 0.614795
O O18 0.500000 0.000000 0.500000
#
# Coordination Sequence:
#
# PCOD9093934 Si02
#       8
#     2   2   2   2   2   2   2   2
#     4  11  18  36  58  83 111 150 200 236 282 353
#     4   9  19  36  58  80 104 153 202 237 279 359
#     4  10  20  33  62  88 106 155 205 232 280 359
#     4  10  21  36  54  86 122 145 192 249 300 328
#     4   9  18  33  57  79 104 151 188 237 277 352
#     4   9  19  35  57  83 106 145 205 230 280 358
#     4  11  23  36  54  86 122 148 187 244 303 335
#     4   9  18  36  56  77 108 151 196 231 286 350
#
# _framework density 19.153690000000001
#
# number of rings (size 3 to 8) (size 9 to 14) (size 15 to 20)
#    0.000    2.250    3.750    0.750    3.500    3.000 
#    0.000   11.250    0.000    0.000    0.000    0.000 
#    0.000    0.000    0.000    0.000    0.000    0.000 
#
# Total GULP energy -89075.690865 kJ/mol
# GULP energy per Si atom -5567.230679 kJ/mol
# Density = 1.911009 g / cm^3
# Si number density = 19.153690 Si / 1000 Ang^3
#
#
#
# Elastic Constant Matrix: (Units=GPa)
#
#
# Indices 1 2 3 4 5 6 
#
# 1 93.9155 29.6510 46.4401 2.9029 -9.1760 10.6279
# 2 29.6510 86.4168 28.3806 6.6166 1.0653 29.2487
# 3 46.4401 28.3806 83.3508 -6.8680 -0.4051 9.1303
# 4 2.9029 6.6166 -6.8680 15.3374 5.5530 -2.7058
# 5 -9.1760 1.0653 -0.4051 5.5530 35.8327 2.2591
# 6 10.6279 29.2487 9.1303 -2.7058 2.2591 25.5128
#
#
#
# Elastic Compliance Matrix: (Units=1/GPa)
#
#
# Indices 1 2 3 4 5 6 
#
# 1 0.017020 -0.000202 -0.009705 -0.010625 0.006220 -0.005063
# 2 -0.000202 0.025245 -0.006993 -0.020578 0.004130 -0.028903
# 3 -0.009705 -0.006993 0.020399 0.017088 -0.005138 0.007026
# 4 -0.010625 -0.020578 0.017088 0.096594 -0.019018 0.033830
# 5 0.006220 0.004130 -0.005138 -0.019018 0.032924 -0.010419
# 6 -0.005063 -0.028903 0.007026 0.033830 -0.010419 0.076436
#
#
# Mechanical properties :
#
#
# Convention : Reuss Voigt Hill
#
# Bulk Modulus (GPa) = 34.64460 52.51408 43.57934
# Shear Modulus (GPa) = 16.02374 25.95065 20.98719
#
# Velocity S-wave (km/s) = 2.89552 3.68484 3.31377
# Velocity P-wave (km/s) = 5.41347 6.75136 6.11909
#
# Compressibility (1/GPa) = 0.02886453
#
# Stress axis : x y z
#
# Youngs Moduli (GPa) = 58.75579 39.61217 49.02245
#
# Poissons Ratio (x) = 0.00801 0.47574
# Poissons Ratio (y) = 0.01188 0.34279
# Poissons Ratio (z) = 0.57020 0.27699
#
# Static dielectric constant tensor:
#      x y z
#    x 1.741070 0.029800 -0.000440 
#    y 0.029800 1.664800 0.014310 
#    z -0.000440 0.014310 1.727350 
# 
# From -- ./inp_files/402450.got.cif
#   From: 2010.05.17/outbox.cif.g08.bks.cpg/sg2_202_cif.got.tgz:402450.got - 2010.06.03 11:33:40.
