data_PCOD9093290
_publ_section_title
;
Structure prediction by ZEFSAII (Michael W. Deem and Ramdas Pophale) SiO2 
 PCOD9093290
Probable space group: P -1
;
_chemical_formula_sum "Si O2"
_cell_formula_units_Z 16
_cell_length_a 14.161915
_cell_length_b 5.223919
_cell_length_c 17.924727
_cell_angle_alpha 76.597011
_cell_angle_beta 52.145936
_cell_angle_gamma 54.815142
_cell_volume 840.366073
_symmetry_space_group_name_H-M "P -1"
_symmetry_group_IT_number 2
_symmetry_cell_setting 'triclinic'
loop_
_space_group_symop_operation_xyz
x,y,z
-x,-y,-z
loop_
_atom_site_type_symbol
_atom_site_label
_atom_site_fract_x
_atom_site_fract_y
_atom_site_fract_z
Si Si1 0.916749 0.020033 0.825232
Si Si2 0.937123 0.293009 0.069148
Si Si3 0.921011 0.378573 0.497346
Si Si4 0.363738 0.913754 0.018107
Si Si5 0.378667 0.287510 0.859404
Si Si6 0.072479 0.411096 0.285822
Si Si7 0.691987 0.682392 0.705521
Si Si8 0.425124 0.635766 0.148171
O O1 0.923836 0.789112 0.772911
O O2 0.014837 0.837271 0.861548
O O3 0.753881 0.172498 0.924203
O O4 0.944329 0.273189 0.760365
O O5 0.762229 0.508569 0.135691
O O6 0.000000 0.500000 0.000000
O O7 0.000000 0.000000 0.000000
O O8 0.760485 0.586824 0.596623
O O9 0.000000 0.500000 0.500000
O O10 0.945306 0.449666 0.397119
O O11 0.000000 0.000000 0.500000
O O12 0.386920 0.930318 0.093939
O O13 0.509623 0.640956 0.926053
O O14 0.319257 0.207168 0.967077
O O15 0.449696 0.460414 0.847511
O O16 0.523477 0.978489 0.772882
O O17 0.209315 0.271877 0.287423
O O18 0.699973 0.372812 0.752197
#
# Coordination Sequence:
#
# PCOD9093290 Si02
#       8
#     2   2   2   2   2   2   2   2
#     4  12  23  39  63  88 122 171 207 253 302 365
#     4  12  26  45  63  86 125 172 220 258 297 356
#     4  10  22  39  63  95 128 161 196 255 319 382
#     4  10  20  32  54  84 125 156 197 241 307 369
#     4  11  23  37  59  86 122 168 207 255 304 368
#     4  11  23  40  63  94 126 158 207 253 317 375
#     4  10  22  37  62  93 125 157 201 256 320 374
#     4  10  20  34  53  90 124 158 197 242 319 376
#
# _framework density 19.039323
#
# number of rings (size 3 to 8) (size 9 to 14) (size 15 to 20)
#    0.000    1.250    2.500    4.125    7.000    0.000 
#    0.000    0.000    0.000    1.500    0.000    0.000 
#    0.000    0.000    0.000    0.000    0.000    0.000 
#
# Total GULP energy -89161.735284 kJ/mol
# GULP energy per Si atom -5572.608455 kJ/mol
# Density = 1.899599 g / cm^3
# Si number density = 19.039323 Si / 1000 Ang^3
#
#
#
# Elastic Constant Matrix: (Units=GPa)
#
#
# Indices 1 2 3 4 5 6 
#
# 1 118.8341 68.4767 48.4018 1.6132 3.5621 -10.2483
# 2 68.4767 101.0798 54.1446 -2.8073 1.7022 6.0367
# 3 48.4018 54.1446 142.7267 -2.9406 -5.1983 -2.8803
# 4 1.6132 -2.8073 -2.9406 28.4061 2.2308 -6.8400
# 5 3.5621 1.7022 -5.1983 2.2308 24.5556 -0.4217
# 6 -10.2483 6.0367 -2.8803 -6.8400 -0.4217 50.2150
#
#
#
# Elastic Compliance Matrix: (Units=1/GPa)
#
#
# Indices 1 2 3 4 5 6 
#
# 1 0.014919 -0.009578 -0.001423 -0.000852 -0.001656 0.003985
# 2 -0.009578 0.018822 -0.003992 0.001025 -0.000928 -0.004315
# 3 -0.001423 -0.003992 0.009119 0.000642 0.002369 0.000820
# 4 -0.000852 0.001025 0.000642 0.036799 -0.003074 0.004727
# 5 -0.001656 -0.000928 0.002369 -0.003074 0.041807 -0.000158
# 6 0.003985 -0.004315 0.000820 0.004727 -0.000158 0.021936
#
#
# Mechanical properties :
#
#
# Convention : Reuss Voigt Hill
#
# Bulk Modulus (GPa) = 77.67694 78.29852 77.98773
# Shear Modulus (GPa) = 28.14049 33.40985 30.77517
#
# Velocity S-wave (km/s) = 3.84867 4.19356 4.02481
# Velocity P-wave (km/s) = 7.78694 8.04126 7.91512
#
# Compressibility (1/GPa) = 0.01287383
#
# Stress axis : x y z
#
# Youngs Moduli (GPa) = 67.02877 53.12916 109.65596
#
# Poissons Ratio (x) = 0.50889 0.15606
# Poissons Ratio (y) = 0.64202 0.43773
# Poissons Ratio (z) = 0.09539 0.21208
#
# Static dielectric constant tensor:
#      x y z
#    x 1.688180 0.006550 -0.013960 
#    y 0.006550 1.785240 0.004050 
#    z -0.013960 0.004050 1.729380 
# 
# From -- ./inp_files/82981.got.cif
#   From: 2010.05.17/outbox.cif.g08.bks.cpg/sg2_42_cif.got.tgz:82981.got - 2010.06.03 11:33:40.
