data_PCOD9093556
_publ_section_title
;
Structure prediction by ZEFSAII (Michael W. Deem and Ramdas Pophale) SiO2 
 PCOD9093556
Probable space group: P -1
;
_chemical_formula_sum "Si O2"
_cell_formula_units_Z 16
_cell_length_a 8.867494
_cell_length_b 5.379265
_cell_length_c 21.255631
_cell_angle_alpha 48.167855
_cell_angle_beta 49.068504
_cell_angle_gamma 67.360878
_cell_volume 568.304463
_symmetry_space_group_name_H-M "P -1"
_symmetry_group_IT_number 2
_symmetry_cell_setting 'triclinic'
loop_
_space_group_symop_operation_xyz
x,y,z
-x,-y,-z
loop_
_atom_site_type_symbol
_atom_site_label
_atom_site_fract_x
_atom_site_fract_y
_atom_site_fract_z
Si Si1 0.079570 0.541669 0.900714
Si Si2 0.194444 0.738668 0.349649
Si Si3 0.179205 0.473345 0.754931
Si Si4 0.562071 0.123764 0.052085
Si Si5 0.585936 0.123918 0.185246
Si Si6 0.781227 0.497063 0.482264
Si Si7 0.825554 0.157889 0.849342
Si Si8 0.573509 0.866774 0.580051
O O1 0.075139 0.343202 0.870705
O O2 0.967179 0.858085 0.854303
O O3 0.317226 0.583619 0.847055
O O4 0.000000 0.500000 0.000000
O O5 0.351048 0.064173 0.248060
O O6 0.149979 0.724448 0.439643
O O7 0.315872 0.408393 0.362222
O O8 0.990839 0.701640 0.372133
O O9 0.334952 0.194783 0.746644
O O10 0.335057 0.796336 0.668036
O O11 0.994532 0.470630 0.758130
O O12 0.356131 0.877755 0.144285
O O13 0.663922 0.134006 0.090697
O O14 0.500000 0.500000 0.000000
O O15 0.702932 0.084920 0.960413
O O16 0.636360 0.741599 0.514821
O O17 0.670305 0.235182 0.509155
#
# Coordination Sequence:
#
# PCOD9093556 Si02
#       8
#     2   2   2   2   2   2   2   2
#     4  11  20  33  54  77 106 139 179 231 285 324
#     4   8  17  27  47  72 112 141 179 217 279 332
#     4  10  20  33  53  80 108 139 182 231 273 332
#     4  11  22  38  55  72 108 146 188 224 278 328
#     4  10  20  34  51  83 107 140 182 233 271 329
#     4   9  16  29  47  76 114 149 170 217 282 341
#     4  10  22  36  52  73 104 142 187 222 272 335
#     4   9  17  28  49  75 111 143 177 217 273 336
#
# _framework density 28.153924
#
# number of rings (size 3 to 8) (size 9 to 14) (size 15 to 20)
#    0.750    1.500    0.000    4.125    1.750    3.000 
#    0.000    0.000    0.000    0.000    0.000    1.750 
#    0.000    0.000    0.000    0.000    0.000    0.000 
#
# Total GULP energy -89352.836141 kJ/mol
# GULP energy per Si atom -5584.552259 kJ/mol
# Density = 2.808984 g / cm^3
# Si number density = 28.153924 Si / 1000 Ang^3
#
#
#
# Elastic Constant Matrix: (Units=GPa)
#
#
# Indices 1 2 3 4 5 6 
#
# 1 175.7059 54.1206 38.7328 -5.8112 -48.5759 24.4779
# 2 54.1206 94.5429 7.7593 -2.9621 -27.0277 7.9848
# 3 38.7328 7.7593 77.7572 7.6071 -32.3072 7.1695
# 4 -5.8112 -2.9621 7.6071 25.5342 6.4723 -10.0157
# 5 -48.5759 -27.0277 -32.3072 6.4723 68.2301 -7.4823
# 6 24.4779 7.9848 7.1695 -10.0157 -7.4823 59.6135
#
#
#
# Elastic Compliance Matrix: (Units=1/GPa)
#
#
# Indices 1 2 3 4 5 6 
#
# 1 0.008543 -0.003562 -0.002402 0.000546 0.003236 -0.002244
# 2 -0.003562 0.013553 0.002177 -0.000996 0.003927 -0.000289
# 3 -0.002402 0.002177 0.018383 -0.008666 0.008469 -0.001909
# 4 0.000546 -0.000996 -0.008666 0.046780 -0.007686 0.007846
# 5 0.003236 0.003927 0.008469 -0.007686 0.023117 -0.001263
# 6 -0.002244 -0.000289 -0.001909 0.007846 -0.001263 0.019124
#
#
# Mechanical properties :
#
#
# Convention : Reuss Voigt Hill
#
# Bulk Modulus (GPa) = 30.38959 61.02571 45.70765
# Shear Modulus (GPa) = 33.77443 47.16842 40.47142
#
# Velocity S-wave (km/s) = 3.46733 4.09758 3.79556
# Velocity P-wave (km/s) = 5.18145 6.64151 5.95638
#
# Compressibility (1/GPa) = 0.03290600
#
# Stress axis : x y z
#
# Youngs Moduli (GPa) = 117.05131 73.78355 54.39934
#
# Poissons Ratio (x) = 0.26279 0.13068
# Poissons Ratio (y) = 0.41689 -0.11844
# Poissons Ratio (z) = 0.28118 -0.16065
#
# Static dielectric constant tensor:
#      x y z
#    x 2.135480 0.006990 -0.015150 
#    y 0.006990 2.189810 -0.072960 
#    z -0.015150 -0.072960 2.410800 
# 
# From -- ./inp_files/605585.got.cif
#   From: 2010.05.17/outbox.cif.g08.bks.cpg/sg2_303_cif.got.tgz:605585.got - 2010.06.03 11:33:40.
