data_PCOD9093828
_publ_section_title
;
Structure prediction by ZEFSAII (Michael W. Deem and Ramdas Pophale) SiO2 
 PCOD9093828
Probable space group: P -1
;
_chemical_formula_sum "Si O2"
_cell_formula_units_Z 16
_cell_length_a 14.875378
_cell_length_b 10.783526
_cell_length_c 26.693872
_cell_angle_alpha 26.321761
_cell_angle_beta 158.594909
_cell_angle_gamma 142.540222
_cell_volume 670.647156
_symmetry_space_group_name_H-M "P -1"
_symmetry_group_IT_number 2
_symmetry_cell_setting 'triclinic'
loop_
_space_group_symop_operation_xyz
x,y,z
-x,-y,-z
loop_
_atom_site_type_symbol
_atom_site_label
_atom_site_fract_x
_atom_site_fract_y
_atom_site_fract_z
Si Si1 0.589179 0.300416 0.289589
Si Si2 0.050081 0.726593 0.835049
Si Si3 0.397709 0.819932 0.308080
Si Si4 0.188852 0.325753 0.860811
Si Si5 0.756236 0.291166 0.165689
Si Si6 0.816762 0.345058 0.493058
Si Si7 0.167458 0.804341 0.088757
Si Si8 0.113676 0.319132 0.506174
O O1 0.627172 0.273145 0.379259
O O2 0.833436 0.384069 0.362851
O O3 0.565041 0.020567 0.346580
O O4 0.330241 0.546065 0.059956
O O5 0.073934 0.796059 0.763212
O O6 0.865974 0.514799 0.822530
O O7 0.965944 0.036674 0.704440
O O8 0.500000 0.500000 0.500000
O O9 0.367518 0.799793 0.239406
O O10 0.113289 0.001439 0.110681
O O11 0.171657 0.444554 0.865627
O O12 0.949767 0.512002 0.639459
O O13 0.460386 0.373902 0.967448
O O14 0.214862 0.987131 0.999382
O O15 0.794068 0.026300 0.320143
O O16 0.720466 0.550240 0.415923
O O17 0.000000 0.500000 0.500000
#
# Coordination Sequence:
#
# PCOD9093828 Si02
#       8
#     2   2   2   2   2   2   2   2
#     4  10  20  33  58  90 114 147 197 246 299 331
#     4  11  20  40  64  90 118 148 201 255 290 348
#     4  10  20  34  60  86 117 156 198 242 290 349
#     4  11  24  39  56  86 128 162 188 232 307 365
#     4  11  22  37  62  86 119 156 198 246 289 357
#     4  10  21  37  61  90 115 150 205 257 291 331
#     4  10  23  37  57  90 122 156 193 239 300 359
#     4  11  23  38  58  88 119 155 201 246 295 343
#
# _framework density 23.857552999999999
#
# number of rings (size 3 to 8) (size 9 to 14) (size 15 to 20)
#    0.000    1.500    3.750    3.375    3.500    4.000 
#    0.000    0.625    0.000    3.750    0.000    0.000 
#    0.000    0.000    0.000    0.000    0.000    0.000 
#
# Total GULP energy -89427.254987 kJ/mol
# GULP energy per Si atom -5589.203437 kJ/mol
# Density = 2.380325 g / cm^3
# Si number density = 23.857553 Si / 1000 Ang^3
#
#
#
# Elastic Constant Matrix: (Units=GPa)
#
#
# Indices 1 2 3 4 5 6 
#
# 1 14.4936 6.3925 1.6618 4.3649 -5.5670 -2.6649
# 2 6.3925 96.4523 39.3181 -14.8847 4.3051 -6.1821
# 3 1.6618 39.3181 146.4104 -12.9140 -17.1251 -4.9435
# 4 4.3649 -14.8847 -12.9140 50.2372 -2.8837 -2.1248
# 5 -5.5670 4.3051 -17.1251 -2.8837 25.6311 -0.3010
# 6 -2.6649 -6.1821 -4.9435 -2.1248 -0.3010 15.7263
#
#
#
# Elastic Compliance Matrix: (Units=1/GPa)
#
#
# Indices 1 2 3 4 5 6 
#
# 1 0.084895 -0.008414 0.003575 -0.007220 0.021565 0.011639
# 2 -0.008414 0.013510 -0.003850 0.003514 -0.006238 0.003030
# 3 0.003575 -0.003850 0.008902 0.001364 0.007550 0.002219
# 4 -0.007220 0.003514 0.001364 0.022151 0.001288 0.003604
# 5 0.021565 -0.006238 0.007550 0.001288 0.049991 0.004706
# 6 0.011639 0.003030 0.002219 0.003604 0.004706 0.068026
#
#
# Mechanical properties :
#
#
# Convention : Reuss Voigt Hill
#
# Bulk Modulus (GPa) = 11.12015 39.12233 25.12124
# Shear Modulus (GPa) = 16.95893 32.31785 24.63839
#
# Velocity S-wave (km/s) = 2.66905 3.68451 3.21710
# Velocity P-wave (km/s) = 3.76426 5.87662 4.93479
#
# Compressibility (1/GPa) = 0.08992682
#
# Stress axis : x y z
#
# Youngs Moduli (GPa) = 11.77932 74.02004 112.33671
#
# Poissons Ratio (x) = 0.62283 -0.40156
# Poissons Ratio (y) = 0.09912 0.43248
# Poissons Ratio (z) = -0.04211 0.28497
#
# Static dielectric constant tensor:
#      x y z
#    x 1.943030 0.030010 -0.007600 
#    y 0.030010 1.906000 0.027000 
#    z -0.007600 0.027000 1.922330 
# 
# From -- ./inp_files/589442.got.cif
#   From: 2010.05.17/outbox.cif.g08.bks.cpg/sg2_295_cif.got.tgz:589442.got - 2010.06.03 11:33:40.
