data_PCOD9093387
_publ_section_title
;
Structure prediction by ZEFSAII (Michael W. Deem and Ramdas Pophale) SiO2 
 PCOD9093387
Probable space group: P -1
;
_chemical_formula_sum "Si O2"
_cell_formula_units_Z 16
_cell_length_a 20.243482
_cell_length_b 11.615895
_cell_length_c 5.386942
_cell_angle_alpha 102.635515
_cell_angle_beta 88.151704
_cell_angle_gamma 142.228722
_cell_volume 735.823509
_symmetry_space_group_name_H-M "P -1"
_symmetry_group_IT_number 2
_symmetry_cell_setting 'triclinic'
loop_
_space_group_symop_operation_xyz
x,y,z
-x,-y,-z
loop_
_atom_site_type_symbol
_atom_site_label
_atom_site_fract_x
_atom_site_fract_y
_atom_site_fract_z
Si Si1 0.737226 0.183976 0.188985
Si Si2 0.741759 0.802351 0.967402
Si Si3 0.661335 0.575289 0.350620
Si Si4 0.098130 0.615986 0.350832
Si Si5 0.451825 0.742286 0.444048
Si Si6 0.603129 0.141125 0.864858
Si Si7 0.899979 0.218301 0.964264
Si Si8 0.557324 0.733515 0.056349
O O1 0.794070 0.287601 0.495940
O O2 0.622063 0.947503 0.093081
O O3 0.711483 0.258304 0.057580
O O4 0.823459 0.214047 0.080411
O O5 0.708480 0.708253 0.651825
O O6 0.855605 0.036344 0.007855
O O7 0.736429 0.703437 0.154583
O O8 0.651477 0.770347 0.052339
O O9 0.630387 0.402287 0.385830
O O10 0.537878 0.435272 0.206973
O O11 0.124805 0.785272 0.321391
O O12 0.000000 0.500000 0.500000
O O13 0.030017 0.432275 0.087638
O O14 0.390865 0.732477 0.238590
O O15 0.494130 0.679474 0.290909
O O16 0.559305 0.972373 0.613634
O O17 0.500000 0.000000 0.000000
#
# Coordination Sequence:
#
# PCOD9093387 Si02
#       8
#     2   2   2   2   2   2   2   2
#     4  10  20  32  59  81 116 154 193 239 304 345
#     4  11  26  34  60  81 120 160 204 234 299 352
#     4  12  23  39  52  85 116 166 200 246 281 355
#     4   9  19  36  58  82 116 145 189 250 300 358
#     4  11  23  36  57  74 126 157 208 247 287 332
#     4  11  22  38  54  86 115 165 204 248 291 349
#     4   9  21  38  55  86 116 149 196 243 299 358
#     4  11  22  37  52  84 118 161 199 239 281 355
#
# _framework density 21.744344999999999
#
# number of rings (size 3 to 8) (size 9 to 14) (size 15 to 20)
#    0.000    1.500    3.750    0.750    8.750    0.000 
#    0.000    0.000    0.000    0.000    0.000    1.750 
#    0.000    0.125    0.000    0.000    0.000    0.000 
#
# Total GULP energy -89115.975180 kJ/mol
# GULP energy per Si atom -5569.748449 kJ/mol
# Density = 2.169485 g / cm^3
# Si number density = 21.744345 Si / 1000 Ang^3
#
#
#
# Elastic Constant Matrix: (Units=GPa)
#
#
# Indices 1 2 3 4 5 6 
#
# 1 32.2781 10.8105 22.6322 3.9902 6.5821 -3.9525
# 2 10.8105 154.2258 41.7201 -18.4212 16.7402 -11.6625
# 3 22.6322 41.7201 91.4439 -10.2487 7.0525 -0.5862
# 4 3.9902 -18.4212 -10.2487 36.6027 -2.9299 5.4258
# 5 6.5821 16.7402 7.0525 -2.9299 36.9129 -2.9730
# 6 -3.9525 -11.6625 -0.5862 5.4258 -2.9730 19.9327
#
#
#
# Elastic Compliance Matrix: (Units=1/GPa)
#
#
# Indices 1 2 3 4 5 6 
#
# 1 0.042222 0.000270 -0.011153 -0.009506 -0.005472 0.009974
# 2 0.000270 0.008220 -0.003318 0.002416 -0.002651 0.003712
# 3 -0.011153 -0.003318 0.015668 0.004697 0.000478 -0.004899
# 4 -0.009506 0.002416 0.004697 0.032332 0.001551 -0.008903
# 5 -0.005472 -0.002651 0.000478 0.001551 0.029409 0.001342
# 6 0.009974 0.003712 -0.004899 -0.008903 0.001342 0.056798
#
#
# Mechanical properties :
#
#
# Convention : Reuss Voigt Hill
#
# Bulk Modulus (GPa) = 26.51898 47.58594 37.05246
# Shear Modulus (GPa) = 22.16128 32.20866 27.18497
#
# Velocity S-wave (km/s) = 3.19591 3.85287 3.53966
# Velocity P-wave (km/s) = 5.08338 6.45946 5.81229
#
# Compressibility (1/GPa) = 0.03770884
#
# Stress axis : x y z
#
# Youngs Moduli (GPa) = 23.68416 121.65971 63.82482
#
# Poissons Ratio (x) = -0.03286 0.71181
# Poissons Ratio (y) = -0.00640 0.21177
# Poissons Ratio (z) = 0.26414 0.40366
#
# Static dielectric constant tensor:
#      x y z
#    x 1.791800 -0.047230 -0.048940 
#    y -0.047230 1.896410 -0.094100 
#    z -0.048940 -0.094100 2.129200 
# 
# From -- ./inp_files/118760.got.cif
#   From: 2010.05.17/outbox.cif.g08.bks.cpg/sg2_60_cif.got.tgz:118760.got - 2010.06.03 11:33:40.
