data_PCOD9093824
_publ_section_title
;
Structure prediction by ZEFSAII (Michael W. Deem and Ramdas Pophale) SiO2 
 PCOD9093824
Probable space group: P -1
;
_chemical_formula_sum "Si O2"
_cell_formula_units_Z 16
_cell_length_a 8.711731
_cell_length_b 16.571020
_cell_length_c 9.335752
_cell_angle_alpha 47.909111
_cell_angle_beta 69.194208
_cell_angle_gamma 106.572099
_cell_volume 613.694592
_symmetry_space_group_name_H-M "P -1"
_symmetry_group_IT_number 2
_symmetry_cell_setting 'triclinic'
loop_
_space_group_symop_operation_xyz
x,y,z
-x,-y,-z
loop_
_atom_site_type_symbol
_atom_site_label
_atom_site_fract_x
_atom_site_fract_y
_atom_site_fract_z
Si Si1 0.909072 0.707033 0.159692
Si Si2 0.355632 0.097531 0.213713
Si Si3 0.742106 0.503086 0.012732
Si Si4 0.778928 0.756048 0.406119
Si Si5 0.687517 0.931609 0.059084
Si Si6 0.056411 0.584031 0.084496
Si Si7 0.465301 0.047938 0.631076
Si Si8 0.222087 0.254359 0.142564
O O1 0.966604 0.610167 0.217675
O O2 0.778587 0.695159 0.078492
O O3 0.172042 0.906482 0.853923
O O4 0.763061 0.649249 0.425601
O O5 0.429576 0.137906 0.974498
O O6 0.395309 0.234083 0.110207
O O7 0.469805 0.045628 0.301984
O O8 0.059827 0.927519 0.520205
O O9 0.448745 0.334205 0.306625
O O10 0.889808 0.517801 0.818751
O O11 0.748320 0.632897 0.890949
O O12 0.855738 0.507704 0.115722
O O13 0.756242 0.847891 0.198133
O O14 0.039751 0.876765 0.257199
O O15 0.525668 0.915792 0.247137
O O16 0.317133 0.770830 0.725429
#
# Coordination Sequence:
#
# PCOD9093824 Si02
#       8
#     2   2   2   2   2   2   2   2
#     4  10  20  37  60  91 110 150 199 237 284 326
#     4  11  21  38  56  86 122 147 191 238 290 349
#     4  10  20  38  57  84 120 151 194 236 288 340
#     4  10  20  37  62  84 116 147 200 243 275 343
#     4  10  21  36  59  88 110 155 193 238 290 332
#     4  10  20  33  58  89 117 146 191 242 285 340
#     4  11  20  36  62  87 117 148 192 246 286 337
#     4  10  22  36  59  85 117 154 189 237 288 348
#
# _framework density 26.071601000000001
#
# number of rings (size 3 to 8) (size 9 to 14) (size 15 to 20)
#    0.000    1.750    5.000    0.750    0.000    2.000 
#    2.250    0.625    0.000    1.500    0.000    0.000 
#    0.000    0.000    0.000    0.000    0.000    0.000 
#
# Total GULP energy -89506.662487 kJ/mol
# GULP energy per Si atom -5594.166405 kJ/mol
# Density = 2.601226 g / cm^3
# Si number density = 26.071601 Si / 1000 Ang^3
#
#
#
# Elastic Constant Matrix: (Units=GPa)
#
#
# Indices 1 2 3 4 5 6 
#
# 1 76.4139 54.1576 16.6310 6.6037 1.6599 -28.0495
# 2 54.1576 153.9779 13.1608 14.9369 -2.0812 -44.8289
# 3 16.6310 13.1608 28.9233 0.1864 -15.7682 -5.2712
# 4 6.6037 14.9369 0.1864 31.3492 -3.7261 -9.3304
# 5 1.6599 -2.0812 -15.7682 -3.7261 24.6198 2.8122
# 6 -28.0495 -44.8289 -5.2712 -9.3304 2.8122 57.9401
#
#
#
# Elastic Compliance Matrix: (Units=1/GPa)
#
#
# Indices 1 2 3 4 5 6 
#
# 1 0.023171 -0.004775 -0.017911 -0.002374 -0.014507 0.006215
# 2 -0.004775 0.009916 -0.001106 -0.002305 -0.000458 0.004910
# 3 -0.017911 -0.001106 0.070886 0.008403 0.048251 -0.004066
# 4 -0.002374 -0.002305 0.008403 0.035592 0.010384 0.003060
# 5 -0.014507 -0.000458 0.048251 0.010384 0.074595 -0.004936
# 6 0.006215 0.004910 -0.004066 0.003060 -0.004936 0.024430
#
#
# Mechanical properties :
#
#
# Convention : Reuss Voigt Hill
#
# Bulk Modulus (GPa) = 17.73425 47.46823 32.60124
# Shear Modulus (GPa) = 16.39506 34.47287 25.43397
#
# Velocity S-wave (km/s) = 2.51040 3.64020 3.12676
# Velocity P-wave (km/s) = 3.90125 5.99287 5.05639
#
# Compressibility (1/GPa) = 0.05638807
#
# Stress axis : x y z
#
# Youngs Moduli (GPa) = 43.15764 100.85170 14.10713
#
# Poissons Ratio (x) = 0.48159 0.25267
# Poissons Ratio (y) = 0.20609 0.01560
# Poissons Ratio (z) = 0.77300 0.11153
#
# Static dielectric constant tensor:
#      x y z
#    x 2.030510 -0.000210 0.044670 
#    y -0.000210 2.071560 -0.015990 
#    z 0.044670 -0.015990 2.069960 
# 
# From -- ./inp_files/259907.got.cif
#   From: 2010.05.17/outbox.cif.g08.bks.cpg/sg2_130_cif.got.tgz:259907.got - 2010.06.03 11:33:40.
