data_PCOD9093544
_publ_section_title
;
Structure prediction by ZEFSAII (Michael W. Deem and Ramdas Pophale) SiO2 
 PCOD9093544
Probable space group: P -1
;
_chemical_formula_sum "Si O2"
_cell_formula_units_Z 16
_cell_length_a 5.846099
_cell_length_b 7.217580
_cell_length_c 24.980201
_cell_angle_alpha 53.471097
_cell_angle_beta 107.626187
_cell_angle_gamma 138.043458
_cell_volume 546.739812
_symmetry_space_group_name_H-M "P -1"
_symmetry_group_IT_number 2
_symmetry_cell_setting 'triclinic'
loop_
_space_group_symop_operation_xyz
x,y,z
-x,-y,-z
loop_
_atom_site_type_symbol
_atom_site_label
_atom_site_fract_x
_atom_site_fract_y
_atom_site_fract_z
Si Si1 0.819495 0.532276 0.922090
Si Si2 0.398299 0.286839 0.453315
Si Si3 0.274114 0.026954 0.045152
Si Si4 0.870989 0.518113 0.672445
Si Si5 0.386041 0.912675 0.422344
Si Si6 0.352579 0.032526 0.796702
Si Si7 0.191773 0.021367 0.291613
Si Si8 0.270116 0.475405 0.832413
O O1 0.543640 0.502920 0.877447
O O2 0.203599 0.904991 0.868614
O O3 0.771547 0.251557 0.938738
O O4 0.666563 0.397784 0.994677
O O5 0.377755 0.507358 0.380323
O O6 0.456234 0.136395 0.437298
O O7 0.656908 0.372124 0.504805
O O8 0.000000 0.000000 0.500000
O O9 0.122971 0.894165 0.117516
O O10 0.000000 0.000000 0.000000
O O11 0.268465 0.877202 0.626901
O O12 0.728437 0.410672 0.741689
O O13 0.845959 0.242002 0.697715
O O14 0.140332 0.895568 0.369792
O O15 0.311356 0.751311 0.816341
O O16 0.084874 0.000525 0.749252
O O17 0.580359 0.397221 0.238925
#
# Coordination Sequence:
#
# PCOD9093544 Si02
#       8
#     2   2   2   2   2   2   2   2
#     4   8  13  22  38  64  99 136 171 208 250 298
#     4   9  20  38  56  75 102 132 169 214 257 312
#     4   8  12  20  37  62  98 137 170 209 252 292
#     4  10  20  36  55  77 105 135 169 215 262 309
#     4  10  21  38  56  76 102 134 171 212 260 313
#     4   9  17  29  46  72 104 133 169 214 255 302
#     4  10  20  33  53  78 104 135 173 215 259 308
#     4   8  15  26  41  67 101 133 170 213 252 298
#
# _framework density 29.264375000000001
#
# number of rings (size 3 to 8) (size 9 to 14) (size 15 to 20)
#    0.000    3.000    0.000    0.750    0.000    4.500 
#    0.000    8.750    0.000    0.000    0.000    0.875 
#    0.000  206.000    0.000   63.250    0.000   24.750 
#
# Total GULP energy -89608.639119 kJ/mol
# GULP energy per Si atom -5600.539945 kJ/mol
# Density = 2.919777 g / cm^3
# Si number density = 29.264375 Si / 1000 Ang^3
#
#
#
# Elastic Constant Matrix: (Units=GPa)
#
#
# Indices 1 2 3 4 5 6 
#
# 1 156.0146 28.6354 55.7841 -8.1536 34.1728 -2.9253
# 2 28.6354 87.2374 35.5996 10.1246 8.2951 -0.8041
# 3 55.7841 35.5996 233.8001 -6.3031 -16.5061 -9.3388
# 4 -8.1536 10.1246 -6.3031 33.2246 8.7397 2.3524
# 5 34.1728 8.2951 -16.5061 8.7397 98.7454 -7.4815
# 6 -2.9253 -0.8041 -9.3388 2.3524 -7.4815 27.7007
#
#
#
# Elastic Compliance Matrix: (Units=1/GPa)
#
#
# Indices 1 2 3 4 5 6 
#
# 1 0.008352 -0.002044 -0.001873 0.003282 -0.003398 -0.001005
# 2 -0.002044 0.013419 -0.001708 -0.004836 -0.000283 -0.000068
# 3 -0.001873 -0.001708 0.005199 0.000444 0.001769 0.001945
# 4 0.003282 -0.004836 0.000444 0.033743 -0.003912 -0.003566
# 5 -0.003398 -0.000283 0.001769 -0.003912 0.012262 0.003873
# 6 -0.001005 -0.000068 0.001945 -0.003566 0.003873 0.037997
#
#
# Mechanical properties :
#
#
# Convention : Reuss Voigt Hill
#
# Bulk Modulus (GPa) = 63.62252 79.67670 71.64961
# Shear Modulus (GPa) = 39.22755 55.73634 47.48194
#
# Velocity S-wave (km/s) = 3.66519 4.36888 4.03242
# Velocity P-wave (km/s) = 6.30074 7.26190 6.79833
#
# Compressibility (1/GPa) = 0.01571771
#
# Stress axis : x y z
#
# Youngs Moduli (GPa) = 119.73784 74.52339 192.35396
#
# Poissons Ratio (x) = 0.15233 0.36028
# Poissons Ratio (y) = 0.24476 0.32864
# Poissons Ratio (z) = 0.22427 0.12732
#
# Static dielectric constant tensor:
#      x y z
#    x 2.331920 0.108990 -0.068920 
#    y 0.108990 2.194180 -0.049750 
#    z -0.068920 -0.049750 2.353950 
# 
# From -- ./inp_files/13146.got.cif
#   From: 2010.05.17/outbox.cif.g08.bks.cpg/sg2_7_cif.got.tgz:13146.got - 2010.06.03 11:33:40.
