data_PCOD9093096
_publ_section_title
;
Structure prediction by ZEFSAII (Michael W. Deem and Ramdas Pophale) SiO2 
 PCOD9093096
Probable space group: P -1
;
_chemical_formula_sum "Si O2"
_cell_formula_units_Z 14
_cell_length_a 13.824158
_cell_length_b 13.469723
_cell_length_c 11.081518
_cell_angle_alpha 35.354548
_cell_angle_beta 149.496793
_cell_angle_gamma 140.332427
_cell_volume 590.049496
_symmetry_space_group_name_H-M "P -1"
_symmetry_group_IT_number 2
_symmetry_cell_setting 'triclinic'
loop_
_space_group_symop_operation_xyz
x,y,z
-x,-y,-z
loop_
_atom_site_type_symbol
_atom_site_label
_atom_site_fract_x
_atom_site_fract_y
_atom_site_fract_z
Si Si1 0.234130 0.808625 0.930618
Si Si2 0.433049 0.705732 0.755624
Si Si3 0.110817 0.471446 0.523625
Si Si4 0.188208 0.998590 0.121408
Si Si5 0.367952 0.121610 0.593156
Si Si6 0.236655 0.753692 0.722544
Si Si7 0.004877 0.241066 0.053119
O O1 0.231447 0.703444 0.907650
O O2 0.047483 0.763902 0.857923
O O3 0.279918 0.010234 0.729710
O O4 0.412070 0.790297 0.226006
O O5 0.302066 0.848480 0.435449
O O6 0.362658 0.661581 0.861254
O O7 0.339555 0.541111 0.731157
O O8 0.654351 0.816875 0.878758
O O9 0.987404 0.285025 0.526475
O O10 0.000000 0.500000 0.500000
O O11 0.056429 0.600773 0.237087
O O12 0.113503 0.934296 0.970210
O O13 0.000000 0.000000 0.000000
O O14 0.232560 0.245598 0.281549
O O15 0.343706 0.960835 0.632104
#
# Coordination Sequence:
#
# PCOD9093096 Si02
#       7
#     2   2   2   2   2   2   2
#     4   9  20  35  59  85 114 147 188 236 290 328
#     4   9  18  35  54  76 110 149 182 227 283 328
#     4   9  20  36  57  82 116 158 188 229 288 337
#     4  10  20  31  54  85 106 138 192 235 275 326
#     4   9  19  35  57  84 113 143 190 235 280 334
#     4   9  17  35  58  80 118 153 183 228 289 340
#     4  11  20  34  60  84 111 147 193 235 279 338
#
# _framework density 23.726823
#
# number of rings (size 3 to 8) (size 9 to 14) (size 15 to 20)
#    0.857    1.714    0.000    2.143    0.000    2.857 
#    0.000    0.714    0.000   52.286    0.000    0.000 
#    0.000    0.000    0.000    0.000    0.000    0.000 
#
# Total GULP energy -78132.686144 kJ/mol
# GULP energy per Si atom -5580.906153 kJ/mol
# Density = 2.367282 g / cm^3
# Si number density = 23.726823 Si / 1000 Ang^3
#
#
#
# Elastic Constant Matrix: (Units=GPa)
#
#
# Indices 1 2 3 4 5 6 
#
# 1 93.9146 22.7050 12.1235 13.3360 -5.2949 -8.0488
# 2 22.7050 103.7589 32.3656 30.6422 -1.0422 -1.9468
# 3 12.1235 32.3656 107.2816 41.9664 7.3540 -4.5625
# 4 13.3360 30.6422 41.9664 50.2974 6.1452 -6.4794
# 5 -5.2949 -1.0422 7.3540 6.1452 25.0147 10.7820
# 6 -8.0488 -1.9468 -4.5625 -6.4794 10.7820 24.4317
#
#
#
# Elastic Compliance Matrix: (Units=1/GPa)
#
#
# Indices 1 2 3 4 5 6 
#
# 1 0.011688 -0.001953 -0.000061 -0.001766 0.001801 0.002420
# 2 -0.001953 0.012463 -0.001218 -0.006921 0.003584 -0.003295
# 3 -0.000061 -0.001218 0.014002 -0.010653 -0.001756 0.000447
# 4 -0.001766 -0.006921 -0.010653 0.036343 -0.011444 0.011566
# 5 0.001801 0.003584 -0.001756 -0.011444 0.055454 -0.026956
# 6 0.002420 -0.003295 0.000447 0.011566 -0.026956 0.056512
#
#
# Mechanical properties :
#
#
# Convention : Reuss Voigt Hill
#
# Bulk Modulus (GPa) = 31.55684 48.81591 40.18638
# Shear Modulus (GPa) = 24.57138 35.79950 30.18544
#
# Velocity S-wave (km/s) = 3.22156 3.88857 3.57067
# Velocity P-wave (km/s) = 5.21218 6.38593 5.82868
#
# Compressibility (1/GPa) = 0.03168885
#
# Stress axis : x y z
#
# Youngs Moduli (GPa) = 85.55857 80.23625 71.41837
#
# Poissons Ratio (x) = 0.15674 0.00436
# Poissons Ratio (y) = 0.16713 0.08696
# Poissons Ratio (z) = 0.00523 0.09769
#
# Static dielectric constant tensor:
#      x y z
#    x 1.873360 -0.028520 0.014250 
#    y -0.028520 2.018180 -0.041660 
#    z 0.014250 -0.041660 1.948030 
# 
# From -- ./inp_files/454678.got.cif
#   From: 2010.05.17/outbox.cif.g08.bks.cpg/sg2_228_cif.got.tgz:454678.got - 2010.06.03 11:33:40.
