data_PCOD9093125
_publ_section_title
;
Structure prediction by ZEFSAII (Michael W. Deem and Ramdas Pophale) SiO2 
 PCOD9093125
Probable space group: P -1
;
_chemical_formula_sum "Si O2"
_cell_formula_units_Z 12
_cell_length_a 9.144241
_cell_length_b 13.823034
_cell_length_c 11.740905
_cell_angle_alpha 134.168264
_cell_angle_beta 141.552368
_cell_angle_gamma 76.848827
_cell_volume 463.863975
_symmetry_space_group_name_H-M "P -1"
_symmetry_group_IT_number 2
_symmetry_cell_setting 'triclinic'
loop_
_space_group_symop_operation_xyz
x,y,z
-x,-y,-z
loop_
_atom_site_type_symbol
_atom_site_label
_atom_site_fract_x
_atom_site_fract_y
_atom_site_fract_z
Si Si1 0.016642 0.168086 0.634417
Si Si2 0.227065 0.824813 0.276441
Si Si3 0.702709 0.365112 0.296185
Si Si4 0.434144 0.288582 0.295416
Si Si5 0.866217 0.137976 0.256558
Si Si6 0.331896 0.225945 0.429863
O O1 0.971510 0.196803 0.500906
O O2 0.782715 0.136529 0.563674
O O3 0.405452 0.337198 0.045903
O O4 0.000000 0.000000 0.500000
O O5 0.369106 0.732929 0.294229
O O6 0.500000 0.000000 0.500000
O O7 0.874171 0.740704 0.950960
O O8 0.727958 0.418724 0.488071
O O9 0.000000 0.500000 0.500000
O O10 0.653655 0.181882 0.125478
O O11 0.494312 0.343315 0.508267
O O12 0.303468 0.079640 0.034284
O O13 0.171285 0.255265 0.450410
O O14 0.000000 0.000000 0.000000
#
# Coordination Sequence:
#
# PCOD9093125 Si02
#       6
#     2   2   2   2   2   2
#     4  11  22  36  64  91 116 154 204 251 290 347
#     4  11  18  32  52  88 124 142 190 248 303 335
#     4  11  25  41  60  87 124 161 198 247 302 354
#     4  10  21  37  60  88 119 155 196 245 300 348
#     4  11  21  37  62  92 117 153 206 246 295 350
#     4  10  20  31  57  90 121 151 189 250 302 345
#
# _framework density 25.869651999999999
#
# number of rings (size 3 to 8) (size 9 to 14) (size 15 to 20)
#    0.000    1.333    6.667    1.500    4.667    2.000 
#    0.000    0.833    0.000    5.000    0.000    0.000 
#    0.000    0.000    0.000    0.000    0.000    0.000 
#
# Total GULP energy -67024.072443 kJ/mol
# GULP energy per Si atom -5585.339370 kJ/mol
# Density = 2.581077 g / cm^3
# Si number density = 25.869652 Si / 1000 Ang^3
#
#
#
# Elastic Constant Matrix: (Units=GPa)
#
#
# Indices 1 2 3 4 5 6 
#
# 1 219.0726 69.0084 54.2272 2.3898 46.3156 47.5361
# 2 69.0084 136.5483 53.6538 -20.4664 -1.1188 21.3019
# 3 54.2272 53.6538 69.0036 -18.6482 21.3680 11.5796
# 4 2.3898 -20.4664 -18.6482 51.3385 4.2623 7.4068
# 5 46.3156 -1.1188 21.3680 4.2623 50.6579 7.4837
# 6 47.5361 21.3019 11.5796 7.4068 7.4837 78.9512
#
#
#
# Elastic Compliance Matrix: (Units=1/GPa)
#
#
# Indices 1 2 3 4 5 6 
#
# 1 0.007905 -0.003051 -0.001856 -0.001334 -0.005960 -0.002974
# 2 -0.003051 0.012961 -0.009254 0.001525 0.007014 -0.001111
# 3 -0.001856 -0.009254 0.028801 0.007835 -0.011274 -0.000276
# 4 -0.001334 0.001525 0.007835 0.023678 -0.003654 -0.002632
# 5 -0.005960 0.007014 -0.011274 -0.003654 0.030286 0.000822
# 6 -0.002974 -0.001111 -0.000276 -0.002632 0.000822 0.014966
#
#
# Mechanical properties :
#
#
# Convention : Reuss Voigt Hill
#
# Bulk Modulus (GPa) = 46.84767 86.48928 66.66847
# Shear Modulus (GPa) = 32.46070 52.70518 42.58294
#
# Velocity S-wave (km/s) = 3.54613 4.51858 4.06157
# Velocity P-wave (km/s) = 5.90890 7.79287 6.91534
#
# Compressibility (1/GPa) = 0.02134578
#
# Stress axis : x y z
#
# Youngs Moduli (GPa) = 126.50044 77.15745 34.72133
#
# Poissons Ratio (x) = 0.23538 0.06445
# Poissons Ratio (y) = 0.38590 0.32130
# Poissons Ratio (z) = 0.23481 0.71398
#
# Static dielectric constant tensor:
#      x y z
#    x 2.004890 -0.032860 -0.093850 
#    y -0.032860 2.056760 0.090420 
#    z -0.093850 0.090420 2.295570 
# 
# From -- ./inp_files/247441.got.cif
#   From: 2010.05.17/outbox.cif.g08.bks.cpg/sg2_124_cif.got.tgz:247441.got - 2010.06.03 11:33:40.
