data_PCOD9093816
_publ_section_title
;
Structure prediction by ZEFSAII (Michael W. Deem and Ramdas Pophale) SiO2 
 PCOD9093816
Probable space group: P -1
;
_chemical_formula_sum "Si O2"
_cell_formula_units_Z 16
_cell_length_a 9.017009
_cell_length_b 21.827315
_cell_length_c 9.557724
_cell_angle_alpha 145.683582
_cell_angle_beta 45.000514
_cell_angle_gamma 125.789531
_cell_volume 749.897184
_symmetry_space_group_name_H-M "P -1"
_symmetry_group_IT_number 2
_symmetry_cell_setting 'triclinic'
loop_
_space_group_symop_operation_xyz
x,y,z
-x,-y,-z
loop_
_atom_site_type_symbol
_atom_site_label
_atom_site_fract_x
_atom_site_fract_y
_atom_site_fract_z
Si Si1 0.510571 0.446026 0.241000
Si Si2 0.425950 0.810841 0.535376
Si Si3 0.370320 0.007288 0.455882
Si Si4 0.336264 0.417216 0.028221
Si Si5 0.451229 0.152704 0.177214
Si Si6 0.995954 0.953045 0.756625
Si Si7 0.795480 0.621596 0.240914
Si Si8 0.815619 0.263681 0.680249
O O1 0.500000 0.500000 0.500000
O O2 0.688155 0.515019 0.172442
O O3 0.317151 0.450413 0.267128
O O4 0.598883 0.324393 0.972843
O O5 0.556748 0.700255 0.252814
O O6 0.420665 0.854690 0.778396
O O7 0.210551 0.777174 0.538995
O O8 0.540172 0.895911 0.517300
O O9 0.128730 0.023300 0.691359
O O10 0.500000 0.000000 0.500000
O O11 0.415178 0.897950 0.132241
O O12 0.159502 0.400214 0.995448
O O13 0.500000 0.500000 0.000000
O O14 0.366409 0.276015 0.445807
O O15 0.238857 0.079746 0.189230
O O16 0.127895 0.841396 0.466390
O O17 0.000000 0.000000 0.000000
O O18 0.996468 0.654902 0.258277
#
# Coordination Sequence:
#
# PCOD9093816 Si02
#       8
#     2   2   2   2   2   2   2   2
#     4  10  20  33  58  87 114 146 192 242 290 351
#     4  10  20  37  59  86 117 156 196 244 298 351
#     4  12  22  36  63  86 121 158 198 248 297 352
#     4   8  17  36  57  81 112 152 189 235 295 350
#     4  10  22  38  60  85 121 155 200 243 298 354
#     4  11  22  39  59  89 117 159 200 245 296 355
#     4   9  19  36  60  80 110 156 192 236 293 347
#     4  10  20  36  59  80 116 148 197 236 292 351
#
# _framework density 21.336258999999998
#
# number of rings (size 3 to 8) (size 9 to 14) (size 15 to 20)
#    0.000    2.000    2.500    0.750    1.750    0.500 
#    0.000    0.625    5.500    0.000    0.000    0.000 
#    0.000    0.000    0.000    0.000    0.000    0.000 
#
# Total GULP energy -89183.515932 kJ/mol
# GULP energy per Si atom -5573.969746 kJ/mol
# Density = 2.128770 g / cm^3
# Si number density = 21.336259 Si / 1000 Ang^3
#
#
#
# Elastic Constant Matrix: (Units=GPa)
#
#
# Indices 1 2 3 4 5 6 
#
# 1 139.3278 14.9396 38.4151 -17.4359 43.6509 -6.7215
# 2 14.9396 46.9637 23.4417 6.3061 -1.1433 -16.0718
# 3 38.4151 23.4417 101.4061 -7.0627 26.0365 -16.6356
# 4 -17.4359 6.3061 -7.0627 31.4003 -10.7696 1.7687
# 5 43.6509 -1.1433 26.0365 -10.7696 43.1840 -0.1003
# 6 -6.7215 -16.0718 -16.6356 1.7687 -0.1003 33.2498
#
#
#
# Elastic Compliance Matrix: (Units=1/GPa)
#
#
# Indices 1 2 3 4 5 6 
#
# 1 0.011504 -0.004221 -0.000442 0.003510 -0.010599 -0.000155
# 2 -0.004221 0.030796 -0.005898 -0.008238 0.006611 0.011540
# 3 -0.000442 -0.005898 0.014185 0.001170 -0.007961 0.004071
# 4 0.003510 -0.008238 0.001170 0.037661 0.004910 -0.004676
# 5 -0.010599 0.006611 -0.007961 0.004910 0.040062 -0.003071
# 6 -0.000155 0.011540 0.004071 -0.004676 -0.003071 0.037898
#
#
# Mechanical properties :
#
#
# Convention : Reuss Voigt Hill
#
# Bulk Modulus (GPa) = 28.27763 49.03226 38.65494
# Shear Modulus (GPa) = 24.38825 35.62690 30.00758
#
# Velocity S-wave (km/s) = 3.38456 4.09073 3.75428
# Velocity P-wave (km/s) = 5.34376 6.73370 6.07859
#
# Compressibility (1/GPa) = 0.03536364
#
# Stress axis : x y z
#
# Youngs Moduli (GPa) = 86.92504 32.47180 70.49485
#
# Poissons Ratio (x) = 0.13707 0.03114
# Poissons Ratio (y) = 0.36694 0.41577
# Poissons Ratio (z) = 0.03840 0.19151
#
# Static dielectric constant tensor:
#      x y z
#    x 1.848000 0.012350 0.030970 
#    y 0.012350 1.772740 0.009470 
#    z 0.030970 0.009470 1.823970 
# 
# From -- ./inp_files/216805.got.cif
#   From: 2010.05.17/outbox.cif.g08.bks.cpg/sg2_109_cif.got.tgz:216805.got - 2010.06.03 11:33:40.
