data_PCOD9093587
_publ_section_title
;
Structure prediction by ZEFSAII (Michael W. Deem and Ramdas Pophale) SiO2 
 PCOD9093587
Probable space group: P -1
;
_chemical_formula_sum "Si O2"
_cell_formula_units_Z 16
_cell_length_a 11.852138
_cell_length_b 15.726620
_cell_length_c 10.872622
_cell_angle_alpha 136.775734
_cell_angle_beta 99.599624
_cell_angle_gamma 113.239449
_cell_volume 882.520482
_symmetry_space_group_name_H-M "P -1"
_symmetry_group_IT_number 2
_symmetry_cell_setting 'triclinic'
loop_
_space_group_symop_operation_xyz
x,y,z
-x,-y,-z
loop_
_atom_site_type_symbol
_atom_site_label
_atom_site_fract_x
_atom_site_fract_y
_atom_site_fract_z
Si Si1 0.284719 0.975167 0.184395
Si Si2 0.100284 0.268928 0.746640
Si Si3 0.334596 0.675689 0.288346
Si Si4 0.806703 0.915224 0.502006
Si Si5 0.511317 0.810292 0.206183
Si Si6 0.225758 0.648925 0.812167
Si Si7 0.193366 0.795173 0.468139
Si Si8 0.180161 0.770874 0.715161
O O1 0.496587 0.166323 0.426652
O O2 0.212526 0.020605 0.309949
O O3 0.239155 0.796906 0.035428
O O4 0.209519 0.906711 0.960422
O O5 0.162931 0.206019 0.608798
O O6 0.984249 0.273764 0.657019
O O7 0.261976 0.476906 0.055537
O O8 0.971442 0.106937 0.656976
O O9 0.406891 0.769107 0.264242
O O10 0.181711 0.641225 0.269558
O O11 0.629976 0.794726 0.261200
O O12 0.656279 0.024678 0.403826
O O13 0.366502 0.676752 0.931910
O O14 0.740067 0.280860 0.249250
O O15 0.027942 0.432333 0.553583
O O16 0.254677 0.855960 0.684236
#
# Coordination Sequence:
#
# PCOD9093587 Si02
#       8
#     2   2   2   2   2   2   2   2
#     4   9  19  34  53  74 108 137 172 211 260 303
#     4  10  22  35  54  81 105 138 176 212 265 311
#     4  11  21  31  54  83 105 138 172 214 270 312
#     4   9  21  38  54  76 109 138 171 218 259 314
#     4  10  20  33  54  78 108 139 168 215 270 305
#     4   9  18  33  52  76 109 133 176 213 257 312
#     4  11  20  33  53  78 113 135 172 219 258 307
#     4   9  20  33  50  80 106 140 174 212 259 311
#
# _framework density 18.129892000000002
#
# number of rings (size 3 to 8) (size 9 to 14) (size 15 to 20)
#    0.750    1.500    1.250    1.500    5.250    4.000 
#    0.000    0.625    0.000    0.000    0.000    7.000 
#    0.000    0.000    0.000    0.000    0.000    0.000 
#
# Total GULP energy -89082.580519 kJ/mol
# GULP energy per Si atom -5567.661282 kJ/mol
# Density = 1.808863 g / cm^3
# Si number density = 18.129892 Si / 1000 Ang^3
#
#
#
# Elastic Constant Matrix: (Units=GPa)
#
#
# Indices 1 2 3 4 5 6 
#
# 1 95.1461 30.1578 49.2266 -0.5128 -18.7459 4.1658
# 2 30.1578 30.8007 19.3835 -5.3283 -8.1227 -1.0586
# 3 49.2266 19.3835 121.2469 0.2876 0.5024 -5.7613
# 4 -0.5128 -5.3283 0.2876 12.3338 -0.4176 -2.8955
# 5 -18.7459 -8.1227 0.5024 -0.4176 24.9736 -0.2844
# 6 4.1658 -1.0586 -5.7613 -2.8955 -0.2844 7.0391
#
#
#
# Elastic Compliance Matrix: (Units=1/GPa)
#
#
# Indices 1 2 3 4 5 6 
#
# 1 0.024184 -0.018715 -0.008214 -0.013261 0.011681 -0.028833
# 2 -0.018715 0.059596 -0.000440 0.033063 0.006280 0.033532
# 3 -0.008214 -0.000440 0.012424 0.002675 -0.006334 0.015808
# 4 -0.013261 0.033063 0.002675 0.108933 0.003250 0.059951
# 5 0.011681 0.006280 -0.006334 0.003250 0.050947 -0.007758
# 6 -0.028833 0.033532 0.015808 0.059951 -0.007758 0.201456
#
#
# Mechanical properties :
#
#
# Convention : Reuss Voigt Hill
#
# Bulk Modulus (GPa) = 24.11596 49.41438 36.76517
# Shear Modulus (GPa) = 9.50390 18.76434 14.13412
#
# Velocity S-wave (km/s) = 2.29205 3.22062 2.79517
# Velocity P-wave (km/s) = 4.50947 6.41442 5.54437
#
# Compressibility (1/GPa) = 0.04146632
#
# Stress axis : x y z
#
# Youngs Moduli (GPa) = 41.34941 16.77960 80.48945
#
# Poissons Ratio (x) = 0.31402 0.66114
# Poissons Ratio (y) = 0.77384 0.03545
# Poissons Ratio (z) = 0.33964 0.00739
#
# Static dielectric constant tensor:
#      x y z
#    x 1.636370 -0.000430 0.019760 
#    y -0.000430 1.635930 -0.002830 
#    z 0.019760 -0.002830 1.636980 
# 
# From -- ./inp_files/423414.got.cif
#   From: 2010.05.17/outbox.cif.g08.bks.cpg/sg2_212_cif.got.tgz:423414.got - 2010.06.03 11:33:40.
