data_PCOD9093490
_publ_section_title
;
Structure prediction by ZEFSAII (Michael W. Deem and Ramdas Pophale) SiO2 
 PCOD9093490
Probable space group: P -1
;
_chemical_formula_sum "Si O2"
_cell_formula_units_Z 16
_cell_length_a 15.025530
_cell_length_b 5.849809
_cell_length_c 15.445352
_cell_angle_alpha 80.891436
_cell_angle_beta 144.750800
_cell_angle_gamma 103.063110
_cell_volume 762.402159
_symmetry_space_group_name_H-M "P -1"
_symmetry_group_IT_number 2
_symmetry_cell_setting 'triclinic'
loop_
_space_group_symop_operation_xyz
x,y,z
-x,-y,-z
loop_
_atom_site_type_symbol
_atom_site_label
_atom_site_fract_x
_atom_site_fract_y
_atom_site_fract_z
Si Si1 0.753762 0.313984 0.932709
Si Si2 0.654263 0.245786 0.188754
Si Si3 0.791527 0.699773 0.049479
Si Si4 0.304445 0.215741 0.842333
Si Si5 0.492432 0.897460 0.735794
Si Si6 0.582170 0.231945 0.502337
Si Si7 0.019830 0.020789 0.117470
Si Si8 0.276831 0.428367 0.274812
O O1 0.794692 0.498385 0.875769
O O2 0.582730 0.165191 0.787816
O O3 0.758092 0.420922 0.025492
O O4 0.887447 0.159561 0.039606
O O5 0.724989 0.527376 0.231691
O O6 0.606566 0.162067 0.253185
O O7 0.735624 0.034437 0.225319
O O8 0.491633 0.241758 0.006758
O O9 0.775826 0.795596 0.126411
O O10 0.644321 0.767453 0.873894
O O11 0.961371 0.782849 0.136920
O O12 0.395973 0.827421 0.576404
O O13 0.450742 0.398409 0.388789
O O14 0.718504 0.367275 0.662830
O O15 0.500000 0.000000 0.500000
O O16 0.185931 0.182590 0.253481
O O17 0.000000 0.000000 0.000000
#
# Coordination Sequence:
#
# PCOD9093490 Si02
#       8
#     2   2   2   2   2   2   2   2
#     4  11  20  33  54  77 107 147 178 224 274 329
#     4   9  19  31  52  74 111 144 180 226 274 344
#     4  10  21  32  53  75 113 140 178 221 276 334
#     4   9  19  32  48  80 108 144 178 225 283 331
#     4  10  20  33  51  77 107 144 183 218 278 324
#     4  11  22  36  52  75 109 145 179 227 261 320
#     4  11  22  34  52  80 106 144 185 220 273 331
#     4  11  22  35  52  76 107 146 184 221 267 318
#
# _framework density 20.986297
#
# number of rings (size 3 to 8) (size 9 to 14) (size 15 to 20)
#    0.000    1.750    3.750    1.125   10.500    0.000 
#    0.000    0.000    0.000    0.000    0.000    1.750 
#    0.000    0.000    0.000    0.000    0.000    0.000 
#
# Total GULP energy -89111.103069 kJ/mol
# GULP energy per Si atom -5569.443942 kJ/mol
# Density = 2.093853 g / cm^3
# Si number density = 20.986297 Si / 1000 Ang^3
#
#
#
# Elastic Constant Matrix: (Units=GPa)
#
#
# Indices 1 2 3 4 5 6 
#
# 1 102.6849 50.6988 31.0845 19.2322 -23.5318 -8.5267
# 2 50.6988 104.1043 18.7926 19.9604 -19.8463 -9.8922
# 3 31.0845 18.7926 29.1882 14.9089 -17.2967 -3.9153
# 4 19.2322 19.9604 14.9089 30.9886 -5.5064 -5.0889
# 5 -23.5318 -19.8463 -17.2967 -5.5064 25.2235 6.2742
# 6 -8.5267 -9.8922 -3.9153 -5.0889 6.2742 32.8287
#
#
#
# Elastic Compliance Matrix: (Units=1/GPa)
#
#
# Indices 1 2 3 4 5 6 
#
# 1 0.016969 -0.005317 -0.012839 -0.000351 0.002586 0.000725
# 2 -0.005317 0.014169 0.004487 -0.006474 0.007611 0.000965
# 3 -0.012839 0.004487 0.086280 -0.029141 0.045580 -0.004921
# 4 -0.000351 -0.006474 -0.029141 0.048663 -0.016048 0.005093
# 5 0.002586 0.007611 0.045580 -0.016048 0.078039 -0.009001
# 6 0.000725 0.000965 -0.004921 0.005093 -0.009001 0.032863
#
#
# Mechanical properties :
#
#
# Convention : Reuss Voigt Hill
#
# Bulk Modulus (GPa) = 11.10136 48.56990 29.83563
# Shear Modulus (GPa) = 14.95451 26.83493 20.89472
#
# Velocity S-wave (km/s) = 2.67232 3.57975 3.15879
# Velocity P-wave (km/s) = 3.85007 6.34666 5.24896
#
# Compressibility (1/GPa) = 0.09007903
#
# Stress axis : x y z
#
# Youngs Moduli (GPa) = 58.93145 70.57494 11.59022
#
# Poissons Ratio (x) = 0.37524 0.14881
# Poissons Ratio (y) = 0.31334 -0.05200
# Poissons Ratio (z) = 0.75662 -0.31664
#
# Static dielectric constant tensor:
#      x y z
#    x 1.755650 0.010120 0.005700 
#    y 0.010120 1.973540 0.017680 
#    z 0.005700 0.017680 1.761380 
# 
# From -- ./inp_files/74680.got.cif
#   From: 2010.05.17/outbox.cif.g08.bks.cpg/sg2_38_cif.got.tgz:74680.got - 2010.06.03 11:33:40.
