data_PCOD9093115
_publ_section_title
;
Structure prediction by ZEFSAII (Michael W. Deem and Ramdas Pophale) SiO2 
 PCOD9093115
Probable space group: P -1
;
_chemical_formula_sum "Si O2"
_cell_formula_units_Z 16
_cell_length_a 9.379952
_cell_length_b 11.015643
_cell_length_c 11.631099
_cell_angle_alpha 108.547957
_cell_angle_beta 141.366990
_cell_angle_gamma 64.002997
_cell_volume 673.765601
_symmetry_space_group_name_H-M "P -1"
_symmetry_group_IT_number 2
_symmetry_cell_setting 'triclinic'
loop_
_space_group_symop_operation_xyz
x,y,z
-x,-y,-z
loop_
_atom_site_type_symbol
_atom_site_label
_atom_site_fract_x
_atom_site_fract_y
_atom_site_fract_z
Si Si1 0.690693 0.782479 0.533581
Si Si2 0.860015 0.401866 0.129559
Si Si3 0.651369 0.573741 0.267044
Si Si4 0.103100 0.064477 0.442224
Si Si5 0.150926 0.345419 0.937618
Si Si6 0.666203 0.309005 0.331483
Si Si7 0.742105 0.919639 0.197776
Si Si8 0.343581 0.654246 0.407677
O O1 0.722254 0.689283 0.410254
O O2 0.483815 0.741644 0.457478
O O3 0.916702 0.727509 0.744557
O O4 0.714557 0.918738 0.535003
O O5 0.817850 0.494317 0.245551
O O6 0.900676 0.501996 0.090168
O O7 0.615692 0.371128 0.938335
O O8 0.650533 0.457577 0.322878
O O9 0.868021 0.200369 0.351040
O O10 0.239829 0.042024 0.645225
O O11 0.964988 0.958301 0.294456
O O12 0.229562 0.237168 0.849948
O O13 0.891586 0.341505 0.812694
O O14 0.393847 0.303617 0.152010
O O15 0.740710 0.285767 0.502197
O O16 0.500000 0.000000 0.000000
O O17 0.500000 0.500000 0.500000
#
# Coordination Sequence:
#
# PCOD9093115 Si02
#       8
#     2   2   2   2   2   2   2   2
#     4  12  23  38  59  92 133 164 201 252 311 380
#     4  10  20  33  58  94 124 158 199 262 313 370
#     4  10  20  31  55  90 128 158 198 250 317 360
#     4  11  24  40  69  97 118 159 217 267 313 366
#     4  11  22  39  64  90 127 163 212 260 306 373
#     4  11  21  38  63  91 122 163 212 254 305 366
#     4  11  23  43  70  96 118 157 216 273 316 356
#     4  12  24  39  59  92 136 177 200 242 313 383
#
# _framework density 23.747131
#
# number of rings (size 3 to 8) (size 9 to 14) (size 15 to 20)
#    0.000    1.000    6.250    1.125    0.000    2.500 
#    0.000    0.625    0.000    1.500    0.000    0.000 
#    0.000    0.000    0.000    0.000    0.000    0.000 
#
# Total GULP energy -89417.402552 kJ/mol
# GULP energy per Si atom -5588.587660 kJ/mol
# Density = 2.369308 g / cm^3
# Si number density = 23.747131 Si / 1000 Ang^3
#
#
#
# Elastic Constant Matrix: (Units=GPa)
#
#
# Indices 1 2 3 4 5 6 
#
# 1 84.7851 11.9065 12.9689 -8.3297 15.2242 21.1256
# 2 11.9065 57.0391 11.5948 3.6972 0.4356 15.2253
# 3 12.9689 11.5948 100.4344 -16.4967 7.0125 -0.2472
# 4 -8.3297 3.6972 -16.4967 30.2798 -4.4170 -2.0083
# 5 15.2242 0.4356 7.0125 -4.4170 33.3926 3.3952
# 6 21.1256 15.2253 -0.2472 -2.0083 3.3952 26.8430
#
#
#
# Elastic Compliance Matrix: (Units=1/GPa)
#
#
# Indices 1 2 3 4 5 6 
#
# 1 0.016177 -0.000022 -0.001380 0.002097 -0.005601 -0.011866
# 2 -0.000022 0.022082 -0.003531 -0.005335 0.001087 -0.013077
# 3 -0.001380 -0.003531 0.011711 0.006495 -0.001316 0.003849
# 4 0.002097 -0.005335 0.006495 0.038411 0.002423 0.004003
# 5 -0.005601 0.001087 -0.001316 0.002423 0.033106 -0.000227
# 6 -0.011866 -0.013077 0.003849 0.004003 -0.000227 0.054374
#
#
# Mechanical properties :
#
#
# Convention : Reuss Voigt Hill
#
# Bulk Modulus (GPa) = 24.93489 35.02213 29.97851
# Shear Modulus (GPa) = 25.11363 31.82230 28.46796
#
# Velocity S-wave (km/s) = 3.25552 3.66464 3.46612
# Velocity P-wave (km/s) = 4.96530 5.71717 5.35445
#
# Compressibility (1/GPa) = 0.04010445
#
# Stress axis : x y z
#
# Youngs Moduli (GPa) = 61.81514 45.28530 85.39161
#
# Poissons Ratio (x) = 0.00100 0.11785
# Poissons Ratio (y) = 0.00136 0.30150
# Poissons Ratio (z) = 0.08531 0.15989
#
# Static dielectric constant tensor:
#      x y z
#    x 1.963610 -0.042130 0.010980 
#    y -0.042130 1.968780 0.008150 
#    z 0.010980 0.008150 1.873780 
# 
# From -- ./inp_files/390550.got.cif
#   From: 2010.05.17/outbox.cif.g08.bks.cpg/sg2_196_cif.got.tgz:390550.got - 2010.06.03 11:33:40.
