data_PCOD9093755
_publ_section_title
;
Structure prediction by ZEFSAII (Michael W. Deem and Ramdas Pophale) SiO2 
 PCOD9093755
Probable space group: P -1
;
_chemical_formula_sum "Si O2"
_cell_formula_units_Z 16
_cell_length_a 26.700240
_cell_length_b 29.493253
_cell_length_c 15.855634
_cell_angle_alpha 153.759323
_cell_angle_beta 152.911407
_cell_angle_gamma 8.419857
_cell_volume 807.470672
_symmetry_space_group_name_H-M "P -1"
_symmetry_group_IT_number 2
_symmetry_cell_setting 'triclinic'
loop_
_space_group_symop_operation_xyz
x,y,z
-x,-y,-z
loop_
_atom_site_type_symbol
_atom_site_label
_atom_site_fract_x
_atom_site_fract_y
_atom_site_fract_z
Si Si1 0.748620 0.129544 0.306760
Si Si2 0.598032 0.330527 0.934856
Si Si3 0.485496 0.850688 0.905774
Si Si4 0.550716 0.729175 0.499483
Si Si5 0.195513 0.568052 0.447733
Si Si6 0.775265 0.285076 0.811836
Si Si7 0.221433 0.262293 0.096576
Si Si8 0.205363 0.727032 0.581438
O O1 0.732341 0.039443 0.185057
O O2 0.379061 0.507925 0.401873
O O3 0.000000 0.000000 0.500000
O O4 0.874098 0.992014 0.171607
O O5 0.515239 0.289721 0.708165
O O6 0.500000 0.500000 0.000000
O O7 0.378570 0.536904 0.035658
O O8 0.000000 0.000000 0.000000
O O9 0.566642 0.725479 0.729299
O O10 0.857659 0.540491 0.985116
O O11 0.321503 0.103349 0.060367
O O12 0.650418 0.561821 0.444979
O O13 0.815540 0.587295 0.677812
O O14 0.205258 0.103502 0.604255
O O15 0.163299 0.692142 0.541882
O O16 0.488940 0.552111 0.755503
O O17 0.878807 0.075715 0.640536
O O18 0.500000 0.000000 0.000000
#
# Coordination Sequence:
#
# PCOD9093755 Si02
#       8
#     2   2   2   2   2   2   2   2
#     4   9  22  39  62  92 123 159 204 252 312 374
#     4  12  25  41  59  87 120 163 212 251 306 366
#     4  11  22  37  60  90 123 160 196 251 313 370
#     4  12  23  35  58  82 120 161 199 247 302 354
#     4  11  19  33  54  85 116 153 194 239 296 364
#     4  11  21  38  56  79 120 157 192 252 296 355
#     4  12  22  39  59  89 128 161 202 253 306 367
#     4  10  20  33  57  85 116 152 196 237 301 363
#
# _framework density 19.814962000000001
#
# number of rings (size 3 to 8) (size 9 to 14) (size 15 to 20)
#    0.000    1.000    2.500    6.000    0.000    7.000 
#    0.000    0.000    0.000    1.500    0.000    0.000 
#    0.000    0.000    0.000    0.000    0.000    0.000 
#
# Total GULP energy -89147.379015 kJ/mol
# GULP energy per Si atom -5571.711188 kJ/mol
# Density = 1.976986 g / cm^3
# Si number density = 19.814962 Si / 1000 Ang^3
#
#
#
# Elastic Constant Matrix: (Units=GPa)
#
#
# Indices 1 2 3 4 5 6 
#
# 1 110.6767 51.6540 41.7130 3.1931 1.2594 -9.5355
# 2 51.6540 75.6000 22.3768 -7.0057 -3.1138 12.3031
# 3 41.7130 22.3768 105.2840 -1.3327 0.8098 -21.7545
# 4 3.1931 -7.0057 -1.3327 23.7417 -2.6706 -1.0241
# 5 1.2594 -3.1138 0.8098 -2.6706 38.7576 6.6429
# 6 -9.5355 12.3031 -21.7545 -1.0241 6.6429 30.4518
#
#
#
# Elastic Compliance Matrix: (Units=1/GPa)
#
#
# Indices 1 2 3 4 5 6 
#
# 1 0.017187 -0.013588 -0.001878 -0.006416 -0.003791 0.010141
# 2 -0.013588 0.028451 -0.004803 0.009862 0.007000 -0.020376
# 3 -0.001878 -0.004803 0.013700 -0.000186 -0.002630 0.011707
# 4 -0.006416 0.009862 -0.000186 0.046218 0.005166 -0.005699
# 5 -0.003791 0.007000 -0.002630 0.005166 0.028961 -0.012038
# 6 0.010141 -0.020376 0.011707 -0.005699 -0.012038 0.055044
#
#
# Mechanical properties :
#
#
# Convention : Reuss Voigt Hill
#
# Bulk Modulus (GPa) = 53.19037 58.11650 55.65344
# Shear Modulus (GPa) = 21.15368 30.31135 25.73252
#
# Velocity S-wave (km/s) = 3.27090 3.91541 3.60758
# Velocity P-wave (km/s) = 6.41614 7.05931 6.74539
#
# Compressibility (1/GPa) = 0.01880040
#
# Stress axis : x y z
#
# Youngs Moduli (GPa) = 58.18404 35.14763 72.99444
#
# Poissons Ratio (x) = 0.47759 0.13708
# Poissons Ratio (y) = 0.79062 0.35057
# Poissons Ratio (z) = 0.10926 0.16880
#
# Static dielectric constant tensor:
#      x y z
#    x 1.749890 -0.026390 0.018310 
#    y -0.026390 1.793860 -0.045580 
#    z 0.018310 -0.045580 1.748410 
# 
# From -- ./inp_files/543445.got.cif
#   From: 2010.05.17/outbox.cif.g08.bks.cpg/sg2_272_cif.got.tgz:543445.got - 2010.06.03 11:33:40.
