data_PCOD9093988
_publ_section_title
;
Structure prediction by ZEFSAII (Michael W. Deem and Ramdas Pophale) SiO2 
 PCOD9093988
Probable space group: P -1
;
_chemical_formula_sum "Si O2"
_cell_formula_units_Z 14
_cell_length_a 17.947698
_cell_length_b 13.288792
_cell_length_c 17.359036
_cell_angle_alpha 140.687031
_cell_angle_beta 163.756946
_cell_angle_gamma 38.535479
_cell_volume 715.325613
_symmetry_space_group_name_H-M "P -1"
_symmetry_group_IT_number 2
_symmetry_cell_setting 'triclinic'
loop_
_space_group_symop_operation_xyz
x,y,z
-x,-y,-z
loop_
_atom_site_type_symbol
_atom_site_label
_atom_site_fract_x
_atom_site_fract_y
_atom_site_fract_z
Si Si1 0.570452 0.607139 0.703122
Si Si2 0.065398 0.838205 0.706783
Si Si3 0.624027 0.375177 0.981549
Si Si4 0.941543 0.429508 0.726490
Si Si5 0.778791 0.911361 0.259698
Si Si6 0.531389 0.020781 0.236297
Si Si7 0.894692 0.506946 0.551746
O O1 0.500000 0.500000 0.500000
O O2 0.327971 0.610643 0.526583
O O3 0.551655 0.788820 0.756818
O O4 0.862948 0.526721 0.985854
O O5 0.098883 0.673171 0.587704
O O6 0.199388 0.774511 0.884427
O O7 0.759285 0.948595 0.484268
O O8 0.262490 0.949618 0.934451
O O9 0.359934 0.367216 0.664708
O O10 0.500000 0.500000 0.000000
O O11 0.824582 0.451524 0.172566
O O12 0.865902 0.521185 0.624396
O O13 0.141966 0.269183 0.797536
O O14 0.725719 0.932795 0.308719
O O15 0.000000 0.000000 0.500000
O O16 0.500000 0.000000 0.000000
#
# Coordination Sequence:
#
# PCOD9093988 Si02
#       7
#     2   2   2   2   2   2   2
#     4  12  27  44  58  82 117 156 204 248 287 341
#     4  11  21  33  56  86 121 156 186 223 286 348
#     4  10  20  34  50  82 128 160 180 221 280 355
#     4  12  23  38  62  85 114 159 195 236 292 346
#     4  12  21  34  54  85 121 149 185 232 290 349
#     4  12  22  35  57  85 115 156 192 230 286 347
#     4  11  21  34  55  86 121 156 188 225 285 353
#
# _framework density 19.571507
#
# number of rings (size 3 to 8) (size 9 to 14) (size 15 to 20)
#    0.000    0.571    4.286    7.286    2.000    0.000 
#    0.000    0.000    0.000    0.000    0.000   20.000 
#    0.000    0.000    0.000    0.000    0.000    0.000 
#
# Total GULP energy -78018.793617 kJ/mol
# GULP energy per Si atom -5572.770973 kJ/mol
# Density = 1.952696 g / cm^3
# Si number density = 19.571507 Si / 1000 Ang^3
#
#
#
# Elastic Constant Matrix: (Units=GPa)
#
#
# Indices 1 2 3 4 5 6 
#
# 1 42.7220 15.5129 -4.2060 8.4492 -4.6857 9.8822
# 2 15.5129 22.1929 -3.4769 -1.8003 -2.8830 9.9838
# 3 -4.2060 -3.4769 90.3131 -11.9680 5.4614 3.9010
# 4 8.4492 -1.8003 -11.9680 37.6682 11.9896 -7.1383
# 5 -4.6857 -2.8830 5.4614 11.9896 42.8267 -4.4355
# 6 9.8822 9.9838 3.9010 -7.1383 -4.4355 18.5513
#
#
#
# Elastic Compliance Matrix: (Units=1/GPa)
#
#
# Indices 1 2 3 4 5 6 
#
# 1 0.037002 -0.020851 -0.000654 -0.013500 0.005234 -0.012295
# 2 -0.020851 0.072699 0.003774 0.004803 -0.002057 -0.027455
# 3 -0.000654 0.003774 0.012101 0.004506 -0.002953 -0.003200
# 4 -0.013500 0.004803 0.004506 0.037573 -0.010634 0.015574
# 5 0.005234 -0.002057 -0.002953 -0.010634 0.027280 0.001370
# 6 -0.012295 -0.027455 -0.003200 0.015574 0.001370 0.082223
#
#
# Mechanical properties :
#
#
# Convention : Reuss Voigt Hill
#
# Bulk Modulus (GPa) = 11.58194 18.98754 15.28474
# Shear Modulus (GPa) = 15.00963 29.63579 22.32271
#
# Velocity S-wave (km/s) = 2.77232 3.89553 3.38090
# Velocity P-wave (km/s) = 4.02223 5.47323 4.80284
#
# Compressibility (1/GPa) = 0.08634135
#
# Stress axis : x y z
#
# Youngs Moduli (GPa) = 27.02555 13.75536 82.63549
#
# Poissons Ratio (x) = 0.28681 0.05404
# Poissons Ratio (y) = 0.56351 -0.31190
# Poissons Ratio (z) = 0.01767 -0.05192
#
# Static dielectric constant tensor:
#      x y z
#    x 1.783540 0.101410 -0.136990 
#    y 0.101410 1.751720 -0.104240 
#    z -0.136990 -0.104240 1.817910 
# 
# From -- ./inp_files/433898.got.cif
#   From: 2010.05.17/outbox.cif.g08.bks.cpg/sg2_217_cif.got.tgz:433898.got - 2010.06.03 11:33:40.
