data_PCOD9093218
_publ_section_title
;
Structure prediction by ZEFSAII (Michael W. Deem and Ramdas Pophale) SiO2 
 PCOD9093218
Probable space group: P -1
;
_chemical_formula_sum "Si O2"
_cell_formula_units_Z 16
_cell_length_a 11.587925
_cell_length_b 12.026906
_cell_length_c 13.799004
_cell_angle_alpha 115.205849
_cell_angle_beta 125.127078
_cell_angle_gamma 108.649971
_cell_volume 919.430398
_symmetry_space_group_name_H-M "P -1"
_symmetry_group_IT_number 2
_symmetry_cell_setting 'triclinic'
loop_
_space_group_symop_operation_xyz
x,y,z
-x,-y,-z
loop_
_atom_site_type_symbol
_atom_site_label
_atom_site_fract_x
_atom_site_fract_y
_atom_site_fract_z
Si Si1 0.657668 0.664259 0.717552
Si Si2 0.027765 0.074233 0.761187
Si Si3 0.135265 0.959858 0.122561
Si Si4 0.902331 0.823947 0.452113
Si Si5 0.427479 0.472190 0.165226
Si Si6 0.065960 0.755369 0.351421
Si Si7 0.183416 0.553439 0.044139
Si Si8 0.462448 0.968819 0.354043
O O1 0.500000 0.500000 0.500000
O O2 0.541758 0.565278 0.728167
O O3 0.713463 0.843681 0.789121
O O4 0.907770 0.777230 0.889936
O O5 0.941198 0.022733 0.809224
O O6 0.912978 0.109470 0.658717
O O7 0.280114 0.281050 0.961323
O O8 0.992219 0.920484 0.636774
O O9 0.278463 0.940523 0.219118
O O10 0.643086 0.651474 0.278264
O O11 0.971452 0.746316 0.401885
O O12 0.000000 0.000000 0.500000
O O13 0.278894 0.494498 0.117551
O O14 0.302557 0.853632 0.513383
O O15 0.915585 0.561078 0.147047
O O16 0.378388 0.778870 0.213509
O O17 0.000000 0.500000 0.000000
O O18 0.500000 0.000000 0.500000
#
# Coordination Sequence:
#
# PCOD9093218 Si02
#       8
#     2   2   2   2   2   2   2   2
#     4  10  21  35  57  80 111 145 183 233 272 319
#     4   9  17  33  52  76 113 140 178 225 271 326
#     4  10  21  36  54  87 111 140 190 221 273 337
#     4  10  20  32  51  76 110 147 185 222 269 328
#     4  10  21  34  54  80 108 146 183 227 279 322
#     4  10  21  32  48  81 107 146 179 215 273 333
#     4  11  20  32  51  79 114 142 177 218 277 338
#     4  12  21  33  56  78 114 148 170 220 281 335
#
# _framework density 17.402077999999999
#
# number of rings (size 3 to 8) (size 9 to 14) (size 15 to 20)
#    0.000    1.750    2.500    3.750    1.750    6.500 
#    0.000    0.000    0.000    0.750    0.000   13.125 
#    0.000    0.000    0.000    0.000    0.000    0.000 
#
# Total GULP energy -89155.888229 kJ/mol
# GULP energy per Si atom -5572.243014 kJ/mol
# Density = 1.736247 g / cm^3
# Si number density = 17.402078 Si / 1000 Ang^3
#
#
#
# Elastic Constant Matrix: (Units=GPa)
#
#
# Indices 1 2 3 4 5 6 
#
# 1 94.5806 9.5757 53.4240 4.6091 -9.4296 -0.0238
# 2 9.5757 46.3898 27.0617 2.6366 4.1288 -0.1005
# 3 53.4240 27.0617 122.5298 7.1151 -9.6841 -8.6848
# 4 4.6091 2.6366 7.1151 27.4350 -2.8519 3.9667
# 5 -9.4296 4.1288 -9.6841 -2.8519 28.0907 9.7516
# 6 -0.0238 -0.1005 -8.6848 3.9667 9.7516 19.4536
#
#
#
# Elastic Compliance Matrix: (Units=1/GPa)
#
#
# Indices 1 2 3 4 5 6 
#
# 1 0.014631 0.000335 -0.006492 0.000411 0.004472 -0.005204
# 2 0.000335 0.025742 -0.006166 -0.001710 -0.006274 0.000874
# 3 -0.006492 -0.006166 0.012978 -0.002418 0.000953 0.005770
# 4 0.000411 -0.001710 -0.002418 0.039964 0.008256 -0.013375
# 5 0.004472 -0.006274 0.000953 0.008256 0.047985 -0.025339
# 6 -0.005204 0.000874 0.005770 -0.013375 -0.025339 0.069407
#
#
# Mechanical properties :
#
#
# Convention : Reuss Voigt Hill
#
# Bulk Modulus (GPa) = 34.83848 49.29145 42.06496
# Shear Modulus (GPa) = 20.41461 26.55846 23.48653
#
# Velocity S-wave (km/s) = 3.42879 3.91086 3.67773
# Velocity P-wave (km/s) = 5.97818 6.98424 6.50070
#
# Compressibility (1/GPa) = 0.02870389
#
# Stress axis : x y z
#
# Youngs Moduli (GPa) = 68.34857 38.84756 77.05112
#
# Poissons Ratio (x) = -0.01300 0.50024
# Poissons Ratio (y) = -0.02287 0.47508
# Poissons Ratio (z) = 0.44374 0.23952
#
# Static dielectric constant tensor:
#      x y z
#    x 1.610460 0.013460 0.006760 
#    y 0.013460 1.612120 0.008600 
#    z 0.006760 0.008600 1.654360 
# 
# From -- ./inp_files/432709.got.cif
#   From: 2010.05.17/outbox.cif.g08.bks.cpg/sg2_217_cif.got.tgz:432709.got - 2010.06.03 11:33:40.
