data_PCOD9093066
_publ_section_title
;
Structure prediction by ZEFSAII (Michael W. Deem and Ramdas Pophale) SiO2 
 PCOD9093066
Probable space group: P -1
;
_chemical_formula_sum "Si O2"
_cell_formula_units_Z 16
_cell_length_a 18.244460
_cell_length_b 12.511772
_cell_length_c 24.323851
_cell_angle_alpha 159.749841
_cell_angle_beta 160.620975
_cell_angle_gamma 25.862490
_cell_volume 632.361867
_symmetry_space_group_name_H-M "P -1"
_symmetry_group_IT_number 2
_symmetry_cell_setting 'triclinic'
loop_
_space_group_symop_operation_xyz
x,y,z
-x,-y,-z
loop_
_atom_site_type_symbol
_atom_site_label
_atom_site_fract_x
_atom_site_fract_y
_atom_site_fract_z
Si Si1 0.597898 0.553021 0.693650
Si Si2 0.321204 0.011115 0.123236
Si Si3 0.326343 0.883620 0.903683
Si Si4 0.071156 0.667926 0.363060
Si Si5 0.219524 0.238698 0.900081
Si Si6 0.532597 0.294889 0.629362
Si Si7 0.359033 0.419636 0.795107
Si Si8 0.016866 0.399040 0.302786
O O1 0.334512 0.601749 0.520745
O O2 0.630583 0.269650 0.624156
O O3 0.676285 0.649013 0.735454
O O4 0.693975 0.826092 0.928831
O O5 0.463107 0.888577 0.218754
O O6 0.439396 0.734398 0.031897
O O7 0.067875 0.934218 0.907861
O O8 0.573194 0.872522 0.047423
O O9 0.304354 0.559825 0.763163
O O10 0.175322 0.988343 0.794589
O O11 0.966764 0.449183 0.227043
O O12 0.000000 0.000000 0.500000
O O13 0.974848 0.665721 0.233618
O O14 0.312787 0.506826 0.130716
O O15 0.272666 0.444293 0.512966
O O16 0.500000 0.000000 0.500000
O O17 0.143142 0.392509 0.667277
#
# Coordination Sequence:
#
# PCOD9093066 Si02
#       8
#     2   2   2   2   2   2   2   2
#     4   9  17  31  54  75 102 137 173 211 265 315
#     4   8  14  27  50  79 107 133 169 205 261 326
#     4   9  16  30  48  78 112 136 157 210 276 323
#     4  11  18  28  53  82 106 136 171 208 268 327
#     4  10  20  31  51  77 113 139 173 221 262 311
#     4  10  22  39  53  72 104 146 192 224 252 296
#     4   8  14  26  50  76 116 134 161 202 270 330
#     4   9  18  31  54  77 105 144 181 205 266 319
#
# _framework density 25.301967999999999
#
# number of rings (size 3 to 8) (size 9 to 14) (size 15 to 20)
#    0.750    2.000    1.250    1.500    1.750    0.000 
#    0.000    3.750    2.750    0.000    0.000    4.375 
#    0.000    0.000    0.000    0.000    0.000    0.000 
#
# Total GULP energy -89103.972535 kJ/mol
# GULP energy per Si atom -5568.998283 kJ/mol
# Density = 2.524438 g / cm^3
# Si number density = 25.301968 Si / 1000 Ang^3
#
#
#
# Elastic Constant Matrix: (Units=GPa)
#
#
# Indices 1 2 3 4 5 6 
#
# 1 95.5885 61.3358 44.5721 -4.0876 5.7299 31.0149
# 2 61.3358 114.7192 49.0766 -3.8887 -6.7388 56.5400
# 3 44.5721 49.0766 101.4947 -20.5839 -1.4988 25.3997
# 4 -4.0876 -3.8887 -20.5839 31.1471 10.4122 0.9293
# 5 5.7299 -6.7388 -1.4988 10.4122 28.4325 2.3164
# 6 31.0149 56.5400 25.3997 0.9293 2.3164 48.7925
#
#
#
# Elastic Compliance Matrix: (Units=1/GPa)
#
#
# Indices 1 2 3 4 5 6 
#
# 1 0.017990 -0.008892 -0.003815 0.000809 -0.006323 0.001139
# 2 -0.008892 0.028353 -0.003879 -0.003306 0.011610 -0.025671
# 3 -0.003815 -0.003879 0.015845 0.010553 -0.003067 -0.001383
# 4 0.000809 -0.003306 0.010553 0.044337 -0.016444 -0.002241
# 5 -0.006323 0.011610 -0.003067 -0.016444 0.045848 -0.009700
# 6 0.001139 -0.025671 -0.001383 -0.002241 -0.009700 0.050742
#
#
# Mechanical properties :
#
#
# Convention : Reuss Voigt Hill
#
# Bulk Modulus (GPa) = 34.46484 69.08572 51.77528
# Shear Modulus (GPa) = 20.32850 32.12894 26.22872
#
# Velocity S-wave (km/s) = 2.83757 3.56732 3.22316
# Velocity P-wave (km/s) = 4.93829 6.65819 5.86166
#
# Compressibility (1/GPa) = 0.02901508
#
# Stress axis : x y z
#
# Youngs Moduli (GPa) = 55.58574 35.26968 63.11069
#
# Poissons Ratio (x) = 0.31362 0.24078
# Poissons Ratio (y) = 0.49427 0.24482
# Poissons Ratio (z) = 0.21207 0.13682
#
# Static dielectric constant tensor:
#      x y z
#    x 2.180160 -0.001170 -0.082090 
#    y -0.001170 1.961740 -0.114050 
#    z -0.082090 -0.114050 1.944450 
# 
# From -- ./inp_files/396417.got.cif
#   From: 2010.05.17/outbox.cif.g08.bks.cpg/sg2_199_cif.got.tgz:396417.got - 2010.06.03 11:33:40.
