data_PCOD9093031
_publ_section_title
;
Structure prediction by ZEFSAII (Michael W. Deem and Ramdas Pophale) SiO2 
 PCOD9093031
Probable space group: P -1
;
_chemical_formula_sum "Si O2"
_cell_formula_units_Z 16
_cell_length_a 11.349486
_cell_length_b 7.788205
_cell_length_c 16.922956
_cell_angle_alpha 101.315519
_cell_angle_beta 45.895948
_cell_angle_gamma 66.542789
_cell_volume 685.429180
_symmetry_space_group_name_H-M "P -1"
_symmetry_group_IT_number 2
_symmetry_cell_setting 'triclinic'
loop_
_space_group_symop_operation_xyz
x,y,z
-x,-y,-z
loop_
_atom_site_type_symbol
_atom_site_label
_atom_site_fract_x
_atom_site_fract_y
_atom_site_fract_z
Si Si1 0.880450 0.033232 0.910030
Si Si2 0.172734 0.698595 0.416898
Si Si3 0.471005 0.121137 0.411500
Si Si4 0.379065 0.663996 0.727948
Si Si5 0.012441 0.271318 0.322433
Si Si6 0.648584 0.713988 0.827411
Si Si7 0.325762 0.892512 0.523003
Si Si8 0.229810 0.621504 0.126840
O O1 0.983585 0.861519 0.765289
O O2 0.088075 0.858946 0.865393
O O3 0.830442 0.273730 0.925536
O O4 0.631155 0.121965 0.048185
O O5 0.468986 0.502806 0.278009
O O6 0.178582 0.537239 0.337002
O O7 0.072623 0.721992 0.551203
O O8 0.000000 0.000000 0.500000
O O9 0.576918 0.165702 0.298174
O O10 0.623011 0.056683 0.412421
O O11 0.185308 0.418676 0.581553
O O12 0.445737 0.931025 0.406366
O O13 0.528527 0.409858 0.576032
O O14 0.282014 0.141422 0.198750
O O15 0.712868 0.607117 0.877897
O O16 0.022914 0.120115 0.682072
O O17 0.500000 0.500000 0.000000
#
# Coordination Sequence:
#
# PCOD9093031 Si02
#       8
#     2   2   2   2   2   2   2   2
#     4  11  22  39  64  94 126 161 205 263 325 368
#     4  11  25  41  64  88 121 170 213 254 316 380
#     4  10  20  30  59  92 120 157 202 263 319 356
#     4  11  22  38  63  89 126 159 215 262 313 377
#     4  11  21  39  64  93 121 159 214 264 308 373
#     4  11  23  41  59  92 131 168 202 251 321 387
#     4  11  18  34  57  89 129 151 204 264 316 366
#     4  10  20  34  59  86 122 163 200 252 311 372
#
# _framework density 23.343040999999999
#
# number of rings (size 3 to 8) (size 9 to 14) (size 15 to 20)
#    0.000    1.250    3.750    4.125    0.000    0.500 
#    0.000    0.000    0.000    0.750    0.000    0.000 
#    0.000    0.000    0.000    0.000    0.000    0.000 
#
# Total GULP energy -89143.269497 kJ/mol
# GULP energy per Si atom -5571.454344 kJ/mol
# Density = 2.328991 g / cm^3
# Si number density = 23.343041 Si / 1000 Ang^3
#
#
#
# Elastic Constant Matrix: (Units=GPa)
#
#
# Indices 1 2 3 4 5 6 
#
# 1 84.0462 31.9885 35.2985 4.4257 -7.5441 -7.1274
# 2 31.9885 90.0510 26.3956 2.1528 -11.7379 -9.3272
# 3 35.2985 26.3956 74.8968 6.3937 -16.0571 -7.8810
# 4 4.4257 2.1528 6.3937 27.8138 -2.1102 -12.4050
# 5 -7.5441 -11.7379 -16.0571 -2.1102 48.4324 3.7496
# 6 -7.1274 -9.3272 -7.8810 -12.4050 3.7496 28.2637
#
#
#
# Elastic Compliance Matrix: (Units=1/GPa)
#
#
# Indices 1 2 3 4 5 6 
#
# 1 0.016006 -0.003844 -0.006176 -0.000464 -0.000578 0.000919
# 2 -0.003844 0.013725 -0.002445 0.001771 0.001729 0.003426
# 3 -0.006176 -0.002445 0.018371 -0.002174 0.004346 0.001227
# 4 -0.000464 0.001771 -0.002174 0.045172 0.000081 0.019676
# 5 -0.000578 0.001729 0.004346 0.000081 0.022523 -0.001316
# 6 0.000919 0.003426 0.001227 0.019676 -0.001316 0.045896
#
#
# Mechanical properties :
#
#
# Convention : Reuss Voigt Hill
#
# Bulk Modulus (GPa) = 43.15929 48.48436 45.82183
# Shear Modulus (GPa) = 25.72717 31.25607 28.49162
#
# Velocity S-wave (km/s) = 3.32344 3.66319 3.49744
# Velocity P-wave (km/s) = 5.76683 6.22153 5.99849
#
# Compressibility (1/GPa) = 0.02316998
#
# Stress axis : x y z
#
# Youngs Moduli (GPa) = 62.47728 72.85949 54.43431
#
# Poissons Ratio (x) = 0.28010 0.33620
# Poissons Ratio (y) = 0.24019 0.13311
# Poissons Ratio (z) = 0.38587 0.17816
#
# Static dielectric constant tensor:
#      x y z
#    x 1.933160 0.002270 -0.031830 
#    y 0.002270 1.951700 -0.017670 
#    z -0.031830 -0.017670 1.995360 
# 
# From -- ./inp_files/435353.got.cif
#   From: 2010.05.17/outbox.cif.g08.bks.cpg/sg2_218_cif.got.tgz:435353.got - 2010.06.03 11:33:40.
