data_PCOD9093924
_publ_section_title
;
Structure prediction by ZEFSAII (Michael W. Deem and Ramdas Pophale) SiO2 
 PCOD9093924
Probable space group: P -1
;
_chemical_formula_sum "Si O2"
_cell_formula_units_Z 16
_cell_length_a 8.962113
_cell_length_b 23.975202
_cell_length_c 12.784476
_cell_angle_alpha 156.034466
_cell_angle_beta 51.216564
_cell_angle_gamma 136.482607
_cell_volume 761.815729
_symmetry_space_group_name_H-M "P -1"
_symmetry_group_IT_number 2
_symmetry_cell_setting 'triclinic'
loop_
_space_group_symop_operation_xyz
x,y,z
-x,-y,-z
loop_
_atom_site_type_symbol
_atom_site_label
_atom_site_fract_x
_atom_site_fract_y
_atom_site_fract_z
Si Si1 0.372850 0.321484 0.125266
Si Si2 0.734029 0.744235 0.173912
Si Si3 0.643614 0.381267 0.376540
Si Si4 0.142703 0.816338 0.829225
Si Si5 0.772711 0.040501 0.740842
Si Si6 0.503587 0.923687 0.258950
Si Si7 0.876990 0.503363 0.706617
Si Si8 0.242107 0.030238 0.956622
O O1 0.445835 0.502842 0.423138
O O2 0.115324 0.237330 0.129374
O O3 0.403679 0.307656 0.962449
O O4 0.485980 0.234913 0.987988
O O5 0.969387 0.865728 0.230669
O O6 0.682185 0.853202 0.459615
O O7 0.773032 0.608219 0.976437
O O8 0.764402 0.460248 0.567924
O O9 0.858771 0.399328 0.251925
O O10 0.438063 0.209458 0.184783
O O11 0.164990 0.665534 0.526404
O O12 0.241686 0.939672 0.904877
O O13 0.254219 0.889604 0.017719
O O14 0.676398 0.077840 0.743307
O O15 0.500000 0.000000 0.500000
O O16 0.713612 0.027761 0.273178
O O17 0.000000 0.000000 0.000000
#
# Coordination Sequence:
#
# PCOD9093924 Si02
#       8
#     2   2   2   2   2   2   2   2
#     4   9  18  38  62  89 121 160 211 266 308 371
#     4   9  17  33  58  90 124 156 204 262 315 367
#     4   9  19  36  62  92 123 162 215 263 313 372
#     4  10  21  40  62  90 127 164 209 264 320 377
#     4  10  20  33  61  93 120 161 209 259 315 373
#     4  12  23  38  62  94 124 167 214 262 314 382
#     4   9  17  36  64  94 123 160 217 270 307 373
#     4  12  25  41  61  94 133 169 206 262 328 386
#
# _framework density 21.002454
#
# number of rings (size 3 to 8) (size 9 to 14) (size 15 to 20)
#    0.000    2.000    2.500    3.750    0.000    2.500 
#    2.250    0.000    2.750    3.000    0.000    0.000 
#    0.000    0.000    0.000    0.000    0.000    0.000 
#
# Total GULP energy -89101.705766 kJ/mol
# GULP energy per Si atom -5568.856610 kJ/mol
# Density = 2.095465 g / cm^3
# Si number density = 21.002454 Si / 1000 Ang^3
#
#
#
# Elastic Constant Matrix: (Units=GPa)
#
#
# Indices 1 2 3 4 5 6 
#
# 1 98.3716 33.9186 50.9930 17.5950 -3.0792 -14.6072
# 2 33.9186 91.0429 49.3178 13.5073 15.0035 -14.7275
# 3 50.9930 49.3178 163.3529 30.7108 -4.6966 -14.3941
# 4 17.5950 13.5073 30.7108 31.0196 -8.2538 -5.0751
# 5 -3.0792 15.0035 -4.6966 -8.2538 20.7083 3.8062
# 6 -14.6072 -14.7275 -14.3941 -5.0751 3.8062 29.2843
#
#
#
# Elastic Compliance Matrix: (Units=1/GPa)
#
#
# Indices 1 2 3 4 5 6 
#
# 1 0.013547 -0.003118 -0.002401 -0.002891 0.001979 0.003251
# 2 -0.003118 0.019676 -0.003452 -0.007377 -0.019904 0.007952
# 3 -0.002401 -0.003452 0.009032 -0.005512 0.001941 0.000298
# 4 -0.002891 -0.007377 -0.005512 0.048362 0.023404 -0.002522
# 5 0.001979 -0.019904 0.001941 0.023404 0.075310 -0.013801
# 6 0.003251 0.007952 0.000298 -0.002522 -0.013801 0.041272
#
#
# Mechanical properties :
#
#
# Convention : Reuss Voigt Hill
#
# Bulk Modulus (GPa) = 41.12852 69.02516 55.07684
# Shear Modulus (GPa) = 21.43687 30.77164 26.10425
#
# Velocity S-wave (km/s) = 3.19828 3.83187 3.52932
# Velocity P-wave (km/s) = 5.76749 7.24668 6.54898
#
# Compressibility (1/GPa) = 0.02431403
#
# Stress axis : x y z
#
# Youngs Moduli (GPa) = 73.81823 50.82300 110.72296
#
# Poissons Ratio (x) = 0.15846 0.26580
# Poissons Ratio (y) = 0.23015 0.38219
# Poissons Ratio (z) = 0.17721 0.17543
#
# Static dielectric constant tensor:
#      x y z
#    x 1.862990 0.028690 -0.063280 
#    y 0.028690 1.743730 -0.027310 
#    z -0.063280 -0.027310 1.907540 
# 
# From -- ./inp_files/524496.got.cif
#   From: 2010.05.17/outbox.cif.g08.bks.cpg/sg2_263_cif.got.tgz:524496.got - 2010.06.03 11:33:40.
