data_PCOD9093386
_publ_section_title
;
Structure prediction by ZEFSAII (Michael W. Deem and Ramdas Pophale) SiO2 
 PCOD9093386
Probable space group: P -1
;
_chemical_formula_sum "Si O2"
_cell_formula_units_Z 14
_cell_length_a 7.066347
_cell_length_b 10.960095
_cell_length_c 11.929590
_cell_angle_alpha 81.340505
_cell_angle_beta 76.899210
_cell_angle_gamma 136.815072
_cell_volume 542.310058
_symmetry_space_group_name_H-M "P -1"
_symmetry_group_IT_number 2
_symmetry_cell_setting 'triclinic'
loop_
_space_group_symop_operation_xyz
x,y,z
-x,-y,-z
loop_
_atom_site_type_symbol
_atom_site_label
_atom_site_fract_x
_atom_site_fract_y
_atom_site_fract_z
Si Si1 0.295127 0.747545 0.263876
Si Si2 0.859495 0.650010 0.892941
Si Si3 0.750134 0.046576 0.587886
Si Si4 0.782003 0.852370 0.774028
Si Si5 0.718075 0.984957 0.978830
Si Si6 0.859593 0.603108 0.135614
Si Si7 0.050208 0.655718 0.639429
O O1 0.331058 0.883751 0.321735
O O2 0.026063 0.643585 0.220660
O O3 0.146581 0.551034 0.366577
O O4 0.601987 0.874782 0.127605
O O5 0.988151 0.843808 0.797351
O O6 0.884722 0.576535 0.793842
O O7 0.500000 0.500000 0.000000
O O8 0.001753 0.655432 0.982483
O O9 0.970158 0.227473 0.443820
O O10 0.899197 0.009791 0.644715
O O11 0.428386 0.838652 0.595638
O O12 0.674724 0.875938 0.894293
O O13 0.480136 0.631231 0.790829
O O14 0.078578 0.218168 0.895724
O O15 0.500000 0.000000 0.000000
#
# Coordination Sequence:
#
# PCOD9093386 Si02
#       7
#     2   2   2   2   2   2   2
#     4  11  20  36  62  90 118 151 197 259 294 341
#     4  10  23  39  60  91 119 162 194 240 309 357
#     4  11  23  40  63  91 115 161 208 240 294 349
#     4  11  21  39  58  87 127 154 197 244 297 361
#     4  10  20  32  58  93 114 153 197 245 301 348
#     4  10  20  35  59  86 122 151 190 247 300 345
#     4  11  24  41  63  86 122 159 203 249 288 353
#
# _framework density 25.815491000000002
#
# number of rings (size 3 to 8) (size 9 to 14) (size 15 to 20)
#    0.000    1.429    4.286    3.000    2.000    4.000 
#    0.000    2.857    0.000    3.429    0.000    0.000 
#    0.000    0.000    0.000    0.000    0.000    0.000 
#
# Total GULP energy -78108.060716 kJ/mol
# GULP energy per Si atom -5579.147194 kJ/mol
# Density = 2.575673 g / cm^3
# Si number density = 25.815491 Si / 1000 Ang^3
#
#
#
# Elastic Constant Matrix: (Units=GPa)
#
#
# Indices 1 2 3 4 5 6 
#
# 1 49.6256 27.7978 7.5610 1.4359 11.2401 -11.0619
# 2 27.7978 127.1494 6.6800 -25.8480 2.1022 0.5720
# 3 7.5610 6.6800 112.8316 -7.5104 18.8309 -4.6766
# 4 1.4359 -25.8480 -7.5104 42.0834 -12.7625 11.8977
# 5 11.2401 2.1022 18.8309 -12.7625 31.4346 0.9077
# 6 -11.0619 0.5720 -4.6766 11.8977 0.9077 33.7638
#
#
#
# Elastic Compliance Matrix: (Units=1/GPa)
#
#
# Indices 1 2 3 4 5 6 
#
# 1 0.037055 -0.012194 0.001436 -0.021136 -0.022471 0.020598
# 2 -0.012194 0.013362 -0.001130 0.014253 0.010210 -0.009675
# 3 0.001436 -0.001130 0.010041 -0.001955 -0.007326 0.002766
# 4 -0.021136 0.014253 -0.001955 0.048615 0.028245 -0.025327
# 5 -0.022471 0.010210 -0.007326 0.028245 0.055598 -0.019997
# 6 0.020598 -0.009675 0.002766 -0.025327 -0.019997 0.046375
#
#
# Mechanical properties :
#
#
# Convention : Reuss Voigt Hill
#
# Bulk Modulus (GPa) = 27.26215 41.52048 34.39131
# Shear Modulus (GPa) = 20.23869 37.96087 29.09978
#
# Velocity S-wave (km/s) = 2.80299 3.83883 3.36105
# Velocity P-wave (km/s) = 4.58901 5.98058 5.33040
#
# Compressibility (1/GPa) = 0.03668090
#
# Stress axis : x y z
#
# Youngs Moduli (GPa) = 26.98670 74.83683 99.59462
#
# Poissons Ratio (x) = 0.91259 -0.14301
# Poissons Ratio (y) = 0.32909 0.11256
# Poissons Ratio (z) = -0.03875 0.08458
#
# Static dielectric constant tensor:
#      x y z
#    x 2.114390 0.056880 0.034450 
#    y 0.056880 2.199800 -0.032100 
#    z 0.034450 -0.032100 2.066780 
# 
# From -- ./inp_files/252745.got.cif
#   From: 2010.05.17/outbox.cif.g08.bks.cpg/sg2_127_cif.got.tgz:252745.got - 2010.06.03 11:33:40.
