data_PCOD9093680
_publ_section_title
;
Structure prediction by ZEFSAII (Michael W. Deem and Ramdas Pophale) SiO2 
 PCOD9093680
Probable space group: P -1
;
_chemical_formula_sum "Si O2"
_cell_formula_units_Z 15
_cell_length_a 10.007756
_cell_length_b 7.215914
_cell_length_c 9.399427
_cell_angle_alpha 80.762257
_cell_angle_beta 75.042152
_cell_angle_gamma 68.332120
_cell_volume 607.832568
_symmetry_space_group_name_H-M "P -1"
_symmetry_group_IT_number 2
_symmetry_cell_setting 'triclinic'
loop_
_space_group_symop_operation_xyz
x,y,z
-x,-y,-z
loop_
_atom_site_type_symbol
_atom_site_label
_atom_site_fract_x
_atom_site_fract_y
_atom_site_fract_z
Si Si1 0.001090 0.289640 0.876399
Si Si2 0.884023 0.420150 0.613545
Si Si3 0.295470 0.378843 0.811204
Si Si4 0.651989 0.853374 0.906899
Si Si5 0.568440 0.046235 0.620455
Si Si6 0.670900 0.375470 0.462964
Si Si7 0.967928 0.884844 0.827942
Si Si8 0.000000 0.000000 0.500000
O O1 0.887481 0.439987 0.779785
O O2 0.157269 0.317461 0.809078
O O3 0.013376 0.065733 0.855768
O O4 0.969369 0.296831 0.052775
O O5 0.738740 0.479160 0.551626
O O6 0.946899 0.184124 0.598990
O O7 0.000000 0.500000 0.500000
O O8 0.439603 0.214697 0.719407
O O9 0.286342 0.585267 0.712851
O O10 0.317323 0.342279 0.978309
O O11 0.790468 0.930330 0.882085
O O12 0.630122 0.867420 0.739723
O O13 0.500000 0.000000 0.000000
O O14 0.692348 0.145421 0.529374
O O15 0.500000 0.000000 0.500000
O O16 0.500000 0.500000 0.500000
O O17 0.009276 0.846515 0.656225
#
# Coordination Sequence:
#
# PCOD9093680 Si02
#       8
#     2   2   2   2   2   2   2   1
#     4   9  17  32  57  85 114 158 204 247 313 380
#     4  11  21  38  64  92 125 166 211 260 322 376
#     4   9  18  34  57  80 116 158 200 248 309 372
#     4   9  18  35  57  83 117 164 209 248 308 378
#     4  10  20  33  55  86 116 158 210 255 303 367
#     4  10  21  39  59  87 124 165 205 255 313 378
#     4   9  18  33  55  89 124 155 203 265 313 370
#     4  10  22  36  60  98 130 160 210 268 316 382
#
# _framework density 24.677848000000001
#
# number of rings (size 3 to 8) (size 9 to 14) (size 15 to 20)
#    0.000    2.400    1.333    1.600    0.000    4.267 
#    0.000    1.333    0.000    0.000    0.000    0.000 
#    0.000    0.000    0.000    0.000    0.000    0.000 
#
# Total GULP energy -83521.977555 kJ/mol
# GULP energy per Si atom -5568.131837 kJ/mol
# Density = 2.462168 g / cm^3
# Si number density = 24.677848 Si / 1000 Ang^3
#
#
#
# Elastic Constant Matrix: (Units=GPa)
#
#
# Indices 1 2 3 4 5 6 
#
# 1 119.4723 13.5810 66.4827 -21.4777 12.2717 10.8085
# 2 13.5810 49.1439 35.1317 -18.7978 2.4491 -0.8044
# 3 66.4827 35.1317 263.2994 -46.9852 22.8507 0.0643
# 4 -21.4777 -18.7978 -46.9852 49.9371 -11.7592 3.3976
# 5 12.2717 2.4491 22.8507 -11.7592 47.4005 -9.7411
# 6 10.8085 -0.8044 0.0643 3.3976 -9.7411 30.3115
#
#
#
# Elastic Compliance Matrix: (Units=1/GPa)
#
#
# Indices 1 2 3 4 5 6 
#
# 1 0.010614 -0.000603 -0.002007 0.002263 -0.002163 -0.004745
# 2 -0.000603 0.024738 -0.001950 0.007608 0.001831 0.000611
# 3 -0.002007 -0.001950 0.005206 0.003035 -0.001148 -0.000056
# 4 0.002263 0.007608 0.003035 0.027816 0.003953 -0.002459
# 5 -0.002163 0.001831 -0.001148 0.003953 0.024813 0.008353
# 6 -0.004745 0.000611 -0.000056 -0.002459 0.008353 0.037659
#
#
# Mechanical properties :
#
#
# Convention : Reuss Voigt Hill
#
# Bulk Modulus (GPa) = 31.80808 73.58961 52.69884
# Shear Modulus (GPa) = 33.23495 46.64449 39.93972
#
# Velocity S-wave (km/s) = 3.67379 4.35229 4.02735
# Velocity P-wave (km/s) = 5.55994 7.42572 6.55951
#
# Compressibility (1/GPa) = 0.03143856
#
# Stress axis : x y z
#
# Youngs Moduli (GPa) = 94.21780 40.42413 192.08501
#
# Poissons Ratio (x) = 0.02436 0.38547
# Poissons Ratio (y) = 0.05678 0.37457
# Poissons Ratio (z) = 0.18907 0.07883
#
# Static dielectric constant tensor:
#      x y z
#    x 4.723540 -2.733150 -0.281390 
#    y -2.733150 4.606050 0.155660 
#    z -0.281390 0.155660 1.990440 
# 
# From -- ./inp_files/153758.got.cif
#   From: 2010.05.17/outbox.cif.g08.bks.cpg/sg2_77_cif.got.tgz:153758.got - 2010.06.03 11:33:40.
