data_PCOD9093831
_publ_section_title
;
Structure prediction by ZEFSAII (Michael W. Deem and Ramdas Pophale) SiO2 
 PCOD9093831
Probable space group: P -1
;
_chemical_formula_sum "Si O2"
_cell_formula_units_Z 16
_cell_length_a 15.426148
_cell_length_b 9.697153
_cell_length_c 8.304809
_cell_angle_alpha 120.037150
_cell_angle_beta 40.937750
_cell_angle_gamma 92.977938
_cell_volume 576.527880
_symmetry_space_group_name_H-M "P -1"
_symmetry_group_IT_number 2
_symmetry_cell_setting 'triclinic'
loop_
_space_group_symop_operation_xyz
x,y,z
-x,-y,-z
loop_
_atom_site_type_symbol
_atom_site_label
_atom_site_fract_x
_atom_site_fract_y
_atom_site_fract_z
Si Si1 0.258451 0.241444 0.911511
Si Si2 0.685111 0.003391 0.856172
Si Si3 0.185807 0.780305 0.796887
Si Si4 0.959909 0.239141 0.335376
Si Si5 0.800605 0.649918 0.279935
Si Si6 0.026865 0.739861 0.313672
Si Si7 0.480157 0.160553 0.809326
Si Si8 0.538294 0.605494 0.764534
O O1 0.286279 0.311882 0.748132
O O2 0.320682 0.295935 0.006336
O O3 0.375989 0.006303 0.599049
O O4 0.075335 0.312498 0.207513
O O5 0.767152 0.855629 0.498986
O O6 0.839697 0.915002 0.700688
O O7 0.593417 0.230253 0.077307
O O8 0.569084 0.949577 0.063697
O O9 0.377328 0.624173 0.479441
O O10 0.147370 0.706701 0.642462
O O11 0.099604 0.785870 0.088934
O O12 0.090239 0.005839 0.018234
O O13 0.890178 0.291912 0.647352
O O14 0.698454 0.605812 0.512648
O O15 0.967547 0.445703 0.875838
O O16 0.530067 0.282037 0.906093
#
# Coordination Sequence:
#
# PCOD9093831 Si02
#       8
#     2   2   2   2   2   2   2   2
#     4  11  20  35  58  93 126 156 198 254 309 373
#     4  11  18  38  59  93 124 160 198 247 321 375
#     4  10  25  45  65  87 124 164 219 261 293 357
#     4  11  24  44  65  88 123 169 215 253 303 363
#     4  10  20  34  58  94 124 157 197 249 315 376
#     4  11  23  39  67  90 123 164 209 256 310 361
#     4  10  20  33  58  90 132 154 187 255 319 369
#     4  10  20  39  62  88 123 166 199 250 316 364
#
# _framework density 27.752341999999999
#
# number of rings (size 3 to 8) (size 9 to 14) (size 15 to 20)
#    0.000    1.500    3.750    2.250    1.750    2.500 
#    0.000    1.250    0.000    0.000    0.000    0.000 
#    0.000    0.000    0.000    0.000    0.000    0.000 
#
# Total GULP energy -89334.337613 kJ/mol
# GULP energy per Si atom -5583.396101 kJ/mol
# Density = 2.768918 g / cm^3
# Si number density = 27.752342 Si / 1000 Ang^3
#
#
#
# Elastic Constant Matrix: (Units=GPa)
#
#
# Indices 1 2 3 4 5 6 
#
# 1 92.3887 20.6403 26.3475 -7.5222 21.6289 -31.1389
# 2 20.6403 105.5772 38.7622 0.8869 5.0041 -30.2293
# 3 26.3475 38.7622 127.3713 30.8794 -0.3830 -3.5214
# 4 -7.5222 0.8869 30.8794 50.6392 -4.9446 -2.6634
# 5 21.6289 5.0041 -0.3830 -4.9446 39.8642 0.9791
# 6 -31.1389 -30.2293 -3.5214 -2.6634 0.9791 40.9439
#
#
#
# Elastic Compliance Matrix: (Units=1/GPa)
#
#
# Indices 1 2 3 4 5 6 
#
# 1 0.022352 0.004793 -0.007397 0.007628 -0.012362 0.020694
# 2 0.004793 0.015279 -0.006382 0.004688 -0.004361 0.014786
# 3 -0.007397 -0.006382 0.013298 -0.009221 0.004041 -0.009890
# 4 0.007628 0.004688 -0.009221 0.026791 -0.001745 0.010254
# 5 -0.012362 -0.004361 0.004041 -0.001745 0.032486 -0.013165
# 6 0.020694 0.014786 -0.009890 0.010254 -0.013165 0.051210
#
#
# Mechanical properties :
#
#
# Convention : Reuss Voigt Hill
#
# Bulk Modulus (GPa) = 30.34249 55.20414 42.77331
# Shear Modulus (GPa) = 26.26434 42.26194 34.26314
#
# Velocity S-wave (km/s) = 3.07967 3.90657 3.51750
# Velocity P-wave (km/s) = 4.85828 6.34691 5.65182
#
# Compressibility (1/GPa) = 0.03295708
#
# Stress axis : x y z
#
# Youngs Moduli (GPa) = 44.73790 65.45036 75.20156
#
# Poissons Ratio (x) = -0.31369 0.55624
# Poissons Ratio (y) = -0.21442 0.47993
# Poissons Ratio (z) = 0.33091 0.41770
#
# Static dielectric constant tensor:
#      x y z
#    x 2.228740 0.020620 -0.020020 
#    y 0.020620 2.196040 0.074380 
#    z -0.020020 0.074380 2.266200 
# 
# From -- ./inp_files/199598.got.cif
#   From: 2010.05.17/outbox.cif.g08.bks.cpg/sg2_100_cif.got.tgz:199598.got - 2010.06.03 11:33:40.
