data_PCOD9093833
_publ_section_title
;
Structure prediction by ZEFSAII (Michael W. Deem and Ramdas Pophale) SiO2 
 PCOD9093833
Probable space group: P -1
;
_chemical_formula_sum "Si O2"
_cell_formula_units_Z 15
_cell_length_a 8.889573
_cell_length_b 20.261210
_cell_length_c 5.205960
_cell_angle_alpha 100.677373
_cell_angle_beta 95.565996
_cell_angle_gamma 136.206167
_cell_volume 599.866953
_symmetry_space_group_name_H-M "P -1"
_symmetry_group_IT_number 2
_symmetry_cell_setting 'triclinic'
loop_
_space_group_symop_operation_xyz
x,y,z
-x,-y,-z
loop_
_atom_site_type_symbol
_atom_site_label
_atom_site_fract_x
_atom_site_fract_y
_atom_site_fract_z
Si Si1 0.458537 0.101252 0.864336
Si Si2 0.520392 0.660207 0.373911
Si Si3 0.785955 0.005119 0.757976
Si Si4 0.061951 0.677138 0.969250
Si Si5 0.901937 0.559182 0.351306
Si Si6 0.753666 0.852831 0.845826
Si Si7 0.000000 0.500000 0.000000
Si Si8 0.386934 0.385644 0.140030
O O1 0.310928 0.016115 0.555502
O O2 0.407578 0.048955 0.092278
O O3 0.373630 0.149055 0.949948
O O4 0.720413 0.200487 0.890649
O O5 0.589649 0.754780 0.568777
O O6 0.246966 0.561161 0.240039
O O7 0.620499 0.644584 0.595638
O O8 0.623153 0.674068 0.126322
O O9 0.837313 0.941938 0.739156
O O10 0.028587 0.114690 0.980341
O O11 0.043715 0.641002 0.656146
O O12 0.826056 0.636977 0.948936
O O13 0.055242 0.616551 0.146238
O O14 0.645621 0.503854 0.253449
O O15 0.862539 0.467644 0.234496
#
# Coordination Sequence:
#
# PCOD9093833 Si02
#       8
#     2   2   2   2   2   2   1   2
#     4  10  20  33  58  91 114 146 186 261 288 346
#     4  11  24  38  63  83 126 157 192 247 301 353
#     4   9  20  35  58  93 120 141 196 244 304 364
#     4  12  23  39  64  82 117 163 212 235 288 339
#     4  11  23  39  62  84 118 160 194 255 288 351
#     4   9  21  36  63  89 118 154 189 240 317 356
#     4  10  24  40  56  96 122 142 190 244 306 350
#     4  11  25  42  55  86 117 165 208 241 275 354
#
# _framework density 25.005542999999999
#
# number of rings (size 3 to 8) (size 9 to 14) (size 15 to 20)
#    0.800    0.800    0.000    5.200    3.733    5.867 
#    0.000    0.000    0.000    4.800    0.000    0.000 
#    0.000    0.000    0.000    0.000    0.000    0.000 
#
# Total GULP energy -83625.560642 kJ/mol
# GULP energy per Si atom -5575.037376 kJ/mol
# Density = 2.494863 g / cm^3
# Si number density = 25.005543 Si / 1000 Ang^3
#
#
#
# Elastic Constant Matrix: (Units=GPa)
#
#
# Indices 1 2 3 4 5 6 
#
# 1 69.9242 1.2203 -2.3329 -0.1038 1.8395 17.4678
# 2 1.2203 48.3402 15.3436 1.7726 -1.0831 9.0404
# 3 -2.3329 15.3436 142.2734 0.1461 -24.0147 6.2801
# 4 -0.1038 1.7726 0.1461 34.5990 6.4608 0.3184
# 5 1.8395 -1.0831 -24.0147 6.4608 30.8186 -2.3811
# 6 17.4678 9.0404 6.2801 0.3184 -2.3811 14.2375
#
#
#
# Elastic Compliance Matrix: (Units=1/GPa)
#
#
# Indices 1 2 3 4 5 6 
#
# 1 0.022084 0.004947 0.000664 0.000688 -0.003172 -0.031075
# 2 0.004947 0.025236 -0.002128 -0.000583 -0.002612 -0.021578
# 3 0.000664 -0.002128 0.008470 -0.001131 0.006562 -0.002077
# 4 0.000688 -0.000583 -0.001131 0.030348 -0.007452 -0.001900
# 5 -0.003172 -0.002612 0.006562 -0.007452 0.039955 0.009505
# 6 -0.031075 -0.021578 -0.002077 -0.001900 0.009505 0.124611
#
#
# Mechanical properties :
#
#
# Convention : Reuss Voigt Hill
#
# Bulk Modulus (GPa) = 15.93497 32.11109 24.02303
# Shear Modulus (GPa) = 18.89236 32.35148 25.62192
#
# Velocity S-wave (km/s) = 2.75167 3.60081 3.20449
# Velocity P-wave (km/s) = 4.05980 5.49156 4.82904
#
# Compressibility (1/GPa) = 0.06275505
#
# Stress axis : x y z
#
# Youngs Moduli (GPa) = 45.28113 39.62648 118.06988
#
# Poissons Ratio (x) = -0.19603 -0.07842
# Poissons Ratio (y) = -0.22400 0.25128
# Poissons Ratio (z) = -0.03007 0.08433
#
# Static dielectric constant tensor:
#      x y z
#    x 2.277930 -0.195500 -0.057680 
#    y -0.195500 2.146630 -0.006610 
#    z -0.057680 -0.006610 2.145670 
# 
# From -- ./inp_files/56030.got.cif
#   From: 2010.05.17/outbox.cif.g08.bks.cpg/sg2_29_cif.got.tgz:56030.got - 2010.06.03 11:33:40.
