data_PCOD9093057
_publ_section_title
;
Structure prediction by ZEFSAII (Michael W. Deem and Ramdas Pophale) SiO2 
 PCOD9093057
Probable space group: P -1
;
_chemical_formula_sum "Si O2"
_cell_formula_units_Z 16
_cell_length_a 14.743943
_cell_length_b 14.253079
_cell_length_c 5.430973
_cell_angle_alpha 68.133632
_cell_angle_beta 67.370690
_cell_angle_gamma 50.698985
_cell_volume 801.829430
_symmetry_space_group_name_H-M "P -1"
_symmetry_group_IT_number 2
_symmetry_cell_setting 'triclinic'
loop_
_space_group_symop_operation_xyz
x,y,z
-x,-y,-z
loop_
_atom_site_type_symbol
_atom_site_label
_atom_site_fract_x
_atom_site_fract_y
_atom_site_fract_z
Si Si1 0.920117 0.551036 0.285570
Si Si2 0.451650 0.445433 0.794385
Si Si3 0.233030 0.534750 0.664614
Si Si4 0.807581 0.912312 0.619435
Si Si5 0.805599 0.835599 0.196571
Si Si6 0.883048 0.086912 0.205331
Si Si7 0.969455 0.229063 0.184276
Si Si8 0.685404 0.332365 0.891030
O O1 0.827392 0.512952 0.395547
O O2 0.842419 0.699462 0.235616
O O3 0.000000 0.500000 0.500000
O O4 0.000000 0.500000 0.000000
O O5 0.500000 0.500000 0.500000
O O6 0.357331 0.430732 0.765139
O O7 0.573472 0.334045 0.898301
O O8 0.375329 0.554510 0.963366
O O9 0.133575 0.628305 0.874641
O O10 0.257093 0.625587 0.408153
O O11 0.752637 0.887703 0.467764
O O12 0.944946 0.795281 0.650832
O O13 0.824163 0.020691 0.440826
O O14 0.745240 0.921330 0.935598
O O15 0.934068 0.818974 0.087267
O O16 0.921351 0.144109 0.320272
O O17 0.784187 0.204311 0.034425
O O18 0.000000 0.000000 0.000000
#
# Coordination Sequence:
#
# PCOD9093057 Si02
#       8
#     2   2   2   2   2   2   2   2
#     4  12  24  35  55  86 119 162 204 237 297 357
#     4   9  20  41  56  80 114 155 199 247 302 345
#     4  11  21  34  59  82 117 161 196 245 299 353
#     4  10  21  35  49  72 114 154 189 229 278 343
#     4  10  21  37  48  72 120 154 191 236 271 347
#     4  12  20  32  55  86 116 155 193 230 305 363
#     4  10  20  31  50  76 120 150 187 228 285 350
#     4  10  22  36  59  84 120 150 199 248 292 364
#
# _framework density 19.954367999999999
#
# number of rings (size 3 to 8) (size 9 to 14) (size 15 to 20)
#    0.750    0.750    3.750    2.625    3.500    1.000 
#    0.000    0.000    0.000    0.000    0.000    1.750 
#    0.000    0.000    0.000    0.000    0.000    0.000 
#
# Total GULP energy -89141.119074 kJ/mol
# GULP energy per Si atom -5571.319942 kJ/mol
# Density = 1.990895 g / cm^3
# Si number density = 19.954368 Si / 1000 Ang^3
#
#
#
# Elastic Constant Matrix: (Units=GPa)
#
#
# Indices 1 2 3 4 5 6 
#
# 1 102.0797 24.7388 20.1069 -8.5166 17.0550 2.2739
# 2 24.7388 45.1360 10.0495 -12.3442 -0.0811 1.6023
# 3 20.1069 10.0495 77.9398 0.4200 24.5699 -4.2208
# 4 -8.5166 -12.3442 0.4200 29.7209 4.9708 4.2392
# 5 17.0550 -0.0811 24.5699 4.9708 23.0740 -1.4321
# 6 2.2739 1.6023 -4.2208 4.2392 -1.4321 34.3645
#
#
#
# Elastic Compliance Matrix: (Units=1/GPa)
#
#
# Indices 1 2 3 4 5 6 
#
# 1 0.013510 -0.006722 0.001044 0.003248 -0.011904 -0.001349
# 2 -0.006722 0.029578 -0.004773 0.009427 0.007978 -0.002351
# 3 0.001044 -0.004773 0.020441 0.001627 -0.022810 0.001513
# 4 0.003248 0.009427 0.001627 0.041594 -0.013442 -0.006146
# 5 -0.011904 0.007978 -0.022810 -0.013442 0.079511 0.002586
# 6 -0.001349 -0.002351 0.001513 -0.006146 0.002586 0.030350
#
#
# Mechanical properties :
#
#
# Convention : Reuss Voigt Hill
#
# Bulk Modulus (GPa) = 23.45995 37.21622 30.33808
# Shear Modulus (GPa) = 19.99239 28.78259 24.38749
#
# Velocity S-wave (km/s) = 3.16872 3.80204 3.49974
# Velocity P-wave (km/s) = 5.01698 6.16159 5.61851
#
# Compressibility (1/GPa) = 0.04262584
#
# Stress axis : x y z
#
# Youngs Moduli (GPa) = 74.02100 33.80857 48.92247
#
# Poissons Ratio (x) = 0.22727 -0.05105
# Poissons Ratio (y) = 0.49758 0.23349
# Poissons Ratio (z) = -0.07724 0.16136
#
# Static dielectric constant tensor:
#      x y z
#    x 1.761710 -0.033110 -0.004600 
#    y -0.033110 1.777010 0.069120 
#    z -0.004600 0.069120 1.845700 
# 
# From -- ./inp_files/96889.got.cif
#   From: 2010.05.17/outbox.cif.g08.bks.cpg/sg2_49_cif.got.tgz:96889.got - 2010.06.03 11:33:40.
