data_PCOD9093030
_publ_section_title
;
Structure prediction by ZEFSAII (Michael W. Deem and Ramdas Pophale) SiO2 
 PCOD9093030
Probable space group: P -1
;
_chemical_formula_sum "Si O2"
_cell_formula_units_Z 16
_cell_length_a 11.832113
_cell_length_b 7.218049
_cell_length_c 18.662853
_cell_angle_alpha 118.880401
_cell_angle_beta 28.425128
_cell_angle_gamma 126.979834
_cell_volume 601.637067
_symmetry_space_group_name_H-M "P -1"
_symmetry_group_IT_number 2
_symmetry_cell_setting 'triclinic'
loop_
_space_group_symop_operation_xyz
x,y,z
-x,-y,-z
loop_
_atom_site_type_symbol
_atom_site_label
_atom_site_fract_x
_atom_site_fract_y
_atom_site_fract_z
Si Si1 0.621622 0.844725 0.664145
Si Si2 0.596172 0.274378 0.977611
Si Si3 0.706844 0.677709 0.264778
Si Si4 0.660371 0.265727 0.404680
Si Si5 0.953198 0.771409 0.705265
Si Si6 0.386324 0.817545 0.374995
Si Si7 0.201546 0.678706 0.979458
Si Si8 0.982275 0.777488 0.339695
O O1 0.401542 0.598061 0.709248
O O2 0.494396 0.807886 0.807852
O O3 0.878823 0.824652 0.482887
O O4 0.631564 0.088074 0.675319
O O5 0.774086 0.410493 0.972058
O O6 0.352134 0.337983 0.125888
O O7 0.765659 0.279316 0.814584
O O8 0.500000 0.000000 0.000000
O O9 0.556279 0.769469 0.420781
O O10 0.575647 0.693271 0.264145
O O11 0.019823 0.817349 0.118927
O O12 0.892741 0.230083 0.309025
O O13 0.771222 0.539648 0.377616
O O14 0.531266 0.071119 0.380968
O O15 0.104283 0.678968 0.544889
O O16 0.990010 0.008884 0.686728
O O17 0.000000 0.500000 0.000000
#
# Coordination Sequence:
#
# PCOD9093030 Si02
#       8
#     2   2   2   2   2   2   2   2
#     4   9  20  36  55  85 115 153 194 243 294 344
#     4  10  22  37  63  88 116 162 197 243 297 350
#     4   9  19  33  56  81 122 147 195 240 296 338
#     4  10  20  30  58  90 114 151 196 250 290 341
#     4   9  19  36  52  83 123 146 189 245 301 335
#     4  10  20  31  57  89 114 154 196 242 294 350
#     4  10  22  38  61  87 121 160 196 241 301 353
#     4   9  20  35  58  85 117 151 202 237 292 346
#
# _framework density 26.594107000000001
#
# number of rings (size 3 to 8) (size 9 to 14) (size 15 to 20)
#    0.000    2.500    0.000    1.500   12.250    3.500 
#    0.000    5.625    0.000   18.750    0.000    0.000 
#    0.000    0.000    0.000    0.000    0.000    0.000 
#
# Total GULP energy -89157.691974 kJ/mol
# GULP energy per Si atom -5572.355748 kJ/mol
# Density = 2.653358 g / cm^3
# Si number density = 26.594107 Si / 1000 Ang^3
#
#
#
# Elastic Constant Matrix: (Units=GPa)
#
#
# Indices 1 2 3 4 5 6 
#
# 1 108.5099 18.3813 63.6764 19.0789 -18.1963 -1.4298
# 2 18.3813 64.9705 -0.2574 -1.0558 4.4728 -3.0720
# 3 63.6764 -0.2574 213.8836 12.0608 -21.1972 -12.1070
# 4 19.0789 -1.0558 12.0608 18.7909 -5.8475 4.8885
# 5 -18.1963 4.4728 -21.1972 -5.8475 42.7450 13.5247
# 6 -1.4298 -3.0720 -12.1070 4.8885 13.5247 44.6845
#
#
#
# Elastic Compliance Matrix: (Units=1/GPa)
#
#
# Indices 1 2 3 4 5 6 
#
# 1 0.014632 -0.004620 -0.003378 -0.011667 0.003627 -0.000586
# 2 -0.004620 0.017086 0.000973 0.003458 -0.003415 0.001946
# 3 -0.003378 0.000973 0.005865 -0.000339 0.000908 0.001310
# 4 -0.011667 0.003458 -0.000339 0.070403 0.007347 -0.010153
# 5 0.003627 -0.003415 0.000908 0.007347 0.029821 -0.009702
# 6 -0.000586 0.001946 0.001310 -0.010153 -0.009702 0.026897
#
#
# Mechanical properties :
#
#
# Convention : Reuss Voigt Hill
#
# Bulk Modulus (GPa) = 42.49231 61.21828 51.85529
# Shear Modulus (GPa) = 26.79553 41.61500 34.20526
#
# Velocity S-wave (km/s) = 3.17767 3.96007 3.59025
# Velocity P-wave (km/s) = 5.42920 6.63167 6.06033
#
# Compressibility (1/GPa) = 0.02353367
#
# Stress axis : x y z
#
# Youngs Moduli (GPa) = 68.34179 58.52802 170.48944
#
# Poissons Ratio (x) = 0.27040 0.57585
# Poissons Ratio (y) = 0.31575 -0.16584
# Poissons Ratio (z) = 0.23083 -0.05693
#
# Static dielectric constant tensor:
#      x y z
#    x 2.197560 0.047830 -0.007690 
#    y 0.047830 2.179450 0.057120 
#    z -0.007690 0.057120 2.303590 
# 
# From -- ./inp_files/566067.got.cif
#   From: 2010.05.17/outbox.cif.g08.bks.cpg/sg2_284_cif.got.tgz:566067.got - 2010.06.03 11:33:40.
