data_PCOD9093355
_publ_section_title
;
Structure prediction by ZEFSAII (Michael W. Deem and Ramdas Pophale) SiO2 
 PCOD9093355
Probable space group: P -1
;
_chemical_formula_sum "Si O2"
_cell_formula_units_Z 14
_cell_length_a 11.458848
_cell_length_b 8.251201
_cell_length_c 16.412803
_cell_angle_alpha 75.614676
_cell_angle_beta 44.326689
_cell_angle_gamma 42.042827
_cell_volume 578.521575
_symmetry_space_group_name_H-M "P -1"
_symmetry_group_IT_number 2
_symmetry_cell_setting 'triclinic'
loop_
_space_group_symop_operation_xyz
x,y,z
-x,-y,-z
loop_
_atom_site_type_symbol
_atom_site_label
_atom_site_fract_x
_atom_site_fract_y
_atom_site_fract_z
Si Si1 0.362411 0.394897 0.540339
Si Si2 0.171573 0.512669 0.447954
Si Si3 0.746441 0.774980 0.833126
Si Si4 0.226746 0.610118 0.097459
Si Si5 0.864883 0.053199 0.446038
Si Si6 0.766587 0.191554 0.167389
Si Si7 0.489058 0.715096 0.173656
O O1 0.286823 0.364837 0.498301
O O2 0.670687 0.111488 0.470338
O O3 0.334649 0.609944 0.493426
O O4 0.071503 0.585590 0.716607
O O5 0.480529 0.313632 0.274583
O O6 0.000000 0.500000 0.500000
O O7 0.951759 0.860170 0.502318
O O8 0.788507 0.544631 0.822265
O O9 0.611040 0.009616 0.801422
O O10 0.500000 0.000000 0.000000
O O11 0.500000 0.500000 0.000000
O O12 0.294840 0.482467 0.988322
O O13 0.934520 0.971565 0.187995
O O14 0.188352 0.860018 0.282498
O O15 0.645142 0.483187 0.197640
O O16 0.000000 0.000000 0.000000
#
# Coordination Sequence:
#
# PCOD9093355 Si02
#       7
#     2   2   2   2   2   2   2
#     4  10  21  38  65  87 118 163 206 249 308 365
#     4  11  24  38  61  92 128 160 205 256 307 368
#     4   9  19  37  60  84 117 154 200 254 296 362
#     4  10  20  32  57  85 115 151 197 244 300 361
#     4   9  20  39  61  86 120 158 204 251 305 363
#     4   9  20  39  57  81 122 162 194 247 308 360
#     4   8  17  37  58  77 113 156 194 241 297 356
#
# _framework density 24.199614
#
# number of rings (size 3 to 8) (size 9 to 14) (size 15 to 20)
#    0.000    2.571    0.000    0.429    4.000    4.000 
#    0.000    0.714    0.000    0.000    0.000    0.000 
#    0.000    0.000    0.000    0.000    0.000    0.000 
#
# Total GULP energy -78085.354628 kJ/mol
# GULP energy per Si atom -5577.525331 kJ/mol
# Density = 2.414453 g / cm^3
# Si number density = 24.199614 Si / 1000 Ang^3
#
#
#
# Elastic Constant Matrix: (Units=GPa)
#
#
# Indices 1 2 3 4 5 6 
#
# 1 71.2176 45.1871 18.2687 -3.3634 -27.0627 -7.8348
# 2 45.1871 218.6196 42.5441 0.0625 -38.6280 14.1005
# 3 18.2687 42.5441 117.2439 -10.3903 -8.5920 -5.1008
# 4 -3.3634 0.0625 -10.3903 38.2152 0.4836 -8.0504
# 5 -27.0627 -38.6280 -8.5920 0.4836 28.4304 -4.9113
# 6 -7.8348 14.1005 -5.1008 -8.0504 -4.9113 38.0520
#
#
#
# Elastic Compliance Matrix: (Units=1/GPa)
#
#
# Indices 1 2 3 4 5 6 
#
# 1 0.025328 -0.001546 -0.000942 0.003670 0.023293 0.009444
# 2 -0.001546 0.006561 -0.001882 -0.001253 0.006475 -0.002431
# 3 -0.000942 -0.001882 0.009728 0.003081 -0.000145 0.002440
# 4 0.003670 -0.001253 0.003081 0.029021 0.003653 0.008244
# 5 0.023293 0.006475 -0.000145 0.003653 0.068100 0.011939
# 6 0.009444 -0.002431 0.002440 0.008244 0.011939 0.032738
#
#
# Mechanical properties :
#
#
# Convention : Reuss Voigt Hill
#
# Bulk Modulus (GPa) = 30.41807 68.78678 49.60242
# Shear Modulus (GPa) = 26.15394 41.01161 33.58278
#
# Velocity S-wave (km/s) = 3.29106 4.12117 3.72928
# Velocity P-wave (km/s) = 5.19984 7.15065 6.25181
#
# Compressibility (1/GPa) = 0.03287520
#
# Stress axis : x y z
#
# Youngs Moduli (GPa) = 39.48215 152.40723 102.80014
#
# Poissons Ratio (x) = 0.23567 0.09687
# Poissons Ratio (y) = 0.06105 0.19349
# Poissons Ratio (z) = 0.03720 0.28686
#
# Static dielectric constant tensor:
#      x y z
#    x 1.946190 0.030200 0.073810 
#    y 0.030200 2.012100 0.027940 
#    z 0.073810 0.027940 2.013150 
# 
# From -- ./inp_files/244221.got.cif
#   From: 2010.05.17/outbox.cif.g08.bks.cpg/sg2_123_cif.got.tgz:244221.got - 2010.06.03 11:33:40.
