data_PCOD9093177
_publ_section_title
;
Structure prediction by ZEFSAII (Michael W. Deem and Ramdas Pophale) SiO2 
 PCOD9093177
Probable space group: P -1
;
_chemical_formula_sum "Si O2"
_cell_formula_units_Z 16
_cell_length_a 14.050398
_cell_length_b 17.455057
_cell_length_c 9.790110
_cell_angle_alpha 36.295510
_cell_angle_beta 53.515476
_cell_angle_gamma 30.951128
_cell_volume 693.202907
_symmetry_space_group_name_H-M "P -1"
_symmetry_group_IT_number 2
_symmetry_cell_setting 'triclinic'
loop_
_space_group_symop_operation_xyz
x,y,z
-x,-y,-z
loop_
_atom_site_type_symbol
_atom_site_label
_atom_site_fract_x
_atom_site_fract_y
_atom_site_fract_z
Si Si1 0.525809 0.357622 0.533946
Si Si2 0.412696 0.419022 0.847889
Si Si3 0.064056 0.420623 0.777881
Si Si4 0.395077 0.973827 0.211313
Si Si5 0.136322 0.734225 0.158587
Si Si6 0.208316 0.960945 0.773008
Si Si7 0.043332 0.608615 0.761104
Si Si8 0.745759 0.627478 0.574952
O O1 0.528277 0.333860 0.727665
O O2 0.641344 0.385747 0.351035
O O3 0.590766 0.170770 0.675157
O O4 0.305795 0.579095 0.352396
O O5 0.220938 0.508216 0.841803
O O6 0.565755 0.229539 0.098881
O O7 0.108371 0.513189 0.687430
O O8 0.164077 0.352712 0.643200
O O9 0.839950 0.586499 0.696227
O O10 0.172213 0.211530 0.064212
O O11 0.517160 0.844539 0.430867
O O12 0.500000 0.000000 0.000000
O O13 0.181346 0.579244 0.236135
O O14 0.927556 0.909299 0.160512
O O15 0.164259 0.855538 0.903338
O O16 0.126255 0.140963 0.482746
O O17 0.000000 0.500000 0.000000
#
# Coordination Sequence:
#
# PCOD9093177 Si02
#       8
#     2   2   2   2   2   2   2   2
#     4   9  17  31  54  88 117 136 169 230 290 329
#     4  10  20  33  55  82 109 142 186 229 275 324
#     4  10  20  32  49  77 101 144 184 210 275 326
#     4   9  17  28  48  77 114 139 161 211 277 338
#     4   9  16  32  54  86 114 132 167 228 287 331
#     4  10  20  32  56  81 107 142 180 222 277 324
#     4  12  25  41  53  72 115 154 191 227 258 329
#     4   9  17  31  52  79 112 129 165 230 276 330
#
# _framework density 23.081265999999999
#
# number of rings (size 3 to 8) (size 9 to 14) (size 15 to 20)
#    0.000    2.250    2.500    1.500    3.500    2.500 
#    0.000    0.000    0.000    3.000    0.000    5.250 
#    0.000    0.000    0.000    0.000    0.000    0.000 
#
# Total GULP energy -89275.634330 kJ/mol
# GULP energy per Si atom -5579.727146 kJ/mol
# Density = 2.302873 g / cm^3
# Si number density = 23.081266 Si / 1000 Ang^3
#
#
#
# Elastic Constant Matrix: (Units=GPa)
#
#
# Indices 1 2 3 4 5 6 
#
# 1 132.6660 32.3362 82.3783 -8.7891 -11.2606 -41.2824
# 2 32.3362 40.1810 40.9601 -11.4863 -0.9713 -20.5381
# 3 82.3783 40.9601 198.1945 -18.2769 -8.7880 -23.0578
# 4 -8.7891 -11.4863 -18.2769 30.2427 6.3372 3.0869
# 5 -11.2606 -0.9713 -8.7880 6.3372 28.0129 -0.3534
# 6 -41.2824 -20.5381 -23.0578 3.0869 -0.3534 26.4305
#
#
#
# Elastic Compliance Matrix: (Units=1/GPa)
#
#
# Indices 1 2 3 4 5 6 
#
# 1 0.019489 0.005268 -0.005419 -0.000069 0.006710 0.029904
# 2 0.005268 0.052914 -0.007097 0.013250 -0.000747 0.041596
# 3 -0.005419 -0.007097 0.008050 0.001385 -0.000302 -0.007121
# 4 -0.000069 0.013250 0.001385 0.039933 -0.008084 0.006625
# 5 0.006710 -0.000747 -0.000302 -0.008084 0.040243 0.011118
# 6 0.029904 0.041596 -0.007121 0.006625 0.011118 0.110027
#
#
# Mechanical properties :
#
#
# Convention : Reuss Voigt Hill
#
# Bulk Modulus (GPa) = 15.16150 75.82117 45.49133
# Shear Modulus (GPa) = 16.27929 31.29503 23.78716
#
# Velocity S-wave (km/s) = 2.65864 3.68620 3.21375
# Velocity P-wave (km/s) = 4.00093 7.14412 5.78990
#
# Compressibility (1/GPa) = 0.06595655
#
# Stress axis : x y z
#
# Youngs Moduli (GPa) = 51.31119 18.89869 124.21702
#
# Poissons Ratio (x) = -0.09955 0.67312
# Poissons Ratio (y) = -0.27029 0.88156
# Poissons Ratio (z) = 0.27805 0.13412
#
# Static dielectric constant tensor:
#      x y z
#    x 1.893190 0.023210 0.030950 
#    y 0.023210 2.009900 0.056780 
#    z 0.030950 0.056780 1.897250 
# 
# From -- ./inp_files/314465.got.cif
#   From: 2010.05.17/outbox.cif.g08.bks.cpg/sg2_158_cif.got.tgz:314465.got - 2010.06.03 11:33:40.
