data_PCOD9093494
_publ_section_title
;
Structure prediction by ZEFSAII (Michael W. Deem and Ramdas Pophale) SiO2 
 PCOD9093494
Probable space group: P -1
;
_chemical_formula_sum "Si O2"
_cell_formula_units_Z 16
_cell_length_a 11.373159
_cell_length_b 16.327561
_cell_length_c 15.656449
_cell_angle_alpha 43.182569
_cell_angle_beta 132.785542
_cell_angle_gamma 158.415974
_cell_volume 731.883776
_symmetry_space_group_name_H-M "P -1"
_symmetry_group_IT_number 2
_symmetry_cell_setting 'triclinic'
loop_
_space_group_symop_operation_xyz
x,y,z
-x,-y,-z
loop_
_atom_site_type_symbol
_atom_site_label
_atom_site_fract_x
_atom_site_fract_y
_atom_site_fract_z
Si Si1 0.297357 0.772937 0.364260
Si Si2 0.530700 0.311115 0.056912
Si Si3 0.585150 0.289209 0.367557
Si Si4 0.648983 0.760007 0.171667
Si Si5 0.682427 0.061558 0.167909
Si Si6 0.817794 0.741284 0.847092
Si Si7 0.195712 0.634764 0.116418
Si Si8 0.851266 0.092642 0.697000
O O1 0.417106 0.747458 0.506361
O O2 0.554843 0.971201 0.269196
O O3 0.954677 0.518040 0.347532
O O4 0.205828 0.823536 0.343519
O O5 0.392770 0.238857 0.949308
O O6 0.671114 0.531927 0.981639
O O7 0.278813 0.096071 0.161239
O O8 0.827244 0.411794 0.125386
O O9 0.446680 0.331817 0.250591
O O10 0.358725 0.054914 0.379551
O O11 0.322457 0.586749 0.189561
O O12 0.908397 0.017455 0.146081
O O13 0.786509 0.715880 0.286788
O O14 0.403190 0.822679 0.153257
O O15 0.000717 0.195485 0.194641
O O16 0.733356 0.229225 0.031268
#
# Coordination Sequence:
#
# PCOD9093494 Si02
#       8
#     2   2   2   2   2   2   2   2
#     4  11  22  39  59  79 106 145 190 224 265 321
#     4  11  20  32  56  85 113 143 175 217 274 332
#     4  10  23  40  58  77 107 147 185 230 267 311
#     4  10  20  33  51  78 113 146 174 214 265 322
#     4   9  18  34  57  80 109 144 177 222 269 321
#     4   9  21  38  54  82 114 140 177 224 274 321
#     4   9  18  33  53  82 115 142 173 217 272 326
#     4  11  23  36  55  83 112 143 180 225 272 320
#
# _framework density 21.861395000000002
#
# number of rings (size 3 to 8) (size 9 to 14) (size 15 to 20)
#    0.000    2.000    0.000    4.125    0.000    5.500 
#    0.000    0.000    0.000    0.000    0.000   21.000 
#    0.000    0.000    0.000    0.000    0.000    0.000 
#
# Total GULP energy -89477.028339 kJ/mol
# GULP energy per Si atom -5592.314271 kJ/mol
# Density = 2.181164 g / cm^3
# Si number density = 21.861395 Si / 1000 Ang^3
#
#
#
# Elastic Constant Matrix: (Units=GPa)
#
#
# Indices 1 2 3 4 5 6 
#
# 1 80.0721 16.0648 16.4436 4.9212 1.1946 6.5517
# 2 16.0648 53.1329 14.7576 18.1301 -1.7001 9.2161
# 3 16.4436 14.7576 50.4165 5.8310 1.7056 12.2176
# 4 4.9212 18.1301 5.8310 34.5664 3.8950 0.9986
# 5 1.1946 -1.7001 1.7056 3.8950 22.0528 1.9766
# 6 6.5517 9.2161 12.2176 0.9986 1.9766 32.9969
#
#
#
# Elastic Compliance Matrix: (Units=1/GPa)
#
#
# Indices 1 2 3 4 5 6 
#
# 1 0.013893 -0.003331 -0.003458 0.000455 -0.000776 -0.000515
# 2 -0.003331 0.026534 -0.004084 -0.013206 0.005337 -0.005157
# 3 -0.003458 -0.004084 0.024009 -0.001083 -0.001169 -0.006960
# 4 0.000455 -0.013206 -0.001083 0.036751 -0.007750 0.003351
# 5 -0.000776 0.005337 -0.001169 -0.007750 0.047574 -0.003519
# 6 -0.000515 -0.005157 -0.006960 0.003351 -0.003519 0.034535
#
#
# Mechanical properties :
#
#
# Convention : Reuss Voigt Hill
#
# Bulk Modulus (GPa) = 23.42398 30.90594 27.16496
# Shear Modulus (GPa) = 22.80287 27.01358 24.90823
#
# Velocity S-wave (km/s) = 3.23316 3.51903 3.37912
# Velocity P-wave (km/s) = 4.96747 5.53889 5.26095
#
# Compressibility (1/GPa) = 0.04269129
#
# Stress axis : x y z
#
# Youngs Moduli (GPa) = 71.97943 37.68803 41.65044
#
# Poissons Ratio (x) = 0.12553 0.14402
# Poissons Ratio (y) = 0.23975 0.17009
# Poissons Ratio (z) = 0.24889 0.15391
#
# Static dielectric constant tensor:
#      x y z
#    x 1.847840 -0.024780 0.017460 
#    y -0.024780 1.835870 0.027600 
#    z 0.017460 0.027600 1.742770 
# 
# From -- ./inp_files/475321.got.cif
#   From: 2010.05.17/outbox.cif.g08.bks.cpg/sg2_238_cif.got.tgz:475321.got - 2010.06.03 11:33:40.
