data_PCOD9093103
_publ_section_title
;
Structure prediction by ZEFSAII (Michael W. Deem and Ramdas Pophale) SiO2 
 PCOD9093103
Probable space group: P -1
;
_chemical_formula_sum "Si O2"
_cell_formula_units_Z 12
_cell_length_a 20.411501
_cell_length_b 5.213136
_cell_length_c 13.805627
_cell_angle_alpha 121.174177
_cell_angle_beta 148.432157
_cell_angle_gamma 76.926560
_cell_volume 577.364168
_symmetry_space_group_name_H-M "P -1"
_symmetry_group_IT_number 2
_symmetry_cell_setting 'triclinic'
loop_
_space_group_symop_operation_xyz
x,y,z
-x,-y,-z
loop_
_atom_site_type_symbol
_atom_site_label
_atom_site_fract_x
_atom_site_fract_y
_atom_site_fract_z
Si Si1 0.584333 0.295012 0.587553
Si Si2 0.153625 0.229190 0.195452
Si Si3 0.874346 0.476775 0.982577
Si Si4 0.596849 0.941046 0.032051
Si Si5 0.788193 0.189416 0.491764
Si Si6 0.459169 0.162209 0.742828
O O1 0.500000 0.500000 0.500000
O O2 0.747337 0.538489 0.876399
O O3 0.500000 0.000000 0.500000
O O4 0.589283 0.115744 0.457605
O O5 0.130093 0.427463 0.116223
O O6 0.234820 0.497263 0.434913
O O7 0.190843 0.931281 0.158383
O O8 0.000000 0.000000 0.000000
O O9 0.042469 0.687756 0.261688
O O10 0.744821 0.100798 0.308380
O O11 0.533643 0.536766 0.864035
O O12 0.500000 0.000000 0.000000
O O13 0.575170 0.112431 0.942877
O O14 0.672897 0.897761 0.362335
#
# Coordination Sequence:
#
# PCOD9093103 Si02
#       6
#     2   2   2   2   2   2
#     4  12  26  43  63  83 117 164 214 253 291 341
#     4  10  20  31  54  90 124 151 173 235 309 362
#     4  11  23  37  59  90 121 155 194 252 306 345
#     4  10  22  35  57  93 125 161 183 229 308 380
#     4  10  20  36  62  92 128 147 189 239 313 378
#     4  11  23  38  61  86 126 156 196 244 296 358
#
# _framework density 20.784108
#
# number of rings (size 3 to 8) (size 9 to 14) (size 15 to 20)
#    0.000    1.333    1.667    6.000    4.667    6.667 
#    0.000    0.000    0.000    6.000    0.000    0.000 
#    0.000    0.000    0.000    0.000    0.000    0.000 
#
# Total GULP energy -66841.595138 kJ/mol
# GULP energy per Si atom -5570.132928 kJ/mol
# Density = 2.073680 g / cm^3
# Si number density = 20.784108 Si / 1000 Ang^3
#
#
#
# Elastic Constant Matrix: (Units=GPa)
#
#
# Indices 1 2 3 4 5 6 
#
# 1 49.5486 6.6879 28.9319 -21.7584 13.5599 8.1100
# 2 6.6879 115.6801 46.0904 -21.3453 6.4070 1.5568
# 3 28.9319 46.0904 133.9884 -32.1560 6.9317 -5.7879
# 4 -21.7584 -21.3453 -32.1560 35.6392 -3.4103 0.1567
# 5 13.5599 6.4070 6.9317 -3.4103 30.5371 -4.6048
# 6 8.1100 1.5568 -5.7879 0.1567 -4.6048 26.1050
#
#
#
# Elastic Compliance Matrix: (Units=1/GPa)
#
#
# Indices 1 2 3 4 5 6 
#
# 1 0.038911 0.004680 -0.004901 0.020549 -0.017362 -0.016640
# 2 0.004680 0.011073 -0.003305 0.006189 -0.003488 -0.003500
# 3 -0.004901 -0.003305 0.010983 0.005072 0.001608 0.004408
# 4 0.020549 0.006189 0.005072 0.048223 -0.007275 -0.007201
# 5 -0.017362 -0.003488 0.001608 -0.007275 0.042034 0.013417
# 6 -0.016640 -0.003500 0.004408 -0.007201 0.013417 0.047072
#
#
# Mechanical properties :
#
#
# Convention : Reuss Voigt Hill
#
# Bulk Modulus (GPa) = 18.54754 51.40416 34.97585
# Shear Modulus (GPa) = 22.38941 32.95673 27.67307
#
# Velocity S-wave (km/s) = 3.28569 3.98637 3.65287
# Velocity P-wave (km/s) = 4.83090 6.78043 5.88693
#
# Compressibility (1/GPa) = 0.05391549
#
# Stress axis : x y z
#
# Youngs Moduli (GPa) = 25.69980 90.30942 91.04911
#
# Poissons Ratio (x) = -0.42268 0.44623
# Poissons Ratio (y) = -0.12028 0.30092
# Poissons Ratio (z) = 0.12596 0.29848
#
# Static dielectric constant tensor:
#      x y z
#    x 1.814790 0.017040 0.030140 
#    y 0.017040 1.968430 0.040240 
#    z 0.030140 0.040240 1.893640 
# 
# From -- ./inp_files/64655.got.cif
#   From: 2010.05.17/outbox.cif.g08.bks.cpg/sg2_33_cif.got.tgz:64655.got - 2010.06.03 11:33:40.
