data_PCOD9093763
_publ_section_title
;
Structure prediction by ZEFSAII (Michael W. Deem and Ramdas Pophale) SiO2 
 PCOD9093763
Probable space group: P -1
;
_chemical_formula_sum "Si O2"
_cell_formula_units_Z 14
_cell_length_a 8.103454
_cell_length_b 7.302184
_cell_length_c 12.849614
_cell_angle_alpha 62.173833
_cell_angle_beta 72.491284
_cell_angle_gamma 110.068549
_cell_volume 525.394578
_symmetry_space_group_name_H-M "P -1"
_symmetry_group_IT_number 2
_symmetry_cell_setting 'triclinic'
loop_
_space_group_symop_operation_xyz
x,y,z
-x,-y,-z
loop_
_atom_site_type_symbol
_atom_site_label
_atom_site_fract_x
_atom_site_fract_y
_atom_site_fract_z
Si Si1 0.299629 0.421856 0.940640
Si Si2 0.153326 0.433062 0.744825
Si Si3 0.280759 0.105278 0.301728
Si Si4 0.221656 0.161717 0.537192
Si Si5 0.757348 0.366198 0.544387
Si Si6 0.849561 0.058127 0.189499
Si Si7 0.288251 0.933482 0.009101
O O1 0.252528 0.516302 0.817663
O O2 0.543621 0.641340 0.858647
O O3 0.281441 0.170542 0.977145
O O4 0.092176 0.306075 0.082266
O O5 0.248084 0.626204 0.581460
O O6 0.155759 0.191615 0.774457
O O7 0.907108 0.315919 0.833772
O O8 0.283043 0.137213 0.417339
O O9 0.338044 0.907623 0.320501
O O10 0.033389 0.983685 0.359641
O O11 0.316636 0.458404 0.451904
O O12 0.269504 0.031878 0.653970
O O13 0.000000 0.500000 0.500000
O O14 0.748676 0.102135 0.097948
O O15 0.500000 0.000000 0.000000
#
# Coordination Sequence:
#
# PCOD9093763 Si02
#       7
#     2   2   2   2   2   2   2
#     4   9  18  33  55  82 112 150 193 234 291 348
#     4   8  16  33  54  76 111 153 187 231 289 345
#     4  10  20  33  57  87 115 152 192 241 290 339
#     4   9  19  36  56  82 119 153 191 239 288 343
#     4   9  18  34  55  78 112 155 192 230 288 350
#     4   8  16  35  57  78 113 157 191 233 291 348
#     4   9  17  30  55  85 111 147 194 241 289 342
#
# _framework density 26.646640999999999
#
# number of rings (size 3 to 8) (size 9 to 14) (size 15 to 20)
#    0.000    3.143    0.000    1.714    0.000    4.571 
#    0.000    7.857    0.000   16.286    0.000    1.000 
#    0.000    0.000    0.000    0.000    0.000    0.000 
#
# Total GULP energy -78371.835466 kJ/mol
# GULP energy per Si atom -5597.988248 kJ/mol
# Density = 2.658599 g / cm^3
# Si number density = 26.646641 Si / 1000 Ang^3
#
#
#
# Elastic Constant Matrix: (Units=GPa)
#
#
# Indices 1 2 3 4 5 6 
#
# 1 94.0207 7.5642 41.9276 -0.8112 -16.5725 20.2500
# 2 7.5642 73.0753 41.3813 -3.2514 1.1888 -5.4002
# 3 41.9276 41.3813 156.6791 -10.8347 -15.3115 9.3660
# 4 -0.8112 -3.2514 -10.8347 40.4620 15.4133 6.4544
# 5 -16.5725 1.1888 -15.3115 15.4133 44.7848 -8.4960
# 6 20.2500 -5.4002 9.3660 6.4544 -8.4960 22.5509
#
#
#
# Elastic Compliance Matrix: (Units=1/GPa)
#
#
# Indices 1 2 3 4 5 6 
#
# 1 0.014864 -0.000823 -0.002813 0.000525 0.002158 -0.011714
# 2 -0.000823 0.016957 -0.004789 -0.000647 -0.000912 0.006630
# 3 -0.002813 -0.004789 0.008774 0.001938 0.000952 -0.002461
# 4 0.000525 -0.000647 0.001938 0.032852 -0.013449 -0.015901
# 5 0.002158 -0.000912 0.000952 -0.013449 0.030534 0.012802
# 6 -0.011714 0.006630 -0.002461 -0.015901 0.012802 0.066847
#
#
# Mechanical properties :
#
#
# Convention : Reuss Voigt Hill
#
# Bulk Modulus (GPa) = 42.11111 56.16902 49.14007
# Shear Modulus (GPa) = 25.56320 37.08634 31.32477
#
# Velocity S-wave (km/s) = 3.10068 3.73471 3.43237
# Velocity P-wave (km/s) = 5.35321 6.30257 5.84719
#
# Compressibility (1/GPa) = 0.02374670
#
# Stress axis : x y z
#
# Youngs Moduli (GPa) = 67.27500 58.97109 113.97141
#
# Poissons Ratio (x) = 0.04854 0.32059
# Poissons Ratio (y) = 0.05538 0.54576
# Poissons Ratio (z) = 0.18924 0.28239
#
# Static dielectric constant tensor:
#      x y z
#    x 2.134720 0.032140 -0.025990 
#    y 0.032140 2.108800 -0.025880 
#    z -0.025990 -0.025880 2.005840 
# 
# From -- ./inp_files/406600.got.cif
#   From: 2010.05.17/outbox.cif.g08.bks.cpg/sg2_204_cif.got.tgz:406600.got - 2010.06.03 11:33:40.
