data_PCOD9093024
_publ_section_title
;
Structure prediction by ZEFSAII (Michael W. Deem and Ramdas Pophale) SiO2 
 PCOD9093024
Probable space group: P -1
;
_chemical_formula_sum "Si O2"
_cell_formula_units_Z 16
_cell_length_a 28.962134
_cell_length_b 22.685486
_cell_length_c 9.232841
_cell_angle_alpha 141.467721
_cell_angle_beta 30.080402
_cell_angle_gamma 161.806799
_cell_volume 918.069373
_symmetry_space_group_name_H-M "P -1"
_symmetry_group_IT_number 2
_symmetry_cell_setting 'triclinic'
loop_
_space_group_symop_operation_xyz
x,y,z
-x,-y,-z
loop_
_atom_site_type_symbol
_atom_site_label
_atom_site_fract_x
_atom_site_fract_y
_atom_site_fract_z
Si Si1 0.206225 0.708244 0.770084
Si Si2 0.349817 0.114320 0.850141
Si Si3 0.435300 0.549069 0.268343
Si Si4 0.607412 0.351992 0.181480
Si Si5 0.441378 0.106457 0.880294
Si Si6 0.005799 0.448522 0.235617
Si Si7 0.420628 0.828895 0.841897
Si Si8 0.947905 0.721867 0.113437
O O1 0.372630 0.780163 0.472503
O O2 0.159424 0.670710 0.652895
O O3 0.298613 0.894160 0.911997
O O4 0.000000 0.500000 0.000000
O O5 0.484549 0.321661 0.837395
O O6 0.347180 0.085931 0.971496
O O7 0.437155 0.100193 0.508859
O O8 0.146843 0.952542 0.016657
O O9 0.496859 0.661057 0.463749
O O10 0.208344 0.361285 0.530562
O O11 0.500000 0.500000 0.000000
O O12 0.608361 0.262257 0.112965
O O13 0.827543 0.586555 0.035434
O O14 0.514158 0.236983 0.065260
O O15 0.000000 0.500000 0.500000
O O16 0.213128 0.654660 0.001032
O O17 0.002382 0.333824 0.054715
O O18 0.500000 0.000000 0.000000
#
# Coordination Sequence:
#
# PCOD9093024 Si02
#       8
#     2   2   2   2   2   2   2   2
#     4  11  24  34  51  77 123 163 192 218 275 329
#     4  11  20  36  62  82 112 151 188 235 286 337
#     4   9  21  42  66  85 108 142 195 245 290 344
#     4   8  20  38  53  81 117 142 186 239 282 332
#     4  11  23  37  52  83 122 153 190 232 279 337
#     4  11  19  34  52  79 115 152 195 231 260 329
#     4  10  20  30  54  78 112 156 198 223 273 328
#     4   9  19  37  58  81 112 142 193 230 281 329
#
# _framework density 17.427876999999999
#
# number of rings (size 3 to 8) (size 9 to 14) (size 15 to 20)
#    0.750    1.250    2.500    3.000    5.250    0.500 
#    2.250    0.625    0.000    0.750    0.000    0.000 
#    0.000    0.000    0.000    0.000    0.000    0.000 
#
# Total GULP energy -89084.220510 kJ/mol
# GULP energy per Si atom -5567.763782 kJ/mol
# Density = 1.738821 g / cm^3
# Si number density = 17.427877 Si / 1000 Ang^3
#
#
#
# Elastic Constant Matrix: (Units=GPa)
#
#
# Indices 1 2 3 4 5 6 
#
# 1 60.3756 24.7263 22.6453 12.0329 4.3696 15.7301
# 2 24.7263 72.6176 39.1161 -8.0066 -2.6788 10.9395
# 3 22.6453 39.1161 77.7450 2.1660 -10.3613 -7.3159
# 4 12.0329 -8.0066 2.1660 34.1053 -3.1184 -3.8390
# 5 4.3696 -2.6788 -10.3613 -3.1184 21.1052 5.0972
# 6 15.7301 10.9395 -7.3159 -3.8390 5.0972 26.8987
#
#
#
# Elastic Compliance Matrix: (Units=1/GPa)
#
#
# Indices 1 2 3 4 5 6 
#
# 1 0.030009 -0.004412 -0.009050 -0.013940 -0.008798 -0.018538
# 2 -0.004412 0.023749 -0.011542 0.006938 0.001588 -0.009528
# 3 -0.009050 -0.011542 0.023839 0.001456 0.008697 0.015030
# 4 -0.013940 0.006938 0.001456 0.037564 0.007707 0.009627
# 5 -0.008798 0.001588 0.008697 0.007707 0.055426 -0.002538
# 6 -0.018538 -0.009528 0.015030 0.009627 -0.002538 0.057835
#
#
# Mechanical properties :
#
#
# Convention : Reuss Voigt Hill
#
# Bulk Modulus (GPa) = 36.24655 42.63485 39.44070
# Shear Modulus (GPa) = 17.38359 24.70521 21.04440
#
# Velocity S-wave (km/s) = 3.16168 3.76915 3.47870
# Velocity P-wave (km/s) = 5.84564 6.59232 6.23017
#
# Compressibility (1/GPa) = 0.02758883
#
# Stress axis : x y z
#
# Youngs Moduli (GPa) = 33.32304 42.10634 41.94870
#
# Poissons Ratio (x) = 0.18579 0.37962
# Poissons Ratio (y) = 0.14703 0.48418
# Poissons Ratio (z) = 0.30156 0.48600
#
# Static dielectric constant tensor:
#      x y z
#    x 1.605120 0.009460 0.020460 
#    y 0.009460 1.648330 -0.039140 
#    z 0.020460 -0.039140 1.597940 
# 
# From -- ./inp_files/357742.got.cif
#   From: 2010.05.17/outbox.cif.g08.bks.cpg/sg2_179_cif.got.tgz:357742.got - 2010.06.03 11:33:40.
