data_PCOD9093240
_publ_section_title
;
Structure prediction by ZEFSAII (Michael W. Deem and Ramdas Pophale) SiO2 
 PCOD9093240
Probable space group: P -1
;
_chemical_formula_sum "Si O2"
_cell_formula_units_Z 15
_cell_length_a 11.036253
_cell_length_b 12.219103
_cell_length_c 9.555028
_cell_angle_alpha 25.392278
_cell_angle_beta 92.670610
_cell_angle_gamma 89.663409
_cell_volume 548.465201
_symmetry_space_group_name_H-M "P -1"
_symmetry_group_IT_number 2
_symmetry_cell_setting 'triclinic'
loop_
_space_group_symop_operation_xyz
x,y,z
-x,-y,-z
loop_
_atom_site_type_symbol
_atom_site_label
_atom_site_fract_x
_atom_site_fract_y
_atom_site_fract_z
Si Si1 0.500000 0.000000 0.500000
Si Si2 0.795156 0.321089 0.422839
Si Si3 0.703803 0.090008 0.932118
Si Si4 0.940378 0.471914 0.679569
Si Si5 0.204243 0.104262 0.308405
Si Si6 0.898894 0.916634 0.369504
Si Si7 0.353257 0.428424 0.484619
Si Si8 0.490165 0.663652 0.664626
O O1 0.651032 0.951243 0.585771
O O2 0.514920 0.938969 0.403227
O O3 0.811281 0.153696 0.758865
O O4 0.646173 0.342652 0.383891
O O5 0.828054 0.147465 0.487543
O O6 0.815524 0.619761 0.089577
O O7 0.618840 0.347638 0.669099
O O8 0.772187 0.985296 0.197979
O O9 0.631469 0.866661 0.125700
O O10 0.794082 0.520650 0.595278
O O11 0.000000 0.500000 0.500000
O O12 0.969026 0.684301 0.551174
O O13 0.960567 0.178995 0.068715
O O14 0.132270 0.147442 0.400400
O O15 0.414645 0.449624 0.313083
O O16 0.500000 0.500000 0.000000
#
# Coordination Sequence:
#
# PCOD9093240 Si02
#       8
#     1   2   2   2   2   2   2   2
#     4  10  20  32  52  76 118 144 190 226 292 316
#     4  11  24  36  57  86 120 159 197 231 278 348
#     4  10  22  39  56  84 118 162 189 233 287 347
#     4  10  20  35  59  92 117 144 191 245 295 339
#     4  11  22  36  58  84 115 152 198 238 283 331
#     4  10  21  36  62  85 119 149 190 243 294 334
#     4  10  23  37  60  80 120 154 191 238 293 338
#     4  11  23  34  56  83 120 151 194 238 286 328
#
# _framework density 27.349046000000001
#
# number of rings (size 3 to 8) (size 9 to 14) (size 15 to 20)
#    0.000    1.600    1.333    3.600    9.333    1.067 
#    0.000    0.000    0.000    0.000    0.000   74.667 
#    0.000    0.000    0.000    0.000    0.000    0.000 
#
# Total GULP energy -83821.522213 kJ/mol
# GULP energy per Si atom -5588.101481 kJ/mol
# Density = 2.728680 g / cm^3
# Si number density = 27.349046 Si / 1000 Ang^3
#
#
#
# Elastic Constant Matrix: (Units=GPa)
#
#
# Indices 1 2 3 4 5 6 
#
# 1 71.4960 24.7707 11.3841 -16.3668 -4.0395 -5.7522
# 2 24.7707 225.9221 66.9199 -16.1449 -23.0499 -22.6099
# 3 11.3841 66.9199 128.4667 -16.8004 -25.1153 -3.0812
# 4 -16.3668 -16.1449 -16.8004 68.7821 5.5844 -12.0287
# 5 -4.0395 -23.0499 -25.1153 5.5844 37.7099 -4.0618
# 6 -5.7522 -22.6099 -3.0812 -12.0287 -4.0618 62.0803
#
#
#
# Elastic Compliance Matrix: (Units=1/GPa)
#
#
# Indices 1 2 3 4 5 6 
#
# 1 0.015409 -0.001164 -0.000149 0.003620 0.000491 0.001730
# 2 -0.001164 0.005709 -0.002352 0.000703 0.001922 0.002117
# 3 -0.000149 -0.002352 0.010241 0.001542 0.005168 0.000275
# 4 0.003620 0.000703 0.001542 0.016636 -0.000201 0.003878
# 5 0.000491 0.001922 0.005168 -0.000201 0.031544 0.003027
# 6 0.001730 0.002117 0.000275 0.003878 0.003027 0.018002
#
#
# Mechanical properties :
#
#
# Convention : Reuss Voigt Hill
#
# Bulk Modulus (GPa) = 41.61366 70.22606 55.91986
# Shear Modulus (GPa) = 44.29460 55.23512 49.76486
#
# Velocity S-wave (km/s) = 4.02880 4.49891 4.27033
# Velocity P-wave (km/s) = 6.07375 7.26088 6.69368
#
# Compressibility (1/GPa) = 0.02403057
#
# Stress axis : x y z
#
# Youngs Moduli (GPa) = 64.89633 175.16916 97.64376
#
# Poissons Ratio (x) = 0.20383 0.01450
# Poissons Ratio (y) = 0.07551 0.22968
# Poissons Ratio (z) = 0.00964 0.41204
#
# Static dielectric constant tensor:
#      x y z
#    x 2.405470 -0.055760 -0.082560 
#    y -0.055760 2.131620 -0.047280 
#    z -0.082560 -0.047280 2.287560 
# 
# From -- ./inp_files/37579.got.cif
#   From: 2010.05.17/outbox.cif.g08.bks.cpg/sg2_19_cif.got.tgz:37579.got - 2010.06.03 11:33:40.
