data_PCOD9093548
_publ_section_title
;
Structure prediction by ZEFSAII (Michael W. Deem and Ramdas Pophale) SiO2 
 PCOD9093548
Probable space group: P -1
;
_chemical_formula_sum "Si O2"
_cell_formula_units_Z 14
_cell_length_a 20.299216
_cell_length_b 5.158859
_cell_length_c 5.351491
_cell_angle_alpha 80.365274
_cell_angle_beta 116.575236
_cell_angle_gamma 105.208666
_cell_volume 482.837242
_symmetry_space_group_name_H-M "P -1"
_symmetry_group_IT_number 2
_symmetry_cell_setting 'triclinic'
loop_
_space_group_symop_operation_xyz
x,y,z
-x,-y,-z
loop_
_atom_site_type_symbol
_atom_site_label
_atom_site_fract_x
_atom_site_fract_y
_atom_site_fract_z
Si Si1 0.258127 0.534871 0.057332
Si Si2 0.119207 0.525937 0.063179
Si Si3 0.596839 0.457398 0.923256
Si Si4 0.686848 0.876638 0.403231
Si Si5 0.546269 0.868753 0.397110
Si Si6 0.027558 0.791103 0.266296
Si Si7 0.167868 0.115990 0.578851
O O1 0.199138 0.687997 0.065298
O O2 0.336864 0.683233 0.043415
O O3 0.285277 0.325498 0.324219
O O4 0.206294 0.341341 0.801612
O O5 0.080539 0.656959 0.197967
O O6 0.144282 0.274029 0.276150
O O7 0.051091 0.412466 0.773116
O O8 0.572892 0.628292 0.627319
O O9 0.518160 0.261208 0.891613
O O10 0.635335 0.674695 0.154325
O O11 0.627257 0.030603 0.406129
O O12 0.764748 0.023235 0.379735
O O13 0.500000 0.000000 0.500000
O O14 0.086547 0.939437 0.549441
O O15 0.000000 0.000000 0.000000
#
# Coordination Sequence:
#
# PCOD9093548 Si02
#       7
#     2   2   2   2   2   2   2
#     4   9  18  34  54  74  99 133 170 206 247 295
#     4   9  18  34  53  74 100 131 167 206 250 298
#     4   9  19  36  53  73 104 133 163 208 252 292
#     4   9  18  35  53  72 104 136 163 206 253 292
#     4  10  20  33  53  79 101 130 171 205 245 300
#     4   9  18  34  53  74 103 133 163 205 253 297
#     4   9  18  34  53  74 100 131 168 208 249 294
#
# _framework density 28.995274999999999
#
# number of rings (size 3 to 8) (size 9 to 14) (size 15 to 20)
#    0.000    2.857    0.000    0.429    0.000    2.286 
#    0.000   23.571    0.000    0.000    0.000    0.000 
#    0.000    0.000    0.000    0.000    0.000    0.000 
#
# Total GULP energy -78373.796136 kJ/mol
# GULP energy per Si atom -5598.128295 kJ/mol
# Density = 2.892928 g / cm^3
# Si number density = 28.995275 Si / 1000 Ang^3
#
#
#
# Elastic Constant Matrix: (Units=GPa)
#
#
# Indices 1 2 3 4 5 6 
#
# 1 240.9316 54.1806 41.0614 -6.1199 34.8886 -21.9039
# 2 54.1806 70.6426 7.3969 -2.5989 15.3220 -1.7707
# 3 41.0614 7.3969 142.7960 18.2312 48.7608 4.4790
# 4 -6.1199 -2.5989 18.2312 48.4347 -3.3803 -2.6102
# 5 34.8886 15.3220 48.7608 -3.3803 52.9437 -8.7968
# 6 -21.9039 -1.7707 4.4790 -2.6102 -8.7968 71.4353
#
#
#
# Elastic Compliance Matrix: (Units=1/GPa)
#
#
# Indices 1 2 3 4 5 6 
#
# 1 0.005538 -0.003802 -0.001173 0.000942 -0.001148 0.001571
# 2 -0.003802 0.017829 0.001895 -0.000641 -0.004680 -0.001442
# 3 -0.001173 0.001895 0.012004 -0.005522 -0.011632 -0.002700
# 4 0.000942 -0.000641 -0.005522 0.023387 0.006522 0.002277
# 5 -0.001148 -0.004680 -0.011632 0.006522 0.032884 0.004549
# 6 0.001571 -0.001442 -0.002700 0.002277 0.004549 0.015257
#
#
# Mechanical properties :
#
#
# Convention : Reuss Voigt Hill
#
# Bulk Modulus (GPa) = 34.23423 73.29422 53.76423
# Shear Modulus (GPa) = 40.71764 58.01150 49.36457
#
# Velocity S-wave (km/s) = 3.75145 4.47780 4.13062
# Velocity P-wave (km/s) = 5.53145 7.21575 6.42900
#
# Compressibility (1/GPa) = 0.02921053
#
# Stress axis : x y z
#
# Youngs Moduli (GPa) = 180.55710 56.08941 83.30631
#
# Poissons Ratio (x) = 0.21325 0.09774
# Poissons Ratio (y) = 0.68647 -0.15787
# Poissons Ratio (z) = 0.21184 -0.10629
#
# Static dielectric constant tensor:
#      x y z
#    x 2.342410 0.055570 -0.071220 
#    y 0.055570 2.279170 0.007170 
#    z -0.071220 0.007170 2.210770 
# 
# From -- ./inp_files/7386.got.cif
#   From: 2010.05.17/outbox.cif.g08.bks.cpg/sg2_4_cif.got.tgz:7386.got - 2010.06.03 11:33:40.
