data_PCOD9093025
_publ_section_title
;
Structure prediction by ZEFSAII (Michael W. Deem and Ramdas Pophale) SiO2 
 PCOD9093025
Probable space group: P -1
;
_chemical_formula_sum "Si O2"
_cell_formula_units_Z 16
_cell_length_a 13.376725
_cell_length_b 21.221227
_cell_length_c 9.283108
_cell_angle_alpha 36.762221
_cell_angle_beta 31.564566
_cell_angle_gamma 35.885935
_cell_volume 754.014139
_symmetry_space_group_name_H-M "P -1"
_symmetry_group_IT_number 2
_symmetry_cell_setting 'triclinic'
loop_
_space_group_symop_operation_xyz
x,y,z
-x,-y,-z
loop_
_atom_site_type_symbol
_atom_site_label
_atom_site_fract_x
_atom_site_fract_y
_atom_site_fract_z
Si Si1 0.556885 0.069172 0.925487
Si Si2 0.096183 0.943516 0.833509
Si Si3 0.819649 0.154729 0.589604
Si Si4 0.900287 0.734075 0.862990
Si Si5 0.971523 0.521170 0.826432
Si Si6 0.125479 0.708523 0.320993
Si Si7 0.480383 0.295823 0.994337
Si Si8 0.466772 0.079516 0.536476
O O1 0.337076 0.176595 0.024766
O O2 0.642034 0.976328 0.119810
O O3 0.726105 0.124800 0.614700
O O4 0.500000 0.000000 0.000000
O O5 0.069573 0.823436 0.084262
O O6 0.333188 0.928561 0.597470
O O7 0.000000 0.000000 0.000000
O O8 0.974291 0.038553 0.692520
O O9 0.624588 0.228464 0.802778
O O10 0.963759 0.224279 0.273660
O O11 0.995038 0.732818 0.587775
O O12 0.928704 0.609076 0.112972
O O13 0.084779 0.604299 0.491514
O O14 0.722060 0.587820 0.994320
O O15 0.000000 0.500000 0.000000
O O16 0.359943 0.680568 0.138844
O O17 0.391145 0.207631 0.333654
O O18 0.500000 0.000000 0.500000
#
# Coordination Sequence:
#
# PCOD9093025 Si02
#       8
#     2   2   2   2   2   2   2   2
#     4  12  25  38  56  86 115 152 191 231 288 340
#     4  11  16  30  52  86 116 143 178 231 288 327
#     4  11  20  33  58  81 115 150 182 236 285 337
#     4  10  21  37  51  76 117 153 186 221 284 338
#     4  10  21  31  50  78 121 152 180 225 279 341
#     4   9  19  31  51  85 118 142 181 234 281 333
#     4  10  20  30  54  88 107 144 188 226 283 329
#     4  11  20  33  59  83 118 143 184 238 281 336
#
# _framework density 21.219761999999999
#
# number of rings (size 3 to 8) (size 9 to 14) (size 15 to 20)
#    0.000    1.500    6.250    1.500    3.500    6.000 
#    0.000    0.000    0.000    0.750    0.000    2.625 
#    0.000    0.000    0.000    0.000    0.000    0.000 
#
# Total GULP energy -89198.596985 kJ/mol
# GULP energy per Si atom -5574.912312 kJ/mol
# Density = 2.117146 g / cm^3
# Si number density = 21.219762 Si / 1000 Ang^3
#
#
#
# Elastic Constant Matrix: (Units=GPa)
#
#
# Indices 1 2 3 4 5 6 
#
# 1 71.7231 20.6137 18.7617 -12.4468 -30.2029 1.7278
# 2 20.6137 87.5308 41.3270 -23.5383 -7.8168 -19.4207
# 3 18.7617 41.3270 100.6684 -37.3976 -35.9887 6.4065
# 4 -12.4468 -23.5383 -37.3976 31.8025 5.9311 -4.7858
# 5 -30.2029 -7.8168 -35.9887 5.9311 37.1928 -3.6896
# 6 1.7278 -19.4207 6.4065 -4.7858 -3.6896 21.1913
#
#
#
# Elastic Compliance Matrix: (Units=1/GPa)
#
#
# Indices 1 2 3 4 5 6 
#
# 1 0.031545 -0.008717 0.019922 0.021268 0.039178 -0.004959
# 2 -0.008717 0.027042 -0.012325 0.008698 -0.011819 0.029126
# 3 0.019922 -0.012325 0.044539 0.040545 0.049363 -0.008633
# 4 0.021268 0.008698 0.040545 0.088549 0.046398 0.022055
# 5 0.039178 -0.011819 0.049363 0.046398 0.096417 -0.001683
# 6 -0.004959 0.029126 -0.008633 0.022055 -0.001683 0.081583
#
#
# Mechanical properties :
#
#
# Convention : Reuss Voigt Hill
#
# Bulk Modulus (GPa) = 9.91208 46.81413 28.36311
# Shear Modulus (GPa) = 12.32915 29.98531 21.15723
#
# Velocity S-wave (km/s) = 2.41305 3.76318 3.16104
# Velocity P-wave (km/s) = 3.52776 6.40246 5.16897
#
# Compressibility (1/GPa) = 0.10088698
#
# Stress axis : x y z
#
# Youngs Moduli (GPa) = 31.70062 36.97937 22.45239
#
# Poissons Ratio (x) = 0.32237 -0.44731
# Poissons Ratio (y) = 0.27635 0.27671
# Poissons Ratio (z) = -0.63156 0.45575
#
# Static dielectric constant tensor:
#      x y z
#    x 1.800270 0.044620 -0.028560 
#    y 0.044620 1.855550 0.026600 
#    z -0.028560 0.026600 1.900820 
# 
# From -- ./inp_files/458010.got.cif
#   From: 2010.05.17/outbox.cif.g08.bks.cpg/sg2_230_cif.got.tgz:458010.got - 2010.06.03 11:33:40.
