data_PCOD9093119
_publ_section_title
;
Structure prediction by ZEFSAII (Michael W. Deem and Ramdas Pophale) SiO2 
 PCOD9093119
Probable space group: P -1
;
_chemical_formula_sum "Si O2"
_cell_formula_units_Z 14
_cell_length_a 29.621501
_cell_length_b 16.831528
_cell_length_c 10.501562
_cell_angle_alpha 144.437074
_cell_angle_beta 33.533428
_cell_angle_gamma 167.650205
_cell_volume 618.608267
_symmetry_space_group_name_H-M "P -1"
_symmetry_group_IT_number 2
_symmetry_cell_setting 'triclinic'
loop_
_space_group_symop_operation_xyz
x,y,z
-x,-y,-z
loop_
_atom_site_type_symbol
_atom_site_label
_atom_site_fract_x
_atom_site_fract_y
_atom_site_fract_z
Si Si1 0.789302 0.430078 0.252295
Si Si2 0.372641 0.429958 0.813151
Si Si3 0.729220 0.492941 0.223886
Si Si4 0.866664 0.269690 0.755166
Si Si5 0.291179 0.239003 0.471355
Si Si6 0.267388 0.539176 0.309526
Si Si7 0.209271 0.613869 0.285431
O O1 0.801661 0.559468 0.279848
O O2 0.841240 0.572961 0.453333
O O3 0.530543 0.980626 0.280182
O O4 0.917910 0.493644 0.989087
O O5 0.258253 0.214529 0.668999
O O6 0.454575 0.423222 0.687292
O O7 0.610576 0.871686 0.787225
O O8 0.249681 0.349554 0.082103
O O9 0.764698 0.707519 0.393354
O O10 0.463019 0.059623 0.269097
O O11 0.826933 0.537976 0.949849
O O12 0.046875 0.490875 0.522751
O O13 0.838751 0.101813 0.703703
O O14 0.195322 0.498397 0.294582
#
# Coordination Sequence:
#
# PCOD9093119 Si02
#       7
#     2   2   2   2   2   2   2
#     4   9  19  33  54  73 106 139 176 204 256 312
#     4   8  16  32  55  74 104 138 175 204 251 318
#     4  10  20  34  51  81 108 132 168 221 263 296
#     4   9  19  33  52  82 101 137 174 214 249 313
#     4   9  17  33  55  77 108 130 174 214 258 301
#     4   9  16  34  54  74  98 148 176 197 248 328
#     4  10  20  31  56  79 105 131 179 216 253 296
#
# _framework density 22.631447000000001
#
# number of rings (size 3 to 8) (size 9 to 14) (size 15 to 20)
#    0.857    2.000    1.429    0.000    2.000    1.714 
#    0.000    0.714    0.000    0.857    0.000    0.000 
#    0.000    0.000    0.000    0.000    0.000    0.000 
#
# Total GULP energy -78074.191084 kJ/mol
# GULP energy per Si atom -5576.727935 kJ/mol
# Density = 2.257994 g / cm^3
# Si number density = 22.631447 Si / 1000 Ang^3
#
#
#
# Elastic Constant Matrix: (Units=GPa)
#
#
# Indices 1 2 3 4 5 6 
#
# 1 95.3003 22.0081 73.5258 13.8313 -5.0209 -13.3123
# 2 22.0081 51.8709 29.7916 1.3263 -4.6543 0.3767
# 3 73.5258 29.7916 163.1136 11.1990 -20.6617 -2.5171
# 4 13.8313 1.3263 11.1990 26.0185 -2.4227 -7.5801
# 5 -5.0209 -4.6543 -20.6617 -2.4227 36.1479 6.6211
# 6 -13.3123 0.3767 -2.5171 -7.5801 6.6211 34.0569
#
#
#
# Elastic Compliance Matrix: (Units=1/GPa)
#
#
# Indices 1 2 3 4 5 6 
#
# 1 0.018837 -0.003747 -0.007861 -0.004911 -0.003876 0.006484
# 2 -0.003747 0.022314 -0.002330 0.001456 0.001456 -0.001843
# 3 -0.007861 -0.002330 0.010783 -0.000860 0.005351 -0.003482
# 4 -0.004911 0.001456 -0.000860 0.043606 0.000544 0.007600
# 5 -0.003876 0.001456 0.005351 0.000544 0.031724 -0.007182
# 6 0.006484 -0.001843 -0.003482 0.007600 -0.007182 0.034748
#
#
# Mechanical properties :
#
#
# Convention : Reuss Voigt Hill
#
# Bulk Modulus (GPa) = 41.56669 62.32620 51.94645
# Shear Modulus (GPa) = 25.26442 31.57529 28.41986
#
# Velocity S-wave (km/s) = 3.34479 3.73928 3.54753
# Velocity P-wave (km/s) = 5.77265 6.80018 6.30737
#
# Compressibility (1/GPa) = 0.02405773
#
# Stress axis : x y z
#
# Youngs Moduli (GPa) = 53.08600 44.81561 92.74072
#
# Poissons Ratio (x) = 0.16793 0.72899
# Poissons Ratio (y) = 0.19892 0.21612
# Poissons Ratio (z) = 0.41728 0.10444
#
# Static dielectric constant tensor:
#      x y z
#    x 1.826500 0.027490 -0.056920 
#    y 0.027490 1.954670 -0.066970 
#    z -0.056920 -0.066970 1.848530 
# 
# From -- ./inp_files/269277.got.cif
#   From: 2010.05.17/outbox.cif.g08.bks.cpg/sg2_135_cif.got.tgz:269277.got - 2010.06.03 11:33:40.
