data_PCOD9093776
_publ_section_title
;
Structure prediction by ZEFSAII (Michael W. Deem and Ramdas Pophale) SiO2 
 PCOD9093776
Probable space group: P -1
;
_chemical_formula_sum "Si O2"
_cell_formula_units_Z 16
_cell_length_a 15.625895
_cell_length_b 8.623257
_cell_length_c 15.911909
_cell_angle_alpha 42.896731
_cell_angle_beta 33.359575
_cell_angle_gamma 54.731129
_cell_volume 799.114676
_symmetry_space_group_name_H-M "P -1"
_symmetry_group_IT_number 2
_symmetry_cell_setting 'triclinic'
loop_
_space_group_symop_operation_xyz
x,y,z
-x,-y,-z
loop_
_atom_site_type_symbol
_atom_site_label
_atom_site_fract_x
_atom_site_fract_y
_atom_site_fract_z
Si Si1 0.560323 0.207617 0.157493
Si Si2 0.848679 0.081930 0.640410
Si Si3 0.863144 0.589616 0.417108
Si Si4 0.067158 0.761083 0.840534
Si Si5 0.636932 0.741389 0.853707
Si Si6 0.356027 0.035582 0.546757
Si Si7 0.088476 0.161290 0.545360
Si Si8 0.103111 0.921637 0.024888
O O1 0.502269 0.166697 0.124844
O O2 0.421526 0.116296 0.370028
O O3 0.589797 0.484117 0.025350
O O4 0.712418 0.094967 0.112243
O O5 0.810187 0.330933 0.543579
O O6 0.916458 0.136069 0.655945
O O7 0.703841 0.900416 0.811905
O O8 0.000000 0.000000 0.500000
O O9 0.739226 0.761002 0.421149
O O10 0.892448 0.666512 0.459733
O O11 0.026623 0.665432 0.208386
O O12 0.232565 0.812627 0.732088
O O13 0.103215 0.901222 0.668861
O O14 0.945715 0.910286 0.928286
O O15 0.000000 0.500000 0.000000
O O16 0.782321 0.750973 0.664237
O O17 0.500000 0.000000 0.500000
O O18 0.000000 0.000000 0.000000
#
# Coordination Sequence:
#
# PCOD9093776 Si02
#       8
#     2   2   2   2   2   2   2   2
#     4  11  20  39  61  86 125 159 197 245 310 361
#     4  10  20  33  57  89 115 150 197 247 288 352
#     4  10  20  38  59  86 116 159 201 241 299 367
#     4  10  22  40  59  87 117 157 206 248 297 355
#     4  10  21  36  60  89 123 158 191 247 306 359
#     4  10  21  41  64  84 119 165 203 246 304 363
#     4   9  18  38  60  84 117 158 198 238 303 363
#     4  10  21  37  61  88 111 158 208 246 295 360
#
# _framework density 20.022158000000001
#
# number of rings (size 3 to 8) (size 9 to 14) (size 15 to 20)
#    0.000    2.250    2.500    3.375    0.000    5.000 
#    2.250    1.250    0.000    0.000    0.000    0.000 
#    0.000    0.000    0.000    0.000    0.000    0.000 
#
# Total GULP energy -89097.775670 kJ/mol
# GULP energy per Si atom -5568.610979 kJ/mol
# Density = 1.997659 g / cm^3
# Si number density = 20.022158 Si / 1000 Ang^3
#
#
#
# Elastic Constant Matrix: (Units=GPa)
#
#
# Indices 1 2 3 4 5 6 
#
# 1 96.0310 30.6112 18.0363 -8.8106 -26.0113 -18.6399
# 2 30.6112 64.2097 39.2620 -21.7657 -16.0171 -5.3161
# 3 18.0363 39.2620 102.1852 -18.4477 -16.7005 -2.5931
# 4 -8.8106 -21.7657 -18.4477 36.3779 4.1065 -9.0654
# 5 -26.0113 -16.0171 -16.7005 4.1065 36.6997 1.9464
# 6 -18.6399 -5.3161 -2.5931 -9.0654 1.9464 21.1140
#
#
#
# Elastic Compliance Matrix: (Units=1/GPa)
#
#
# Indices 1 2 3 4 5 6 
#
# 1 0.017761 -0.003327 0.001307 0.005967 0.010181 0.016626
# 2 -0.003327 0.027956 -0.006564 0.014293 0.004779 0.008991
# 3 0.001307 -0.006564 0.013321 0.003285 0.003638 0.002212
# 4 0.005967 0.014293 0.003285 0.045616 0.005354 0.028362
# 5 0.010181 0.004779 0.003638 0.005354 0.037102 0.009517
# 6 0.016626 0.008991 0.002212 0.028362 0.009517 0.075875
#
#
# Mechanical properties :
#
#
# Convention : Reuss Voigt Hill
#
# Bulk Modulus (GPa) = 23.88449 48.69388 36.28918
# Shear Modulus (GPa) = 20.09994 30.47273 25.28634
#
# Velocity S-wave (km/s) = 3.17185 3.90545 3.55761
# Velocity P-wave (km/s) = 5.03678 6.68652 5.91940
#
# Compressibility (1/GPa) = 0.04186818
#
# Stress axis : x y z
#
# Youngs Moduli (GPa) = 56.30360 35.77083 75.06672
#
# Poissons Ratio (x) = 0.11902 -0.09809
# Poissons Ratio (y) = 0.18734 0.49277
# Poissons Ratio (z) = -0.07357 0.23481
#
# Static dielectric constant tensor:
#      x y z
#    x 1.805610 -0.012660 0.036130 
#    y -0.012660 1.696100 0.021170 
#    z 0.036130 0.021170 1.765680 
# 
# From -- ./inp_files/575212.got.cif
#   From: 2010.05.17/outbox.cif.g08.bks.cpg/sg2_288_cif.got.tgz:575212.got - 2010.06.03 11:33:40.
