data_PCOD9093337
_publ_section_title
;
Structure prediction by ZEFSAII (Michael W. Deem and Ramdas Pophale) SiO2 
 PCOD9093337
Probable space group: P -1
;
_chemical_formula_sum "Si O2"
_cell_formula_units_Z 15
_cell_length_a 9.147628
_cell_length_b 18.054401
_cell_length_c 9.353828
_cell_angle_alpha 140.347155
_cell_angle_beta 52.155962
_cell_angle_gamma 106.863342
_cell_volume 725.770348
_symmetry_space_group_name_H-M "P -1"
_symmetry_group_IT_number 2
_symmetry_cell_setting 'triclinic'
loop_
_space_group_symop_operation_xyz
x,y,z
-x,-y,-z
loop_
_atom_site_type_symbol
_atom_site_label
_atom_site_fract_x
_atom_site_fract_y
_atom_site_fract_z
Si Si1 0.698113 0.838086 0.527687
Si Si2 0.230202 0.920442 0.227191
Si Si3 0.466707 0.130381 0.792951
Si Si4 0.202507 0.322193 0.028243
Si Si5 0.151195 0.593683 0.401985
Si Si6 0.296659 0.788805 0.707478
Si Si7 0.889364 0.789617 0.643229
Si Si8 0.000000 0.000000 0.000000
O O1 0.490294 0.820291 0.603641
O O2 0.795866 0.782169 0.535784
O O3 0.674364 0.981661 0.745718
O O4 0.828100 0.764250 0.206811
O O5 0.340177 0.875887 0.244798
O O6 0.264946 0.812122 0.930304
O O7 0.000000 0.000000 0.500000
O O8 0.500000 0.000000 0.500000
O O9 0.392632 0.238548 0.881407
O O10 0.289554 0.156666 0.053642
O O11 0.223507 0.445729 0.135671
O O12 0.018609 0.362415 0.307600
O O13 0.309137 0.654131 0.446420
O O14 0.042878 0.661156 0.422870
O O15 0.112145 0.887127 0.880001
O O16 0.984983 0.895037 0.739376
#
# Coordination Sequence:
#
# PCOD9093337 Si02
#       8
#     2   2   2   2   2   2   2   1
#     4  12  22  38  63  91 122 157 196 258 308 348
#     4  12  24  36  58  93 125 154 200 249 306 359
#     4  11  22  37  61  88 120 160 197 244 302 358
#     4  10  22  41  67  85 122 162 206 245 298 361
#     4   9  22  44  63  87 119 165 206 241 296 367
#     4  11  22  37  60  87 126 155 200 251 300 357
#     4  10  21  38  60  90 122 157 196 249 303 352
#     4  10  20  32  56  84 118 154 188 238 296 352
#
# _framework density 20.667694000000001
#
# number of rings (size 3 to 8) (size 9 to 14) (size 15 to 20)
#    0.000    1.333    4.000    2.000    3.733    1.067 
#    0.000    0.667    2.933    0.000    0.000    0.000 
#    0.000    0.000    0.000    0.000    0.000    0.000 
#
# Total GULP energy -83611.573495 kJ/mol
# GULP energy per Si atom -5574.104900 kJ/mol
# Density = 2.062065 g / cm^3
# Si number density = 20.667694 Si / 1000 Ang^3
#
#
#
# Elastic Constant Matrix: (Units=GPa)
#
#
# Indices 1 2 3 4 5 6 
#
# 1 109.1312 27.2859 21.1434 0.7242 9.9064 -18.6863
# 2 27.2859 70.5003 12.5383 20.3745 -0.7236 -12.1499
# 3 21.1434 12.5383 44.7611 6.7586 3.2631 -19.3690
# 4 0.7242 20.3745 6.7586 37.7706 -1.1997 2.2578
# 5 9.9064 -0.7236 3.2631 -1.1997 26.4004 -7.6939
# 6 -18.6863 -12.1499 -19.3690 2.2578 -7.6939 38.4770
#
#
#
# Elastic Compliance Matrix: (Units=1/GPa)
#
#
# Indices 1 2 3 4 5 6 
#
# 1 0.011515 -0.004311 -0.003708 0.002568 -0.003418 0.001530
# 2 -0.004311 0.019984 0.000314 -0.010989 0.003281 0.005676
# 3 -0.003708 0.000314 0.031245 -0.006520 0.001530 0.014716
# 4 0.002568 -0.010989 -0.006520 0.033946 -0.001169 -0.007731
# 5 -0.003418 0.003281 0.001530 -0.001169 0.041489 0.008511
# 6 0.001530 0.005676 0.014716 -0.007731 0.008511 0.038088
#
#
# Mechanical properties :
#
#
# Convention : Reuss Voigt Hill
#
# Bulk Modulus (GPa) = 21.12569 38.48086 29.80328
# Shear Modulus (GPa) = 24.10172 31.42462 27.76317
#
# Velocity S-wave (km/s) = 3.41860 3.90355 3.66910
# Velocity P-wave (km/s) = 5.08195 6.24309 5.69221
#
# Compressibility (1/GPa) = 0.04733573
#
# Stress axis : x y z
#
# Youngs Moduli (GPa) = 86.84556 50.03892 32.00519
#
# Poissons Ratio (x) = 0.21570 0.11868
# Poissons Ratio (y) = 0.37436 -0.01006
# Poissons Ratio (z) = 0.32203 -0.01574
#
# Static dielectric constant tensor:
#      x y z
#    x 1.748370 0.033780 -0.028880 
#    y 0.033780 1.781070 -0.057490 
#    z -0.028880 -0.057490 1.745890 
# 
# From -- ./inp_files/168791.got.cif
#   From: 2010.05.17/outbox.cif.g08.bks.cpg/sg2_85_cif.got.tgz:168791.got - 2010.06.03 11:33:40.
