data_PCOD9093748
_publ_section_title
;
Structure prediction by ZEFSAII (Michael W. Deem and Ramdas Pophale) SiO2 
 PCOD9093748
Probable space group: P -1
;
_chemical_formula_sum "Si O2"
_cell_formula_units_Z 16
_cell_length_a 28.207426
_cell_length_b 14.567080
_cell_length_c 8.545878
_cell_angle_alpha 36.449322
_cell_angle_beta 30.968366
_cell_angle_gamma 21.991272
_cell_volume 675.827491
_symmetry_space_group_name_H-M "P -1"
_symmetry_group_IT_number 2
_symmetry_cell_setting 'triclinic'
loop_
_space_group_symop_operation_xyz
x,y,z
-x,-y,-z
loop_
_atom_site_type_symbol
_atom_site_label
_atom_site_fract_x
_atom_site_fract_y
_atom_site_fract_z
Si Si1 0.303064 0.847960 0.146106
Si Si2 0.952351 0.889547 0.977158
Si Si3 0.485566 0.909477 0.815432
Si Si4 0.347039 0.662911 0.624568
Si Si5 0.710629 0.624971 0.808345
Si Si6 0.005280 0.179321 0.419399
Si Si7 0.219877 0.374216 0.048437
Si Si8 0.401236 0.409922 0.318559
O O1 0.332778 0.753540 0.367640
O O2 0.336124 0.661195 0.193915
O O3 0.429238 0.806533 0.809904
O O4 0.134476 0.102929 0.245215
O O5 0.970195 0.847203 0.799018
O O6 0.052919 0.627944 0.131692
O O7 0.006895 0.994608 0.717118
O O8 0.786863 0.101605 0.213755
O O9 0.566197 0.869626 0.793176
O O10 0.585357 0.640208 0.836025
O O11 0.500000 0.000000 0.500000
O O12 0.315027 0.112111 0.061282
O O13 0.500000 0.500000 0.500000
O O14 0.323502 0.510255 0.873000
O O15 0.848440 0.448450 0.543712
O O16 0.753882 0.656217 0.800046
O O17 0.303937 0.412139 0.680242
#
# Coordination Sequence:
#
# PCOD9093748 Si02
#       8
#     2   2   2   2   2   2   2   2
#     4  11  21  35  58  85 123 150 183 237 289 346
#     4  10  21  34  56  85 114 151 189 232 290 337
#     4  10  22  37  59  81 114 154 196 237 275 334
#     4  11  23  35  57  88 124 146 182 240 295 345
#     4  11  21  36  59  87 114 149 197 236 286 336
#     4  10  20  33  57  84 117 147 187 239 287 340
#     4  11  20  39  59  83 118 151 199 235 273 338
#     4  10  21  35  57  85 116 153 191 227 289 333
#
# _framework density 23.674679000000001
#
# number of rings (size 3 to 8) (size 9 to 14) (size 15 to 20)
#    0.000    1.500    2.500    3.375    7.000    2.000 
#    0.000    0.000    0.000   15.000    0.000    0.000 
#    0.000    0.000    0.000    0.000    0.000    0.000 
#
# Total GULP energy -89452.807071 kJ/mol
# GULP energy per Si atom -5590.800442 kJ/mol
# Density = 2.362079 g / cm^3
# Si number density = 23.674679 Si / 1000 Ang^3
#
#
#
# Elastic Constant Matrix: (Units=GPa)
#
#
# Indices 1 2 3 4 5 6 
#
# 1 78.4890 29.6709 8.9446 12.2467 21.8425 -3.2962
# 2 29.6709 97.4050 28.6104 32.9723 14.6462 -12.8444
# 3 8.9446 28.6104 75.2697 24.6134 2.2338 3.0240
# 4 12.2467 32.9723 24.6134 48.9655 -1.5655 -3.3851
# 5 21.8425 14.6462 2.2338 -1.5655 39.5602 13.8021
# 6 -3.2962 -12.8444 3.0240 -3.3851 13.8021 38.8306
#
#
#
# Elastic Compliance Matrix: (Units=1/GPa)
#
#
# Indices 1 2 3 4 5 6 
#
# 1 0.016986 -0.002120 -0.000170 -0.002775 -0.010129 0.004112
# 2 -0.002120 0.017255 -0.003410 -0.009090 -0.008139 0.007894
# 3 -0.000170 -0.003410 0.016755 -0.006280 0.001377 -0.003484
# 4 -0.002775 -0.009090 -0.006280 0.030442 0.007410 -0.002733
# 5 -0.010129 -0.008139 0.001377 0.007410 0.040127 -0.017276
# 6 0.004112 0.007894 -0.003484 -0.002733 -0.017276 0.034887
#
#
# Mechanical properties :
#
#
# Convention : Reuss Voigt Hill
#
# Bulk Modulus (GPa) = 25.25494 42.84617 34.05056
# Shear Modulus (GPa) = 27.61672 37.73377 32.67524
#
# Velocity S-wave (km/s) = 3.41912 3.99663 3.71910
# Velocity P-wave (km/s) = 5.12619 6.27970 5.73203
#
# Compressibility (1/GPa) = 0.03959621
#
# Stress axis : x y z
#
# Youngs Moduli (GPa) = 58.87354 57.95254 59.68475
#
# Poissons Ratio (x) = 0.12283 0.01015
# Poissons Ratio (y) = 0.12478 0.20354
# Poissons Ratio (z) = 0.01001 0.19763
#
# Static dielectric constant tensor:
#      x y z
#    x 1.929820 0.064700 -0.055490 
#    y 0.064700 1.977210 -0.027280 
#    z -0.055490 -0.027280 1.898160 
# 
# From -- ./inp_files/270197.got.cif
#   From: 2010.05.17/outbox.cif.g08.bks.cpg/sg2_136_cif.got.tgz:270197.got - 2010.06.03 11:33:40.
