data_PCOD9093784
_publ_section_title
;
Structure prediction by ZEFSAII (Michael W. Deem and Ramdas Pophale) SiO2 
 PCOD9093784
Probable space group: P -1
;
_chemical_formula_sum "Si O2"
_cell_formula_units_Z 16
_cell_length_a 16.721664
_cell_length_b 11.158641
_cell_length_c 10.255832
_cell_angle_alpha 71.213283
_cell_angle_beta 110.319366
_cell_angle_gamma 155.966612
_cell_volume 730.809770
_symmetry_space_group_name_H-M "P -1"
_symmetry_group_IT_number 2
_symmetry_cell_setting 'triclinic'
loop_
_space_group_symop_operation_xyz
x,y,z
-x,-y,-z
loop_
_atom_site_type_symbol
_atom_site_label
_atom_site_fract_x
_atom_site_fract_y
_atom_site_fract_z
Si Si1 0.328685 0.665782 0.531880
Si Si2 0.483646 0.350061 0.726175
Si Si3 0.957828 0.295552 0.535201
Si Si4 0.171723 0.312988 0.052826
Si Si5 0.127497 0.732059 0.786679
Si Si6 0.528450 0.689699 0.573446
Si Si7 0.634823 0.201884 0.133670
Si Si8 0.779501 0.422088 0.779001
O O1 0.436082 0.677623 0.609235
O O2 0.217825 0.507189 0.384854
O O3 0.157747 0.483429 0.597150
O O4 0.500000 0.000000 0.500000
O O5 0.688100 0.599817 0.826805
O O6 0.436660 0.433733 0.650946
O O7 0.503676 0.327780 0.594516
O O8 0.330095 0.068400 0.829887
O O9 0.894221 0.214238 0.376665
O O10 0.000000 0.500000 0.500000
O O11 0.766977 0.002615 0.612434
O O12 0.147864 0.387634 0.130208
O O13 0.274783 0.538102 0.921136
O O14 0.000000 0.000000 0.000000
O O15 0.192391 0.674646 0.813757
O O16 0.927932 0.499439 0.831962
O O17 0.452605 0.931038 0.222785
O O18 0.500000 0.000000 0.000000
#
# Coordination Sequence:
#
# PCOD9093784 Si02
#       8
#     2   2   2   2   2   2   2   2
#     4  11  20  36  62  94 125 157 206 255 311 368
#     4  10  20  41  61  85 128 162 204 256 310 367
#     4  10  20  33  57  91 122 155 197 247 304 370
#     4  11  23  42  63  91 126 168 204 253 313 366
#     4  10  20  38  65  88 114 160 206 255 305 358
#     4  10  20  38  61  86 125 165 194 258 314 359
#     4  10  20  39  67  86 116 161 209 251 308 358
#     4  10  21  41  66  90 124 159 209 259 303 369
#
# _framework density 21.893522000000001
#
# number of rings (size 3 to 8) (size 9 to 14) (size 15 to 20)
#    0.000    1.750    5.000    0.750    0.000    3.000 
#    2.250    3.125    0.000    0.000    0.000    0.000 
#    0.000    0.000    0.000    0.000    0.000    0.000 
#
# Total GULP energy -89074.068117 kJ/mol
# GULP energy per Si atom -5567.129257 kJ/mol
# Density = 2.184369 g / cm^3
# Si number density = 21.893522 Si / 1000 Ang^3
#
#
#
# Elastic Constant Matrix: (Units=GPa)
#
#
# Indices 1 2 3 4 5 6 
#
# 1 150.2527 57.1998 20.9292 -1.7607 19.4610 17.7908
# 2 57.1998 113.8449 14.9736 10.1913 6.0439 -8.1770
# 3 20.9292 14.9736 47.3452 1.3112 4.4127 4.9402
# 4 -1.7607 10.1913 1.3112 24.3749 -4.5844 12.4312
# 5 19.4610 6.0439 4.4127 -4.5844 29.1124 4.5340
# 6 17.7908 -8.1770 4.9402 12.4312 4.5340 39.3272
#
#
#
# Elastic Compliance Matrix: (Units=1/GPa)
#
#
# Indices 1 2 3 4 5 6 
#
# 1 0.010619 -0.006043 -0.001868 0.006603 -0.003348 -0.007527
# 2 -0.006043 0.013943 -0.002267 -0.011463 -0.001835 0.009753
# 3 -0.001868 -0.002267 0.023034 0.000651 -0.001268 -0.002579
# 4 0.006603 -0.011463 0.000651 0.061918 0.011725 -0.026376
# 5 -0.003348 -0.001835 -0.001268 0.011725 0.040104 -0.007037
# 6 -0.007527 0.009753 -0.002579 -0.026376 -0.007037 0.040333
#
#
# Mechanical properties :
#
#
# Convention : Reuss Voigt Hill
#
# Bulk Modulus (GPa) = 36.71428 55.29422 46.00425
# Shear Modulus (GPa) = 22.79088 33.11890 27.95489
#
# Velocity S-wave (km/s) = 3.22993 3.89360 3.57719
# Velocity P-wave (km/s) = 5.54219 6.74717 6.17414
#
# Compressibility (1/GPa) = 0.02723736
#
# Stress axis : x y z
#
# Youngs Moduli (GPa) = 94.17383 71.72255 43.41495
#
# Poissons Ratio (x) = 0.43345 0.08110
# Poissons Ratio (y) = 0.56914 0.09843
# Poissons Ratio (z) = 0.17593 0.16261
#
# Static dielectric constant tensor:
#      x y z
#    x 1.879360 0.069750 -0.087460 
#    y 0.069750 2.137080 0.149380 
#    z -0.087460 0.149380 2.027390 
# 
# From -- ./inp_files/465062.got.cif
#   From: 2010.05.17/outbox.cif.g08.bks.cpg/sg2_233_cif.got.tgz:465062.got - 2010.06.03 11:33:40.
