data_PCOD9093613
_publ_section_title
;
Structure prediction by ZEFSAII (Michael W. Deem and Ramdas Pophale) SiO2 
 PCOD9093613
Probable space group: P -1
;
_chemical_formula_sum "Si O2"
_cell_formula_units_Z 16
_cell_length_a 15.514303
_cell_length_b 13.784932
_cell_length_c 10.500785
_cell_angle_alpha 29.951214
_cell_angle_beta 46.500525
_cell_angle_gamma 64.258083
_cell_volume 727.284207
_symmetry_space_group_name_H-M "P -1"
_symmetry_group_IT_number 2
_symmetry_cell_setting 'triclinic'
loop_
_space_group_symop_operation_xyz
x,y,z
-x,-y,-z
loop_
_atom_site_type_symbol
_atom_site_label
_atom_site_fract_x
_atom_site_fract_y
_atom_site_fract_z
Si Si1 0.838821 0.183811 0.587132
Si Si2 0.199833 0.112320 0.245878
Si Si3 0.500183 0.763562 0.267645
Si Si4 0.292971 0.012562 0.509496
Si Si5 0.881302 0.550697 0.921872
Si Si6 0.628809 0.234995 0.121507
Si Si7 0.656952 0.505400 0.026415
Si Si8 0.595475 0.205157 0.913957
O O1 0.696555 0.104930 0.889525
O O2 0.960009 0.325223 0.395170
O O3 0.864003 0.003847 0.689391
O O4 0.843615 0.340748 0.286677
O O5 0.192807 0.969924 0.542418
O O6 0.155684 0.287080 0.141687
O O7 0.354914 0.204045 0.949980
O O8 0.444004 0.630130 0.604537
O O9 0.407316 0.655341 0.362664
O O10 0.500000 0.000000 0.000000
O O11 0.262299 0.834190 0.852775
O O12 0.321600 0.247460 0.270431
O O13 0.437611 0.045314 0.272092
O O14 0.793867 0.504905 0.936188
O O15 0.613917 0.391802 0.063011
O O16 0.500000 0.000000 0.500000
O O17 0.648349 0.327779 0.853712
#
# Coordination Sequence:
#
# PCOD9093613 Si02
#       8
#     2   2   2   2   2   2   2   2
#     4  11  20  36  54  79 118 143 184 231 274 323
#     4  10  20  33  57  83 109 142 186 229 277 331
#     4  11  18  32  58  87 110 140 176 233 288 319
#     4   9  21  34  57  83 111 148 180 225 281 335
#     4  10  22  35  55  82 109 151 183 228 275 326
#     4  10  21  37  54  81 114 151 180 218 284 336
#     4  11  21  37  58  81 115 145 184 228 277 335
#     4  10  20  33  54  83 113 141 183 225 276 331
#
# _framework density 21.999652999999999
#
# number of rings (size 3 to 8) (size 9 to 14) (size 15 to 20)
#    0.000    1.750    2.500    3.375    1.750    3.500 
#    0.000    1.875    0.000    3.000    0.000    0.000 
#    0.000    0.000    0.000    0.000    0.000    0.000 
#
# Total GULP energy -89218.398401 kJ/mol
# GULP energy per Si atom -5576.149900 kJ/mol
# Density = 2.194958 g / cm^3
# Si number density = 21.999653 Si / 1000 Ang^3
#
#
#
# Elastic Constant Matrix: (Units=GPa)
#
#
# Indices 1 2 3 4 5 6 
#
# 1 51.6284 20.4740 15.5675 7.5653 -4.2769 23.8938
# 2 20.4740 108.1166 5.7924 0.3843 11.9849 23.4570
# 3 15.5675 5.7924 21.1333 0.0863 2.4913 3.4934
# 4 7.5653 0.3843 0.0863 19.2275 -1.8042 8.8440
# 5 -4.2769 11.9849 2.4913 -1.8042 31.2362 4.9241
# 6 23.8938 23.4570 3.4934 8.8440 4.9241 46.3807
#
#
#
# Elastic Compliance Matrix: (Units=1/GPa)
#
#
# Indices 1 2 3 4 5 6 
#
# 1 0.037317 -0.003510 -0.025188 -0.006405 0.010530 -0.015449
# 2 -0.003510 0.011178 0.000643 0.002596 -0.004047 -0.003959
# 3 -0.025188 0.000643 0.065551 0.005096 -0.009857 0.007788
# 4 -0.006405 0.002596 0.005096 0.059307 0.002722 -0.009995
# 5 0.010530 -0.004047 -0.009857 0.002722 0.037070 -0.007091
# 6 -0.015449 -0.003959 0.007788 -0.009995 -0.007091 0.033593
#
#
# Mechanical properties :
#
#
# Convention : Reuss Voigt Hill
#
# Bulk Modulus (GPa) = 17.26094 29.39399 23.32747
# Shear Modulus (GPa) = 15.65251 28.63850 22.14550
#
# Velocity S-wave (km/s) = 2.67027 3.61192 3.17618
# Velocity P-wave (km/s) = 4.16775 5.54840 4.90688
#
# Compressibility (1/GPa) = 0.05793426
#
# Stress axis : x y z
#
# Youngs Moduli (GPa) = 26.79764 89.46337 15.25536
#
# Poissons Ratio (x) = 0.31402 0.38425
# Poissons Ratio (y) = 0.09406 -0.00981
# Poissons Ratio (z) = 0.67498 -0.05750
#
# Static dielectric constant tensor:
#      x y z
#    x 1.901430 0.049180 0.006430 
#    y 0.049180 1.885350 -0.026920 
#    z 0.006430 -0.026920 1.871960 
# 
# From -- ./inp_files/272069.got.cif
#   From: 2010.05.17/outbox.cif.g08.bks.cpg/sg2_137_cif.got.tgz:272069.got - 2010.06.03 11:33:40.
