data_PCOD9093345
_publ_section_title
;
Structure prediction by ZEFSAII (Michael W. Deem and Ramdas Pophale) SiO2 
 PCOD9093345
Probable space group: P -1
;
_chemical_formula_sum "Si O2"
_cell_formula_units_Z 16
_cell_length_a 13.776962
_cell_length_b 14.474595
_cell_length_c 9.534632
_cell_angle_alpha 54.433838
_cell_angle_beta 91.443420
_cell_angle_gamma 47.258090
_cell_volume 807.886426
_symmetry_space_group_name_H-M "P -1"
_symmetry_group_IT_number 2
_symmetry_cell_setting 'triclinic'
loop_
_space_group_symop_operation_xyz
x,y,z
-x,-y,-z
loop_
_atom_site_type_symbol
_atom_site_label
_atom_site_fract_x
_atom_site_fract_y
_atom_site_fract_z
Si Si1 0.788998 0.720498 0.849218
Si Si2 0.513756 0.542686 0.308911
Si Si3 0.277718 0.027210 0.155199
Si Si4 0.040550 0.839422 0.963047
Si Si5 0.746192 0.994489 0.146068
Si Si6 0.908058 0.222866 0.643388
Si Si7 0.448194 0.383529 0.292210
Si Si8 0.528704 0.137011 0.277836
O O1 0.776383 0.803183 0.920112
O O2 0.673573 0.719262 0.859256
O O3 0.668832 0.916117 0.563710
O O4 0.000000 0.500000 0.000000
O O5 0.500000 0.500000 0.500000
O O6 0.694255 0.441840 0.398395
O O7 0.522321 0.433244 0.294191
O O8 0.333285 0.798831 0.058632
O O9 0.470328 0.786094 0.438750
O O10 0.126399 0.081235 0.140031
O O11 0.273495 0.041727 0.974935
O O12 0.083536 0.791729 0.173655
O O13 0.226529 0.615353 0.089882
O O14 0.978761 0.029752 0.761246
O O15 0.620709 0.061201 0.197963
O O16 0.958290 0.806387 0.366042
O O17 0.513096 0.269765 0.246600
#
# Coordination Sequence:
#
# PCOD9093345 Si02
#       8
#     2   2   2   2   2   2   2   2
#     4  10  22  46  67  80 106 148 195 245 299 346
#     4  12  18  33  57  86 121 161 193 221 269 339
#     4  10  20  34  63  87 108 151 197 231 281 341
#     4  10  16  29  52  81 112 148 194 227 262 320
#     4  11  22  37  55  89 125 149 185 237 280 334
#     4  10  18  29  49  81 118 152 183 230 266 320
#     4  11  19  34  57  82 115 158 194 222 275 340
#     4  10  25  41  59  86 116 145 191 246 292 339
#
# _framework density 19.804763999999999
#
# number of rings (size 3 to 8) (size 9 to 14) (size 15 to 20)
#    0.000    1.500    5.000    1.500    0.000    2.000 
#    0.000    1.250    0.000    0.000    0.000    0.000 
#    0.000    0.000    0.000    0.000    0.000    0.000 
#
# Total GULP energy -89351.972407 kJ/mol
# GULP energy per Si atom -5584.498275 kJ/mol
# Density = 1.975969 g / cm^3
# Si number density = 19.804764 Si / 1000 Ang^3
#
#
#
# Elastic Constant Matrix: (Units=GPa)
#
#
# Indices 1 2 3 4 5 6 
#
# 1 62.8470 41.5199 15.7977 11.3469 18.7652 4.9757
# 2 41.5199 108.6738 26.2911 1.8513 12.8313 6.6370
# 3 15.7977 26.2911 26.8967 -7.8634 19.6764 -4.1334
# 4 11.3469 1.8513 -7.8634 26.0789 -3.9990 4.2907
# 5 18.7652 12.8313 19.6764 -3.9990 22.1780 -4.4063
# 6 4.9757 6.6370 -4.1334 4.2907 -4.4063 41.5665
#
#
#
# Elastic Compliance Matrix: (Units=1/GPa)
#
#
# Indices 1 2 3 4 5 6 
#
# 1 0.034578 -0.011675 0.014509 -0.015235 -0.038792 -0.003372
# 2 -0.011675 0.018030 -0.030052 -0.001066 0.025590 -0.001647
# 3 0.014509 -0.030052 0.165913 0.024398 -0.137193 0.002498
# 4 -0.015235 -0.001066 0.024398 0.052737 0.001192 -0.000897
# 5 -0.038792 0.025590 -0.137193 0.001192 0.186340 0.006545
# 6 -0.003372 -0.001647 0.002498 -0.000897 0.006545 0.025759
#
#
# Mechanical properties :
#
#
# Convention : Reuss Voigt Hill
#
# Bulk Modulus (GPa) = 6.09439 40.62610 23.36025
# Shear Modulus (GPa) = 8.43899 25.61860 17.02880
#
# Velocity S-wave (km/s) = 2.06648 3.60051 2.93547
# Velocity P-wave (km/s) = 2.96272 6.15164 4.82806
#
# Compressibility (1/GPa) = 0.16408531
#
# Stress axis : x y z
#
# Youngs Moduli (GPa) = 28.92012 55.46247 6.02726
#
# Poissons Ratio (x) = 0.64755 -0.08745
# Poissons Ratio (y) = 0.33765 0.18113
# Poissons Ratio (z) = -0.41961 1.66675
#
# Static dielectric constant tensor:
#      x y z
#    x 1.704320 -0.007770 0.014100 
#    y -0.007770 1.681110 -0.000570 
#    z 0.014100 -0.000570 1.695660 
# 
# From -- ./inp_files/217609.got.cif
#   From: 2010.05.17/outbox.cif.g08.bks.cpg/sg2_109_cif.got.tgz:217609.got - 2010.06.03 11:33:40.
