data_PCOD9093040
_publ_section_title
;
Structure prediction by ZEFSAII (Michael W. Deem and Ramdas Pophale) SiO2 
 PCOD9093040
Probable space group: P -1
;
_chemical_formula_sum "Si O2"
_cell_formula_units_Z 14
_cell_length_a 14.672305
_cell_length_b 8.129697
_cell_length_c 7.939051
_cell_angle_alpha 127.904243
_cell_angle_beta 129.373624
_cell_angle_gamma 59.227268
_cell_volume 565.953657
_symmetry_space_group_name_H-M "P -1"
_symmetry_group_IT_number 2
_symmetry_cell_setting 'triclinic'
loop_
_space_group_symop_operation_xyz
x,y,z
-x,-y,-z
loop_
_atom_site_type_symbol
_atom_site_label
_atom_site_fract_x
_atom_site_fract_y
_atom_site_fract_z
Si Si1 0.209513 0.951758 0.126249
Si Si2 0.656243 0.776858 0.797541
Si Si3 0.555664 0.352809 0.726691
Si Si4 0.448652 0.771563 0.977774
Si Si5 0.815166 0.293889 0.384694
Si Si6 0.948588 0.658705 0.686824
Si Si7 0.115521 0.596900 0.135924
O O1 0.284922 0.103629 0.208244
O O2 0.127547 0.104215 0.257256
O O3 0.309473 0.774323 0.221297
O O4 0.148821 0.852756 0.831008
O O5 0.541707 0.688469 0.545558
O O6 0.765992 0.589008 0.862543
O O7 0.598167 0.983779 0.971492
O O8 0.549428 0.604837 0.895342
O O9 0.519028 0.261314 0.806904
O O10 0.327812 0.675721 0.758580
O O11 0.855277 0.517872 0.558672
O O12 0.864256 0.231191 0.591105
O O13 0.000000 0.500000 0.500000
O O14 0.063440 0.679971 0.947898
O O15 0.000000 0.500000 0.000000
#
# Coordination Sequence:
#
# PCOD9093040 Si02
#       7
#     2   2   2   2   2   2   2
#     4  10  19  31  54  79 104 139 165 208 266 296
#     4  10  16  29  50  80 107 128 164 208 265 299
#     4   9  16  26  46  79 113 123 160 208 259 313
#     4   9  16  26  47  81 108 129 152 212 269 299
#     4   9  18  33  54  77 103 124 176 212 250 306
#     4  11  23  38  51  71 105 143 177 209 251 303
#     4  10  18  34  52  76 104 135 171 215 251 304
#
# _framework density 24.737007999999999
#
# number of rings (size 3 to 8) (size 9 to 14) (size 15 to 20)
#    0.000    2.571    4.286    1.714    0.000    3.429 
#    2.571    0.000    0.000    0.857    0.000    5.000 
#    0.000    0.000    0.000    0.000    0.000    0.000 
#
# Total GULP energy -78074.074489 kJ/mol
# GULP energy per Si atom -5576.719606 kJ/mol
# Density = 2.468071 g / cm^3
# Si number density = 24.737008 Si / 1000 Ang^3
#
#
#
# Elastic Constant Matrix: (Units=GPa)
#
#
# Indices 1 2 3 4 5 6 
#
# 1 55.2917 54.9310 34.8337 7.7836 0.9477 -16.0767
# 2 54.9310 200.6878 73.9573 27.0851 -2.7558 -46.6287
# 3 34.8337 73.9573 146.8574 9.5901 5.9687 -26.8381
# 4 7.7836 27.0851 9.5901 40.8085 -8.9372 -3.6605
# 5 0.9477 -2.7558 5.9687 -8.9372 31.6284 7.0389
# 6 -16.0767 -46.6287 -26.8381 -3.6605 7.0389 46.8835
#
#
#
# Elastic Compliance Matrix: (Units=1/GPa)
#
#
# Indices 1 2 3 4 5 6 
#
# 1 0.026133 -0.005540 -0.002959 -0.000735 -0.001338 0.001901
# 2 -0.005540 0.009138 -0.001866 -0.004304 -0.001230 0.005969
# 3 -0.002959 -0.001866 0.009085 -0.000655 -0.002566 0.002664
# 4 -0.000735 -0.004304 -0.000655 0.029253 0.008918 -0.003962
# 5 -0.001338 -0.001230 -0.002566 0.008918 0.036314 -0.007907
# 6 0.001901 0.005969 0.002664 -0.003962 -0.007907 0.030321
#
#
# Mechanical properties :
#
#
# Convention : Reuss Voigt Hill
#
# Bulk Modulus (GPa) = 42.32641 81.14234 61.73438
# Shear Modulus (GPa) = 29.61242 39.80506 34.70874
#
# Velocity S-wave (km/s) = 3.46365 4.01575 3.74987
# Velocity P-wave (km/s) = 5.75704 7.37393 6.61507
#
# Compressibility (1/GPa) = 0.02362591
#
# Stress axis : x y z
#
# Youngs Moduli (GPa) = 38.26577 109.43810 110.07424
#
# Poissons Ratio (x) = 0.60630 0.32569
# Poissons Ratio (y) = 0.21200 0.20537
# Poissons Ratio (z) = 0.11322 0.20419
#
# Static dielectric constant tensor:
#      x y z
#    x 2.148560 0.059690 -0.108950 
#    y 0.059690 2.011030 -0.015190 
#    z -0.108950 -0.015190 1.998020 
# 
# From -- ./inp_files/344872.got.cif
#   From: 2010.05.17/outbox.cif.g08.bks.cpg/sg2_173_cif.got.tgz:344872.got - 2010.06.03 11:33:40.
