data_PCOD9093469
_publ_section_title
;
Structure prediction by ZEFSAII (Michael W. Deem and Ramdas Pophale) SiO2 
 PCOD9093469
Probable space group: P -1
;
_chemical_formula_sum "Si O2"
_cell_formula_units_Z 14
_cell_length_a 11.693829
_cell_length_b 26.640056
_cell_length_c 26.870356
_cell_angle_alpha 169.274665
_cell_angle_beta 151.739825
_cell_angle_gamma 29.678837
_cell_volume 737.037648
_symmetry_space_group_name_H-M "P -1"
_symmetry_group_IT_number 2
_symmetry_cell_setting 'triclinic'
loop_
_space_group_symop_operation_xyz
x,y,z
-x,-y,-z
loop_
_atom_site_type_symbol
_atom_site_label
_atom_site_fract_x
_atom_site_fract_y
_atom_site_fract_z
Si Si1 0.725921 0.507725 0.682372
Si Si2 0.993375 0.497382 0.881102
Si Si3 0.526081 0.274472 0.750082
Si Si4 0.902346 0.087572 0.601597
Si Si5 0.667162 0.815116 0.512924
Si Si6 0.023840 0.672619 0.856936
Si Si7 0.556419 0.974468 0.938323
O O1 0.629967 0.221077 0.349678
O O2 0.896398 0.601643 0.792605
O O3 0.841263 0.493030 0.767412
O O4 0.501592 0.726087 0.811978
O O5 0.217074 0.677721 0.127933
O O6 0.931800 0.676197 0.081328
O O7 0.072517 0.191338 0.628115
O O8 0.338042 0.276153 0.635550
O O9 0.500000 0.000000 0.500000
O O10 0.500000 0.500000 0.000000
O O11 0.615505 0.176890 0.572165
O O12 0.000000 0.000000 0.500000
O O13 0.860417 0.583151 0.378419
O O14 0.770188 0.110980 0.844555
O O15 0.819207 0.828851 0.897420
O O16 0.500000 0.000000 0.000000
#
# Coordination Sequence:
#
# PCOD9093469 Si02
#       7
#     2   2   2   2   2   2   2
#     4  11  20  34  53  81 116 149 180 216 257 321
#     4  11  22  36  57  82 106 145 187 221 276 332
#     4  11  20  31  47  76 114 143 166 207 260 327
#     4  11  24  42  58  79 107 138 187 244 284 330
#     4  11  21  33  52  77 103 141 182 216 268 325
#     4  11  20  33  52  80 114 147 178 213 256 319
#     4  10  20  33  50  77 115 155 184 211 251 308
#
# _framework density 18.994959000000001
#
# number of rings (size 3 to 8) (size 9 to 14) (size 15 to 20)
#    0.000    1.143    0.000   11.571    0.000    0.000 
#    0.000    0.000    0.000    0.000    0.000   20.000 
#    0.000    0.000    0.000    0.000    0.000    0.000 
#
# Total GULP energy -77964.816405 kJ/mol
# GULP energy per Si atom -5568.915458 kJ/mol
# Density = 1.895173 g / cm^3
# Si number density = 18.994959 Si / 1000 Ang^3
#
#
#
# Elastic Constant Matrix: (Units=GPa)
#
#
# Indices 1 2 3 4 5 6 
#
# 1 42.0849 24.1967 8.7558 7.4960 -10.9776 -6.1355
# 2 24.1967 77.6704 -0.3477 15.0160 -4.9346 -2.1402
# 3 8.7558 -0.3477 109.7166 5.0591 -16.2575 1.5614
# 4 7.4960 15.0160 5.0591 47.6616 2.0940 -7.0821
# 5 -10.9776 -4.9346 -16.2575 2.0940 23.6170 1.2440
# 6 -6.1355 -2.1402 1.5614 -7.0821 1.2440 18.8544
#
#
#
# Elastic Compliance Matrix: (Units=1/GPa)
#
#
# Indices 1 2 3 4 5 6 
#
# 1 0.034250 -0.009285 -0.000874 -0.001653 0.013068 0.008681
# 2 -0.009285 0.016556 0.001098 -0.004320 0.000434 -0.002884
# 3 -0.000874 0.001098 0.010386 -0.001962 0.007265 -0.002236
# 4 -0.001653 -0.004320 -0.001962 0.024343 -0.005636 0.008650
# 5 0.013068 0.000434 0.007265 -0.005636 0.054113 -0.001987
# 6 0.008681 -0.002884 -0.002236 0.008650 -0.001987 0.059101
#
#
# Mechanical properties :
#
#
# Convention : Reuss Voigt Hill
#
# Bulk Modulus (GPa) = 23.21738 32.74240 27.97989
# Shear Modulus (GPa) = 21.62370 31.15106 26.38738
#
# Velocity S-wave (km/s) = 3.37767 4.05404 3.73121
# Velocity P-wave (km/s) = 5.24032 6.26007 5.77276
#
# Compressibility (1/GPa) = 0.04307119
#
# Stress axis : x y z
#
# Youngs Moduli (GPa) = 29.19680 60.40235 96.27962
#
# Poissons Ratio (x) = 0.56083 0.08412
# Poissons Ratio (y) = 0.27109 -0.10572
# Poissons Ratio (z) = 0.02551 -0.06632
#
# Static dielectric constant tensor:
#      x y z
#    x 2.278550 -0.148680 -0.516670 
#    y -0.148680 1.793750 0.141350 
#    z -0.516670 0.141350 2.068050 
# 
# From -- ./inp_files/434039.got.cif
#   From: 2010.05.17/outbox.cif.g08.bks.cpg/sg2_218_cif.got.tgz:434039.got - 2010.06.03 11:33:40.
