data_PCOD9093154
_publ_section_title
;
Structure prediction by ZEFSAII (Michael W. Deem and Ramdas Pophale) SiO2 
 PCOD9093154
Probable space group: P -1
;
_chemical_formula_sum "Si O2"
_cell_formula_units_Z 14
_cell_length_a 12.227210
_cell_length_b 11.627229
_cell_length_c 5.385192
_cell_angle_alpha 70.932851
_cell_angle_beta 79.529845
_cell_angle_gamma 61.209192
_cell_volume 633.877439
_symmetry_space_group_name_H-M "P -1"
_symmetry_group_IT_number 2
_symmetry_cell_setting 'triclinic'
loop_
_space_group_symop_operation_xyz
x,y,z
-x,-y,-z
loop_
_atom_site_type_symbol
_atom_site_label
_atom_site_fract_x
_atom_site_fract_y
_atom_site_fract_z
Si Si1 0.284611 0.852945 0.775644
Si Si2 0.089928 0.572601 0.459668
Si Si3 0.410080 0.862326 0.222710
Si Si4 0.027047 0.909141 0.800079
Si Si5 0.126698 0.163897 0.755325
Si Si6 0.683412 0.814387 0.033475
Si Si7 0.146120 0.464550 0.011520
O O1 0.374760 0.817009 0.528315
O O2 0.174486 0.809852 0.815706
O O3 0.204235 0.018922 0.698440
O O4 0.350982 0.822541 0.037405
O O5 0.174824 0.515847 0.703476
O O6 0.000000 0.500000 0.500000
O O7 0.993166 0.731128 0.417828
O O8 0.159365 0.541185 0.191672
O O9 0.353576 0.028778 0.132761
O O10 0.556369 0.808755 0.155077
O O11 0.000000 0.000000 0.500000
O O12 0.931991 0.847442 0.943535
O O13 0.000000 0.000000 0.000000
O O14 0.225426 0.218172 0.744507
O O15 0.765756 0.696746 0.890313
O O16 0.000000 0.500000 0.000000
#
# Coordination Sequence:
#
# PCOD9093154 Si02
#       7
#     2   2   2   2   2   2   2
#     4  10  21  37  52  76 109 142 189 208 264 323
#     4  10  20  32  47  79 106 140 169 206 283 318
#     4  10  23  34  54  76 107 153 174 214 263 322
#     4  10  20  35  54  80 104 143 180 225 274 310
#     4  10  20  33  57  79 115 138 171 234 272 319
#     4  10  20  35  52  80 112 139 180 214 271 330
#     4  10  20  32  50  72 111 136 174 216 264 321
#
# _framework density 22.086286000000001
#
# number of rings (size 3 to 8) (size 9 to 14) (size 15 to 20)
#    0.000    2.000    2.857    2.571    4.000    8.571 
#    0.000    0.000    0.000    0.000    0.000    6.000 
#    0.000    0.000    0.000    0.000    0.000    0.000 
#
# Total GULP energy -78100.796783 kJ/mol
# GULP energy per Si atom -5578.628342 kJ/mol
# Density = 2.203602 g / cm^3
# Si number density = 22.086286 Si / 1000 Ang^3
#
#
#
# Elastic Constant Matrix: (Units=GPa)
#
#
# Indices 1 2 3 4 5 6 
#
# 1 94.6698 12.5353 29.7686 11.7257 -1.6148 -24.4208
# 2 12.5353 71.6811 13.6626 6.0390 3.0892 -12.6826
# 3 29.7686 13.6626 137.6165 25.3206 16.7752 1.3823
# 4 11.7257 6.0390 25.3206 28.1841 0.6305 -3.3976
# 5 -1.6148 3.0892 16.7752 0.6305 27.1243 8.9922
# 6 -24.4208 -12.6826 1.3823 -3.3976 8.9922 24.6545
#
#
#
# Elastic Compliance Matrix: (Units=1/GPa)
#
#
# Indices 1 2 3 4 5 6 
#
# 1 0.016084 0.001172 -0.003020 -0.002045 -0.003077 0.017544
# 2 0.001172 0.016256 -0.001123 -0.001518 -0.004733 0.011103
# 3 -0.003020 -0.001123 0.010129 -0.007901 -0.005006 -0.003401
# 4 -0.002045 -0.001518 -0.007901 0.043999 0.003058 0.002584
# 5 -0.003077 -0.004733 -0.005006 0.003058 0.047586 -0.022136
# 6 0.017544 0.011103 -0.003401 0.002584 -0.022136 0.072271
#
#
# Mechanical properties :
#
#
# Convention : Reuss Voigt Hill
#
# Bulk Modulus (GPa) = 27.37687 46.21116 36.79401
# Shear Modulus (GPa) = 22.27734 32.52598 27.40166
#
# Velocity S-wave (km/s) = 3.17937 3.84171 3.52613
# Velocity P-wave (km/s) = 5.08922 6.37548 5.76832
#
# Compressibility (1/GPa) = 0.03652719
#
# Stress axis : x y z
#
# Youngs Moduli (GPa) = 62.17294 61.51552 98.72165
#
# Poissons Ratio (x) = -0.07210 0.29819
# Poissons Ratio (y) = -0.07287 0.11084
# Poissons Ratio (z) = 0.18779 0.06907
#
# Static dielectric constant tensor:
#      x y z
#    x 1.886150 0.068200 -0.036730 
#    y 0.068200 1.914520 0.040340 
#    z -0.036730 0.040340 1.991770 
# 
# From -- ./inp_files/68967.got.cif
#   From: 2010.05.17/outbox.cif.g08.bks.cpg/sg2_35_cif.got.tgz:68967.got - 2010.06.03 11:33:40.
