data_PCOD9093611
_publ_section_title
;
Structure prediction by ZEFSAII (Michael W. Deem and Ramdas Pophale) SiO2 
 PCOD9093611
Probable space group: P -1
;
_chemical_formula_sum "Si O2"
_cell_formula_units_Z 16
_cell_length_a 19.436593
_cell_length_b 20.273728
_cell_length_c 8.040261
_cell_angle_alpha 137.366994
_cell_angle_beta 53.951995
_cell_angle_gamma 158.389532
_cell_volume 730.061059
_symmetry_space_group_name_H-M "P -1"
_symmetry_group_IT_number 2
_symmetry_cell_setting 'triclinic'
loop_
_space_group_symop_operation_xyz
x,y,z
-x,-y,-z
loop_
_atom_site_type_symbol
_atom_site_label
_atom_site_fract_x
_atom_site_fract_y
_atom_site_fract_z
Si Si1 0.229480 0.772706 0.648339
Si Si2 0.023705 0.927609 0.435793
Si Si3 0.547054 0.349658 0.751988
Si Si4 0.885195 0.729070 0.745235
Si Si5 0.719955 0.478143 0.202187
Si Si6 0.674091 0.920633 0.783642
Si Si7 0.257476 0.209276 0.973534
Si Si8 0.486703 0.867826 0.374131
O O1 0.388761 0.849924 0.594380
O O2 0.000000 0.500000 0.500000
O O3 0.312296 0.891993 0.567241
O O4 0.258892 0.898750 0.952663
O O5 0.152112 0.977491 0.256659
O O6 0.816915 0.660162 0.285467
O O7 0.141794 0.074700 0.712377
O O8 0.000000 0.000000 0.500000
O O9 0.780055 0.590516 0.808968
O O10 0.470394 0.376339 0.968314
O O11 0.489163 0.206545 0.697829
O O12 0.425214 0.197997 0.475425
O O13 0.853883 0.616380 0.436609
O O14 0.753734 0.687186 0.792285
O O15 0.113349 0.004215 0.929682
O O16 0.497010 0.274761 0.199226
O O17 0.687382 0.342175 0.903374
#
# Coordination Sequence:
#
# PCOD9093611 Si02
#       8
#     2   2   2   2   2   2   2   2
#     4  10  21  41  61  79 110 141 180 230 288 329
#     4  10  20  33  54  82 112 146 186 226 263 318
#     4  10  20  35  56  79 111 142 182 227 272 322
#     4   9  18  35  54  72 111 155 180 219 269 319
#     4   9  19  37  51  78 111 143 181 223 269 320
#     4   9  20  39  57  78 109 148 177 221 282 328
#     4   9  19  35  50  77 113 150 186 222 268 316
#     4  10  22  37  58  87 106 140 187 232 274 331
#
# _framework density 21.915973000000001
#
# number of rings (size 3 to 8) (size 9 to 14) (size 15 to 20)
#    0.000    2.500    0.000    1.125    1.750    2.000 
#   13.500    0.625    0.000    0.000    0.000    0.000 
#    0.000    0.000    0.000    0.000    0.000    0.000 
#
# Total GULP energy -89321.262374 kJ/mol
# GULP energy per Si atom -5582.578898 kJ/mol
# Density = 2.186609 g / cm^3
# Si number density = 21.915973 Si / 1000 Ang^3
#
#
#
# Elastic Constant Matrix: (Units=GPa)
#
#
# Indices 1 2 3 4 5 6 
#
# 1 46.5299 10.3768 2.6825 1.6690 -5.3015 -8.2151
# 2 10.3768 90.9811 16.0194 22.8706 -0.9727 -17.2995
# 3 2.6825 16.0194 89.2391 4.7335 -18.2174 11.3454
# 4 1.6690 22.8706 4.7335 36.9573 1.3143 -14.0467
# 5 -5.3015 -0.9727 -18.2174 1.3143 21.6107 -0.3320
# 6 -8.2151 -17.2995 11.3454 -14.0467 -0.3320 26.2857
#
#
#
# Elastic Compliance Matrix: (Units=1/GPa)
#
#
# Indices 1 2 3 4 5 6 
#
# 1 0.023856 -0.001772 -0.000524 0.003012 0.005274 0.008192
# 2 -0.001772 0.014695 -0.003802 -0.005471 -0.002526 0.007803
# 3 -0.000524 -0.003802 0.016522 -0.004876 0.013737 -0.012229
# 4 0.003012 -0.005471 -0.004876 0.038771 -0.005667 0.020092
# 5 0.005274 -0.002526 0.013737 -0.005667 0.059251 -0.008223
# 6 0.008192 0.007803 -0.012229 0.020092 -0.008223 0.061651
#
#
# Mechanical properties :
#
#
# Convention : Reuss Voigt Hill
#
# Bulk Modulus (GPa) = 23.32229 31.65639 27.48934
# Shear Modulus (GPa) = 20.72684 30.14882 25.43783
#
# Velocity S-wave (km/s) = 3.07863 3.71301 3.41060
# Velocity P-wave (km/s) = 4.82722 5.73216 5.29904
#
# Compressibility (1/GPa) = 0.04287744
#
# Stress axis : x y z
#
# Youngs Moduli (GPa) = 41.91800 68.05124 60.52651
#
# Poissons Ratio (x) = 0.12058 0.03170
# Poissons Ratio (y) = 0.07427 0.23012
# Poissons Ratio (z) = 0.02195 0.25873
#
# Static dielectric constant tensor:
#      x y z
#    x 1.790630 -0.019790 0.027110 
#    y -0.019790 1.838150 -0.020900 
#    z 0.027110 -0.020900 1.843080 
# 
# From -- ./inp_files/200637.got.cif
#   From: 2010.05.17/outbox.cif.g08.bks.cpg/sg2_101_cif.got.tgz:200637.got - 2010.06.03 11:33:40.
