data_PCOD9093093
_publ_section_title
;
Structure prediction by ZEFSAII (Michael W. Deem and Ramdas Pophale) SiO2 
 PCOD9093093
Probable space group: P -1
;
_chemical_formula_sum "Si O2"
_cell_formula_units_Z 14
_cell_length_a 10.665017
_cell_length_b 7.419728
_cell_length_c 11.075750
_cell_angle_alpha 90.358835
_cell_angle_beta 47.346300
_cell_angle_gamma 76.007041
_cell_volume 607.434300
_symmetry_space_group_name_H-M "P -1"
_symmetry_group_IT_number 2
_symmetry_cell_setting 'triclinic'
loop_
_space_group_symop_operation_xyz
x,y,z
-x,-y,-z
loop_
_atom_site_type_symbol
_atom_site_label
_atom_site_fract_x
_atom_site_fract_y
_atom_site_fract_z
Si Si1 0.672424 0.947109 0.470042
Si Si2 0.982886 0.816161 0.579889
Si Si3 0.125583 0.425899 0.554056
Si Si4 0.905054 0.842102 0.103596
Si Si5 0.432157 0.194499 0.807161
Si Si6 0.233331 0.968879 0.050977
Si Si7 0.797025 0.424661 0.942182
O O1 0.617961 0.099901 0.614373
O O2 0.500000 0.000000 0.500000
O O3 0.713067 0.729596 0.483441
O O4 0.837958 0.944745 0.277189
O O5 0.870502 0.900032 0.772627
O O6 0.942685 0.459851 0.754417
O O7 0.892769 0.699925 0.549635
O O8 0.000000 0.000000 0.500000
O O9 0.149098 0.627844 0.511998
O O10 0.739066 0.765108 0.173512
O O11 0.083451 0.664291 0.015977
O O12 0.882431 0.975924 0.000023
O O13 0.374702 0.389598 0.919390
O O14 0.408545 0.025250 0.905236
O O15 0.264141 0.751126 0.061475
#
# Coordination Sequence:
#
# PCOD9093093 Si02
#       7
#     2   2   2   2   2   2   2
#     4   9  18  38  61  84 117 154 179 231 288 351
#     4  11  21  38  58  88 113 145 197 246 273 327
#     4  10  21  36  64  84 110 152 193 230 293 329
#     4   8  18  32  55  79 113 144 187 233 282 328
#     4   9  19  32  54  77 115 143 179 224 285 332
#     4  10  20  31  54  82 112 141 185 241 275 326
#     4  11  17  33  55  85 107 144 190 234 284 332
#
# _framework density 23.047761999999999
#
# number of rings (size 3 to 8) (size 9 to 14) (size 15 to 20)
#    0.857    1.429    2.857    0.857    0.000    1.143 
#    0.000    2.857    0.000    1.714    0.000    0.000 
#    0.000    0.000    0.000    0.000    0.000    0.000 
#
# Total GULP energy -77953.135894 kJ/mol
# GULP energy per Si atom -5568.081135 kJ/mol
# Density = 2.299530 g / cm^3
# Si number density = 23.047762 Si / 1000 Ang^3
#
#
#
# Elastic Constant Matrix: (Units=GPa)
#
#
# Indices 1 2 3 4 5 6 
#
# 1 13.7695 36.2561 10.6204 -1.0579 -2.3729 -7.2794
# 2 36.2561 191.1064 73.9997 23.9179 -1.4452 3.0895
# 3 10.6204 73.9997 125.7600 23.7369 2.9586 -2.3694
# 4 -1.0579 23.9179 23.7369 37.2209 -6.5464 7.8771
# 5 -2.3729 -1.4452 2.9586 -6.5464 17.4326 2.5701
# 6 -7.2794 3.0895 -2.3694 7.8771 2.5701 26.8418
#
#
#
# Elastic Compliance Matrix: (Units=1/GPa)
#
#
# Indices 1 2 3 4 5 6 
#
# 1 0.256166 -0.055472 0.005545 0.031395 0.031668 0.064100
# 2 -0.055472 0.018944 -0.004967 -0.008599 -0.006222 -0.014544
# 3 0.005545 -0.004967 0.011777 -0.006133 -0.004750 0.005370
# 4 0.031395 -0.008599 -0.006133 0.042069 0.021198 -0.005413
# 5 0.031668 -0.006222 -0.004750 0.021198 0.070528 -0.004089
# 6 0.064100 -0.014544 0.005370 -0.005413 -0.004089 0.058767
#
#
# Mechanical properties :
#
#
# Convention : Reuss Voigt Hill
#
# Bulk Modulus (GPa) = 5.64661 63.59872 34.62266
# Shear Modulus (GPa) = 7.97356 30.28305 19.12831
#
# Velocity S-wave (km/s) = 1.86201 3.62874 2.88400
# Velocity P-wave (km/s) = 2.66046 6.72393 5.11319
#
# Compressibility (1/GPa) = 0.17709748
#
# Stress axis : x y z
#
# Youngs Moduli (GPa) = 3.90372 52.78634 84.91353
#
# Poissons Ratio (x) = 2.92816 -0.47081
# Poissons Ratio (y) = 0.21655 0.42178
# Poissons Ratio (z) = -0.02164 0.26220
#
# Static dielectric constant tensor:
#      x y z
#    x 2.017520 0.027540 -0.005600 
#    y 0.027540 1.926550 -0.048320 
#    z -0.005600 -0.048320 1.979340 
# 
# From -- ./inp_files/444711.got.cif
#   From: 2010.05.17/outbox.cif.g08.bks.cpg/sg2_223_cif.got.tgz:444711.got - 2010.06.03 11:33:40.
