data_PCOD9093269
_publ_section_title
;
Structure prediction by ZEFSAII (Michael W. Deem and Ramdas Pophale) SiO2 
 PCOD9093269
Probable space group: P -1
;
_chemical_formula_sum "Si O2"
_cell_formula_units_Z 12
_cell_length_a 11.219689
_cell_length_b 9.690544
_cell_length_c 4.500558
_cell_angle_alpha 106.739028
_cell_angle_beta 81.960273
_cell_angle_gamma 120.754993
_cell_volume 402.670601
_symmetry_space_group_name_H-M "P -1"
_symmetry_group_IT_number 2
_symmetry_cell_setting 'triclinic'
loop_
_space_group_symop_operation_xyz
x,y,z
-x,-y,-z
loop_
_atom_site_type_symbol
_atom_site_label
_atom_site_fract_x
_atom_site_fract_y
_atom_site_fract_z
Si Si1 0.962003 0.349804 0.144177
Si Si2 0.881100 0.993047 0.730998
Si Si3 0.441352 0.595478 0.777075
Si Si4 0.655839 0.156822 0.127040
Si Si5 0.297967 0.132937 0.809992
Si Si6 0.748174 0.400222 0.673592
O O1 0.925273 0.183084 0.886442
O O2 0.820657 0.314889 0.341483
O O3 0.000000 0.500000 0.000000
O O4 0.103918 0.422812 0.322272
O O5 0.839446 0.893905 0.989387
O O6 0.000000 0.000000 0.500000
O O7 0.736879 0.887601 0.534230
O O8 0.500000 0.500000 0.500000
O O9 0.565688 0.713658 0.020736
O O10 0.383695 0.687407 0.612360
O O11 0.316583 0.512409 0.006565
O O12 0.705556 0.246661 0.837448
O O13 0.500000 0.000000 0.000000
O O14 0.692029 0.025765 0.194920
#
# Coordination Sequence:
#
# PCOD9093269 Si02
#       6
#     2   2   2   2   2   2
#     4  11  19  39  61  93 120 155 200 249 293 347
#     4  11  26  43  64  86 117 159 202 249 296 346
#     4  10  21  33  55  88 129 152 191 240 304 352
#     4   9  21  31  56  92 123 155 191 246 298 343
#     4  11  22  39  61  84 120 160 202 239 296 359
#     4  10  20  32  53  86 127 151 190 236 303 342
#
# _framework density 29.801036
#
# number of rings (size 3 to 8) (size 9 to 14) (size 15 to 20)
#    1.000    0.667    1.667    3.500    2.333    4.667 
#    0.000    0.000    0.000    6.000    0.000    0.000 
#    0.000    0.000    0.000    0.000    0.000    0.000 
#
# Total GULP energy -66907.518500 kJ/mol
# GULP energy per Si atom -5575.626542 kJ/mol
# Density = 2.973321 g / cm^3
# Si number density = 29.801036 Si / 1000 Ang^3
#
#
#
# Elastic Constant Matrix: (Units=GPa)
#
#
# Indices 1 2 3 4 5 6 
#
# 1 171.2152 65.7924 89.6700 13.1329 -33.7974 17.4871
# 2 65.7924 154.5263 81.6815 10.8414 -7.7602 31.4417
# 3 89.6700 81.6815 256.4857 13.3153 -16.0312 15.6227
# 4 13.1329 10.8414 13.3153 86.4594 2.4237 3.7750
# 5 -33.7974 -7.7602 -16.0312 2.4237 72.8839 -0.8980
# 6 17.4871 31.4417 15.6227 3.7750 -0.8980 63.3996
#
#
#
# Elastic Compliance Matrix: (Units=1/GPa)
#
#
# Indices 1 2 3 4 5 6 
#
# 1 0.008508 -0.002221 -0.001981 -0.000772 0.003291 -0.000665
# 2 -0.002221 0.009138 -0.001939 -0.000346 -0.000514 -0.003428
# 3 -0.001981 -0.001939 0.005210 -0.000270 0.000033 0.000241
# 4 -0.000772 -0.000346 -0.000270 0.011804 -0.000850 -0.000264
# 5 0.003291 -0.000514 0.000033 -0.000850 0.015222 -0.000395
# 6 -0.000665 -0.003428 0.000241 -0.000264 -0.000395 0.017607
#
#
# Mechanical properties :
#
#
# Convention : Reuss Voigt Hill
#
# Bulk Modulus (GPa) = 94.56513 117.39054 105.97783
# Shear Modulus (GPa) = 60.02685 67.55412 63.79048
#
# Velocity S-wave (km/s) = 4.49291 4.76630 4.63162
# Velocity P-wave (km/s) = 7.66264 8.35267 8.01508
#
# Compressibility (1/GPa) = 0.01057472
#
# Stress axis : x y z
#
# Youngs Moduli (GPa) = 117.53431 109.43539 191.92415
#
# Poissons Ratio (x) = 0.24302 0.38022
# Poissons Ratio (y) = 0.26100 0.37216
# Poissons Ratio (z) = 0.23285 0.21220
#
# Static dielectric constant tensor:
#      x y z
#    x 2.732840 0.107390 -0.247270 
#    y 0.107390 2.394750 -0.356230 
#    z -0.247270 -0.356230 3.683970 
# 
# From -- ./inp_files/67611.got.cif
#   From: 2010.05.17/outbox.cif.g08.bks.cpg/sg2_34_cif.got.tgz:67611.got - 2010.06.03 11:33:40.
