data_PCOD9093921
_publ_section_title
;
Structure prediction by ZEFSAII (Michael W. Deem and Ramdas Pophale) SiO2 
 PCOD9093921
Probable space group: P -1
;
_chemical_formula_sum "Si O2"
_cell_formula_units_Z 16
_cell_length_a 5.531961
_cell_length_b 7.310181
_cell_length_c 21.657749
_cell_angle_alpha 80.205283
_cell_angle_beta 73.481355
_cell_angle_gamma 118.012883
_cell_volume 691.958051
_symmetry_space_group_name_H-M "P -1"
_symmetry_group_IT_number 2
_symmetry_cell_setting 'triclinic'
loop_
_space_group_symop_operation_xyz
x,y,z
-x,-y,-z
loop_
_atom_site_type_symbol
_atom_site_label
_atom_site_fract_x
_atom_site_fract_y
_atom_site_fract_z
Si Si1 0.903720 0.740097 0.244806
Si Si2 0.925543 0.160578 0.435196
Si Si3 0.686781 0.786525 0.124044
Si Si4 0.713064 0.510566 0.038420
Si Si5 0.990523 0.608005 0.780054
Si Si6 0.754397 0.979329 0.332619
Si Si7 0.432192 0.871166 0.845361
Si Si8 0.549805 0.846197 0.592609
O O1 0.824637 0.770751 0.179225
O O2 0.869075 0.505389 0.262741
O O3 0.717087 0.789192 0.303154
O O4 0.256251 0.929680 0.216965
O O5 0.826218 0.972777 0.399474
O O6 0.772400 0.282516 0.411599
O O7 0.281096 0.278265 0.404577
O O8 0.767898 0.044988 0.517123
O O9 0.816816 0.724864 0.061011
O O10 0.333318 0.591132 0.162945
O O11 0.701700 0.014512 0.110483
O O12 0.520183 0.291924 0.107903
O O13 0.500000 0.500000 0.000000
O O14 0.000000 0.500000 0.000000
O O15 0.198389 0.731738 0.816455
O O16 0.977335 0.788022 0.729895
O O17 0.492444 0.030358 0.353848
#
# Coordination Sequence:
#
# PCOD9093921 Si02
#       8
#     2   2   2   2   2   2   2   2
#     4  11  24  38  67  97 127 174 211 268 328 394
#     4   8  16  30  53  85 124 168 214 263 320 378
#     4  11  25  45  66  96 134 170 216 261 336 382
#     4  12  28  47  73 100 130 171 221 265 315 397
#     4  11  23  40  65  97 132 174 211 273 322 396
#     4  10  20  33  61  92 126 169 219 261 329 380
#     4  11  25  45  70  92 139 168 210 268 338 369
#     4   8  16  30  53  85 124 168 214 263 320 375
#
# _framework density 23.122788
#
# number of rings (size 3 to 8) (size 9 to 14) (size 15 to 20)
#    0.750    1.000    2.500    1.500    5.250    1.000 
#    0.000    0.000    0.000    3.000    0.000    7.000 
#    0.000    0.000    0.000    0.000    0.000    0.000 
#
# Total GULP energy -89301.608148 kJ/mol
# GULP energy per Si atom -5581.350509 kJ/mol
# Density = 2.307016 g / cm^3
# Si number density = 23.122788 Si / 1000 Ang^3
#
#
#
# Elastic Constant Matrix: (Units=GPa)
#
#
# Indices 1 2 3 4 5 6 
#
# 1 114.0581 17.4158 12.3848 2.4171 -14.4703 -1.2967
# 2 17.4158 122.8237 39.2252 17.8177 -3.9104 -13.7649
# 3 12.3848 39.2252 92.3979 23.7069 -1.1854 -1.2602
# 4 2.4171 17.8177 23.7069 22.5578 -4.7947 -4.3895
# 5 -14.4703 -3.9104 -1.1854 -4.7947 35.0386 6.8649
# 6 -1.2967 -13.7649 -1.2602 -4.3895 6.8649 36.6361
#
#
#
# Elastic Compliance Matrix: (Units=1/GPa)
#
#
# Indices 1 2 3 4 5 6 
#
# 1 0.009565 -0.001192 -0.001237 0.001970 0.004182 -0.000699
# 2 -0.001192 0.010258 -0.003068 -0.004248 -0.000684 0.003326
# 3 -0.001237 -0.003068 0.016148 -0.015244 -0.001982 -0.002096
# 4 0.001970 -0.004248 -0.015244 0.066046 0.008007 0.004362
# 5 0.004182 -0.000684 -0.001982 0.008007 0.032250 -0.005261
# 6 -0.000699 0.003326 -0.002096 0.004362 -0.005261 0.029957
#
#
# Mechanical properties :
#
#
# Convention : Reuss Voigt Hill
#
# Bulk Modulus (GPa) = 40.03905 51.92570 45.98237
# Shear Modulus (GPa) = 27.24135 36.19676 31.71905
#
# Velocity S-wave (km/s) = 3.43609 3.96082 3.70775
# Velocity P-wave (km/s) = 5.75289 6.58960 6.18541
#
# Compressibility (1/GPa) = 0.02497562
#
# Stress axis : x y z
#
# Youngs Moduli (GPa) = 104.55156 97.48578 61.92557
#
# Poissons Ratio (x) = 0.11621 0.07662
# Poissons Ratio (y) = 0.12464 0.19001
# Poissons Ratio (z) = 0.12935 0.29912
#
# Static dielectric constant tensor:
#      x y z
#    x 1.924960 -0.035940 -0.040850 
#    y -0.035940 1.835800 0.008630 
#    z -0.040850 0.008630 1.928660 
# 
# From -- ./inp_files/121156.got.cif
#   From: 2010.05.17/outbox.cif.g08.bks.cpg/sg2_61_cif.got.tgz:121156.got - 2010.06.03 11:33:40.
