data_PCOD9093329
_publ_section_title
;
Structure prediction by ZEFSAII (Michael W. Deem and Ramdas Pophale) SiO2 
 PCOD9093329
Probable space group: P -1
;
_chemical_formula_sum "Si O2"
_cell_formula_units_Z 16
_cell_length_a 5.461223
_cell_length_b 14.390892
_cell_length_c 14.031169
_cell_angle_alpha 137.822708
_cell_angle_beta 81.406582
_cell_angle_gamma 100.914884
_cell_volume 726.942993
_symmetry_space_group_name_H-M "P -1"
_symmetry_group_IT_number 2
_symmetry_cell_setting 'triclinic'
loop_
_space_group_symop_operation_xyz
x,y,z
-x,-y,-z
loop_
_atom_site_type_symbol
_atom_site_label
_atom_site_fract_x
_atom_site_fract_y
_atom_site_fract_z
Si Si1 0.258921 0.465443 0.058671
Si Si2 0.167577 0.782979 0.556205
Si Si3 0.812289 0.677138 0.657826
Si Si4 0.152368 0.201650 0.586849
Si Si5 0.473605 0.979819 0.369500
Si Si6 0.106267 0.734886 0.182051
Si Si7 0.731866 0.398026 0.323428
Si Si8 0.480759 0.558955 0.304792
O O1 0.120447 0.599891 0.144709
O O2 0.326300 0.463859 0.164412
O O3 0.500000 0.500000 0.000000
O O4 0.070113 0.328556 0.939755
O O5 0.341281 0.656158 0.459825
O O6 0.969302 0.775617 0.646815
O O7 0.033842 0.742623 0.433775
O O8 0.305321 0.935857 0.639707
O O9 0.766629 0.527284 0.493714
O O10 0.527909 0.701920 0.716957
O O11 0.007933 0.666435 0.725534
O O12 0.377350 0.321535 0.678957
O O13 0.038362 0.165211 0.667580
O O14 0.256370 0.075323 0.432745
O O15 0.376554 0.823374 0.223630
O O16 0.500000 0.000000 0.500000
O O17 0.666445 0.471405 0.284397
#
# Coordination Sequence:
#
# PCOD9093329 Si02
#       8
#     2   2   2   2   2   2   2   2
#     4  11  23  36  56  76 113 150 187 239 274 330
#     4  11  21  33  53  78 117 146 183 228 287 347
#     4  10  20  34  50  86 113 153 184 234 294 347
#     4  11  20  33  56  78 111 148 184 231 281 342
#     4  11  23  34  54  81 109 150 190 229 285 345
#     4  11  22  38  52  80 109 151 195 231 277 335
#     4  10  20  32  56  77 120 150 188 233 286 360
#     4  11  20  34  51  82 110 152 186 228 291 337
#
# _framework density 22.009978
#
# number of rings (size 3 to 8) (size 9 to 14) (size 15 to 20)
#    0.000    1.250    5.000    3.375    1.750    0.000 
#    0.000    0.000    0.000    0.000    0.000    1.750 
#    0.000    0.000    0.000    0.000    0.000    0.000 
#
# Total GULP energy -89145.599577 kJ/mol
# GULP energy per Si atom -5571.599974 kJ/mol
# Density = 2.195988 g / cm^3
# Si number density = 22.009978 Si / 1000 Ang^3
#
#
#
# Elastic Constant Matrix: (Units=GPa)
#
#
# Indices 1 2 3 4 5 6 
#
# 1 94.7501 35.5563 24.9498 0.6191 28.3534 2.3949
# 2 35.5563 114.1590 30.0528 4.4500 30.0082 21.0115
# 3 24.9498 30.0528 54.4223 5.2351 32.3471 -5.8373
# 4 0.6191 4.4500 5.2351 17.5705 0.5185 13.7321
# 5 28.3534 30.0082 32.3471 0.5185 35.1353 -3.9704
# 6 2.3949 21.0115 -5.8373 13.7321 -3.9704 42.9903
#
#
#
# Elastic Compliance Matrix: (Units=1/GPa)
#
#
# Indices 1 2 3 4 5 6 
#
# 1 0.014263 -0.001522 0.000486 0.001102 -0.010825 -0.001337
# 2 -0.001522 0.014032 -0.003360 0.005398 -0.008846 -0.009771
# 3 0.000486 -0.003360 0.045751 -0.020039 -0.038138 0.010706
# 4 0.001102 0.005398 -0.020039 0.086491 0.008022 -0.032307
# 5 -0.010825 -0.008846 -0.038138 0.008022 0.080266 0.004599
# 6 -0.001337 -0.009771 0.010706 -0.032307 0.004599 0.040309
#
#
# Mechanical properties :
#
#
# Convention : Reuss Voigt Hill
#
# Bulk Modulus (GPa) = 15.32441 49.38322 32.35382
# Shear Modulus (GPa) = 16.04344 30.65739 23.35041
#
# Velocity S-wave (km/s) = 2.70277 3.73619 3.26068
# Velocity P-wave (km/s) = 4.08871 6.41074 5.37658
#
# Compressibility (1/GPa) = 0.06525537
#
# Stress axis : x y z
#
# Youngs Moduli (GPa) = 70.11100 71.26807 21.85725
#
# Poissons Ratio (x) = 0.10846 -0.01063
# Poissons Ratio (y) = 0.10670 0.07344
# Poissons Ratio (z) = -0.03411 0.23946
#
# Static dielectric constant tensor:
#      x y z
#    x 2.008310 0.017690 -0.019330 
#    y 0.017690 1.852270 0.016670 
#    z -0.019330 0.016670 1.842330 
# 
# From -- ./inp_files/77581.got.cif
#   From: 2010.05.17/outbox.cif.g08.bks.cpg/sg2_39_cif.got.tgz:77581.got - 2010.06.03 11:33:40.
