data_PCOD9093557
_publ_section_title
;
Structure prediction by ZEFSAII (Michael W. Deem and Ramdas Pophale) SiO2 
 PCOD9093557
Probable space group: P -1
;
_chemical_formula_sum "Si O2"
_cell_formula_units_Z 16
_cell_length_a 15.743481
_cell_length_b 10.538532
_cell_length_c 21.661426
_cell_angle_alpha 55.732766
_cell_angle_beta 16.678540
_cell_angle_gamma 54.931327
_cell_volume 842.984619
_symmetry_space_group_name_H-M "P -1"
_symmetry_group_IT_number 2
_symmetry_cell_setting 'triclinic'
loop_
_space_group_symop_operation_xyz
x,y,z
-x,-y,-z
loop_
_atom_site_type_symbol
_atom_site_label
_atom_site_fract_x
_atom_site_fract_y
_atom_site_fract_z
Si Si1 0.901274 0.862904 0.773300
Si Si2 0.918773 0.814987 0.241141
Si Si3 0.336594 0.927262 0.343532
Si Si4 0.293294 0.953984 0.849608
Si Si5 0.946281 0.241443 0.508049
Si Si6 0.308209 0.780607 0.175978
Si Si7 0.315369 0.946937 0.555000
Si Si8 0.155138 0.557664 0.237638
O O1 0.078622 0.884820 0.580806
O O2 0.745346 0.036665 0.853436
O O3 0.659856 0.751835 0.956498
O O4 0.133081 0.830197 0.677128
O O5 0.874267 0.948824 0.289207
O O6 0.980345 0.652757 0.277767
O O7 0.609274 0.853560 0.408296
O O8 0.193975 0.823199 0.999744
O O9 0.328337 0.812922 0.323648
O O10 0.618088 0.926953 0.192608
O O11 0.226336 0.101002 0.346385
O O12 0.561621 0.945468 0.614580
O O13 0.000000 0.000000 0.000000
O O14 0.869263 0.244572 0.632096
O O15 0.012936 0.406281 0.394944
O O16 0.181918 0.678551 0.240689
O O17 0.500000 0.500000 0.000000
#
# Coordination Sequence:
#
# PCOD9093557 Si02
#       8
#     2   2   2   2   2   2   2   2
#     4   9  17  32  56  80 109 135 188 230 275 321
#     4  10  20  34  57  83 111 147 184 225 282 325
#     4   9  18  34  55  79 106 141 187 228 273 329
#     4   9  18  32  56  86 110 136 182 232 274 320
#     4  10  21  34  53  77 108 147 182 228 278 332
#     4  10  20  33  53  80 111 146 181 230 277 332
#     4   9  18  35  57  85 110 142 185 236 265 328
#     4  12  23  36  52  79 118 148 183 227 285 339
#
# _framework density 18.980179
#
# number of rings (size 3 to 8) (size 9 to 14) (size 15 to 20)
#    0.000    2.250    1.250    1.875    1.750    2.000 
#    2.250    0.000    0.000   14.250    0.000    0.000 
#    0.000    0.000    0.000    0.000    0.000    0.000 
#
# Total GULP energy -89082.167037 kJ/mol
# GULP energy per Si atom -5567.635440 kJ/mol
# Density = 1.893698 g / cm^3
# Si number density = 18.980179 Si / 1000 Ang^3
#
#
#
# Elastic Constant Matrix: (Units=GPa)
#
#
# Indices 1 2 3 4 5 6 
#
# 1 129.4108 38.4709 25.0025 -11.5914 -10.2120 -0.9612
# 2 38.4709 66.0454 22.3987 -19.9323 2.4543 -9.9966
# 3 25.0025 22.3987 49.0197 -13.7854 -3.5351 -8.7457
# 4 -11.5914 -19.9323 -13.7854 26.1421 2.6568 3.6529
# 5 -10.2120 2.4543 -3.5351 2.6568 28.6851 -1.2665
# 6 -0.9612 -9.9966 -8.7457 3.6529 -1.2665 20.4993
#
#
#
# Elastic Compliance Matrix: (Units=1/GPa)
#
#
# Indices 1 2 3 4 5 6 
#
# 1 0.010275 -0.006024 -0.003283 -0.001689 0.003778 -0.003322
# 2 -0.006024 0.025627 -0.003602 0.014474 -0.005780 0.007741
# 3 -0.003283 -0.003602 0.027963 0.009138 0.002115 0.008522
# 4 -0.001689 0.014474 0.009138 0.053802 -0.005655 0.000941
# 5 0.003778 -0.005780 0.002115 -0.005655 0.037556 0.001589
# 6 -0.003322 0.007741 0.008522 0.000941 0.001589 0.055968
#
#
# Mechanical properties :
#
#
# Convention : Reuss Voigt Hill
#
# Bulk Modulus (GPa) = 26.28431 46.24668 36.26550
# Shear Modulus (GPa) = 20.02479 25.63889 22.83184
#
# Velocity S-wave (km/s) = 3.25166 3.67934 3.47209
# Velocity P-wave (km/s) = 5.28924 6.51681 5.93485
#
# Compressibility (1/GPa) = 0.03804551
#
# Stress axis : x y z
#
# Youngs Moduli (GPa) = 97.32549 39.02174 35.76142
#
# Poissons Ratio (x) = 0.23509 0.11741
# Poissons Ratio (y) = 0.58633 0.12881
# Poissons Ratio (z) = 0.31952 0.14056
#
# Static dielectric constant tensor:
#      x y z
#    x 1.693670 -0.003990 -0.015630 
#    y -0.003990 1.625990 0.010850 
#    z -0.015630 0.010850 1.726320 
# 
# From -- ./inp_files/294448.got.cif
#   From: 2010.05.17/outbox.cif.g08.bks.cpg/sg2_148_cif.got.tgz:294448.got - 2010.06.03 11:33:40.
