data_PCOD9093245
_publ_section_title
;
Structure prediction by ZEFSAII (Michael W. Deem and Ramdas Pophale) SiO2 
 PCOD9093245
Probable space group: P -1
;
_chemical_formula_sum "Si O2"
_cell_formula_units_Z 16
_cell_length_a 13.424915
_cell_length_b 14.200475
_cell_length_c 5.266080
_cell_angle_alpha 52.659648
_cell_angle_beta 107.682781
_cell_angle_gamma 98.896096
_cell_volume 759.876360
_symmetry_space_group_name_H-M "P -1"
_symmetry_group_IT_number 2
_symmetry_cell_setting 'triclinic'
loop_
_space_group_symop_operation_xyz
x,y,z
-x,-y,-z
loop_
_atom_site_type_symbol
_atom_site_label
_atom_site_fract_x
_atom_site_fract_y
_atom_site_fract_z
Si Si1 0.250050 0.187917 0.454329
Si Si2 0.408430 0.548683 0.532235
Si Si3 0.187423 0.559922 0.141248
Si Si4 0.066497 0.613867 0.441972
Si Si5 0.142118 0.285785 0.696423
Si Si6 0.445376 0.873166 0.645608
Si Si7 0.618485 0.051354 0.027317
Si Si8 0.433953 0.322595 0.230698
O O1 0.172630 0.210331 0.593184
O O2 0.297361 0.054575 0.690224
O O3 0.352793 0.264885 0.450863
O O4 0.203856 0.235440 0.073374
O O5 0.500000 0.500000 0.500000
O O6 0.308854 0.583664 0.230902
O O7 0.462225 0.641781 0.602451
O O8 0.382041 0.439341 0.874062
O O9 0.127008 0.636140 0.190382
O O10 0.170534 0.420945 0.423637
O O11 0.142834 0.582761 0.788081
O O12 0.000000 0.500000 0.500000
O O13 0.979413 0.707925 0.325439
O O14 0.531139 0.772809 0.800095
O O15 0.500000 0.000000 0.500000
O O16 0.388445 0.860345 0.887236
O O17 0.365611 0.886878 0.329026
O O18 0.500000 0.000000 0.000000
#
# Coordination Sequence:
#
# PCOD9093245 Si02
#       8
#     2   2   2   2   2   2   2   2
#     4  12  21  33  56  82 117 151 181 229 286 344
#     4  11  26  38  56  82 120 165 206 228 267 344
#     4  11  21  37  56  74 114 152 196 236 286 328
#     4  10  21  37  55  79 105 147 195 248 287 341
#     4  11  21  33  54  81 108 145 191 231 294 343
#     4  10  20  35  54  76 110 156 187 233 281 330
#     4  10  20  32  52  79 111 148 181 223 292 338
#     4  11  24  37  54  81 121 165 198 229 275 338
#
# _framework density 21.056056000000002
#
# number of rings (size 3 to 8) (size 9 to 14) (size 15 to 20)
#    0.000    1.250    3.750    5.250    7.000    0.000 
#    0.000    0.000    0.000    0.000    0.000    0.000 
#    0.000   20.000    0.000    0.000    0.000    0.000 
#
# Total GULP energy -89381.428981 kJ/mol
# GULP energy per Si atom -5586.339311 kJ/mol
# Density = 2.100813 g / cm^3
# Si number density = 21.056056 Si / 1000 Ang^3
#
#
#
# Elastic Constant Matrix: (Units=GPa)
#
#
# Indices 1 2 3 4 5 6 
#
# 1 67.4310 29.9554 -0.0346 10.6850 14.0894 -20.9276
# 2 29.9554 84.4436 37.3918 18.4600 2.1271 -27.9539
# 3 -0.0346 37.3918 110.5168 23.4696 9.6123 -2.7276
# 4 10.6850 18.4600 23.4696 39.9742 -6.2716 -0.5632
# 5 14.0894 2.1271 9.6123 -6.2716 31.8096 8.4430
# 6 -20.9276 -27.9539 -2.7276 -0.5632 8.4430 36.6454
#
#
#
# Elastic Compliance Matrix: (Units=1/GPa)
#
#
# Indices 1 2 3 4 5 6 
#
# 1 0.029143 -0.003160 0.006342 -0.013300 -0.022458 0.019674
# 2 -0.003160 0.021898 -0.005316 -0.006528 -0.003801 0.015279
# 3 0.006342 -0.005316 0.013490 -0.008517 -0.008868 0.002483
# 4 -0.013300 -0.006528 -0.008517 0.039693 0.021378 -0.017524
# 5 -0.022458 -0.003801 -0.008868 0.021378 0.056234 -0.029012
# 6 0.019674 0.015279 0.002483 -0.017524 -0.029012 0.056779
#
#
# Mechanical properties :
#
#
# Convention : Reuss Voigt Hill
#
# Bulk Modulus (GPa) = 16.59418 44.11296 30.35357
# Shear Modulus (GPa) = 20.69591 34.69107 27.69349
#
# Velocity S-wave (km/s) = 3.13852 4.06342 3.63054
# Velocity P-wave (km/s) = 4.58604 6.55827 5.65874
#
# Compressibility (1/GPa) = 0.06026211
#
# Stress axis : x y z
#
# Youngs Moduli (GPa) = 34.31351 45.66671 74.12775
#
# Poissons Ratio (x) = 0.14431 -0.47009
# Poissons Ratio (y) = 0.10843 0.39406
# Poissons Ratio (z) = -0.21760 0.24276
#
# Static dielectric constant tensor:
#      x y z
#    x 1.756070 -0.036940 -0.011800 
#    y -0.036940 1.796350 0.035430 
#    z -0.011800 0.035430 1.841330 
# 
# From -- ./inp_files/77225.got.cif
#   From: 2010.05.17/outbox.cif.g08.bks.cpg/sg2_39_cif.got.tgz:77225.got - 2010.06.03 11:33:40.
