data_PCOD9093147
_publ_section_title
;
Structure prediction by ZEFSAII (Michael W. Deem and Ramdas Pophale) SiO2 
 PCOD9093147
Probable space group: P -1
;
_chemical_formula_sum "Si O2"
_cell_formula_units_Z 16
_cell_length_a 15.501193
_cell_length_b 11.142630
_cell_length_c 6.903538
_cell_angle_alpha 138.497304
_cell_angle_beta 98.091421
_cell_angle_gamma 62.874778
_cell_volume 661.271149
_symmetry_space_group_name_H-M "P -1"
_symmetry_group_IT_number 2
_symmetry_cell_setting 'triclinic'
loop_
_space_group_symop_operation_xyz
x,y,z
-x,-y,-z
loop_
_atom_site_type_symbol
_atom_site_label
_atom_site_fract_x
_atom_site_fract_y
_atom_site_fract_z
Si Si1 0.275814 0.824289 0.173744
Si Si2 0.519081 0.270060 0.793111
Si Si3 0.713333 0.558388 0.131333
Si Si4 0.241804 0.933272 0.762122
Si Si5 0.601811 0.940569 0.071927
Si Si6 0.226730 0.552026 0.401204
Si Si7 0.081102 0.403552 0.192870
Si Si8 0.142689 0.286614 0.616238
O O1 0.384480 0.796881 0.116356
O O2 0.265578 0.865292 0.457506
O O3 0.181009 0.038500 0.314950
O O4 0.277428 0.605277 0.899748
O O5 0.402772 0.326888 0.850136
O O6 0.564239 0.074057 0.420651
O O7 0.500000 0.500000 0.000000
O O8 0.758710 0.697844 0.382248
O O9 0.785400 0.437226 0.824435
O O10 0.241976 0.749926 0.665358
O O11 0.331674 0.972288 0.894492
O O12 0.137735 0.167532 0.018517
O O13 0.675686 0.685127 0.808996
O O14 0.500000 0.000000 0.000000
O O15 0.131017 0.541098 0.436280
O O16 0.958287 0.546912 0.332990
O O17 0.112677 0.345140 0.904262
#
# Coordination Sequence:
#
# PCOD9093147 Si02
#       8
#     2   2   2   2   2   2   2   2
#     4   8  15  25  38  59  88 118 148 180 219 270
#     4   9  17  31  48  66  95 129 152 182 229 275
#     4   9  16  26  42  63  87 119 152 183 224 272
#     4   8  15  29  43  60  87 118 150 184 225 271
#     4  10  20  32  47  70  96 120 153 193 225 265
#     4   9  17  29  46  64  88 123 156 186 228 275
#     4   8  15  25  38  60  90 121 148 183 231 275
#     4   9  15  23  37  61  91 117 148 188 227 266
#
# _framework density 24.195824999999999
#
# number of rings (size 3 to 8) (size 9 to 14) (size 15 to 20)
#    0.000    3.250    0.000    3.000    0.000    3.500 
#    0.000    5.000    0.000    0.000    0.000    3.500 
#    0.000   18.000    0.000    0.000    0.000    0.000 
#
# Total GULP energy -89248.604309 kJ/mol
# GULP energy per Si atom -5578.037769 kJ/mol
# Density = 2.414075 g / cm^3
# Si number density = 24.195825 Si / 1000 Ang^3
#
#
#
# Elastic Constant Matrix: (Units=GPa)
#
#
# Indices 1 2 3 4 5 6 
#
# 1 124.9694 41.3049 57.6600 33.3684 19.9420 -3.3126
# 2 41.3049 95.7336 28.7138 36.2499 16.7722 11.2478
# 3 57.6600 28.7138 128.2800 29.9987 27.8417 14.2672
# 4 33.3684 36.2499 29.9987 40.8768 11.2948 -8.2246
# 5 19.9420 16.7722 27.8417 11.2948 36.8133 2.0077
# 6 -3.3126 11.2478 14.2672 -8.2246 2.0077 27.4399
#
#
#
# Elastic Compliance Matrix: (Units=1/GPa)
#
#
# Indices 1 2 3 4 5 6 
#
# 1 0.012060 -0.003199 -0.004292 -0.002648 -0.001252 0.004297
# 2 -0.003199 0.021962 0.004804 -0.023061 -0.003821 -0.018519
# 3 -0.004292 0.004804 0.014309 -0.012174 -0.006234 -0.013120
# 4 -0.002648 -0.023061 -0.012174 0.062925 -0.000030 0.034326
# 5 -0.001252 -0.003821 -0.006234 -0.000030 0.034190 0.002146
# 6 0.004297 -0.018519 -0.013120 0.034326 0.002146 0.061506
#
#
# Mechanical properties :
#
#
# Convention : Reuss Voigt Hill
#
# Bulk Modulus (GPa) = 23.27931 67.14893 45.21412
# Shear Modulus (GPa) = 22.06090 35.77963 28.92026
#
# Velocity S-wave (km/s) = 3.02282 3.84963 3.46100
# Velocity P-wave (km/s) = 4.67176 6.89725 5.89056
#
# Compressibility (1/GPa) = 0.04295661
#
# Stress axis : x y z
#
# Youngs Moduli (GPa) = 82.91757 45.53266 69.88805
#
# Poissons Ratio (x) = 0.14566 0.29994
# Poissons Ratio (y) = 0.26526 -0.33572
# Poissons Ratio (z) = 0.35586 -0.21872
#
# Static dielectric constant tensor:
#      x y z
#    x 1.959930 0.046070 0.013540 
#    y 0.046070 2.004070 -0.097780 
#    z 0.013540 -0.097780 1.999620 
# 
# From -- ./inp_files/454217.got.cif
#   From: 2010.05.17/outbox.cif.g08.bks.cpg/sg2_228_cif.got.tgz:454217.got - 2010.06.03 11:33:40.
