data_PCOD9093267
_publ_section_title
;
Structure prediction by ZEFSAII (Michael W. Deem and Ramdas Pophale) SiO2 
 PCOD9093267
Probable space group: P -1
;
_chemical_formula_sum "Si O2"
_cell_formula_units_Z 14
_cell_length_a 8.032088
_cell_length_b 8.681464
_cell_length_c 8.111097
_cell_angle_alpha 77.213579
_cell_angle_beta 62.871911
_cell_angle_gamma 78.326594
_cell_volume 487.522902
_symmetry_space_group_name_H-M "P -1"
_symmetry_group_IT_number 2
_symmetry_cell_setting 'triclinic'
loop_
_space_group_symop_operation_xyz
x,y,z
-x,-y,-z
loop_
_atom_site_type_symbol
_atom_site_label
_atom_site_fract_x
_atom_site_fract_y
_atom_site_fract_z
Si Si1 0.457947 0.312693 0.895961
Si Si2 0.181755 0.212972 0.757149
Si Si3 0.893751 0.472464 0.881117
Si Si4 0.031094 0.231290 0.370956
Si Si5 0.279843 0.934142 0.293552
Si Si6 0.417962 0.415841 0.395485
Si Si7 0.282019 0.861893 0.680030
O O1 0.310362 0.264693 0.835630
O O2 0.592936 0.147096 0.889587
O O3 0.612246 0.425717 0.734938
O O4 0.316388 0.437670 0.031378
O O5 0.257866 0.308571 0.544413
O O6 0.965995 0.288775 0.859748
O O7 0.228136 0.025742 0.757766
O O8 0.973005 0.581665 0.677168
O O9 0.000000 0.500000 0.000000
O O10 0.918085 0.144720 0.582099
O O11 0.910816 0.201212 0.269329
O O12 0.227287 0.123277 0.272537
O O13 0.363821 0.896875 0.449972
O O14 0.500000 0.500000 0.500000
O O15 0.579065 0.284555 0.278992
#
# Coordination Sequence:
#
# PCOD9093267 Si02
#       7
#     2   2   2   2   2   2   2
#     4  10  19  32  50  77  99 136 169 197 251 301
#     4  10  18  30  52  76 105 124 164 220 249 286
#     4  10  20  33  51  74 103 135 169 199 247 306
#     4   9  18  35  53  75  96 136 171 199 247 302
#     4   9  18  32  57  71 100 129 174 205 243 295
#     4  10  16  29  52  74  99 127 164 208 244 294
#     4  10  17  30  54  78 101 121 170 219 250 277
#
# _framework density 28.716601000000001
#
# number of rings (size 3 to 8) (size 9 to 14) (size 15 to 20)
#    0.857    1.429    2.857    3.857    0.000    0.571 
#    0.000    7.143    0.000    0.857    0.000    0.000 
#    0.000    0.000    0.000    0.000    0.000    0.000 
#
# Total GULP energy -78183.391341 kJ/mol
# GULP energy per Si atom -5584.527953 kJ/mol
# Density = 2.865124 g / cm^3
# Si number density = 28.716601 Si / 1000 Ang^3
#
#
#
# Elastic Constant Matrix: (Units=GPa)
#
#
# Indices 1 2 3 4 5 6 
#
# 1 64.7737 30.3768 19.8503 21.1587 -0.4206 -1.6704
# 2 30.3768 219.4346 56.9858 41.4523 -22.9727 -29.4611
# 3 19.8503 56.9858 63.4487 32.8249 -7.4222 2.3971
# 4 21.1587 41.4523 32.8249 68.5678 -10.3558 -7.6434
# 5 -0.4206 -22.9727 -7.4222 -10.3558 37.1965 15.3728
# 6 -1.6704 -29.4611 2.3971 -7.6434 15.3728 46.0663
#
#
#
# Elastic Compliance Matrix: (Units=1/GPa)
#
#
# Indices 1 2 3 4 5 6 
#
# 1 0.018133 -0.001280 -0.002826 -0.003796 -0.002251 0.000107
# 2 -0.001280 0.006988 -0.005642 -0.000462 0.001310 0.004203
# 3 -0.002826 -0.005642 0.026981 -0.009098 0.002403 -0.007427
# 4 -0.003796 -0.000462 -0.009098 0.021084 0.002626 0.002662
# 5 -0.002251 0.001310 0.002403 0.002626 0.032987 -0.009941
# 6 0.000107 0.004203 -0.007427 0.002662 -0.009941 0.028545
#
#
# Mechanical properties :
#
#
# Convention : Reuss Voigt Hill
#
# Bulk Modulus (GPa) = 30.67047 62.45366 46.56206
# Shear Modulus (GPa) = 30.28732 46.39572 38.34152
#
# Velocity S-wave (km/s) = 3.25113 4.02386 3.65796
# Velocity P-wave (km/s) = 4.97963 6.58666 5.83870
#
# Compressibility (1/GPa) = 0.03260466
#
# Stress axis : x y z
#
# Youngs Moduli (GPa) = 55.14727 143.09386 37.06273
#
# Poissons Ratio (x) = 0.18321 0.10476
# Poissons Ratio (y) = 0.07061 0.20912
# Poissons Ratio (z) = 0.15587 0.80739
#
# Static dielectric constant tensor:
#      x y z
#    x 2.318480 0.033040 0.002360 
#    y 0.033040 2.135140 -0.035680 
#    z 0.002360 -0.035680 2.391080 
# 
# From -- ./inp_files/302535.got.cif
#   From: 2010.05.17/outbox.cif.g08.bks.cpg/sg2_152_cif.got.tgz:302535.got - 2010.06.03 11:33:40.
