data_PCOD9093338
_publ_section_title
;
Structure prediction by ZEFSAII (Michael W. Deem and Ramdas Pophale) SiO2 
 PCOD9093338
Probable space group: P -1
;
_chemical_formula_sum "Si O2"
_cell_formula_units_Z 16
_cell_length_a 5.445710
_cell_length_b 4.938009
_cell_length_c 24.715755
_cell_angle_alpha 120.906942
_cell_angle_beta 91.503744
_cell_angle_gamma 84.782751
_cell_volume 567.729318
_symmetry_space_group_name_H-M "P -1"
_symmetry_group_IT_number 2
_symmetry_cell_setting 'triclinic'
loop_
_space_group_symop_operation_xyz
x,y,z
-x,-y,-z
loop_
_atom_site_type_symbol
_atom_site_label
_atom_site_fract_x
_atom_site_fract_y
_atom_site_fract_z
Si Si1 0.849059 0.119073 0.957560
Si Si2 0.060973 0.772546 0.600857
Si Si3 0.542090 0.624833 0.373189
Si Si4 0.183688 0.087347 0.285053
Si Si5 0.234229 0.519098 0.745473
Si Si6 0.331173 0.207875 0.929536
Si Si7 0.764363 0.238205 0.511329
Si Si8 0.422191 0.187559 0.811110
O O1 0.578880 0.003479 0.931243
O O2 0.066965 0.057299 0.908239
O O3 0.753981 0.491603 0.002112
O O4 0.000000 0.000000 0.000000
O O5 0.200125 0.517445 0.614762
O O6 0.258424 0.819799 0.559344
O O7 0.938134 0.017197 0.669369
O O8 0.843162 0.597695 0.553270
O O9 0.375316 0.333601 0.331656
O O10 0.616427 0.711649 0.321556
O O11 0.411426 0.798485 0.442173
O O12 0.000342 0.296019 0.265609
O O13 0.328391 0.816474 0.222383
O O14 0.219600 0.335136 0.782637
O O15 0.394377 0.819140 0.786527
O O16 0.400576 0.339237 0.885047
O O17 0.000000 0.000000 0.500000
#
# Coordination Sequence:
#
# PCOD9093338 Si02
#       8
#     2   2   2   2   2   2   2   2
#     4  10  22  45  69 102 145 187 231 289 349 408
#     4   9  19  38  55  79 121 152 208 262 331 399
#     4   9  19  40  56  83 119 160 211 265 334 401
#     4   9  21  42  62  89 124 171 213 278 333 408
#     4  10  24  44  64  95 130 176 222 279 341 398
#     4  10  24  41  68 107 138 187 238 286 346 416
#     4  10  20  32  56  85 110 157 201 266 329 396
#     4  11  25  42  68  99 132 176 228 276 335 403
#
# _framework density 28.182441000000001
#
# number of rings (size 3 to 8) (size 9 to 14) (size 15 to 20)
#    0.000    2.250    0.000    0.750    5.250    2.500 
#   18.000    0.000    0.000    0.000    0.000    0.000 
#    0.000    0.000    0.000    0.000    0.000    0.000 
#
# Total GULP energy -89372.812984 kJ/mol
# GULP energy per Si atom -5585.800811 kJ/mol
# Density = 2.811830 g / cm^3
# Si number density = 28.182441 Si / 1000 Ang^3
#
#
#
# Elastic Constant Matrix: (Units=GPa)
#
#
# Indices 1 2 3 4 5 6 
#
# 1 149.2197 34.7097 51.7681 -4.5486 -34.4994 -13.9537
# 2 34.7097 109.9465 30.2224 -23.7066 -2.2992 -10.3143
# 3 51.7681 30.2224 157.4146 -30.6702 -33.7663 4.5355
# 4 -4.5486 -23.7066 -30.6702 40.5715 0.2699 -4.9030
# 5 -34.4994 -2.2992 -33.7663 0.2699 47.3113 -7.8987
# 6 -13.9537 -10.3143 4.5355 -4.9030 -7.8987 44.2555
#
#
#
# Elastic Compliance Matrix: (Units=1/GPa)
#
#
# Indices 1 2 3 4 5 6 
#
# 1 0.009592 -0.002343 -0.001688 -0.001172 0.006290 0.003644
# 2 -0.002343 0.011575 -0.000515 0.006423 -0.001129 0.002522
# 3 -0.001688 -0.000515 0.009476 0.006648 0.005484 0.000092
# 4 -0.001172 0.006423 0.006648 0.033875 0.004855 0.005066
# 5 0.006290 -0.001129 0.005484 0.004855 0.030755 0.007185
# 6 0.003644 0.002522 0.000092 0.005066 0.007185 0.026167
#
#
# Mechanical properties :
#
#
# Convention : Reuss Voigt Hill
#
# Bulk Modulus (GPa) = 46.40649 72.22012 59.31330
# Shear Modulus (GPa) = 36.30691 46.41968 41.36330
#
# Velocity S-wave (km/s) = 3.59316 4.06287 3.83521
# Velocity P-wave (km/s) = 5.80660 6.90585 6.37994
#
# Compressibility (1/GPa) = 0.02154871
#
# Stress axis : x y z
#
# Youngs Moduli (GPa) = 104.25639 86.39601 105.53311
#
# Poissons Ratio (x) = 0.20244 0.17819
# Poissons Ratio (y) = 0.24429 0.05435
# Poissons Ratio (z) = 0.17603 0.04450
#
# Static dielectric constant tensor:
#      x y z
#    x 2.425010 0.119480 0.005670 
#    y 0.119480 2.217200 0.033170 
#    z 0.005670 0.033170 2.238300 
# 
# From -- ./inp_files/13481.got.cif
#   From: 2010.05.17/outbox.cif.g08.bks.cpg/sg2_7_cif.got.tgz:13481.got - 2010.06.03 11:33:40.
