data_PCOD9093515
_publ_section_title
;
Structure prediction by ZEFSAII (Michael W. Deem and Ramdas Pophale) SiO2 
 PCOD9093515
Probable space group: P -1
;
_chemical_formula_sum "Si O2"
_cell_formula_units_Z 12
_cell_length_a 5.472238
_cell_length_b 11.409117
_cell_length_c 11.950832
_cell_angle_alpha 81.109167
_cell_angle_beta 100.616950
_cell_angle_gamma 115.124541
_cell_volume 661.526078
_symmetry_space_group_name_H-M "P -1"
_symmetry_group_IT_number 2
_symmetry_cell_setting 'triclinic'
loop_
_space_group_symop_operation_xyz
x,y,z
-x,-y,-z
loop_
_atom_site_type_symbol
_atom_site_label
_atom_site_fract_x
_atom_site_fract_y
_atom_site_fract_z
Si Si1 0.175953 0.304329 0.803513
Si Si2 0.930464 0.492132 0.365522
Si Si3 0.611397 0.097428 0.101361
Si Si4 0.355538 0.449545 0.254703
Si Si5 0.037668 0.996542 0.139464
Si Si6 0.979578 0.637215 0.973580
O O1 0.013558 0.365555 0.702146
O O2 0.487387 0.396369 0.785529
O O3 0.085107 0.151917 0.809398
O O4 0.124227 0.333494 0.922172
O O5 0.604423 0.418924 0.327232
O O6 0.886547 0.565442 0.678960
O O7 0.000000 0.500000 0.500000
O O8 0.733786 0.244979 0.047858
O O9 0.362204 0.063708 0.169526
O O10 0.866096 0.069038 0.168103
O O11 0.500000 0.000000 0.000000
O O12 0.230231 0.374824 0.141654
O O13 0.000000 0.000000 0.000000
O O14 0.000000 0.500000 0.000000
#
# Coordination Sequence:
#
# PCOD9093515 Si02
#       6
#     2   2   2   2   2   2
#     4  10  22  33  59  84 122 146 189 229 297 334
#     4  10  22  39  56  82 115 150 201 242 282 335
#     4  10  22  34  51  75 121 158 186 216 268 358
#     4  10  23  34  57  86 116 149 182 240 305 327
#     4  10  20  33  52  75 116 152 192 218 267 347
#     4  12  21  36  57  91 130 148 183 236 302 358
#
# _framework density 18.139873999999999
#
# number of rings (size 3 to 8) (size 9 to 14) (size 15 to 20)
#    1.000    0.667    5.000    1.000    7.000    2.667 
#    0.000    0.000    0.000    0.000    0.000    7.000 
#    0.000    0.000    0.000    0.000    0.000    0.000 
#
# Total GULP energy -66865.783608 kJ/mol
# GULP energy per Si atom -5572.148634 kJ/mol
# Density = 1.809859 g / cm^3
# Si number density = 18.139874 Si / 1000 Ang^3
#
#
#
# Elastic Constant Matrix: (Units=GPa)
#
#
# Indices 1 2 3 4 5 6 
#
# 1 139.4667 29.5417 31.2034 -0.5132 -1.3090 9.4556
# 2 29.5417 96.0191 15.9565 -4.0462 4.9450 3.5508
# 3 31.2034 15.9565 104.4798 1.7934 8.6695 5.8050
# 4 -0.5132 -4.0462 1.7934 7.1831 4.9344 2.7529
# 5 -1.3090 4.9450 8.6695 4.9344 18.2297 3.0971
# 6 9.4556 3.5508 5.8050 2.7529 3.0971 22.6811
#
#
#
# Elastic Compliance Matrix: (Units=1/GPa)
#
#
# Indices 1 2 3 4 5 6 
#
# 1 0.008375 -0.002311 -0.002227 -0.001181 0.003089 -0.002838
# 2 -0.002311 0.012092 -0.000787 0.011424 -0.005942 -0.001303
# 3 -0.002227 -0.000787 0.010828 0.000599 -0.005071 -0.001100
# 4 -0.001181 0.011424 0.000599 0.187181 -0.051216 -0.017175
# 5 0.003089 -0.005942 -0.005071 -0.051216 0.073452 -0.002873
# 6 -0.002838 -0.001303 -0.001100 -0.017175 -0.002873 0.048235
#
#
# Mechanical properties :
#
#
# Convention : Reuss Voigt Hill
#
# Bulk Modulus (GPa) = 48.43562 54.81878 51.62720
# Shear Modulus (GPa) = 13.97844 27.16972 20.57408
#
# Velocity S-wave (km/s) = 2.77896 3.87433 3.37143
# Velocity P-wave (km/s) = 6.08737 7.09222 6.60892
#
# Compressibility (1/GPa) = 0.02064596
#
# Stress axis : x y z
#
# Youngs Moduli (GPa) = 119.40533 82.69970 92.35237
#
# Poissons Ratio (x) = 0.19108 0.20564
# Poissons Ratio (y) = 0.27589 0.07271
# Poissons Ratio (z) = 0.26588 0.06511
#
# Static dielectric constant tensor:
#      x y z
#    x 1.697160 0.010460 0.021240 
#    y 0.010460 1.639950 -0.013700 
#    z 0.021240 -0.013700 1.585080 
# 
# From -- ./inp_files/361267.got.cif
#   From: 2010.05.17/outbox.cif.g08.bks.cpg/sg2_181_cif.got.tgz:361267.got - 2010.06.03 11:33:40.
