data_PCOD9093876
_publ_section_title
;
Structure prediction by ZEFSAII (Michael W. Deem and Ramdas Pophale) SiO2 
 PCOD9093876
Probable space group: P -1
;
_chemical_formula_sum "Si O2"
_cell_formula_units_Z 14
_cell_length_a 14.291504
_cell_length_b 24.074764
_cell_length_c 21.090772
_cell_angle_alpha 13.979695
_cell_angle_beta 18.626751
_cell_angle_gamma 25.046279
_cell_volume 551.173690
_symmetry_space_group_name_H-M "P -1"
_symmetry_group_IT_number 2
_symmetry_cell_setting 'triclinic'
loop_
_space_group_symop_operation_xyz
x,y,z
-x,-y,-z
loop_
_atom_site_type_symbol
_atom_site_label
_atom_site_fract_x
_atom_site_fract_y
_atom_site_fract_z
Si Si1 0.196068 0.568850 0.709483
Si Si2 0.301714 0.141325 0.303263
Si Si3 0.040328 0.662540 0.059456
Si Si4 0.437571 0.754472 0.223485
Si Si5 0.386502 0.255338 0.648684
Si Si6 0.398289 0.083741 0.538711
Si Si7 0.799987 0.998014 0.066320
O O1 0.416234 0.737417 0.332290
O O2 0.271858 0.325356 0.905581
O O3 0.883382 0.651809 0.809816
O O4 0.320782 0.601928 0.663902
O O5 0.532785 0.131689 0.222890
O O6 0.513710 0.112975 0.138838
O O7 0.066900 0.902840 0.734500
O O8 0.390688 0.689345 0.819124
O O9 0.884539 0.679943 0.208214
O O10 0.854133 0.438053 0.394703
O O11 0.411579 0.996355 0.942071
O O12 0.326202 0.238349 0.630894
O O13 0.500000 0.000000 0.500000
O O14 0.061417 0.119032 0.718203
O O15 0.000000 0.000000 0.000000
#
# Coordination Sequence:
#
# PCOD9093876 Si02
#       7
#     2   2   2   2   2   2   2
#     4  10  21  34  59  87 119 152 186 241 289 341
#     4   9  19  34  56  84 115 153 191 226 297 336
#     4   9  19  33  60  87 113 147 192 238 288 331
#     4  10  20  33  59  92 117 142 195 244 283 337
#     4  11  20  36  61  89 115 150 196 234 286 342
#     4   9  16  33  60  85 106 148 198 237 276 334
#     4  10  20  36  63  84 112 159 194 231 287 347
#
# _framework density 25.400341000000001
#
# number of rings (size 3 to 8) (size 9 to 14) (size 15 to 20)
#    0.857    1.429    2.857    0.429    4.000    0.571 
#    0.000    1.429    6.286    4.286    0.000    0.000 
#    0.000    0.000    0.000    0.000    0.000    0.000 
#
# Total GULP energy -78015.541182 kJ/mol
# GULP energy per Si atom -5572.538656 kJ/mol
# Density = 2.534253 g / cm^3
# Si number density = 25.400341 Si / 1000 Ang^3
#
#
#
# Elastic Constant Matrix: (Units=GPa)
#
#
# Indices 1 2 3 4 5 6 
#
# 1 122.4525 41.6498 15.0810 -3.1039 -12.5091 16.9541
# 2 41.6498 134.1829 37.4018 42.1316 -10.7709 9.0242
# 3 15.0810 37.4018 65.2133 18.8246 -8.8186 1.3012
# 4 -3.1039 42.1316 18.8246 39.9074 -4.0750 -7.2607
# 5 -12.5091 -10.7709 -8.8186 -4.0750 36.6295 -6.0669
# 6 16.9541 9.0242 1.3012 -7.2607 -6.0669 40.7384
#
#
#
# Elastic Compliance Matrix: (Units=1/GPa)
#
#
# Indices 1 2 3 4 5 6 
#
# 1 0.010503 -0.004494 -0.001242 0.006036 0.002321 -0.001914
# 2 -0.004494 0.014709 -0.002952 -0.015253 -0.000289 -0.004055
# 3 -0.001242 -0.002952 0.019373 -0.005859 0.002706 -0.000089
# 4 0.006036 -0.015253 -0.005859 0.046475 0.002955 0.009777
# 5 0.002321 -0.000289 0.002706 0.002955 0.029643 0.003953
# 6 -0.001914 -0.004055 -0.000089 0.009777 0.003953 0.028576
#
#
# Mechanical properties :
#
#
# Convention : Reuss Voigt Hill
#
# Bulk Modulus (GPa) = 36.75116 56.67932 46.71524
# Shear Modulus (GPa) = 28.45347 38.63612 33.54480
#
# Velocity S-wave (km/s) = 3.35057 3.90434 3.63801
# Velocity P-wave (km/s) = 5.42850 6.53361 6.00652
#
# Compressibility (1/GPa) = 0.02721003
#
# Stress axis : x y z
#
# Youngs Moduli (GPa) = 95.20986 67.98457 51.61752
#
# Poissons Ratio (x) = 0.30553 0.06409
# Poissons Ratio (y) = 0.42789 0.15237
# Poissons Ratio (z) = 0.11822 0.20068
#
# Static dielectric constant tensor:
#      x y z
#    x 2.112500 0.026350 0.019010 
#    y 0.026350 2.031610 -0.013200 
#    z 0.019010 -0.013200 2.117470 
# 
# From -- ./inp_files/598387.got.cif
#   From: 2010.05.17/outbox.cif.g08.bks.cpg/sg2_300_cif.got.tgz:598387.got - 2010.06.03 11:33:40.
