data_PCOD9093639
_publ_section_title
;
Structure prediction by ZEFSAII (Michael W. Deem and Ramdas Pophale) SiO2 
 PCOD9093639
Probable space group: P -1
;
_chemical_formula_sum "Si O2"
_cell_formula_units_Z 14
_cell_length_a 12.877560
_cell_length_b 9.074991
_cell_length_c 10.238989
_cell_angle_alpha 58.948738
_cell_angle_beta 111.679125
_cell_angle_gamma 64.756330
_cell_volume 601.965128
_symmetry_space_group_name_H-M "P -1"
_symmetry_group_IT_number 2
_symmetry_cell_setting 'triclinic'
loop_
_space_group_symop_operation_xyz
x,y,z
-x,-y,-z
loop_
_atom_site_type_symbol
_atom_site_label
_atom_site_fract_x
_atom_site_fract_y
_atom_site_fract_z
Si Si1 0.212374 0.189771 0.586848
Si Si2 0.178062 0.874625 0.794819
Si Si3 0.709700 0.826197 0.637869
Si Si4 0.750054 0.179073 0.739677
Si Si5 0.845511 0.809807 0.166956
Si Si6 0.011958 0.755718 0.850880
Si Si7 0.558960 0.584434 0.673513
O O1 0.316417 0.162292 0.535000
O O2 0.260733 0.154372 0.779663
O O3 0.009111 0.497854 0.343377
O O4 0.224894 0.968247 0.672726
O O5 0.062630 0.843486 0.731444
O O6 0.085233 0.105511 0.758203
O O7 0.355702 0.592015 0.075221
O O8 0.865681 0.788494 0.733130
O O9 0.539584 0.118142 0.489494
O O10 0.808149 0.555569 0.881954
O O11 0.706618 0.387949 0.719401
O O12 0.595876 0.353972 0.481078
O O13 0.930888 0.948970 0.850955
O O14 0.745966 0.011529 0.906155
#
# Coordination Sequence:
#
# PCOD9093639 Si02
#       7
#     2   2   2   2   2   2   2
#     4   9  17  33  52  76 105 133 171 207 254 303
#     4   9  19  33  51  82 102 129 174 214 250 298
#     4  10  20  34  52  76 104 141 166 206 258 312
#     4   9  16  34  53  76 101 136 171 209 244 315
#     4   8  16  31  51  78  98 135 169 209 247 297
#     4  10  20  33  55  78 100 133 181 209 247 295
#     4   9  19  31  51  79 105 133 164 211 264 294
#
# _framework density 23.257162000000001
#
# number of rings (size 3 to 8) (size 9 to 14) (size 15 to 20)
#    0.857    2.000    1.429    0.000    0.000    4.000 
#    0.000    0.000    0.000    0.000    0.000    8.000 
#    0.000    0.000    0.000    0.000    0.000    0.000 
#
# Total GULP energy -77956.920129 kJ/mol
# GULP energy per Si atom -5568.351438 kJ/mol
# Density = 2.320423 g / cm^3
# Si number density = 23.257162 Si / 1000 Ang^3
#
#
#
# Elastic Constant Matrix: (Units=GPa)
#
#
# Indices 1 2 3 4 5 6 
#
# 1 51.5567 7.7798 40.6024 -5.6128 -22.1642 -0.0942
# 2 7.7798 75.9226 33.9417 -24.4536 -13.9619 -16.8943
# 3 40.6024 33.9417 117.1436 -21.5305 -20.4629 -4.5206
# 4 -5.6128 -24.4536 -21.5305 37.5204 3.6478 -6.5698
# 5 -22.1642 -13.9619 -20.4629 3.6478 44.8634 2.9263
# 6 -0.0942 -16.8943 -4.5206 -6.5698 2.9263 32.6202
#
#
#
# Elastic Compliance Matrix: (Units=1/GPa)
#
#
# Indices 1 2 3 4 5 6 
#
# 1 0.032024 0.003214 -0.009929 -0.000146 0.012354 -0.000757
# 2 0.003214 0.023782 -0.003619 0.015963 0.005089 0.014583
# 3 -0.009929 -0.003619 0.013819 0.004253 -0.000132 0.000880
# 4 -0.000146 0.015963 0.004253 0.042258 0.002280 0.017162
# 5 0.012354 0.005089 -0.000132 0.002280 0.029702 0.000448
# 6 -0.000757 0.014583 0.000880 0.017162 0.000448 0.041745
#
#
# Mechanical properties :
#
#
# Convention : Reuss Voigt Hill
#
# Bulk Modulus (GPa) = 20.42618 45.47453 32.95036
# Shear Modulus (GPa) = 22.69451 33.82072 28.25761
#
# Velocity S-wave (km/s) = 3.12718 3.81754 3.48948
# Velocity P-wave (km/s) = 4.67342 6.24715 5.51669
#
# Compressibility (1/GPa) = 0.04895677
#
# Stress axis : x y z
#
# Youngs Moduli (GPa) = 31.22650 42.04841 72.36326
#
# Poissons Ratio (x) = -0.13513 0.71849
# Poissons Ratio (y) = -0.10035 0.26188
# Poissons Ratio (z) = 0.31004 0.15217
#
# Static dielectric constant tensor:
#      x y z
#    x 1.957930 0.033640 0.008080 
#    y 0.033640 1.909520 0.020130 
#    z 0.008080 0.020130 1.857830 
# 
# From -- ./inp_files/449780.got.cif
#   From: 2010.05.17/outbox.cif.g08.bks.cpg/sg2_225_cif.got.tgz:449780.got - 2010.06.03 11:33:40.
