data_PCOD9093581
_publ_section_title
;
Structure prediction by ZEFSAII (Michael W. Deem and Ramdas Pophale) SiO2 
 PCOD9093581
Probable space group: P -1
;
_chemical_formula_sum "Si O2"
_cell_formula_units_Z 16
_cell_length_a 19.834056
_cell_length_b 8.987412
_cell_length_c 23.629786
_cell_angle_alpha 152.937787
_cell_angle_beta 21.605661
_cell_angle_gamma 152.974398
_cell_volume 654.078491
_symmetry_space_group_name_H-M "P -1"
_symmetry_group_IT_number 2
_symmetry_cell_setting 'triclinic'
loop_
_space_group_symop_operation_xyz
x,y,z
-x,-y,-z
loop_
_atom_site_type_symbol
_atom_site_label
_atom_site_fract_x
_atom_site_fract_y
_atom_site_fract_z
Si Si1 0.762296 0.305854 0.943305
Si Si2 0.349657 0.831480 0.885917
Si Si3 0.184165 0.345888 0.655325
Si Si4 0.144607 0.406431 0.529382
Si Si5 0.270145 0.710775 0.319834
Si Si6 0.417293 0.449343 0.226448
Si Si7 0.456501 0.677013 0.466967
Si Si8 0.995980 0.933072 0.767107
O O1 0.995578 0.437960 0.815423
O O2 0.691467 0.968872 0.843322
O O3 0.670542 0.183230 0.035627
O O4 0.648758 0.545878 0.089847
O O5 0.373065 0.476135 0.726080
O O6 0.555226 0.126058 0.806293
O O7 0.165042 0.911834 0.034139
O O8 0.384682 0.652084 0.579527
O O9 0.180379 0.989237 0.506469
O O10 0.155592 0.235412 0.706380
O O11 0.307637 0.508334 0.386992
O O12 0.255579 0.428076 0.508483
O O13 0.052476 0.705306 0.693530
O O14 0.000000 0.000000 0.500000
O O15 0.370870 0.625792 0.267555
O O16 0.113138 0.369753 0.297450
O O17 0.500000 0.000000 0.500000
#
# Coordination Sequence:
#
# PCOD9093581 Si02
#       8
#     2   2   2   2   2   2   2   2
#     4  10  20  33  53  88 127 156 198 246 302 358
#     4  10  21  37  58  87 120 166 207 248 302 367
#     4  10  20  38  58  83 116 167 202 246 303 367
#     4  12  24  38  64  97 128 160 207 253 306 365
#     4  11  19  32  55  87 130 163 192 240 313 364
#     4  11  20  31  54  87 131 158 192 244 307 357
#     4  11  25  46  65  85 123 166 208 255 315 369
#     4  11  21  34  59  91 126 156 208 251 303 362
#
# _framework density 24.461895999999999
#
# number of rings (size 3 to 8) (size 9 to 14) (size 15 to 20)
#    0.000    1.250    5.000    3.750    0.000    2.000 
#    0.000    3.750    0.000    0.000    0.000    0.000 
#    0.000    0.000    0.000    0.000    0.000    0.000 
#
# Total GULP energy -89465.720868 kJ/mol
# GULP energy per Si atom -5591.607554 kJ/mol
# Density = 2.440622 g / cm^3
# Si number density = 24.461896 Si / 1000 Ang^3
#
#
#
# Elastic Constant Matrix: (Units=GPa)
#
#
# Indices 1 2 3 4 5 6 
#
# 1 80.8682 0.5990 33.6459 10.0894 -22.0622 -5.4808
# 2 0.5990 86.8739 27.9452 -5.1355 -2.1763 -18.2704
# 3 33.6459 27.9452 135.5915 -5.4379 -28.7313 -21.2798
# 4 10.0894 -5.1355 -5.4379 33.1704 -22.1152 -2.9335
# 5 -22.0622 -2.1763 -28.7313 -22.1152 44.6207 0.2251
# 6 -5.4808 -18.2704 -21.2798 -2.9335 0.2251 28.1523
#
#
#
# Elastic Compliance Matrix: (Units=1/GPa)
#
#
# Indices 1 2 3 4 5 6 
#
# 1 0.015157 0.001125 -0.002742 -0.001357 0.005104 0.001426
# 2 0.001125 0.014035 -0.001052 0.004174 0.002587 0.008946
# 3 -0.002742 -0.001052 0.013117 0.012480 0.013175 0.009894
# 4 -0.001357 0.004174 0.012480 0.059459 0.036949 0.017779
# 5 0.005104 0.002587 0.013175 0.036949 0.051776 0.016067
# 6 0.001426 0.008946 0.009894 0.017779 0.016067 0.050807
#
#
# Mechanical properties :
#
#
# Convention : Reuss Voigt Hill
#
# Bulk Modulus (GPa) = 27.04849 47.52375 37.28612
# Shear Modulus (GPa) = 22.52130 37.26492 29.89311
#
# Velocity S-wave (km/s) = 3.03754 3.90729 3.49954
# Velocity P-wave (km/s) = 4.83566 6.31077 5.62181
#
# Compressibility (1/GPa) = 0.03697064
#
# Stress axis : x y z
#
# Youngs Moduli (GPa) = 65.97786 71.25204 76.23539
#
# Poissons Ratio (x) = -0.08017 0.20904
# Poissons Ratio (y) = -0.07423 0.08020
# Poissons Ratio (z) = 0.18091 0.07496
#
# Static dielectric constant tensor:
#      x y z
#    x 1.912030 0.035260 -0.018020 
#    y 0.035260 2.032300 0.014570 
#    z -0.018020 0.014570 1.953950 
# 
# From -- ./inp_files/205458.got.cif
#   From: 2010.05.17/outbox.cif.g08.bks.cpg/sg2_103_cif.got.tgz:205458.got - 2010.06.03 11:33:40.
