data_PCOD9093714
_publ_section_title
;
Structure prediction by ZEFSAII (Michael W. Deem and Ramdas Pophale) SiO2 
 PCOD9093714
Probable space group: P -1
;
_chemical_formula_sum "Si O2"
_cell_formula_units_Z 16
_cell_length_a 12.405163
_cell_length_b 12.393418
_cell_length_c 9.366073
_cell_angle_alpha 96.510667
_cell_angle_beta 121.065127
_cell_angle_gamma 47.397937
_cell_volume 841.963548
_symmetry_space_group_name_H-M "P -1"
_symmetry_group_IT_number 2
_symmetry_cell_setting 'triclinic'
loop_
_space_group_symop_operation_xyz
x,y,z
-x,-y,-z
loop_
_atom_site_type_symbol
_atom_site_label
_atom_site_fract_x
_atom_site_fract_y
_atom_site_fract_z
Si Si1 0.632780 0.810353 0.062070
Si Si2 0.433299 0.335478 0.228522
Si Si3 0.695356 0.145805 0.640789
Si Si4 0.350018 0.889089 0.080155
Si Si5 0.649828 0.322978 0.132447
Si Si6 0.032103 0.092504 0.449098
Si Si7 0.287924 0.618204 0.320256
Si Si8 0.081427 0.200738 0.757552
O O1 0.547599 0.797860 0.135105
O O2 0.837061 0.730275 0.192039
O O3 0.618413 0.739800 0.905043
O O4 0.500000 0.000000 0.000000
O O5 0.522960 0.253550 0.430582
O O6 0.579186 0.304571 0.222006
O O7 0.286612 0.522559 0.188917
O O8 0.654649 0.110457 0.753473
O O9 0.753170 0.233217 0.732207
O O10 0.854407 0.998797 0.628843
O O11 0.310418 0.794840 0.974387
O O12 0.196079 0.066592 0.938789
O O13 0.836979 0.262158 0.295825
O O14 0.500000 0.500000 0.000000
O O15 0.129508 0.109357 0.630035
O O16 0.000000 0.000000 0.500000
O O17 0.500000 0.500000 0.500000
O O18 0.133502 0.681109 0.338995
#
# Coordination Sequence:
#
# PCOD9093714 Si02
#       8
#     2   2   2   2   2   2   2   2
#     4   9  20  39  60  80 112 161 205 241 286 350
#     4  10  20  37  57  82 117 159 193 238 298 356
#     4  11  20  34  60  88 118 150 194 248 300 347
#     4  10  21  36  57  88 118 151 198 250 289 348
#     4  11  21  35  57  85 121 154 194 244 304 355
#     4  12  19  38  60  85 119 157 197 239 299 364
#     4  10  20  33  56  86 113 144 189 240 298 346
#     4  11  21  39  61  83 116 160 203 239 293 358
#
# _framework density 19.003198999999999
#
# number of rings (size 3 to 8) (size 9 to 14) (size 15 to 20)
#    0.000    1.500    3.750    3.000    0.000    4.500 
#    0.000    5.625    0.000   12.000    0.000    0.000 
#    0.000    0.000    0.000    0.000    0.000    0.000 
#
# Total GULP energy -89193.642884 kJ/mol
# GULP energy per Si atom -5574.602680 kJ/mol
# Density = 1.895995 g / cm^3
# Si number density = 19.003199 Si / 1000 Ang^3
#
#
#
# Elastic Constant Matrix: (Units=GPa)
#
#
# Indices 1 2 3 4 5 6 
#
# 1 97.3388 25.6487 62.1198 10.7916 -0.0122 -8.3357
# 2 25.6487 78.8851 38.8918 24.5703 0.0792 -5.5748
# 3 62.1198 38.8918 102.2525 14.1091 -19.7923 2.1487
# 4 10.7916 24.5703 14.1091 36.1255 -5.3021 5.0324
# 5 -0.0122 0.0792 -19.7923 -5.3021 35.8224 8.8532
# 6 -8.3357 -5.5748 2.1487 5.0324 8.8532 24.5376
#
#
#
# Elastic Compliance Matrix: (Units=1/GPa)
#
#
# Indices 1 2 3 4 5 6 
#
# 1 0.023009 0.005418 -0.018344 -0.008229 -0.015818 0.018049
# 2 0.005418 0.023962 -0.013106 -0.017234 -0.014054 0.017037
# 3 -0.018344 -0.013106 0.029578 0.009324 0.023202 -0.022083
# 4 -0.008229 -0.017234 0.009324 0.043936 0.017322 -0.022788
# 5 -0.015818 -0.014054 0.023202 0.017322 0.051406 -0.032698
# 6 0.018049 0.017037 -0.022083 -0.022788 -0.032698 0.069161
#
#
# Mechanical properties :
#
#
# Convention : Reuss Voigt Hill
#
# Bulk Modulus (GPa) = 40.84314 59.08855 49.96585
# Shear Modulus (GPa) = 16.59599 29.41817 23.00708
#
# Velocity S-wave (km/s) = 2.95842 3.93881 3.48328
# Velocity P-wave (km/s) = 5.76273 7.20050 6.52136
#
# Compressibility (1/GPa) = 0.02448391
#
# Stress axis : x y z
#
# Youngs Moduli (GPa) = 43.46152 41.73199 33.80936
#
# Poissons Ratio (x) = -0.22609 0.62021
# Poissons Ratio (y) = -0.23546 0.44310
# Poissons Ratio (z) = 0.79727 0.54693
#
# Static dielectric constant tensor:
#      x y z
#    x 1.675830 -0.016760 0.015540 
#    y -0.016760 1.734970 -0.019610 
#    z 0.015540 -0.019610 1.682660 
# 
# From -- ./inp_files/259119.got.cif
#   From: 2010.05.17/outbox.cif.g08.bks.cpg/sg2_130_cif.got.tgz:259119.got - 2010.06.03 11:33:40.
