data_PCOD9093162
_publ_section_title
;
Structure prediction by ZEFSAII (Michael W. Deem and Ramdas Pophale) SiO2 
 PCOD9093162
Probable space group: P -1
;
_chemical_formula_sum "Si O2"
_cell_formula_units_Z 16
_cell_length_a 8.531662
_cell_length_b 8.211031
_cell_length_c 20.534784
_cell_angle_alpha 60.194575
_cell_angle_beta 32.027129
_cell_angle_gamma 73.493471
_cell_volume 631.828430
_symmetry_space_group_name_H-M "P -1"
_symmetry_group_IT_number 2
_symmetry_cell_setting 'triclinic'
loop_
_space_group_symop_operation_xyz
x,y,z
-x,-y,-z
loop_
_atom_site_type_symbol
_atom_site_label
_atom_site_fract_x
_atom_site_fract_y
_atom_site_fract_z
Si Si1 0.023996 0.781515 0.477038
Si Si2 0.843586 0.775823 0.121835
Si Si3 0.340470 0.673099 0.516727
Si Si4 0.482447 0.210007 0.258742
Si Si5 0.273697 0.501632 0.190517
Si Si6 0.852481 0.950862 0.212699
Si Si7 0.257853 0.758744 0.262300
Si Si8 0.604642 0.171263 0.010754
O O1 0.146891 0.691011 0.515313
O O2 0.049221 0.707925 0.410020
O O3 0.671412 0.759374 0.624884
O O4 0.234791 0.009450 0.358900
O O5 0.699966 0.794362 0.239461
O O6 0.566903 0.700075 0.185529
O O7 0.141995 0.713391 0.047315
O O8 0.000000 0.000000 0.000000
O O9 0.500000 0.500000 0.500000
O O10 0.642447 0.867195 0.365888
O O11 0.074222 0.645398 0.671684
O O12 0.472498 0.380165 0.179363
O O13 0.796512 0.154538 0.170833
O O14 0.167541 0.644766 0.250225
O O15 0.460014 0.654565 0.041041
O O16 0.199429 0.941073 0.081791
O O17 0.349191 0.992747 0.169334
#
# Coordination Sequence:
#
# PCOD9093162 Si02
#       8
#     2   2   2   2   2   2   2   2
#     4   9  18  33  53  76 104 147 173 208 262 325
#     4   8  15  30  56  74  93 138 187 205 237 315
#     4  10  16  29  51  79 100 128 176 220 245 304
#     4   9  18  32  52  79 107 139 175 208 268 326
#     4  11  22  31  52  88 108 132 174 234 266 295
#     4   9  16  32  57  74  97 140 183 201 252 320
#     4  11  19  34  55  82 108 135 182 224 257 305
#     4   9  19  35  57  78 101 147 183 212 254 318
#
# _framework density 25.323329000000001
#
# number of rings (size 3 to 8) (size 9 to 14) (size 15 to 20)
#    0.750    1.750    3.750    1.125    0.000    2.000 
#    0.000    1.250    0.000    2.250    0.000    0.000 
#    0.000    0.000    0.000    0.000    0.000    0.000 
#
# Total GULP energy -89096.527298 kJ/mol
# GULP energy per Si atom -5568.532956 kJ/mol
# Density = 2.526569 g / cm^3
# Si number density = 25.323329 Si / 1000 Ang^3
#
#
#
# Elastic Constant Matrix: (Units=GPa)
#
#
# Indices 1 2 3 4 5 6 
#
# 1 54.0049 32.9498 8.3357 -2.9330 6.7223 -23.0063
# 2 32.9498 95.1738 40.2692 -8.1233 17.2487 -39.8837
# 3 8.3357 40.2692 93.5388 -2.8188 17.0237 -10.1340
# 4 -2.9330 -8.1233 -2.8188 39.5933 -15.6246 13.3399
# 5 6.7223 17.2487 17.0237 -15.6246 32.5503 -8.3845
# 6 -23.0063 -39.8837 -10.1340 13.3399 -8.3845 42.8607
#
#
#
# Elastic Compliance Matrix: (Units=1/GPa)
#
#
# Indices 1 2 3 4 5 6 
#
# 1 0.025819 -0.005225 0.001340 -0.003306 -0.002303 0.009892
# 2 -0.005225 0.022958 -0.006762 -0.003930 -0.005005 0.017204
# 3 0.001340 -0.006762 0.014138 -0.001512 -0.005546 -0.002844
# 4 -0.003306 -0.003930 -0.001512 0.035367 0.017066 -0.013458
# 5 -0.002303 -0.005005 -0.005546 0.017066 0.043932 -0.003923
# 6 0.009892 0.017204 -0.002844 -0.013458 -0.003923 0.047399
#
#
# Mechanical properties :
#
#
# Convention : Reuss Voigt Hill
#
# Bulk Modulus (GPa) = 24.02616 45.09188 34.55902
# Shear Modulus (GPa) = 22.24390 33.74505 27.99448
#
# Velocity S-wave (km/s) = 2.96699 3.65440 3.32849
# Velocity P-wave (km/s) = 4.60931 5.97087 5.33371
#
# Compressibility (1/GPa) = 0.04162129
#
# Stress axis : x y z
#
# Youngs Moduli (GPa) = 38.73100 43.55719 70.73154
#
# Poissons Ratio (x) = 0.22759 -0.09476
# Poissons Ratio (y) = 0.20237 0.47826
# Poissons Ratio (z) = -0.05189 0.29452
#
# Static dielectric constant tensor:
#      x y z
#    x 2.126520 0.033990 0.011400 
#    y 0.033990 2.056600 0.009930 
#    z 0.011400 0.009930 2.095250 
# 
# From -- ./inp_files/587301.got.cif
#   From: 2010.05.17/outbox.cif.g08.bks.cpg/sg2_294_cif.got.tgz:587301.got - 2010.06.03 11:33:40.
