data_PCOD9093908
_publ_section_title
;
Structure prediction by ZEFSAII (Michael W. Deem and Ramdas Pophale) SiO2 
 PCOD9093908
Probable space group: P -1
;
_chemical_formula_sum "Si O2"
_cell_formula_units_Z 16
_cell_length_a 17.734635
_cell_length_b 21.143503
_cell_length_c 9.610988
_cell_angle_alpha 29.509261
_cell_angle_beta 148.495844
_cell_angle_gamma 152.018580
_cell_volume 775.813959
_symmetry_space_group_name_H-M "P -1"
_symmetry_group_IT_number 2
_symmetry_cell_setting 'triclinic'
loop_
_space_group_symop_operation_xyz
x,y,z
-x,-y,-z
loop_
_atom_site_type_symbol
_atom_site_label
_atom_site_fract_x
_atom_site_fract_y
_atom_site_fract_z
Si Si1 0.896875 0.144062 0.129376
Si Si2 0.869282 0.822411 0.101202
Si Si3 0.095933 0.435113 0.354596
Si Si4 0.464378 0.720375 0.333285
Si Si5 0.835407 0.827598 0.718017
Si Si6 0.483396 0.214218 0.388731
Si Si7 0.884309 0.427522 0.593454
Si Si8 0.514231 0.975529 0.731860
O O1 0.051037 0.196688 0.163650
O O2 0.889149 0.005500 0.464825
O O3 0.905142 0.287252 0.940340
O O4 0.716803 0.060504 0.922665
O O5 0.942654 0.724206 0.459558
O O6 0.859593 0.792703 0.978083
O O7 0.672025 0.765883 0.933992
O O8 0.000000 0.000000 0.000000
O O9 0.299554 0.554279 0.421177
O O10 0.060729 0.449779 0.432884
O O11 0.000000 0.500000 0.000000
O O12 0.636080 0.726426 0.554470
O O13 0.509876 0.802307 0.400972
O O14 0.431686 0.808592 0.991894
O O15 0.678700 0.348542 0.396370
O O16 0.444905 0.062304 0.543092
O O17 0.000000 0.500000 0.500000
O O18 0.500000 0.000000 0.500000
#
# Coordination Sequence:
#
# PCOD9093908 Si02
#       8
#     2   2   2   2   2   2   2   2
#     4   9  19  35  58  91 119 164 207 246 306 370
#     4  11  25  39  63  89 122 163 208 259 308 367
#     4  11  26  41  61  93 125 157 205 262 325 368
#     4   9  20  39  61  85 122 166 204 258 305 362
#     4   9  19  37  62  88 119 159 214 251 298 365
#     4   9  21  39  60  89 118 163 215 246 302 375
#     4  10  21  39  65  87 124 165 208 255 311 371
#     4  10  20  33  60  93 128 161 201 251 307 367
#
# _framework density 20.623501999999998
#
# number of rings (size 3 to 8) (size 9 to 14) (size 15 to 20)
#    0.000    2.250    0.000    1.125    5.250    9.500 
#    0.000    0.000    0.000    2.250    0.000    0.000 
#    0.000    0.000    0.000    0.000    0.000    0.000 
#
# Total GULP energy -89255.347061 kJ/mol
# GULP energy per Si atom -5578.459191 kJ/mol
# Density = 2.057656 g / cm^3
# Si number density = 20.623502 Si / 1000 Ang^3
#
#
#
# Elastic Constant Matrix: (Units=GPa)
#
#
# Indices 1 2 3 4 5 6 
#
# 1 96.1137 30.0006 29.7011 -4.9721 21.7065 22.2751
# 2 30.0006 43.3791 15.0312 -14.0709 17.7209 -4.9957
# 3 29.7011 15.0312 93.2941 -11.7290 22.2399 -9.0826
# 4 -4.9721 -14.0709 -11.7290 14.0530 -2.1920 8.5186
# 5 21.7065 17.7209 22.2399 -2.1920 39.5572 -1.2306
# 6 22.2751 -4.9957 -9.0826 8.5186 -1.2306 30.7335
#
#
#
# Elastic Compliance Matrix: (Units=1/GPa)
#
#
# Indices 1 2 3 4 5 6 
#
# 1 0.022076 -0.014122 -0.005933 0.000564 -0.003053 -0.020327
# 2 -0.014122 0.053707 0.006570 0.047271 -0.017164 0.007118
# 3 -0.005933 0.006570 0.015518 0.012507 -0.007527 0.006186
# 4 0.000564 0.047271 0.012507 0.143813 -0.021475 -0.029751
# 5 -0.003053 -0.017164 -0.007527 -0.021475 0.037831 0.004665
# 6 -0.020327 0.007118 0.006186 -0.029751 0.004665 0.058689
#
#
# Mechanical properties :
#
#
# Convention : Reuss Voigt Hill
#
# Bulk Modulus (GPa) = 15.54466 42.47255 29.00860
# Shear Modulus (GPa) = 13.15625 27.40568 20.28096
#
# Velocity S-wave (km/s) = 2.52846 3.64930 3.13931
# Velocity P-wave (km/s) = 4.00972 6.19641 5.21888
#
# Compressibility (1/GPa) = 0.06433079
#
# Stress axis : x y z
#
# Youngs Moduli (GPa) = 45.29906 18.61942 64.44146
#
# Poissons Ratio (x) = 0.26295 0.38233
# Poissons Ratio (y) = 0.63973 -0.42340
# Poissons Ratio (z) = 0.26876 -0.12233
#
# Static dielectric constant tensor:
#      x y z
#    x 1.665290 -0.013630 0.012040 
#    y -0.013630 1.727740 -0.024950 
#    z 0.012040 -0.024950 1.785290 
# 
# From -- ./inp_files/338046.got.cif
#   From: 2010.05.17/outbox.cif.g08.bks.cpg/sg2_170_cif.got.tgz:338046.got - 2010.06.03 11:33:40.
