data_PCOD9093041
_publ_section_title
;
Structure prediction by ZEFSAII (Michael W. Deem and Ramdas Pophale) SiO2 
 PCOD9093041
Probable space group: P -1
;
_chemical_formula_sum "Si O2"
_cell_formula_units_Z 16
_cell_length_a 12.049937
_cell_length_b 7.073339
_cell_length_c 7.064507
_cell_angle_alpha 82.435837
_cell_angle_beta 108.438827
_cell_angle_gamma 84.288487
_cell_volume 559.833042
_symmetry_space_group_name_H-M "P -1"
_symmetry_group_IT_number 2
_symmetry_cell_setting 'triclinic'
loop_
_space_group_symop_operation_xyz
x,y,z
-x,-y,-z
loop_
_atom_site_type_symbol
_atom_site_label
_atom_site_fract_x
_atom_site_fract_y
_atom_site_fract_z
Si Si1 0.855072 0.817275 0.879744
Si Si2 0.098760 0.716140 0.416318
Si Si3 0.656972 0.236205 0.453357
Si Si4 0.149055 0.316348 0.719878
Si Si5 0.405227 0.224154 0.326217
Si Si6 0.895979 0.221101 0.022777
Si Si7 0.603400 0.673131 0.253310
Si Si8 0.643566 0.348912 0.880819
O O1 0.717956 0.860337 0.742286
O O2 0.882406 0.003708 0.983371
O O3 0.861906 0.651776 0.064680
O O4 0.973732 0.770941 0.823045
O O5 0.204194 0.839761 0.498201
O O6 0.128562 0.511957 0.563337
O O7 0.106317 0.676413 0.198814
O O8 0.962045 0.791779 0.376588
O O9 0.541754 0.131564 0.369604
O O10 0.631360 0.438816 0.297002
O O11 0.652281 0.289595 0.669171
O O12 0.286222 0.231336 0.773358
O O13 0.404681 0.291090 0.532574
O O14 0.383491 0.419745 0.164300
O O15 0.771356 0.284747 0.047718
O O16 0.471285 0.734678 0.095605
#
# Coordination Sequence:
#
# PCOD9093041 Si02
#       8
#     2   2   2   2   2   2   2   2
#     4  10  20  31  47  73  99 121 151 199 243 272
#     4   8  14  28  49  66  85 124 166 186 210 277
#     4   7  12  25  45  68  90 118 157 194 224 264
#     4   9  16  28  49  72  93 122 159 192 230 280
#     4   9  16  28  49  73  93 119 161 199 225 270
#     4   9  18  33  49  66  96 131 156 185 237 288
#     4   8  14  27  47  68  91 123 157 191 230 275
#     4   8  14  28  48  66  89 127 163 187 220 279
#
# _framework density 28.579948999999999
#
# number of rings (size 3 to 8) (size 9 to 14) (size 15 to 20)
#    0.000    3.500    0.000    2.250    0.000    0.500 
#    0.000   11.875    0.000    8.250    0.000    0.000 
#    0.000    0.000    0.000    0.000    0.000    0.000 
#
# Total GULP energy -89341.843168 kJ/mol
# GULP energy per Si atom -5583.865198 kJ/mol
# Density = 2.851490 g / cm^3
# Si number density = 28.579949 Si / 1000 Ang^3
#
#
#
# Elastic Constant Matrix: (Units=GPa)
#
#
# Indices 1 2 3 4 5 6 
#
# 1 361.6834 53.2245 53.8001 18.3070 81.9912 65.7012
# 2 53.2245 69.8678 15.8885 -1.9938 19.0815 24.8896
# 3 53.8001 15.8885 104.9124 10.8871 1.5069 8.1433
# 4 18.3070 -1.9938 10.8871 15.7632 4.3663 6.5648
# 5 81.9912 19.0815 1.5069 4.3663 58.9959 17.8962
# 6 65.7012 24.8896 8.1433 6.5648 17.8962 55.0384
#
#
#
# Elastic Compliance Matrix: (Units=1/GPa)
#
#
# Indices 1 2 3 4 5 6 
#
# 1 0.005199 -0.000727 -0.002027 -0.001676 -0.005750 -0.003508
# 2 -0.000727 0.019443 -0.002921 0.009426 -0.003647 -0.007431
# 3 -0.002027 -0.002921 0.011629 -0.007768 0.003490 0.001812
# 4 -0.001676 0.009426 -0.007768 0.076701 -0.003422 -0.009148
# 5 -0.005750 -0.003647 0.003490 -0.003422 0.026333 -0.000157
# 6 -0.003508 -0.007431 0.001812 -0.009148 -0.000157 0.026591
#
#
# Mechanical properties :
#
#
# Convention : Reuss Voigt Hill
#
# Bulk Modulus (GPa) = 40.12701 86.92108 63.52404
# Shear Modulus (GPa) = 26.94647 53.52953 40.23800
#
# Velocity S-wave (km/s) = 3.07391 4.33248 3.75628
# Velocity P-wave (km/s) = 5.16423 7.45027 6.40999
#
# Compressibility (1/GPa) = 0.02492087
#
# Stress axis : x y z
#
# Youngs Moduli (GPa) = 192.34414 51.43234 85.99207
#
# Poissons Ratio (x) = 0.03741 0.17432
# Poissons Ratio (y) = 0.13990 0.25115
# Poissons Ratio (z) = 0.38991 0.15021
#
# Static dielectric constant tensor:
#      x y z
#    x 2.296130 -0.003020 0.048090 
#    y -0.003020 2.216560 0.012040 
#    z 0.048090 0.012040 2.261010 
# 
# From -- ./inp_files/237868.got.cif
#   From: 2010.05.17/outbox.cif.g08.bks.cpg/sg2_119_cif.got.tgz:237868.got - 2010.06.03 11:33:40.
