data_PCOD9093495
_publ_section_title
;
Structure prediction by ZEFSAII (Michael W. Deem and Ramdas Pophale) SiO2 
 PCOD9093495
Probable space group: P -1
;
_chemical_formula_sum "Si O2"
_cell_formula_units_Z 14
_cell_length_a 12.988305
_cell_length_b 17.324689
_cell_length_c 17.167294
_cell_angle_alpha 16.770077
_cell_angle_beta 44.651114
_cell_angle_gamma 46.541389
_cell_volume 782.891395
_symmetry_space_group_name_H-M "P -1"
_symmetry_group_IT_number 2
_symmetry_cell_setting 'triclinic'
loop_
_space_group_symop_operation_xyz
x,y,z
-x,-y,-z
loop_
_atom_site_type_symbol
_atom_site_label
_atom_site_fract_x
_atom_site_fract_y
_atom_site_fract_z
Si Si1 0.407203 0.522617 0.605013
Si Si2 0.135323 0.319322 0.566274
Si Si3 0.895493 0.707581 0.065423
Si Si4 0.916494 0.249531 0.622811
Si Si5 0.928639 0.770794 0.809693
Si Si6 0.414550 0.088723 0.139874
Si Si7 0.717596 0.191433 0.936502
O O1 0.500000 0.500000 0.500000
O O2 0.247715 0.436057 0.749647
O O3 0.405600 0.802406 0.380048
O O4 0.469282 0.297938 0.845573
O O5 0.259720 0.541413 0.282574
O O6 0.000000 0.500000 0.500000
O O7 0.067296 0.211050 0.627674
O O8 0.186404 0.065853 0.835685
O O9 0.942413 0.502482 0.307737
O O10 0.967694 0.770665 0.881346
O O11 0.876941 0.994653 0.838779
O O12 0.787411 0.269079 0.739121
O O13 0.752600 0.809096 0.852174
O O14 0.000000 0.000000 0.500000
O O15 0.000000 0.500000 0.000000
O O16 0.549186 0.099541 0.116915
#
# Coordination Sequence:
#
# PCOD9093495 Si02
#       7
#     2   2   2   2   2   2   2
#     4  11  20  33  49  79 117 145 169 212 264 334
#     4  10  20  33  51  78 115 154 183 212 253 309
#     4  11  21  33  54  79 104 142 181 216 272 325
#     4  11  19  33  52  81 114 145 177 214 256 321
#     4  11  23  41  58  78 106 138 186 243 282 327
#     4  11  22  35  55  80 106 146 186 218 272 329
#     4  11  20  34  53  81 116 150 180 215 258 321
#
# _framework density 17.882428999999998
#
# number of rings (size 3 to 8) (size 9 to 14) (size 15 to 20)
#    0.000    1.143    0.000   11.571    0.000    0.000 
#    0.000    0.000    0.000    0.000    0.000   20.000 
#    0.000    0.000    0.000    0.000    0.000    0.000 
#
# Total GULP energy -77934.411600 kJ/mol
# GULP energy per Si atom -5566.743686 kJ/mol
# Density = 1.784173 g / cm^3
# Si number density = 17.882429 Si / 1000 Ang^3
#
#
#
# Elastic Constant Matrix: (Units=GPa)
#
#
# Indices 1 2 3 4 5 6 
#
# 1 94.8029 28.1224 26.9230 4.5075 -6.7123 -8.5164
# 2 28.1224 66.9363 31.9264 -3.1941 1.0934 -17.3443
# 3 26.9230 31.9264 124.3129 -3.5757 6.2682 -6.4696
# 4 4.5075 -3.1941 -3.5757 35.5120 8.8923 2.2763
# 5 -6.7123 1.0934 6.2682 8.8923 49.1075 -6.4774
# 6 -8.5164 -17.3443 -6.4696 2.2763 -6.4774 20.6421
#
#
#
# Elastic Compliance Matrix: (Units=1/GPa)
#
#
# Indices 1 2 3 4 5 6 
#
# 1 0.012867 -0.004042 -0.001853 -0.003100 0.002991 0.002612
# 2 -0.004042 0.022996 -0.004218 0.000694 0.001557 0.016745
# 3 -0.001853 -0.004218 0.009558 0.001429 -0.001911 -0.002070
# 4 -0.003100 0.000694 0.001429 0.030883 -0.006985 -0.005845
# 5 0.002991 0.001557 -0.001911 -0.006985 0.023580 0.010113
# 6 0.002612 0.016745 -0.002070 -0.005845 0.010113 0.066761
#
#
# Mechanical properties :
#
#
# Convention : Reuss Voigt Hill
#
# Bulk Modulus (GPa) = 39.68784 51.11064 45.39924
# Shear Modulus (GPa) = 25.60559 34.32435 29.96497
#
# Velocity S-wave (km/s) = 3.78813 4.38590 4.09793
# Velocity P-wave (km/s) = 6.43236 7.36829 6.91617
#
# Compressibility (1/GPa) = 0.02519663
#
# Stress axis : x y z
#
# Youngs Moduli (GPa) = 77.71678 43.48579 104.62028
#
# Poissons Ratio (x) = 0.17579 0.19382
# Poissons Ratio (y) = 0.31416 0.44124
# Poissons Ratio (z) = 0.14398 0.18340
#
# Static dielectric constant tensor:
#      x y z
#    x 1.695310 0.008190 0.015490 
#    y 0.008190 1.586060 -0.003290 
#    z 0.015490 -0.003290 1.616920 
# 
# From -- ./inp_files/64935.got.cif
#   From: 2010.05.17/outbox.cif.g08.bks.cpg/sg2_33_cif.got.tgz:64935.got - 2010.06.03 11:33:40.
