data_PCOD9093352
_publ_section_title
;
Structure prediction by ZEFSAII (Michael W. Deem and Ramdas Pophale) SiO2 
 PCOD9093352
Probable space group: P -1
;
_chemical_formula_sum "Si O2"
_cell_formula_units_Z 14
_cell_length_a 5.484571
_cell_length_b 11.942102
_cell_length_c 13.371687
_cell_angle_alpha 116.118726
_cell_angle_beta 69.244337
_cell_angle_gamma 89.006107
_cell_volume 719.494630
_symmetry_space_group_name_H-M "P -1"
_symmetry_group_IT_number 2
_symmetry_cell_setting 'triclinic'
loop_
_space_group_symop_operation_xyz
x,y,z
-x,-y,-z
loop_
_atom_site_type_symbol
_atom_site_label
_atom_site_fract_x
_atom_site_fract_y
_atom_site_fract_z
Si Si1 0.836683 0.280212 0.512533
Si Si2 0.804281 0.563625 0.692903
Si Si3 0.422733 0.186525 0.666577
Si Si4 0.632188 0.366504 0.377091
Si Si5 0.945591 0.653960 0.059510
Si Si6 0.234510 0.063882 0.448190
Si Si7 0.467033 0.389295 0.039886
O O1 0.890379 0.421731 0.576602
O O2 0.655385 0.256301 0.623446
O O3 0.681112 0.272666 0.428272
O O4 0.100825 0.170703 0.431962
O O5 0.574118 0.644107 0.685748
O O6 0.666918 0.553908 0.815808
O O7 0.069192 0.620193 0.692424
O O8 0.194754 0.281188 0.795348
O O9 0.324973 0.135599 0.557889
O O10 0.540132 0.058170 0.661880
O O11 0.500000 0.500000 0.500000
O O12 0.731830 0.687223 0.014920
O O13 0.000000 0.500000 0.000000
O O14 0.233208 0.686495 0.014190
O O15 0.000000 0.000000 0.500000
O O16 0.500000 0.500000 0.000000
#
# Coordination Sequence:
#
# PCOD9093352 Si02
#       7
#     2   2   2   2   2   2   2
#     4  10  20  32  57  78 114 154 189 223 290 342
#     4  11  22  36  54  81 125 148 186 239 273 341
#     4  10  21  35  55  83 122 144 190 238 277 345
#     4  10  22  35  52  84 114 157 190 227 282 340
#     4  10  21  33  54  82 112 146 185 220 281 338
#     4   9  21  35  53  82 114 152 188 230 292 332
#     4  10  21  34  51  81 106 150 186 215 284 331
#
# _framework density 19.458103999999999
#
# number of rings (size 3 to 8) (size 9 to 14) (size 15 to 20)
#    0.000    2.000    0.000    4.286   14.000    0.000 
#    0.000    0.000    0.000    0.000    0.000    6.000 
#    0.000    0.000    0.000    0.000    0.000    0.000 
#
# Total GULP energy -78034.050446 kJ/mol
# GULP energy per Si atom -5573.860746 kJ/mol
# Density = 1.941382 g / cm^3
# Si number density = 19.458104 Si / 1000 Ang^3
#
#
#
# Elastic Constant Matrix: (Units=GPa)
#
#
# Indices 1 2 3 4 5 6 
#
# 1 136.0243 30.1588 20.0105 -2.4903 -12.0718 -12.4052
# 2 30.1588 75.8694 32.6822 0.7467 -5.4082 -22.5688
# 3 20.0105 32.6822 85.1893 -2.8622 -20.0967 -2.4232
# 4 -2.4903 0.7467 -2.8622 27.3179 -2.7103 2.1888
# 5 -12.0718 -5.4082 -20.0967 -2.7103 26.8183 -1.1052
# 6 -12.4052 -22.5688 -2.4232 2.1888 -1.1052 29.0502
#
#
#
# Elastic Compliance Matrix: (Units=1/GPa)
#
#
# Indices 1 2 3 4 5 6 
#
# 1 0.008405 -0.002580 -0.000114 0.001027 0.003348 0.001625
# 2 -0.002580 0.022231 -0.008170 -0.003198 -0.002480 0.015635
# 3 -0.000114 -0.008170 0.017644 0.003602 0.011691 -0.004751
# 4 0.001027 -0.003198 0.003602 0.038130 0.006190 -0.004383
# 5 0.003348 -0.002480 0.011691 0.006190 0.047757 0.001829
# 6 0.001625 0.015635 -0.004751 -0.004383 0.001829 0.047267
#
#
# Mechanical properties :
#
#
# Convention : Reuss Voigt Hill
#
# Bulk Modulus (GPa) = 37.66316 51.42066 44.54191
# Shear Modulus (GPa) = 23.58363 30.91939 27.25151
#
# Velocity S-wave (km/s) = 3.48519 3.99058 3.74642
# Velocity P-wave (km/s) = 5.96602 6.90773 6.45407
#
# Compressibility (1/GPa) = 0.02655114
#
# Stress axis : x y z
#
# Youngs Moduli (GPa) = 118.98335 44.98190 56.67745
#
# Poissons Ratio (x) = 0.11604 0.00645
# Poissons Ratio (y) = 0.30695 0.46308
# Poissons Ratio (z) = 0.01354 0.36752
#
# Static dielectric constant tensor:
#      x y z
#    x 1.805520 -0.014250 -0.006600 
#    y -0.014250 1.734160 -0.032080 
#    z -0.006600 -0.032080 1.656310 
# 
# From -- ./inp_files/64337.got.cif
#   From: 2010.05.17/outbox.cif.g08.bks.cpg/sg2_33_cif.got.tgz:64337.got - 2010.06.03 11:33:40.
