data_PCOD9093604
_publ_section_title
;
Structure prediction by ZEFSAII (Michael W. Deem and Ramdas Pophale) SiO2 
 PCOD9093604
Probable space group: P -1
;
_chemical_formula_sum "Si O2"
_cell_formula_units_Z 12
_cell_length_a 15.912533
_cell_length_b 5.499786
_cell_length_c 6.493994
_cell_angle_alpha 74.459945
_cell_angle_beta 119.148433
_cell_angle_gamma 115.730584
_cell_volume 445.984787
_symmetry_space_group_name_H-M "P -1"
_symmetry_group_IT_number 2
_symmetry_cell_setting 'triclinic'
loop_
_space_group_symop_operation_xyz
x,y,z
-x,-y,-z
loop_
_atom_site_type_symbol
_atom_site_label
_atom_site_fract_x
_atom_site_fract_y
_atom_site_fract_z
Si Si1 0.835563 0.140597 0.266568
Si Si2 0.701790 0.459278 0.534544
Si Si3 0.609009 0.049381 0.863282
Si Si4 0.508092 0.564882 0.254244
Si Si5 0.093510 0.140223 0.230345
Si Si6 0.131399 0.366677 0.630044
O O1 0.895602 0.461476 0.268376
O O2 0.864871 0.066340 0.548565
O O3 0.856167 0.906541 0.214869
O O4 0.719628 0.101672 0.080428
O O5 0.635731 0.181720 0.633511
O O6 0.629657 0.629106 0.359088
O O7 0.797650 0.629578 0.757635
O O8 0.760418 0.455226 0.392886
O O9 0.548480 0.218404 0.869481
O O10 0.547378 0.726137 0.856585
O O11 0.500000 0.500000 0.500000
O O12 0.060595 0.276972 0.361587
O O13 0.000000 0.000000 0.000000
#
# Coordination Sequence:
#
# PCOD9093604 Si02
#       6
#     2   2   2   2   2   2
#     4   9  19  35  52  80 107 139 170 222 269 305
#     4   8  19  35  54  81 101 142 186 211 252 325
#     4  11  20  34  57  79 112 139 172 222 265 304
#     4  10  20  33  54  81 110 142 174 212 265 315
#     4   8  19  37  58  75 105 142 179 217 264 315
#     4   8  19  34  54  71 110 133 179 208 265 308
#
# _framework density 26.906744
#
# number of rings (size 3 to 8) (size 9 to 14) (size 15 to 20)
#    2.000    0.667    0.000    3.000    0.000    8.667 
#    0.000   12.500    0.000    1.000    0.000    0.000 
#    0.000    0.000    0.000    0.000    0.000    0.000 
#
# Total GULP energy -66871.603714 kJ/mol
# GULP energy per Si atom -5572.633643 kJ/mol
# Density = 2.684550 g / cm^3
# Si number density = 26.906744 Si / 1000 Ang^3
#
#
#
# Elastic Constant Matrix: (Units=GPa)
#
#
# Indices 1 2 3 4 5 6 
#
# 1 118.0335 68.6439 35.8166 -12.2774 27.8898 -14.5783
# 2 68.6439 205.9353 54.0670 -1.5406 29.8232 -34.3827
# 3 35.8166 54.0670 139.8372 16.4542 33.0041 -9.2764
# 4 -12.2774 -1.5406 16.4542 50.6935 7.5129 -7.9733
# 5 27.8898 29.8232 33.0041 7.5129 33.5796 -5.8833
# 6 -14.5783 -34.3827 -9.2764 -7.9733 -5.8833 58.8423
#
#
#
# Elastic Compliance Matrix: (Units=1/GPa)
#
#
# Indices 1 2 3 4 5 6 
#
# 1 0.012880 -0.002607 -0.000765 0.004753 -0.008458 0.001345
# 2 -0.002607 0.006937 -0.001367 0.000848 -0.002303 0.003077
# 3 -0.000765 -0.001367 0.009873 -0.002413 -0.007403 -0.000498
# 4 0.004753 0.000848 -0.002413 0.023298 -0.006883 0.003762
# 5 -0.008458 -0.002303 -0.007403 -0.006883 0.047528 -0.000789
# 6 0.001345 0.003077 -0.000498 0.003762 -0.000789 0.019478
#
#
# Mechanical properties :
#
#
# Convention : Reuss Voigt Hill
#
# Bulk Modulus (GPa) = 49.47204 86.76233 68.11719
# Shear Modulus (GPa) = 36.70806 48.97498 42.84152
#
# Velocity S-wave (km/s) = 3.69761 4.27098 3.99460
# Velocity P-wave (km/s) = 6.05443 7.52577 6.82984
#
# Compressibility (1/GPa) = 0.02021344
#
# Stress axis : x y z
#
# Youngs Moduli (GPa) = 77.64226 144.14622 101.28177
#
# Poissons Ratio (x) = 0.37584 0.07744
# Poissons Ratio (y) = 0.20244 0.13840
# Poissons Ratio (z) = 0.05937 0.19698
#
# Static dielectric constant tensor:
#      x y z
#    x 2.152150 -0.001560 -0.044900 
#    y -0.001560 2.210580 -0.061200 
#    z -0.044900 -0.061200 2.174030 
# 
# From -- ./inp_files/340212.got.cif
#   From: 2010.05.17/outbox.cif.g08.bks.cpg/sg2_171_cif.got.tgz:340212.got - 2010.06.03 11:33:40.
