data_PCOD9093458
_publ_section_title
;
Structure prediction by ZEFSAII (Michael W. Deem and Ramdas Pophale) SiO2 
 PCOD9093458
Probable space group: P -1
;
_chemical_formula_sum "Si O2"
_cell_formula_units_Z 16
_cell_length_a 7.136236
_cell_length_b 7.565872
_cell_length_c 13.190100
_cell_angle_alpha 73.940228
_cell_angle_beta 76.134238
_cell_angle_gamma 57.222381
_cell_volume 571.827704
_symmetry_space_group_name_H-M "P -1"
_symmetry_group_IT_number 2
_symmetry_cell_setting 'triclinic'
loop_
_space_group_symop_operation_xyz
x,y,z
-x,-y,-z
loop_
_atom_site_type_symbol
_atom_site_label
_atom_site_fract_x
_atom_site_fract_y
_atom_site_fract_z
Si Si1 0.080849 0.995721 0.363649
Si Si2 0.666355 0.461546 0.889820
Si Si3 0.977082 0.811191 0.977799
Si Si4 0.462770 0.817452 0.489428
Si Si5 0.381403 0.903342 0.152426
Si Si6 0.767204 0.727747 0.272459
Si Si7 0.714898 0.190345 0.235047
Si Si8 0.146773 0.533316 0.391596
O O1 0.207322 0.956974 0.459957
O O2 0.243439 0.011140 0.255961
O O3 0.108255 0.766322 0.375829
O O4 0.831385 0.175144 0.331425
O O5 0.684023 0.266125 0.853491
O O6 0.533938 0.659538 0.800212
O O7 0.500000 0.500000 0.000000
O O8 0.902442 0.384141 0.928092
O O9 0.135723 0.759479 0.868154
O O10 0.727570 0.911408 0.948635
O O11 0.000000 0.000000 0.000000
O O12 0.608171 0.719949 0.382830
O O13 0.596979 0.630623 0.584630
O O14 0.500000 0.000000 0.500000
O O15 0.637244 0.761578 0.178680
O O16 0.018063 0.545741 0.301324
O O17 0.759762 0.952634 0.249765
O O18 0.000000 0.500000 0.500000
#
# Coordination Sequence:
#
# PCOD9093458 Si02
#       8
#     2   2   2   2   2   2   2   2
#     4   9  18  33  52  71  95 133 166 191 241 296
#     4   9  17  30  49  73  96 122 158 199 237 281
#     4   8  15  30  49  68  92 126 159 188 232 292
#     4  10  20  33  50  73 100 126 160 207 244 281
#     4   9  17  31  52  70  94 130 162 192 235 293
#     4   9  19  34  48  70  98 126 159 196 241 291
#     4   9  17  31  50  71  97 123 159 203 238 281
#     4   9  18  34  51  70  99 130 163 200 239 293
#
# _framework density 27.980452
#
# number of rings (size 3 to 8) (size 9 to 14) (size 15 to 20)
#    0.000    3.000    0.000    0.375    0.000    2.000 
#    0.000   11.875    0.000    0.000    0.000    0.000 
#    0.000    0.000    0.000    0.000    0.000    0.000 
#
# Total GULP energy -89368.108753 kJ/mol
# GULP energy per Si atom -5585.506797 kJ/mol
# Density = 2.791677 g / cm^3
# Si number density = 27.980452 Si / 1000 Ang^3
#
#
#
# Elastic Constant Matrix: (Units=GPa)
#
#
# Indices 1 2 3 4 5 6 
#
# 1 154.8547 40.9516 73.9535 -32.6475 66.1556 -61.4108
# 2 40.9516 78.3587 47.3386 -43.6704 30.4018 -41.8284
# 3 73.9535 47.3386 287.9963 -54.6485 69.1994 -39.7042
# 4 -32.6475 -43.6704 -54.6485 47.3454 -24.2641 24.1497
# 5 66.1556 30.4018 69.1994 -24.2641 67.7989 -22.6086
# 6 -61.4108 -41.8284 -39.7042 24.1497 -22.6086 64.0935
#
#
#
# Elastic Compliance Matrix: (Units=1/GPa)
#
#
# Indices 1 2 3 4 5 6 
#
# 1 0.016739 0.005292 0.000592 0.003048 -0.013577 0.013921
# 2 0.005292 0.035236 0.002015 0.025729 -0.008240 0.016714
# 3 0.000592 0.002015 0.005277 0.005262 -0.004451 0.001599
# 4 0.003048 0.025729 0.005262 0.050959 -0.000438 0.003615
# 5 -0.013577 -0.008240 -0.004451 -0.000438 0.032960 -0.009352
# 6 0.013921 0.016714 0.001599 0.003615 -0.009352 0.036177
#
#
# Mechanical properties :
#
#
# Convention : Reuss Voigt Hill
#
# Bulk Modulus (GPa) = 13.68915 93.96633 53.82774
# Shear Modulus (GPa) = 26.89575 59.77863 43.33719
#
# Velocity S-wave (km/s) = 3.10374 4.62718 3.93980
# Velocity P-wave (km/s) = 4.21275 7.88692 6.32261
#
# Compressibility (1/GPa) = 0.07305055
#
# Stress axis : x y z
#
# Youngs Moduli (GPa) = 59.73966 28.37977 189.48524
#
# Poissons Ratio (x) = -0.15018 -0.11210
# Poissons Ratio (y) = -0.31612 -0.38189
# Poissons Ratio (z) = -0.03534 -0.05720
#
# Static dielectric constant tensor:
#      x y z
#    x 2.330750 -0.154470 -0.006200 
#    y -0.154470 2.247580 -0.007210 
#    z -0.006200 -0.007210 2.217160 
# 
# From -- ./inp_files/197254.got.cif
#   From: 2010.05.17/outbox.cif.g08.bks.cpg/sg2_99_cif.got.tgz:197254.got - 2010.06.03 11:33:40.
