data_PCOD9093175
_publ_section_title
;
Structure prediction by ZEFSAII (Michael W. Deem and Ramdas Pophale) SiO2 
 PCOD9093175
Probable space group: P -1
;
_chemical_formula_sum "Si O2"
_cell_formula_units_Z 14
_cell_length_a 14.575746
_cell_length_b 14.280114
_cell_length_c 11.926869
_cell_angle_alpha 115.516464
_cell_angle_beta 118.263268
_cell_angle_gamma 19.358450
_cell_volume 723.700222
_symmetry_space_group_name_H-M "P -1"
_symmetry_group_IT_number 2
_symmetry_cell_setting 'triclinic'
loop_
_space_group_symop_operation_xyz
x,y,z
-x,-y,-z
loop_
_atom_site_type_symbol
_atom_site_label
_atom_site_fract_x
_atom_site_fract_y
_atom_site_fract_z
Si Si1 0.338526 0.202648 0.906720
Si Si2 0.866055 0.146291 0.156208
Si Si3 0.243954 0.737951 0.595870
Si Si4 0.494855 0.685455 0.608584
Si Si5 0.911563 0.777292 0.267741
Si Si6 0.892658 0.790496 0.002960
Si Si7 0.271753 0.613159 0.014554
O O1 0.209331 0.224309 0.777672
O O2 0.086569 0.507694 0.963645
O O3 0.581478 0.047751 0.909508
O O4 0.500000 0.000000 0.000000
O O5 0.879543 0.161571 0.301399
O O6 0.790433 0.309983 0.113019
O O7 0.608279 0.302147 0.069483
O O8 0.154000 0.826306 0.116617
O O9 0.456906 0.639398 0.665363
O O10 0.416904 0.476715 0.521153
O O11 0.000000 0.000000 0.500000
O O12 0.751603 0.526742 0.689302
O O13 0.219306 0.013143 0.619961
O O14 0.844837 0.866500 0.144640
O O15 0.083442 0.696458 0.999450
#
# Coordination Sequence:
#
# PCOD9093175 Si02
#       7
#     2   2   2   2   2   2   2
#     4  10  20  32  49  76 108 139 172 222 273 320
#     4  10  22  37  55  79 114 141 184 223 255 325
#     4  11  23  37  52  82 113 142 182 222 267 314
#     4  11  22  32  51  75 105 145 173 207 275 309
#     4  11  19  33  49  76 107 139 173 215 269 326
#     4  11  19  32  53  76 108 139 177 217 271 324
#     4  10  21  37  57  81 105 151 179 215 272 313
#
# _framework density 19.345027000000002
#
# number of rings (size 3 to 8) (size 9 to 14) (size 15 to 20)
#    0.000    1.429    1.429    6.857    4.000    0.000 
#    0.000    0.000    0.000    0.000    0.000    6.000 
#    0.000    0.000    0.000    0.000    0.000    0.000 
#
# Total GULP energy -78110.572428 kJ/mol
# GULP energy per Si atom -5579.326602 kJ/mol
# Density = 1.930100 g / cm^3
# Si number density = 19.345027 Si / 1000 Ang^3
#
#
#
# Elastic Constant Matrix: (Units=GPa)
#
#
# Indices 1 2 3 4 5 6 
#
# 1 82.7821 5.7575 19.6856 -3.6700 3.2771 -18.9672
# 2 5.7575 85.8702 18.3286 14.8017 1.2094 -8.2835
# 3 19.6856 18.3286 64.4495 18.7862 -17.2928 11.4471
# 4 -3.6700 14.8017 18.7862 26.7513 -4.2208 9.6547
# 5 3.2771 1.2094 -17.2928 -4.2208 34.4956 -1.9826
# 6 -18.9672 -8.2835 11.4471 9.6547 -1.9826 32.5849
#
#
#
# Elastic Compliance Matrix: (Units=1/GPa)
#
#
# Indices 1 2 3 4 5 6 
#
# 1 0.018094 0.001989 -0.011132 0.003320 -0.006182 0.013589
# 2 0.001989 0.014927 -0.005032 -0.008269 -0.003733 0.008943
# 3 -0.011132 -0.005032 0.030307 -0.012847 0.014065 -0.013744
# 4 0.003320 -0.008269 -0.012847 0.055785 -0.000341 -0.012206
# 5 -0.006182 -0.003733 0.014065 -0.000341 0.036304 -0.007178
# 6 0.013589 0.008943 -0.013744 -0.012206 -0.007178 0.048881
#
#
# Mechanical properties :
#
#
# Convention : Reuss Voigt Hill
#
# Bulk Modulus (GPa) = 28.59047 35.62725 32.10886
# Shear Modulus (GPa) = 20.46594 31.38835 25.92715
#
# Velocity S-wave (km/s) = 3.25613 4.03246 3.66491
# Velocity P-wave (km/s) = 5.38032 6.33544 5.87731
#
# Compressibility (1/GPa) = 0.03497669
#
# Stress axis : x y z
#
# Youngs Moduli (GPa) = 55.26589 66.99362 32.99565
#
# Poissons Ratio (x) = -0.13322 0.36732
# Poissons Ratio (y) = -0.10990 0.16603
# Poissons Ratio (z) = 0.61524 0.33711
#
# Static dielectric constant tensor:
#      x y z
#    x 1.728000 -0.024920 0.035140 
#    y -0.024920 1.706070 -0.025610 
#    z 0.035140 -0.025610 1.703260 
# 
# From -- ./inp_files/408330.got.cif
#   From: 2010.05.17/outbox.cif.g08.bks.cpg/sg2_205_cif.got.tgz:408330.got - 2010.06.03 11:33:40.
