data_PCOD9093026
_publ_section_title
;
Structure prediction by ZEFSAII (Michael W. Deem and Ramdas Pophale) SiO2 
 PCOD9093026
Probable space group: P -1
;
_chemical_formula_sum "Si O2"
_cell_formula_units_Z 14
_cell_length_a 7.606476
_cell_length_b 9.348451
_cell_length_c 8.021169
_cell_angle_alpha 100.537541
_cell_angle_beta 89.157533
_cell_angle_gamma 93.343893
_cell_volume 559.796769
_symmetry_space_group_name_H-M "P -1"
_symmetry_group_IT_number 2
_symmetry_cell_setting 'triclinic'
loop_
_space_group_symop_operation_xyz
x,y,z
-x,-y,-z
loop_
_atom_site_type_symbol
_atom_site_label
_atom_site_fract_x
_atom_site_fract_y
_atom_site_fract_z
Si Si1 0.586480 0.648370 0.100844
Si Si2 0.372563 0.318288 0.518713
Si Si3 0.626250 0.837944 0.835339
Si Si4 0.081848 0.355598 0.098294
Si Si5 0.829593 0.435416 0.583472
Si Si6 0.992629 0.165716 0.585602
Si Si7 0.136235 0.889944 0.055033
O O1 0.535014 0.670858 0.298003
O O2 0.500000 0.500000 0.000000
O O3 0.540996 0.769654 0.990711
O O4 0.797888 0.638371 0.069079
O O5 0.454710 0.218027 0.351419
O O6 0.325226 0.475921 0.476535
O O7 0.183966 0.238948 0.556231
O O8 0.806946 0.750582 0.810025
O O9 0.688607 0.005449 0.898879
O O10 0.121843 0.510791 0.217632
O O11 0.892880 0.267729 0.071106
O O12 0.000000 0.500000 0.500000
O O13 0.843905 0.263416 0.529058
O O14 0.939206 0.153162 0.774692
O O15 0.000000 0.000000 0.500000
O O16 0.000000 0.000000 0.000000
#
# Coordination Sequence:
#
# PCOD9093026 Si02
#       7
#     2   2   2   2   2   2   2
#     4  10  20  33  53  81 107 144 195 231 256 301
#     4  10  17  35  52  75 115 143 177 225 266 323
#     4   8  17  30  50  78 111 131 180 221 268 320
#     4   8  17  32  47  75 116 133 175 215 262 325
#     4   9  20  33  48  77 116 148 171 210 279 337
#     4  11  19  30  53  80 112 137 175 215 270 342
#     4  10  16  29  50  76 113 136 162 227 273 320
#
# _framework density 25.009077999999999
#
# number of rings (size 3 to 8) (size 9 to 14) (size 15 to 20)
#    0.857    1.714    2.857    0.000    2.000    1.143 
#    0.000    0.000    0.000    0.000    0.000    6.000 
#    0.000    0.000    0.000    0.000    0.000    0.000 
#
# Total GULP energy -77976.032173 kJ/mol
# GULP energy per Si atom -5569.716584 kJ/mol
# Density = 2.495216 g / cm^3
# Si number density = 25.009078 Si / 1000 Ang^3
#
#
#
# Elastic Constant Matrix: (Units=GPa)
#
#
# Indices 1 2 3 4 5 6 
#
# 1 70.0238 54.9617 27.6057 10.5154 7.8203 -0.9784
# 2 54.9617 174.4228 69.6227 9.4450 7.5123 -1.2677
# 3 27.6057 69.6227 150.7728 -6.6076 14.5864 -0.4751
# 4 10.5154 9.4450 -6.6076 50.7428 11.7809 -6.5817
# 5 7.8203 7.5123 14.5864 11.7809 16.0942 6.6472
# 6 -0.9784 -1.2677 -0.4751 -6.5817 6.6472 23.3779
#
#
#
# Elastic Compliance Matrix: (Units=1/GPa)
#
#
# Indices 1 2 3 4 5 6 
#
# 1 0.019900 -0.005735 -0.000430 -0.001374 -0.006401 0.001946
# 2 -0.005735 0.008877 -0.003528 -0.002044 0.003970 -0.001535
# 3 -0.000430 -0.003528 0.009965 0.006000 -0.013894 0.005633
# 4 -0.001374 -0.002044 0.006000 0.031644 -0.034716 0.018734
# 5 -0.006401 0.003970 -0.013894 -0.034716 0.119619 -0.044121
# 6 0.001946 -0.001535 0.005633 0.018734 -0.044121 0.060708
#
#
# Mechanical properties :
#
#
# Convention : Reuss Voigt Hill
#
# Bulk Modulus (GPa) = 51.66138 77.73331 64.69734
# Shear Modulus (GPa) = 18.07994 34.24492 26.16243
#
# Velocity S-wave (km/s) = 2.69166 3.70442 3.23788
# Velocity P-wave (km/s) = 5.51017 7.03182 6.31698
#
# Compressibility (1/GPa) = 0.01935682
#
# Stress axis : x y z
#
# Youngs Moduli (GPa) = 50.25132 112.65280 100.34994
#
# Poissons Ratio (x) = 0.64602 0.04318
# Poissons Ratio (y) = 0.28817 0.35400
# Poissons Ratio (z) = 0.02162 0.39740
#
# Static dielectric constant tensor:
#      x y z
#    x 1.946440 0.092650 -0.057060 
#    y 0.092650 2.050680 0.056560 
#    z -0.057060 0.056560 2.325140 
# 
# From -- ./inp_files/235236.got.cif
#   From: 2010.05.17/outbox.cif.g08.bks.cpg/sg2_118_cif.got.tgz:235236.got - 2010.06.03 11:33:40.
