data_PCOD9093372
_publ_section_title
;
Structure prediction by ZEFSAII (Michael W. Deem and Ramdas Pophale) SiO2 
 PCOD9093372
Probable space group: P -1
;
_chemical_formula_sum "Si O2"
_cell_formula_units_Z 16
_cell_length_a 12.223323
_cell_length_b 8.536870
_cell_length_c 14.224170
_cell_angle_alpha 98.113689
_cell_angle_beta 41.371417
_cell_angle_gamma 77.806209
_cell_volume 849.497219
_symmetry_space_group_name_H-M "P -1"
_symmetry_group_IT_number 2
_symmetry_cell_setting 'triclinic'
loop_
_space_group_symop_operation_xyz
x,y,z
-x,-y,-z
loop_
_atom_site_type_symbol
_atom_site_label
_atom_site_fract_x
_atom_site_fract_y
_atom_site_fract_z
Si Si1 0.374388 0.244475 0.832469
Si Si2 0.721175 0.226130 0.046736
Si Si3 0.034618 0.617135 0.143442
Si Si4 0.652430 0.918373 0.976113
Si Si5 0.216839 0.747967 0.782575
Si Si6 0.445885 0.554039 0.360087
Si Si7 0.944131 0.363332 0.289092
Si Si8 0.677006 0.954686 0.315534
O O1 0.406957 0.179842 0.913375
O O2 0.528333 0.284614 0.686281
O O3 0.362002 0.091093 0.767468
O O4 0.180185 0.439209 0.974491
O O5 0.834169 0.179753 0.070737
O O6 0.522468 0.398605 0.217809
O O7 0.684805 0.072954 0.016462
O O8 0.837086 0.289015 0.909102
O O9 0.958668 0.540946 0.268646
O O10 0.853443 0.768929 0.220497
O O11 0.862221 0.770804 0.796045
O O12 0.500000 0.000000 0.000000
O O13 0.395844 0.548526 0.669327
O O14 0.069705 0.724085 0.809946
O O15 0.279802 0.879083 0.701528
O O16 0.242249 0.602260 0.533057
O O17 0.500000 0.000000 0.500000
#
# Coordination Sequence:
#
# PCOD9093372 Si02
#       8
#     2   2   2   2   2   2   2   2
#     4  10  20  38  56  80 113 155 188 234 283 341
#     4   9  21  38  57  81 114 146 189 234 288 337
#     4  10  22  33  55  85 116 154 186 225 287 350
#     4  11  24  42  60  81 111 154 203 242 280 330
#     4  10  20  32  58  85 124 145 181 225 292 345
#     4   9  19  37  58  87 119 148 183 231 293 351
#     4  11  21  36  59  88 118 153 188 233 286 342
#     4  12  21  30  52  89 123 152 181 228 286 349
#
# _framework density 18.834671
#
# number of rings (size 3 to 8) (size 9 to 14) (size 15 to 20)
#    0.750    1.000    1.250    3.750    3.500    1.000 
#    0.000    6.875    0.000    0.000    0.000    0.000 
#    0.000    0.000    0.000    0.000    0.000    0.000 
#
# Total GULP energy -89226.932139 kJ/mol
# GULP energy per Si atom -5576.683259 kJ/mol
# Density = 1.879180 g / cm^3
# Si number density = 18.834671 Si / 1000 Ang^3
#
#
#
# Elastic Constant Matrix: (Units=GPa)
#
#
# Indices 1 2 3 4 5 6 
#
# 1 58.5645 46.1693 41.1586 1.8419 -16.1257 -19.3834
# 2 46.1693 113.4567 40.8585 -21.1637 -13.9761 1.0607
# 3 41.1586 40.8585 98.9472 -24.6888 -19.0642 -10.5553
# 4 1.8419 -21.1637 -24.6888 23.6879 4.4021 -12.0374
# 5 -16.1257 -13.9761 -19.0642 4.4021 19.0651 4.8503
# 6 -19.3834 1.0607 -10.5553 -12.0374 4.8503 25.2071
#
#
#
# Elastic Compliance Matrix: (Units=1/GPa)
#
#
# Indices 1 2 3 4 5 6 
#
# 1 0.064344 -0.024284 -0.022985 -0.047298 0.020931 0.014261
# 2 -0.024284 0.020730 0.007429 0.027492 -0.003598 -0.002614
# 3 -0.022985 0.007429 0.031584 0.051081 0.000839 0.019470
# 4 -0.047298 0.027492 0.051081 0.160920 -0.022475 0.065033
# 5 0.020931 -0.003598 0.000839 -0.022475 0.075764 -0.008713
# 6 0.014261 -0.002614 0.019470 0.065033 -0.008713 0.091633
#
#
# Mechanical properties :
#
#
# Convention : Reuss Voigt Hill
#
# Bulk Modulus (GPa) = 27.04292 58.59347 42.81819
# Shear Modulus (GPa) = 9.31132 23.11080 16.21106
#
# Velocity S-wave (km/s) = 2.22586 3.50671 2.93696
# Velocity P-wave (km/s) = 4.58205 6.89731 5.85526
#
# Compressibility (1/GPa) = 0.03697826
#
# Stress axis : x y z
#
# Youngs Moduli (GPa) = 15.54143 48.23884 31.66181
#
# Poissons Ratio (x) = 1.17144 0.72774
# Poissons Ratio (y) = 0.37741 -0.23521
# Poissons Ratio (z) = 0.35722 -0.35836
#
# Static dielectric constant tensor:
#      x y z
#    x 1.629280 0.000560 0.014810 
#    y 0.000560 1.689620 0.010420 
#    z 0.014810 0.010420 1.694060 
# 
# From -- ./inp_files/396946.got.cif
#   From: 2010.05.17/outbox.cif.g08.bks.cpg/sg2_199_cif.got.tgz:396946.got - 2010.06.03 11:33:40.
