data_PCOD9093271
_publ_section_title
;
Structure prediction by ZEFSAII (Michael W. Deem and Ramdas Pophale) SiO2 
 PCOD9093271
Probable space group: P -1
;
_chemical_formula_sum "Si O2"
_cell_formula_units_Z 16
_cell_length_a 24.182526
_cell_length_b 8.311122
_cell_length_c 6.784413
_cell_angle_alpha 101.151598
_cell_angle_beta 130.953533
_cell_angle_gamma 53.749815
_cell_volume 787.153912
_symmetry_space_group_name_H-M "P -1"
_symmetry_group_IT_number 2
_symmetry_cell_setting 'triclinic'
loop_
_space_group_symop_operation_xyz
x,y,z
-x,-y,-z
loop_
_atom_site_type_symbol
_atom_site_label
_atom_site_fract_x
_atom_site_fract_y
_atom_site_fract_z
Si Si1 0.056456 0.121135 0.262225
Si Si2 0.606753 0.406455 0.214438
Si Si3 0.185171 0.111749 0.876747
Si Si4 0.321764 0.391661 0.824533
Si Si5 0.290642 0.083268 0.767900
Si Si6 0.731516 0.335702 0.848204
Si Si7 0.145311 0.690445 0.213154
Si Si8 0.895446 0.701408 0.863996
O O1 0.107030 0.158145 0.552153
O O2 0.094735 0.123716 0.139295
O O3 0.096203 0.882591 0.302652
O O4 0.945009 0.288355 0.051192
O O5 0.618847 0.543995 0.124992
O O6 0.646576 0.412010 0.518695
O O7 0.666023 0.158125 0.235425
O O8 0.500000 0.500000 0.000000
O O9 0.259045 0.118220 0.930686
O O10 0.134275 0.270540 0.975078
O O11 0.235904 0.879431 0.026146
O O12 0.351732 0.158824 0.874440
O O13 0.233284 0.501725 0.495758
O O14 0.293816 0.503345 0.998706
O O15 0.192023 0.237300 0.455425
O O16 0.810813 0.299430 0.881842
O O17 0.000000 0.500000 0.000000
#
# Coordination Sequence:
#
# PCOD9093271 Si02
#       8
#     2   2   2   2   2   2   2   2
#     4  10  20  32  53  87 122 171 222 260 306 364
#     4  11  25  47  72  96 126 165 209 268 333 391
#     4  11  20  39  62  86 129 177 217 258 316 374
#     4  11  23  42  66  97 126 165 214 261 323 387
#     4  11  24  42  67  96 133 170 210 268 320 378
#     4  11  20  42  67  89 124 172 213 262 326 383
#     4  10  20  34  56  88 126 166 216 264 309 366
#     4  11  22  37  58  87 132 179 217 263 312 366
#
# _framework density 20.326394000000001
#
# number of rings (size 3 to 8) (size 9 to 14) (size 15 to 20)
#    0.000    1.250    5.000    2.250    0.000    8.500 
#    0.000    0.625    0.000    0.000    0.000    0.000 
#    0.000    0.000    0.000    0.000    0.000    0.000 
#
# Total GULP energy -89136.278661 kJ/mol
# GULP energy per Si atom -5571.017416 kJ/mol
# Density = 2.028013 g / cm^3
# Si number density = 20.326394 Si / 1000 Ang^3
#
#
#
# Elastic Constant Matrix: (Units=GPa)
#
#
# Indices 1 2 3 4 5 6 
#
# 1 151.8610 27.1763 65.4821 -6.3270 4.2957 14.5980
# 2 27.1763 29.8646 10.1491 -10.9117 -12.9144 14.4890
# 3 65.4821 10.1491 59.4934 6.0375 -13.4867 -7.0202
# 4 -6.3270 -10.9117 6.0375 -3.3093 -15.4864 6.0744
# 5 4.2957 -12.9144 -13.4867 -15.4864 29.3499 6.1836
# 6 14.5980 14.4890 -7.0202 6.0744 6.1836 29.2232
#
#
#
# Elastic Compliance Matrix: (Units=1/GPa)
#
#
# Indices 1 2 3 4 5 6 
#
# 1 0.022328 -0.011591 -0.028000 0.004816 -0.016669 -0.009607
# 2 -0.011591 0.025786 0.012179 -0.034340 -0.000133 0.003097
# 3 -0.028000 0.012179 0.054376 -0.001830 0.030323 0.014976
# 4 0.004816 -0.034340 -0.001830 -0.016150 -0.030220 0.023932
# 5 -0.016669 -0.000133 0.030323 -0.030220 0.031206 0.015355
# 6 -0.009607 0.003097 0.014976 0.023932 0.015355 0.032857
#
#
# Mechanical properties :
#
#
# Convention : Reuss Voigt Hill
#
# Bulk Modulus (GPa) = 20.97893 49.64822 35.31358
# Shear Modulus (GPa) = 22.61254 20.28019 21.44637
#
# Velocity S-wave (km/s) = 3.33899 3.16211 3.25175
# Velocity P-wave (km/s) = 5.02082 6.14902 5.61333
#
# Compressibility (1/GPa) = 0.04766688
#
# Stress axis : x y z
#
# Youngs Moduli (GPa) = 44.78621 38.78055 18.39043
#
# Poissons Ratio (x) = 0.44949 0.51493
# Poissons Ratio (y) = 0.51910 -0.22397
# Poissons Ratio (z) = 1.25401 -0.47229
#
# Static dielectric constant tensor:
#      x y z
#    x 1.770190 0.078300 -0.010360 
#    y 0.078300 1.790930 -0.009690 
#    z -0.010360 -0.009690 1.705310 
# 
# From -- ./inp_files/55741.got.cif
#   From: 2010.05.17/outbox.cif.g08.bks.cpg/sg2_28_cif.got.tgz:55741.got - 2010.06.03 11:33:40.
