data_PCOD9093180
_publ_section_title
;
Structure prediction by ZEFSAII (Michael W. Deem and Ramdas Pophale) SiO2 
 PCOD9093180
Probable space group: P -1
;
_chemical_formula_sum "Si O2"
_cell_formula_units_Z 16
_cell_length_a 15.334050
_cell_length_b 26.985908
_cell_length_c 24.155797
_cell_angle_alpha 170.176894
_cell_angle_beta 27.328057
_cell_angle_gamma 150.882968
_cell_volume 782.703615
_symmetry_space_group_name_H-M "P -1"
_symmetry_group_IT_number 2
_symmetry_cell_setting 'triclinic'
loop_
_space_group_symop_operation_xyz
x,y,z
-x,-y,-z
loop_
_atom_site_type_symbol
_atom_site_label
_atom_site_fract_x
_atom_site_fract_y
_atom_site_fract_z
Si Si1 0.859165 0.972941 0.769959
Si Si2 0.472395 0.232578 0.074757
Si Si3 0.266891 0.817970 0.814057
Si Si4 0.640274 0.086982 0.436857
Si Si5 0.317571 0.624514 0.776568
Si Si6 0.321431 0.990445 0.794312
Si Si7 0.014178 0.575985 0.512333
Si Si8 0.248765 0.272032 0.911702
O O1 0.064580 0.109849 0.814404
O O2 0.835903 0.628931 0.409930
O O3 0.734591 0.089569 0.020276
O O4 0.767979 0.104658 0.911051
O O5 0.416024 0.549450 0.431078
O O6 0.626508 0.282078 0.090067
O O7 0.314264 0.075350 0.029179
O O8 0.489941 0.030344 0.787280
O O9 0.063946 0.685676 0.767507
O O10 0.648547 0.933785 0.203339
O O11 0.425796 0.207435 0.699749
O O12 0.690467 0.876755 0.228181
O O13 0.770772 0.376210 0.685090
O O14 0.500000 0.500000 0.500000
O O15 0.225399 0.681072 0.501211
O O16 0.149816 0.172303 0.121604
O O17 0.000000 0.500000 0.500000
#
# Coordination Sequence:
#
# PCOD9093180 Si02
#       8
#     2   2   2   2   2   2   2   2
#     4  12  22  35  60  79 113 149 189 241 286 323
#     4  11  22  35  50  78 111 147 188 215 276 336
#     4  11  20  32  51  76 112 145 180 222 271 342
#     4  10  22  41  62  85 119 147 189 232 290 344
#     4  12  22  37  55  80 113 155 190 236 282 334
#     4  10  22  34  54  79 115 155 178 230 282 344
#     4  10  20  32  49  82 116 145 184 219 272 353
#     4  10  23  40  61  90 111 147 194 240 281 343
#
# _framework density 20.441966000000001
#
# number of rings (size 3 to 8) (size 9 to 14) (size 15 to 20)
#    0.000    1.250    3.750    2.625    3.500    0.000 
#    0.000    0.000    0.000    1.500    0.000    0.000 
#    0.000    0.000    0.000    0.000    0.000    0.000 
#
# Total GULP energy -89197.900472 kJ/mol
# GULP energy per Si atom -5574.868779 kJ/mol
# Density = 2.039544 g / cm^3
# Si number density = 20.441966 Si / 1000 Ang^3
#
#
#
# Elastic Constant Matrix: (Units=GPa)
#
#
# Indices 1 2 3 4 5 6 
#
# 1 116.3122 12.1906 4.2683 6.4360 21.8465 -4.9671
# 2 12.1906 61.2825 16.3272 16.9286 9.7727 3.0039
# 3 4.2683 16.3272 51.1109 15.4469 10.2155 1.0778
# 4 6.4360 16.9286 15.4469 28.7609 0.8403 -0.0533
# 5 21.8465 9.7727 10.2155 0.8403 38.1112 9.5005
# 6 -4.9671 3.0039 1.0778 -0.0533 9.5005 24.0326
#
#
#
# Elastic Compliance Matrix: (Units=1/GPa)
#
#
# Indices 1 2 3 4 5 6 
#
# 1 0.010359 -0.000882 0.001492 -0.002377 -0.007325 0.005075
# 2 -0.000882 0.020720 -0.002642 -0.010478 -0.003551 -0.001273
# 3 0.001492 -0.002642 0.025378 -0.012191 -0.007300 0.002359
# 4 -0.002377 -0.010478 -0.012191 0.047823 0.006540 -0.001114
# 5 -0.007325 -0.003551 -0.007300 0.006540 0.036987 -0.015350
# 6 0.005075 -0.001273 0.002359 -0.001114 -0.015350 0.048778
#
#
# Mechanical properties :
#
#
# Convention : Reuss Voigt Hill
#
# Bulk Modulus (GPa) = 19.08645 32.69753 25.89199
# Shear Modulus (GPa) = 23.63219 31.24222 27.43720
#
# Velocity S-wave (km/s) = 3.40378 3.91364 3.66758
# Velocity P-wave (km/s) = 4.98044 6.03756 5.53430
#
# Compressibility (1/GPa) = 0.05239319
#
# Stress axis : x y z
#
# Youngs Moduli (GPa) = 96.53206 48.26154 39.40352
#
# Poissons Ratio (x) = 0.04258 -0.05879
# Poissons Ratio (y) = 0.08518 0.10411
# Poissons Ratio (z) = -0.14402 0.12751
#
# Static dielectric constant tensor:
#      x y z
#    x 1.723880 0.030770 0.030470 
#    y 0.030770 1.779410 0.000570 
#    z 0.030470 0.000570 1.821340 
# 
# From -- ./inp_files/95164.got.cif
#   From: 2010.05.17/outbox.cif.g08.bks.cpg/sg2_48_cif.got.tgz:95164.got - 2010.06.03 11:33:40.
