data_PCOD9093193
_publ_section_title
;
Structure prediction by ZEFSAII (Michael W. Deem and Ramdas Pophale) SiO2 
 PCOD9093193
Probable space group: P -1
;
_chemical_formula_sum "Si O2"
_cell_formula_units_Z 16
_cell_length_a 4.984290
_cell_length_b 9.595765
_cell_length_c 21.436777
_cell_angle_alpha 51.619281
_cell_angle_beta 49.909134
_cell_angle_gamma 71.521358
_cell_volume 608.961731
_symmetry_space_group_name_H-M "P -1"
_symmetry_group_IT_number 2
_symmetry_cell_setting 'triclinic'
loop_
_space_group_symop_operation_xyz
x,y,z
-x,-y,-z
loop_
_atom_site_type_symbol
_atom_site_label
_atom_site_fract_x
_atom_site_fract_y
_atom_site_fract_z
Si Si1 0.598638 0.183604 0.273358
Si Si2 0.261534 0.983843 0.822745
Si Si3 0.404499 0.348254 0.139248
Si Si4 0.676634 0.368988 0.554730
Si Si5 0.687387 0.296107 0.914381
Si Si6 0.536294 0.934500 0.097624
Si Si7 0.035445 0.289535 0.409471
Si Si8 0.342962 0.472939 0.689239
O O1 0.582624 0.025463 0.268212
O O2 0.480238 0.341691 0.204211
O O3 0.306907 0.162547 0.377157
O O4 0.006263 0.245747 0.214776
O O5 0.321734 0.779413 0.891220
O O6 0.430038 0.095043 0.825779
O O7 0.859391 0.011723 0.867672
O O8 0.455705 0.559257 0.059189
O O9 0.500000 0.500000 0.500000
O O10 0.412473 0.332607 0.663195
O O11 0.000000 0.500000 0.500000
O O12 0.828318 0.237435 0.519430
O O13 0.037861 0.401190 0.802107
O O14 0.453466 0.223818 0.909589
O O15 0.764073 0.117252 0.987763
O O16 0.306354 0.464592 0.341215
O O17 0.772844 0.354972 0.378898
#
# Coordination Sequence:
#
# PCOD9093193 Si02
#       8
#     2   2   2   2   2   2   2   2
#     4  10  17  33  57  82 101 139 174 225 264 325
#     4  10  21  43  54  78 107 145 183 231 273 323
#     4  10  20  35  59  78 105 136 191 217 277 312
#     4   8  16  26  44  74 108 138 160 209 269 326
#     4  11  24  39  56  83 107 150 183 233 269 321
#     4  11  26  39  55  76 115 144 191 225 274 315
#     4  10  16  29  51  82 108 131 172 219 269 320
#     4  10  18  31  49  72 111 142 172 210 276 324
#
# _framework density 26.274225999999999
#
# number of rings (size 3 to 8) (size 9 to 14) (size 15 to 20)
#    0.750    1.250    3.750    0.000    0.000    7.000 
#    0.000    0.000    0.000    0.000    0.000    1.750 
#    0.000    0.125    0.000    0.000    0.000    0.000 
#
# Total GULP energy -89349.679565 kJ/mol
# GULP energy per Si atom -5584.354973 kJ/mol
# Density = 2.621443 g / cm^3
# Si number density = 26.274226 Si / 1000 Ang^3
#
#
#
# Elastic Constant Matrix: (Units=GPa)
#
#
# Indices 1 2 3 4 5 6 
#
# 1 164.9681 25.0644 25.5531 7.2548 9.6656 -1.8194
# 2 25.0644 145.2557 7.1373 27.9288 -0.0077 30.7135
# 3 25.5531 7.1373 92.9243 16.6243 16.9365 8.6188
# 4 7.2548 27.9288 16.6243 43.3665 6.9049 8.5209
# 5 9.6656 -0.0077 16.9365 6.9049 25.8348 17.0189
# 6 -1.8194 30.7135 8.6188 8.5209 17.0189 35.3867
#
#
#
# Elastic Compliance Matrix: (Units=1/GPa)
#
#
# Indices 1 2 3 4 5 6 
#
# 1 0.006963 -0.002343 -0.001378 0.000709 -0.005234 0.005074
# 2 -0.002343 0.011511 0.000000 -0.006100 0.012008 -0.014417
# 3 -0.001378 0.000000 0.013159 -0.003827 -0.008105 0.001543
# 4 0.000709 -0.006100 -0.003827 0.028952 -0.007362 0.002833
# 5 -0.005234 0.012008 -0.008105 -0.007362 0.076884 -0.043921
# 6 0.005074 -0.014417 0.001543 0.002833 -0.043921 0.061099
#
#
# Mechanical properties :
#
#
# Convention : Reuss Voigt Hill
#
# Bulk Modulus (GPa) = 41.33876 57.62863 49.48370
# Shear Modulus (GPa) = 23.35649 43.94381 33.65015
#
# Velocity S-wave (km/s) = 2.98476 4.09407 3.58261
# Velocity P-wave (km/s) = 5.25796 6.65805 5.99899
#
# Compressibility (1/GPa) = 0.02419037
#
# Stress axis : x y z
#
# Youngs Moduli (GPa) = 143.62178 86.87503 75.99298
#
# Poissons Ratio (x) = 0.20357 0.10473
# Poissons Ratio (y) = 0.33654 -0.00002
# Poissons Ratio (z) = 0.19793 -0.00002
#
# Static dielectric constant tensor:
#      x y z
#    x 1.981180 -0.019990 0.006780 
#    y -0.019990 2.165500 0.005740 
#    z 0.006780 0.005740 2.166080 
# 
# From -- ./inp_files/615371.got.cif
#   From: 2010.05.17/outbox.cif.g08.bks.cpg/sg2_308_cif.got.tgz:615371.got - 2010.06.03 11:33:40.
