data_PCOD9093536
_publ_section_title
;
Structure prediction by ZEFSAII (Michael W. Deem and Ramdas Pophale) SiO2 
 PCOD9093536
Probable space group: P -1
;
_chemical_formula_sum "Si O2"
_cell_formula_units_Z 16
_cell_length_a 16.204487
_cell_length_b 5.261854
_cell_length_c 17.098717
_cell_angle_alpha 115.483741
_cell_angle_beta 31.518556
_cell_angle_gamma 113.188087
_cell_volume 686.892390
_symmetry_space_group_name_H-M "P -1"
_symmetry_group_IT_number 2
_symmetry_cell_setting 'triclinic'
loop_
_space_group_symop_operation_xyz
x,y,z
-x,-y,-z
loop_
_atom_site_type_symbol
_atom_site_label
_atom_site_fract_x
_atom_site_fract_y
_atom_site_fract_z
Si Si1 0.820250 0.767903 0.204221
Si Si2 0.335228 0.034016 0.506183
Si Si3 0.369999 0.391706 0.370285
Si Si4 0.977068 0.654124 0.916524
Si Si5 0.542705 0.707567 0.887936
Si Si6 0.013697 0.198857 0.588138
Si Si7 0.968933 0.081808 0.771622
Si Si8 0.749514 0.643412 0.853817
O O1 0.664606 0.837090 0.388478
O O2 0.896330 0.503851 0.151670
O O3 0.944214 0.048304 0.136931
O O4 0.823272 0.690873 0.099627
O O5 0.395720 0.224112 0.408702
O O6 0.142735 0.014889 0.650232
O O7 0.398055 0.724809 0.407682
O O8 0.448573 0.290548 0.212887
O O9 0.184634 0.338540 0.490036
O O10 0.948943 0.412903 0.842996
O O11 0.699982 0.654032 0.803175
O O12 0.408959 0.478772 0.992235
O O13 0.500000 0.000000 0.000000
O O14 0.971574 0.000307 0.668768
O O15 0.884406 0.424788 0.719239
O O16 0.000000 0.000000 0.500000
O O17 0.811653 0.900577 0.895156
#
# Coordination Sequence:
#
# PCOD9093536 Si02
#       8
#     2   2   2   2   2   2   2   2
#     4   9  16  32  48  84 118 155 181 221 289 345
#     4  10  20  34  56  84 118 145 186 238 282 351
#     4  11  23  37  59  83 114 150 194 234 295 337
#     4   9  18  28  54  78 121 155 182 224 282 353
#     4  11  26  42  55  78 110 157 203 248 288 345
#     4  11  22  35  56  84 114 147 190 243 294 351
#     4  10  20  33  52  85 114 148 190 234 289 341
#     4  11  23  39  60  75 115 150 200 245 296 340
#
# _framework density 23.293312
#
# number of rings (size 3 to 8) (size 9 to 14) (size 15 to 20)
#    0.000    1.750    1.250    4.500    8.750    1.000 
#    0.000    0.000    0.000    0.000    0.000    1.750 
#    0.000    0.000    0.000    0.000    0.000    0.000 
#
# Total GULP energy -89171.263786 kJ/mol
# GULP energy per Si atom -5573.203987 kJ/mol
# Density = 2.324030 g / cm^3
# Si number density = 23.293312 Si / 1000 Ang^3
#
#
#
# Elastic Constant Matrix: (Units=GPa)
#
#
# Indices 1 2 3 4 5 6 
#
# 1 55.4864 -148.3723 40.5695 -66.7788 -25.0143 -33.6574
# 2 -148.3723 962.4983 -127.8139 408.2361 299.0139 95.3166
# 3 40.5695 -127.8139 96.7779 -46.9959 -1.9394 -20.1561
# 4 -66.7788 408.2361 -46.9959 209.8510 139.0985 54.9312
# 5 -25.0143 299.0139 -1.9394 139.0985 148.4635 31.1099
# 6 -33.6574 95.3166 -20.1561 54.9312 31.1099 46.3308
#
#
#
# Elastic Compliance Matrix: (Units=1/GPa)
#
#
# Indices 1 2 3 4 5 6 
#
# 1 0.070692 0.014052 -0.002855 0.002672 -0.026430 0.035782
# 2 0.014052 0.011712 0.006107 -0.011207 -0.012885 0.010710
# 3 -0.002855 0.006107 0.019344 -0.001556 -0.011816 0.003556
# 4 0.002672 -0.011207 -0.001556 0.035249 -0.007405 -0.012500
# 5 -0.026430 -0.012885 -0.011816 -0.007405 0.038081 -0.014624
# 6 0.035782 0.010710 0.003556 -0.012500 -0.014624 0.051731
#
#
# Mechanical properties :
#
#
# Convention : Reuss Voigt Hill
#
# Bulk Modulus (GPa) = 7.33371 71.50325 39.41848
# Shear Modulus (GPa) = 21.03912 170.95435 95.99674
#
# Velocity S-wave (km/s) = 3.00863 8.57621 6.42663
# Velocity P-wave (km/s) = 3.90185 11.35042 8.48694
#
# Compressibility (1/GPa) = 0.13635671
#
# Stress axis : x y z
#
# Youngs Moduli (GPa) = 14.14588 85.38307 51.69633
#
# Poissons Ratio (x) = -1.19984 0.14759
# Poissons Ratio (y) = -0.19878 -0.31572
# Poissons Ratio (z) = 0.04039 -0.52145
#
# Static dielectric constant tensor:
#      x y z
#    x 2.131720 0.263420 -0.125610 
#    y 0.263420 2.450110 -0.287320 
#    z -0.125610 -0.287320 2.022770 
# 
# From -- ./inp_files/112679.got.cif
#   From: 2010.05.17/outbox.cif.g08.bks.cpg/sg2_57_cif.got.tgz:112679.got - 2010.06.03 11:33:40.
