data_PCOD9093150
_publ_section_title
;
Structure prediction by ZEFSAII (Michael W. Deem and Ramdas Pophale) SiO2 
 PCOD9093150
Probable space group: P -1
;
_chemical_formula_sum "Si O2"
_cell_formula_units_Z 16
_cell_length_a 15.037317
_cell_length_b 12.972459
_cell_length_c 15.104735
_cell_angle_alpha 79.901208
_cell_angle_beta 19.072305
_cell_angle_gamma 75.969113
_cell_volume 920.530402
_symmetry_space_group_name_H-M "P -1"
_symmetry_group_IT_number 2
_symmetry_cell_setting 'triclinic'
loop_
_space_group_symop_operation_xyz
x,y,z
-x,-y,-z
loop_
_atom_site_type_symbol
_atom_site_label
_atom_site_fract_x
_atom_site_fract_y
_atom_site_fract_z
Si Si1 0.803984 0.922490 0.721766
Si Si2 0.715978 0.577528 0.287894
Si Si3 0.531156 0.608975 0.778262
Si Si4 0.012408 0.564156 0.189751
Si Si5 0.309157 0.613190 0.253568
Si Si6 0.723327 0.713678 0.734419
Si Si7 0.263020 0.320079 0.925981
Si Si8 0.142583 0.756305 0.559947
O O1 0.785670 0.827228 0.684863
O O2 0.937861 0.860023 0.693835
O O3 0.000000 0.000000 0.500000
O O4 0.500000 0.000000 0.000000
O O5 0.500000 0.500000 0.500000
O O6 0.667928 0.668723 0.244069
O O7 0.800777 0.608107 0.300991
O O8 0.000000 0.500000 0.000000
O O9 0.536387 0.509935 0.855886
O O10 0.568361 0.707551 0.788695
O O11 0.804446 0.569244 0.466574
O O12 0.250158 0.626053 0.982314
O O13 0.190567 0.442792 0.015338
O O14 0.186305 0.665988 0.454959
O O15 0.028834 0.630818 0.455971
O O16 0.525888 0.677813 0.000071
O O17 0.538261 0.243056 0.720599
O O18 0.996702 0.279042 0.215757
#
# Coordination Sequence:
#
# PCOD9093150 Si02
#       8
#     2   2   2   2   2   2   2   2
#     4  11  23  40  56  73 102 132 171 228 278 309
#     4  10  20  32  47  71 105 147 179 207 247 294
#     4  12  21  32  50  74 109 140 181 208 244 310
#     4  11  20  32  48  74 109 149 173 207 252 294
#     4  11  19  34  48  73 108 137 174 212 252 296
#     4  11  23  35  52  74  99 140 179 216 261 306
#     4  11  18  33  49  74 105 136 180 208 239 306
#     4  11  20  32  56  75  98 136 177 212 259 302
#
# _framework density 17.381284000000001
#
# number of rings (size 3 to 8) (size 9 to 14) (size 15 to 20)
#    0.000    1.000    2.500    9.000    0.000    0.000 
#    0.000    0.000    0.000    0.000    0.000    0.000 
#    0.000   20.000    0.000    0.000    0.000    0.000 
#
# Total GULP energy -89215.364536 kJ/mol
# GULP energy per Si atom -5575.960284 kJ/mol
# Density = 1.734172 g / cm^3
# Si number density = 17.381284 Si / 1000 Ang^3
#
#
#
# Elastic Constant Matrix: (Units=GPa)
#
#
# Indices 1 2 3 4 5 6 
#
# 1 89.7161 33.1608 34.6547 -4.6610 -9.4647 2.1727
# 2 33.1608 62.1584 22.8003 -5.7004 -0.5074 0.5334
# 3 34.6547 22.8003 123.4235 -12.1198 -12.4002 2.1374
# 4 -4.6610 -5.7004 -12.1198 26.3078 -3.8677 -7.7228
# 5 -9.4647 -0.5074 -12.4002 -3.8677 31.8844 -1.8267
# 6 2.1727 0.5334 2.1374 -7.7228 -1.8267 20.0231
#
#
#
# Elastic Compliance Matrix: (Units=1/GPa)
#
#
# Indices 1 2 3 4 5 6 
#
# 1 0.015142 -0.007080 -0.002569 0.000229 0.003366 -0.000785
# 2 -0.007080 0.020734 -0.001839 0.002416 -0.002128 0.001150
# 3 -0.002569 -0.001839 0.009977 0.004710 0.003741 0.001421
# 4 0.000229 0.002416 0.004710 0.047468 0.008757 0.018515
# 5 0.003366 -0.002128 0.003741 0.008757 0.035183 0.005879
# 6 -0.000785 0.001150 0.001421 0.018515 0.005879 0.057522
#
#
# Mechanical properties :
#
#
# Convention : Reuss Voigt Hill
#
# Bulk Modulus (GPa) = 43.71369 50.72553 47.21961
# Shear Modulus (GPa) = 23.08112 27.95519 25.51815
#
# Velocity S-wave (km/s) = 3.64803 4.01478 3.83579
# Velocity P-wave (km/s) = 6.55352 7.12310 6.84424
#
# Compressibility (1/GPa) = 0.02287613
#
# Stress axis : x y z
#
# Youngs Moduli (GPa) = 66.04280 48.23011 100.23082
#
# Poissons Ratio (x) = 0.34148 0.25752
# Poissons Ratio (y) = 0.46760 0.18430
# Poissons Ratio (z) = 0.16968 0.08868
#
# Static dielectric constant tensor:
#      x y z
#    x 1.716990 -0.027200 0.005390 
#    y -0.027200 1.582980 -0.006200 
#    z 0.005390 -0.006200 1.601030 
# 
# From -- ./inp_files/465187.got.cif
#   From: 2010.05.17/outbox.cif.g08.bks.cpg/sg2_233_cif.got.tgz:465187.got - 2010.06.03 11:33:40.
