data_PCOD9093302
_publ_section_title
;
Structure prediction by ZEFSAII (Michael W. Deem and Ramdas Pophale) SiO2 
 PCOD9093302
Probable space group: P -1
;
_chemical_formula_sum "Si O2"
_cell_formula_units_Z 16
_cell_length_a 16.237842
_cell_length_b 7.899932
_cell_length_c 9.234521
_cell_angle_alpha 52.498311
_cell_angle_beta 44.682392
_cell_angle_gamma 42.369436
_cell_volume 552.568435
_symmetry_space_group_name_H-M "P -1"
_symmetry_group_IT_number 2
_symmetry_cell_setting 'triclinic'
loop_
_space_group_symop_operation_xyz
x,y,z
-x,-y,-z
loop_
_atom_site_type_symbol
_atom_site_label
_atom_site_fract_x
_atom_site_fract_y
_atom_site_fract_z
Si Si1 0.573604 0.060032 0.052124
Si Si2 0.191285 0.795645 0.926010
Si Si3 0.553746 0.213371 0.336507
Si Si4 0.705189 0.761840 0.623591
Si Si5 0.987823 0.272016 0.248196
Si Si6 0.732617 0.536800 0.256328
Si Si7 0.773143 0.222210 0.706119
Si Si8 0.022219 0.333795 0.730456
O O1 0.553000 0.140208 0.209378
O O2 0.421046 0.127665 0.163127
O O3 0.676931 0.758991 0.091844
O O4 0.645737 0.199392 0.828305
O O5 0.347275 0.679264 0.848103
O O6 0.219817 0.713050 0.763997
O O7 0.090631 0.101811 0.883729
O O8 0.105978 0.680684 0.155484
O O9 0.400058 0.376407 0.517672
O O10 0.644242 0.965130 0.458307
O O11 0.732214 0.492752 0.678569
O O12 0.849916 0.731514 0.500811
O O13 0.873242 0.497550 0.169747
O O14 0.884358 0.175519 0.468877
O O15 0.009291 0.413944 0.279981
O O16 0.136474 0.010813 0.173060
#
# Coordination Sequence:
#
# PCOD9093302 Si02
#       8
#     2   2   2   2   2   2   2   2
#     4  11  20  33  60  85 107 140 181 226 270 320
#     4  10  20  32  55  81 110 145 179 219 270 326
#     4  10  20  36  56  82 113 141 177 227 270 317
#     4   9  18  34  54  79 110 138 174 223 270 311
#     4  10  21  37  56  81 114 140 177 229 271 315
#     4  11  21  35  56  85 111 140 179 227 274 316
#     4  10  20  33  55  85 110 141 178 222 273 322
#     4   9  18  34  51  75 109 142 174 218 266 313
#
# _framework density 28.955689
#
# number of rings (size 3 to 8) (size 9 to 14) (size 15 to 20)
#    0.000    2.000    0.000    6.750    0.000    5.000 
#    0.000    0.000    0.000   33.000    0.000   31.500 
#    0.000    0.000    0.000    0.000    0.000    0.000 
#
# Total GULP energy -89588.060888 kJ/mol
# GULP energy per Si atom -5599.253805 kJ/mol
# Density = 2.888978 g / cm^3
# Si number density = 28.955689 Si / 1000 Ang^3
#
#
#
# Elastic Constant Matrix: (Units=GPa)
#
#
# Indices 1 2 3 4 5 6 
#
# 1 89.6163 18.8498 25.8241 2.4308 -16.6188 -18.6176
# 2 18.8498 149.3462 45.4869 3.0855 -14.2379 -23.4075
# 3 25.8241 45.4869 215.3716 7.8581 -48.7772 -16.6716
# 4 2.4308 3.0855 7.8581 59.8597 -16.0811 -9.3506
# 5 -16.6188 -14.2379 -48.7772 -16.0811 71.3882 2.6053
# 6 -18.6176 -23.4075 -16.6716 -9.3506 2.6053 28.8161
#
#
#
# Elastic Compliance Matrix: (Units=1/GPa)
#
#
# Indices 1 2 3 4 5 6 
#
# 1 0.013608 0.000030 -0.000330 0.001686 0.003003 0.008900
# 2 0.000030 0.008045 -0.001063 0.000919 0.000867 0.006159
# 3 -0.000330 -0.001063 0.005921 0.000665 0.003826 0.002219
# 4 0.001686 0.000919 0.000665 0.019101 0.005043 0.007963
# 5 0.003003 0.000867 0.003826 0.005043 0.018454 0.004826
# 6 0.008900 0.006159 0.002219 0.007963 0.004826 0.048887
#
#
# Mechanical properties :
#
#
# Convention : Reuss Voigt Hill
#
# Bulk Modulus (GPa) = 40.24743 70.51729 55.38236
# Shear Modulus (GPa) = 39.99178 56.29100 48.14139
#
# Velocity S-wave (km/s) = 3.72040 4.41391 4.08191
# Velocity P-wave (km/s) = 5.69078 7.09811 6.43305
#
# Compressibility (1/GPa) = 0.02484631
#
# Stress axis : x y z
#
# Youngs Moduli (GPa) = 73.48696 124.30314 168.88527
#
# Poissons Ratio (x) = -0.00367 0.05578
# Poissons Ratio (y) = -0.00217 0.17953
# Poissons Ratio (z) = 0.02427 0.13213
#
# Static dielectric constant tensor:
#      x y z
#    x 2.395780 -0.121420 0.101830 
#    y -0.121420 2.242170 -0.031280 
#    z 0.101830 -0.031280 2.363890 
# 
# From -- ./inp_files/469464.got.cif
#   From: 2010.05.17/outbox.cif.g08.bks.cpg/sg2_235_cif.got.tgz:469464.got - 2010.06.03 11:33:40.
