data_PCOD9093658
_publ_section_title
;
Structure prediction by ZEFSAII (Michael W. Deem and Ramdas Pophale) SiO2 
 PCOD9093658
Probable space group: P -1
;
_chemical_formula_sum "Si O2"
_cell_formula_units_Z 16
_cell_length_a 16.850543
_cell_length_b 11.289309
_cell_length_c 8.547732
_cell_angle_alpha 45.696582
_cell_angle_beta 45.860387
_cell_angle_gamma 30.681267
_cell_volume 573.018260
_symmetry_space_group_name_H-M "P -1"
_symmetry_group_IT_number 2
_symmetry_cell_setting 'triclinic'
loop_
_space_group_symop_operation_xyz
x,y,z
-x,-y,-z
loop_
_atom_site_type_symbol
_atom_site_label
_atom_site_fract_x
_atom_site_fract_y
_atom_site_fract_z
Si Si1 0.215732 0.841716 0.291928
Si Si2 0.093960 0.592940 0.855029
Si Si3 0.473324 0.282201 0.125535
Si Si4 0.781722 0.980120 0.590070
Si Si5 0.620486 0.867190 0.096906
Si Si6 0.929429 0.536950 0.334582
Si Si7 0.843837 0.193103 0.921980
Si Si8 0.335491 0.953175 0.633402
O O1 0.223290 0.842475 0.472617
O O2 0.049157 0.127978 0.239268
O O3 0.701895 0.470678 0.918547
O O4 0.170054 0.759822 0.293304
O O5 0.284746 0.408237 0.776795
O O6 0.108367 0.469347 0.787321
O O7 0.042000 0.573063 0.112370
O O8 0.527551 0.044701 0.206007
O O9 0.611332 0.263296 0.894925
O O10 0.502868 0.236937 0.312343
O O11 0.656968 0.088396 0.522341
O O12 0.956473 0.733341 0.507738
O O13 0.744041 0.880658 0.863297
O O14 0.500000 0.000000 0.000000
O O15 0.774856 0.767745 0.426869
O O16 0.767796 0.092499 0.126327
O O17 0.000000 0.000000 0.000000
#
# Coordination Sequence:
#
# PCOD9093658 Si02
#       8
#     2   2   2   2   2   2   2   2
#     4   9  17  36  56  79 108 141 191 219 266 329
#     4   9  14  28  54  82 102 142 179 222 258 314
#     4  10  20  37  57  80 105 149 192 221 267 336
#     4   9  20  31  56  86 109 144 186 220 276 330
#     4  10  20  33  55  82 117 142 181 225 278 325
#     4   9  14  27  52  83 107 135 178 221 259 321
#     4  11  24  37  57  81 106 144 190 234 278 321
#     4  11  18  36  57  80 111 146 187 230 266 325
#
# _framework density 27.922319000000002
#
# number of rings (size 3 to 8) (size 9 to 14) (size 15 to 20)
#    0.000    2.250    3.750    3.375    1.750    0.000 
#    0.000    6.875    5.500    0.000    0.000    0.000 
#    0.000    0.000    0.000    0.000    0.000    0.000 
#
# Total GULP energy -89148.297163 kJ/mol
# GULP energy per Si atom -5571.768573 kJ/mol
# Density = 2.785877 g / cm^3
# Si number density = 27.922319 Si / 1000 Ang^3
#
#
#
# Elastic Constant Matrix: (Units=GPa)
#
#
# Indices 1 2 3 4 5 6 
#
# 1 116.3434 66.5758 34.0572 -0.0271 29.7659 -29.1250
# 2 66.5758 190.8142 32.3203 16.5722 6.1192 -27.2629
# 3 34.0572 32.3203 80.9057 10.7082 13.0205 -2.4464
# 4 -0.0271 16.5722 10.7082 31.0999 -3.9255 -1.6336
# 5 29.7659 6.1192 13.0205 -3.9255 51.0777 -3.8904
# 6 -29.1250 -27.2629 -2.4464 -1.6336 -3.8904 48.4378
#
#
#
# Elastic Compliance Matrix: (Units=1/GPa)
#
#
# Indices 1 2 3 4 5 6 
#
# 1 0.015241 -0.003757 -0.004027 0.002893 -0.006695 0.006406
# 2 -0.003757 0.007213 -0.001062 -0.003202 0.001484 0.001758
# 3 -0.004027 -0.001062 0.015411 -0.005137 -0.002046 -0.002578
# 4 0.002893 -0.003202 -0.005137 0.036052 0.002864 0.001124
# 5 -0.006695 0.001484 -0.002046 0.002864 0.023946 -0.001274
# 6 0.006406 0.001758 -0.002578 0.001124 -0.001274 0.025292
#
#
# Mechanical properties :
#
#
# Convention : Reuss Voigt Hill
#
# Bulk Modulus (GPa) = 49.56931 72.66331 61.11631
# Shear Modulus (GPa) = 33.88199 43.13041 38.50620
#
# Velocity S-wave (km/s) = 3.48722 3.93448 3.71758
# Velocity P-wave (km/s) = 5.83142 6.83520 6.35317
#
# Compressibility (1/GPa) = 0.02017377
#
# Stress axis : x y z
#
# Youngs Moduli (GPa) = 65.61228 138.63710 64.89062
#
# Poissons Ratio (x) = 0.52084 0.26129
# Poissons Ratio (y) = 0.24650 0.06891
# Poissons Ratio (z) = 0.26420 0.14722
#
# Static dielectric constant tensor:
#      x y z
#    x 2.263050 0.076350 -0.169280 
#    y 0.076350 2.250770 -0.018310 
#    z -0.169280 -0.018310 2.458740 
# 
# From -- ./inp_files/300730.got.cif
#   From: 2010.05.17/outbox.cif.g08.bks.cpg/sg2_151_cif.got.tgz:300730.got - 2010.06.03 11:33:40.
