data_PCOD9093570
_publ_section_title
;
Structure prediction by ZEFSAII (Michael W. Deem and Ramdas Pophale) SiO2 
 PCOD9093570
Probable space group: P -1
;
_chemical_formula_sum "Si O2"
_cell_formula_units_Z 16
_cell_length_a 6.986189
_cell_length_b 11.671511
_cell_length_c 13.329698
_cell_angle_alpha 61.288369
_cell_angle_beta 130.865389
_cell_angle_gamma 113.398638
_cell_volume 715.261504
_symmetry_space_group_name_H-M "P -1"
_symmetry_group_IT_number 2
_symmetry_cell_setting 'triclinic'
loop_
_space_group_symop_operation_xyz
x,y,z
-x,-y,-z
loop_
_atom_site_type_symbol
_atom_site_label
_atom_site_fract_x
_atom_site_fract_y
_atom_site_fract_z
Si Si1 0.148012 0.442424 0.937415
Si Si2 0.317260 0.357994 0.611072
Si Si3 0.141390 0.599865 0.343404
Si Si4 0.797881 0.929503 0.383271
Si Si5 0.786562 0.115527 0.756528
Si Si6 0.356475 0.617807 0.096663
Si Si7 0.867896 0.850074 0.953865
Si Si8 0.404396 0.901453 0.920925
O O1 0.079797 0.440306 0.797363
O O2 0.874005 0.460360 0.886168
O O3 0.353963 0.546930 0.017833
O O4 0.199744 0.296098 0.047488
O O5 0.171743 0.479417 0.477390
O O6 0.587189 0.374472 0.634869
O O7 0.174109 0.216263 0.587470
O O8 0.402999 0.367975 0.752536
O O9 0.118649 0.744868 0.320673
O O10 0.516342 0.911809 0.343966
O O11 0.777520 0.028576 0.242752
O O12 0.000000 0.000000 0.500000
O O13 0.887112 0.974582 0.833594
O O14 0.879771 0.144852 0.892182
O O15 0.294758 0.764021 0.989915
O O16 0.643096 0.871097 0.946795
O O17 0.500000 0.000000 0.000000
#
# Coordination Sequence:
#
# PCOD9093570 Si02
#       8
#     2   2   2   2   2   2   2   2
#     4   9  19  34  55  82 106 145 181 227 275 323
#     4   9  16  30  49  74 109 144 173 222 269 319
#     4   8  15  28  52  76 101 137 188 213 259 329
#     4  10  20  33  53  83 114 143 183 226 273 331
#     4   8  16  32  55  79 100 139 186 221 261 323
#     4  10  20  34  53  83 115 134 184 236 274 319
#     4   9  18  33  60  81 109 146 184 229 271 331
#     4  11  22  35  56  87 109 143 185 233 281 321
#
# _framework density 22.369441999999999
#
# number of rings (size 3 to 8) (size 9 to 14) (size 15 to 20)
#    0.000    2.750    1.250    0.750    7.000    0.500 
#    2.250    0.000    0.000   10.500    0.000    0.000 
#    0.000    0.000    0.000    0.000    0.000    0.000 
#
# Total GULP energy -89305.081447 kJ/mol
# GULP energy per Si atom -5581.567590 kJ/mol
# Density = 2.231853 g / cm^3
# Si number density = 22.369442 Si / 1000 Ang^3
#
#
#
# Elastic Constant Matrix: (Units=GPa)
#
#
# Indices 1 2 3 4 5 6 
#
# 1 74.0023 5.3360 19.8722 15.0807 2.4785 2.4918
# 2 5.3360 199.4059 118.6250 -1.1182 -2.3117 -12.5746
# 3 19.8722 118.6250 177.7759 -4.8490 -4.5858 4.6001
# 4 15.0807 -1.1182 -4.8490 51.0246 -0.1589 2.8511
# 5 2.4785 -2.3117 -4.5858 -0.1589 21.9524 6.6359
# 6 2.4918 -12.5746 4.6001 2.8511 6.6359 28.3395
#
#
#
# Elastic Compliance Matrix: (Units=1/GPa)
#
#
# Indices 1 2 3 4 5 6 
#
# 1 0.015180 0.001186 -0.002697 -0.004762 -0.002389 0.000668
# 2 0.001186 0.009162 -0.006479 -0.001088 -0.002237 0.005646
# 3 -0.002697 -0.006479 0.010531 0.001966 0.003455 -0.005354
# 4 -0.004762 -0.001088 0.001966 0.021341 0.001886 -0.002972
# 5 -0.002389 -0.002237 0.003455 0.001886 0.050350 -0.013323
# 6 0.000668 0.005646 -0.005354 -0.002972 -0.013323 0.042021
#
#
# Mechanical properties :
#
#
# Convention : Reuss Voigt Hill
#
# Bulk Modulus (GPa) = 52.93286 82.09452 67.51369
# Shear Modulus (GPa) = 29.26337 40.75334 35.00835
#
# Velocity S-wave (km/s) = 3.62081 4.27292 3.96031
# Velocity P-wave (km/s) = 6.41831 7.81811 7.15254
#
# Compressibility (1/GPa) = 0.01889186
#
# Stress axis : x y z
#
# Youngs Moduli (GPa) = 65.87770 109.15010 94.95488
#
# Poissons Ratio (x) = -0.12944 0.25608
# Poissons Ratio (y) = -0.07812 0.61525
# Poissons Ratio (z) = 0.17766 0.70723
#
# Static dielectric constant tensor:
#      x y z
#    x 2.007130 0.002500 -0.019600 
#    y 0.002500 1.839500 -0.027000 
#    z -0.019600 -0.027000 1.804190 
# 
# From -- ./inp_files/500221.got.cif
#   From: 2010.05.17/outbox.cif.g08.bks.cpg/sg2_251_cif.got.tgz:500221.got - 2010.06.03 11:33:40.
