data_PCOD9093898
_publ_section_title
;
Structure prediction by ZEFSAII (Michael W. Deem and Ramdas Pophale) SiO2 
 PCOD9093898
Probable space group: P -1
;
_chemical_formula_sum "Si O2"
_cell_formula_units_Z 15
_cell_length_a 7.753844
_cell_length_b 10.215370
_cell_length_c 20.482118
_cell_angle_alpha 145.172009
_cell_angle_beta 91.581687
_cell_angle_gamma 72.716018
_cell_volume 812.151481
_symmetry_space_group_name_H-M "P -1"
_symmetry_group_IT_number 2
_symmetry_cell_setting 'triclinic'
loop_
_space_group_symop_operation_xyz
x,y,z
-x,-y,-z
loop_
_atom_site_type_symbol
_atom_site_label
_atom_site_fract_x
_atom_site_fract_y
_atom_site_fract_z
Si Si1 0.526591 0.498261 0.422124
Si Si2 0.000000 0.000000 0.500000
Si Si3 0.845601 0.934286 0.886808
Si Si4 0.728737 0.379117 0.169442
Si Si5 0.009825 0.755638 0.680270
Si Si6 0.482239 0.025745 0.588994
Si Si7 0.080603 0.173131 0.438189
Si Si8 0.360962 0.411707 0.261557
O O1 0.500000 0.500000 0.500000
O O2 0.759586 0.342044 0.346686
O O3 0.424048 0.381001 0.326010
O O4 0.443001 0.797249 0.520566
O O5 0.181153 0.699988 0.365403
O O6 0.008489 0.927072 0.548099
O O7 0.712549 0.795351 0.841305
O O8 0.065737 0.753750 0.843708
O O9 0.878545 0.939527 0.811997
O O10 0.758503 0.207517 0.035228
O O11 0.673337 0.677587 0.276915
O O12 0.550466 0.383434 0.211744
O O13 0.997569 0.485804 0.571985
O O14 0.952572 0.873895 0.655947
O O15 0.500000 0.000000 0.500000
O O16 0.689721 0.959204 0.595430
#
# Coordination Sequence:
#
# PCOD9093898 Si02
#       8
#     2   1   2   2   2   2   2   2
#     4  11  23  37  62  94 130 162 197 267 326 374
#     4  12  20  32  60  98 120 150 204 262 312 368
#     4  11  24  40  67  87 129 176 209 258 316 379
#     4  11  23  44  62  93 126 168 219 261 307 378
#     4  10  20  39  57  89 124 162 206 252 314 376
#     4  11  20  38  63  90 127 157 206 270 311 365
#     4  10  20  33  60  88 125 157 200 261 311 368
#     4  12  23  38  64  96 127 161 212 261 321 375
#
# _framework density 18.469462
#
# number of rings (size 3 to 8) (size 9 to 14) (size 15 to 20)
#    0.000    1.067    5.333    2.000    5.600    0.000 
#    0.000    0.667    0.000    0.800    0.000    0.000 
#    0.000    0.000    0.000    0.000    0.000    0.000 
#
# Total GULP energy -83508.798571 kJ/mol
# GULP energy per Si atom -5567.253238 kJ/mol
# Density = 1.842743 g / cm^3
# Si number density = 18.469462 Si / 1000 Ang^3
#
#
#
# Elastic Constant Matrix: (Units=GPa)
#
#
# Indices 1 2 3 4 5 6 
#
# 1 66.3532 12.0411 19.8587 -0.5523 7.2121 -9.1198
# 2 12.0411 134.2241 50.2549 -16.7181 5.5935 0.7746
# 3 19.8587 50.2549 109.0903 -9.3930 0.6494 -11.7451
# 4 -0.5523 -16.7181 -9.3930 27.9234 -1.8982 -2.4477
# 5 7.2121 5.5935 0.6494 -1.8982 24.3154 -3.6223
# 6 -9.1198 0.7746 -11.7451 -2.4477 -3.6223 21.4026
#
#
#
# Elastic Compliance Matrix: (Units=1/GPa)
#
#
# Indices 1 2 3 4 5 6 
#
# 1 0.017029 -0.000609 -0.002282 -0.000614 -0.004114 0.005260
# 2 -0.000609 0.009719 -0.004323 0.003960 -0.002060 -0.002879
# 3 -0.002282 -0.004323 0.012483 0.002327 0.002522 0.006728
# 4 -0.000614 0.003960 0.002327 0.039693 0.003194 0.005952
# 5 -0.004114 -0.002060 0.002522 0.003194 0.044125 0.007539
# 6 0.005260 -0.002879 0.006728 0.005952 0.007539 0.054717
#
#
# Mechanical properties :
#
#
# Convention : Reuss Voigt Hill
#
# Bulk Modulus (GPa) = 40.31540 52.66410 46.48975
# Shear Modulus (GPa) = 24.94230 29.89581 27.41906
#
# Velocity S-wave (km/s) = 3.67885 4.02762 3.85718
# Velocity P-wave (km/s) = 6.31829 7.08555 6.71289
#
# Compressibility (1/GPa) = 0.02480442
#
# Stress axis : x y z
#
# Youngs Moduli (GPa) = 58.72273 102.88871 80.10676
#
# Poissons Ratio (x) = 0.06263 0.18277
# Poissons Ratio (y) = 0.03575 0.34633
# Poissons Ratio (z) = 0.13398 0.44482
#
# Static dielectric constant tensor:
#      x y z
#    x 1.685030 0.008350 0.003510 
#    y 0.008350 1.621560 -0.019380 
#    z 0.003510 -0.019380 1.619790 
# 
# From -- ./inp_files/555723.got.cif
#   From: 2010.05.17/outbox.cif.g08.bks.cpg/sg2_278_cif.got.tgz:555723.got - 2010.06.03 11:33:40.
