data_PCOD9093856
_publ_section_title
;
Structure prediction by ZEFSAII (Michael W. Deem and Ramdas Pophale) SiO2 
 PCOD9093856
Probable space group: P -1
;
_chemical_formula_sum "Si O2"
_cell_formula_units_Z 16
_cell_length_a 14.287757
_cell_length_b 8.914066
_cell_length_c 15.199542
_cell_angle_alpha 91.390217
_cell_angle_beta 28.630812
_cell_angle_gamma 109.146457
_cell_volume 712.340053
_symmetry_space_group_name_H-M "P -1"
_symmetry_group_IT_number 2
_symmetry_cell_setting 'triclinic'
loop_
_space_group_symop_operation_xyz
x,y,z
-x,-y,-z
loop_
_atom_site_type_symbol
_atom_site_label
_atom_site_fract_x
_atom_site_fract_y
_atom_site_fract_z
Si Si1 0.592516 0.445335 0.044889
Si Si2 0.989168 0.240077 0.793866
Si Si3 0.458703 0.049731 0.130288
Si Si4 0.957957 0.361468 0.453331
Si Si5 0.168104 0.050596 0.946893
Si Si6 0.856187 0.463778 0.006790
Si Si7 0.679224 0.157398 0.278917
Si Si8 0.626027 0.446299 0.649530
O O1 0.441441 0.220536 0.142357
O O2 0.432052 0.510015 0.207095
O O3 0.732907 0.471581 0.021525
O O4 0.794000 0.568286 0.803011
O O5 0.016196 0.395994 0.839974
O O6 0.204021 0.358579 0.544994
O O7 0.712155 0.128569 0.976798
O O8 0.995785 0.086208 0.837217
O O9 0.211672 0.856960 0.374849
O O10 0.500000 0.000000 0.000000
O O11 0.790532 0.377138 0.523662
O O12 0.000000 0.500000 0.500000
O O13 0.366179 0.274244 0.813286
O O14 0.318442 0.973877 0.795882
O O15 0.000000 0.000000 0.000000
O O16 0.049842 0.673802 0.895733
O O17 0.654931 0.297185 0.241627
O O18 0.500000 0.000000 0.500000
#
# Coordination Sequence:
#
# PCOD9093856 Si02
#       8
#     2   2   2   2   2   2   2   2
#     4  11  25  40  68 100 128 177 224 265 344 397
#     4  10  21  40  65  89 133 182 217 273 343 386
#     4  11  21  44  69  95 131 171 218 274 340 402
#     4  12  24  46  73  97 135 175 217 282 341 402
#     4  11  24  39  59  96 136 177 225 274 333 392
#     4   9  19  37  55  88 125 164 223 264 316 394
#     4  10  20  33  59  85 121 172 217 265 323 381
#     4  12  24  43  69  98 138 173 225 283 325 402
#
# _framework density 22.461182000000001
#
# number of rings (size 3 to 8) (size 9 to 14) (size 15 to 20)
#    0.000    1.250    5.000    1.500    0.000    3.000 
#    0.000    1.250    0.000    0.000    0.000    0.000 
#    0.000    0.000    0.000    0.000    0.000    0.000 
#
# Total GULP energy -89407.087018 kJ/mol
# GULP energy per Si atom -5587.942939 kJ/mol
# Density = 2.241006 g / cm^3
# Si number density = 22.461182 Si / 1000 Ang^3
#
#
#
# Elastic Constant Matrix: (Units=GPa)
#
#
# Indices 1 2 3 4 5 6 
#
# 1 71.4887 3.5744 23.1508 -11.4516 12.9194 10.7408
# 2 3.5744 88.2336 65.2677 -16.8825 -1.3827 27.6488
# 3 23.1508 65.2677 175.6684 -26.8182 42.8034 -2.3994
# 4 -11.4516 -16.8825 -26.8182 41.2181 -3.9063 3.4350
# 5 12.9194 -1.3827 42.8034 -3.9063 33.3677 -0.4842
# 6 10.7408 27.6488 -2.3994 3.4350 -0.4842 32.2113
#
#
#
# Elastic Compliance Matrix: (Units=1/GPa)
#
#
# Indices 1 2 3 4 5 6 
#
# 1 0.018421 0.008785 -0.004873 0.006782 0.000063 -0.014769
# 2 0.008785 0.046022 -0.024525 0.012002 0.030716 -0.045078
# 3 -0.004873 -0.024525 0.022237 -0.001542 -0.027486 0.024084
# 4 0.006782 0.012002 -0.001542 0.031707 0.003329 -0.016009
# 5 0.000063 0.030716 -0.027486 0.003329 0.066463 -0.027790
# 6 -0.014769 -0.045078 0.024084 -0.016009 -0.027790 0.077746
#
#
# Mechanical properties :
#
#
# Convention : Reuss Voigt Hill
#
# Bulk Modulus (GPa) = 21.99968 57.70850 39.85409
# Shear Modulus (GPa) = 15.67524 37.58595 26.63060
#
# Velocity S-wave (km/s) = 2.64461 4.09513 3.44703
# Velocity P-wave (km/s) = 4.37505 6.93602 5.79868
#
# Compressibility (1/GPa) = 0.04545520
#
# Stress axis : x y z
#
# Youngs Moduli (GPa) = 54.28555 21.72864 44.96919
#
# Poissons Ratio (x) = -0.19089 0.21915
# Poissons Ratio (y) = -0.47691 1.10285
# Poissons Ratio (z) = 0.26455 0.53289
#
# Static dielectric constant tensor:
#      x y z
#    x 1.893630 -0.045380 0.009160 
#    y -0.045380 1.910170 0.062970 
#    z 0.009160 0.062970 1.889760 
# 
# From -- ./inp_files/505058.got.cif
#   From: 2010.05.17/outbox.cif.g08.bks.cpg/sg2_253_cif.got.tgz:505058.got - 2010.06.03 11:33:40.
