data_PCOD9093412
_publ_section_title
;
Structure prediction by ZEFSAII (Michael W. Deem and Ramdas Pophale) SiO2 
 PCOD9093412
Probable space group: P -1
;
_chemical_formula_sum "Si O2"
_cell_formula_units_Z 16
_cell_length_a 14.005454
_cell_length_b 22.685088
_cell_length_c 21.469783
_cell_angle_alpha 20.298899
_cell_angle_beta 149.099057
_cell_angle_gamma 160.508532
_cell_volume 769.278221
_symmetry_space_group_name_H-M "P -1"
_symmetry_group_IT_number 2
_symmetry_cell_setting 'triclinic'
loop_
_space_group_symop_operation_xyz
x,y,z
-x,-y,-z
loop_
_atom_site_type_symbol
_atom_site_label
_atom_site_fract_x
_atom_site_fract_y
_atom_site_fract_z
Si Si1 0.511912 0.187318 0.521848
Si Si2 0.776152 0.723470 0.776508
Si Si3 0.225510 0.631917 0.087188
Si Si4 0.869785 0.248804 0.828013
Si Si5 0.852054 0.250947 0.956156
Si Si6 0.861438 0.868573 0.984231
Si Si7 0.983785 0.663419 0.402609
Si Si8 0.980805 0.729357 0.765227
O O1 0.344738 0.170462 0.390247
O O2 0.713065 0.180341 0.615123
O O3 0.734600 0.473915 0.397477
O O4 0.287909 0.964635 0.669054
O O5 0.895293 0.813172 0.682961
O O6 0.489695 0.400610 0.941119
O O7 0.019784 0.819337 0.863878
O O8 0.107028 0.557679 0.164732
O O9 0.241573 0.469564 0.218306
O O10 0.999519 0.586659 0.965979
O O11 0.534088 0.946784 0.943717
O O12 0.983016 0.340253 0.871879
O O13 0.900014 0.455253 0.609859
O O14 0.024512 0.218124 0.901482
O O15 0.500000 0.000000 0.000000
O O16 0.966257 0.113498 0.764702
O O17 0.000000 0.000000 0.000000
#
# Coordination Sequence:
#
# PCOD9093412 Si02
#       8
#     2   2   2   2   2   2   2   2
#     4  11  21  38  58  94 134 158 198 266 319 376
#     4  11  22  39  62  96 124 165 210 257 315 374
#     4   9  19  35  62  91 116 162 209 255 312 370
#     4  11  21  44  63  85 129 174 206 254 312 370
#     4   9  22  42  64  86 122 172 215 252 306 374
#     4  12  23  38  65  97 130 161 208 262 316 376
#     4  11  23  38  61  94 130 166 204 253 321 376
#     4  10  20  32  61  94 122 150 205 265 319 363
#
# _framework density 20.798717
#
# number of rings (size 3 to 8) (size 9 to 14) (size 15 to 20)
#    0.000    1.500    3.750    1.875    5.250    0.500 
#    0.000    1.875    0.000    5.250    0.000    0.000 
#    0.000    0.000    0.000    0.000    0.000    0.000 
#
# Total GULP energy -89173.292022 kJ/mol
# GULP energy per Si atom -5573.330751 kJ/mol
# Density = 2.075138 g / cm^3
# Si number density = 20.798717 Si / 1000 Ang^3
#
#
#
# Elastic Constant Matrix: (Units=GPa)
#
#
# Indices 1 2 3 4 5 6 
#
# 1 97.0169 30.6425 28.5256 4.5301 -26.3176 -14.3422
# 2 30.6425 83.0457 30.8986 15.2913 -6.5763 2.6957
# 3 28.5256 30.8986 83.5720 2.5599 -7.2614 -3.8913
# 4 4.5301 15.2913 2.5599 34.4195 0.6603 -4.2317
# 5 -26.3176 -6.5763 -7.2614 0.6603 20.5062 1.8067
# 6 -14.3422 2.6957 -3.8913 -4.2317 1.8067 28.6741
#
#
#
# Elastic Compliance Matrix: (Units=1/GPa)
#
#
# Indices 1 2 3 4 5 6 
#
# 1 0.019998 -0.004990 -0.002645 0.000431 0.022342 0.008769
# 2 -0.004990 0.017033 -0.004804 -0.007216 -0.001908 -0.005694
# 3 -0.002645 -0.004804 0.014667 0.001555 0.000090 0.001343
# 4 0.000431 -0.007216 0.001555 0.032895 -0.002811 0.006137
# 5 0.022342 -0.001908 0.000090 -0.002811 0.076409 0.006138
# 6 0.008769 -0.005694 0.001343 0.006137 0.006138 0.040497
#
#
# Mechanical properties :
#
#
# Convention : Reuss Voigt Hill
#
# Bulk Modulus (GPa) = 37.28432 49.30756 43.29594
# Shear Modulus (GPa) = 21.24797 28.29116 24.76957
#
# Velocity S-wave (km/s) = 3.19972 3.69214 3.45471
# Velocity P-wave (km/s) = 5.62282 6.47567 6.06426
#
# Compressibility (1/GPa) = 0.02682093
#
# Stress axis : x y z
#
# Youngs Moduli (GPa) = 50.00520 58.71124 68.17812
#
# Poissons Ratio (x) = 0.29294 0.18032
# Poissons Ratio (y) = 0.24950 0.32754
# Poissons Ratio (z) = 0.13225 0.28206
#
# Static dielectric constant tensor:
#      x y z
#    x 1.850750 0.001290 0.050000 
#    y 0.001290 1.787220 -0.003830 
#    z 0.050000 -0.003830 1.832060 
# 
# From -- ./inp_files/598519.got.cif
#   From: 2010.05.17/outbox.cif.g08.bks.cpg/sg2_300_cif.got.tgz:598519.got - 2010.06.03 11:33:40.
