data_PCOD9093166
_publ_section_title
;
Structure prediction by ZEFSAII (Michael W. Deem and Ramdas Pophale) SiO2 
 PCOD9093166
Probable space group: P -1
;
_chemical_formula_sum "Si O2"
_cell_formula_units_Z 16
_cell_length_a 9.117896
_cell_length_b 16.371196
_cell_length_c 6.944245
_cell_angle_alpha 47.915846
_cell_angle_beta 103.992657
_cell_angle_gamma 120.122979
_cell_volume 658.151570
_symmetry_space_group_name_H-M "P -1"
_symmetry_group_IT_number 2
_symmetry_cell_setting 'triclinic'
loop_
_space_group_symop_operation_xyz
x,y,z
-x,-y,-z
loop_
_atom_site_type_symbol
_atom_site_label
_atom_site_fract_x
_atom_site_fract_y
_atom_site_fract_z
Si Si1 0.035970 0.858869 0.020413
Si Si2 0.469480 0.292319 0.334469
Si Si3 0.631022 0.143341 0.769820
Si Si4 0.321474 0.869291 0.642949
Si Si5 0.293466 0.378854 0.711087
Si Si6 0.080752 0.949272 0.319455
Si Si7 0.575352 0.804759 0.946210
Si Si8 0.369681 0.465402 0.212890
O O1 0.879410 0.733184 0.090396
O O2 0.203735 0.842499 0.086956
O O3 0.007186 0.870288 0.226206
O O4 0.031600 0.985214 0.751890
O O5 0.532472 0.226078 0.616321
O O6 0.397302 0.202932 0.265973
O O7 0.337160 0.339044 0.295345
O O8 0.622408 0.420951 0.088866
O O9 0.690421 0.168281 0.525214
O O10 0.500000 0.000000 0.000000
O O11 0.150234 0.882127 0.598359
O O12 0.385723 0.790740 0.918724
O O13 0.500000 0.000000 0.500000
O O14 0.262623 0.439010 0.415476
O O15 0.429928 0.477056 0.743836
O O16 0.399014 0.307116 0.788258
O O17 0.266681 0.067370 0.133454
#
# Coordination Sequence:
#
# PCOD9093166 Si02
#       8
#     2   2   2   2   2   2   2   2
#     4   9  17  29  46  72 103 130 163 209 245 285
#     4   9  18  32  50  72 102 131 161 207 251 289
#     4  10  20  32  49  73 100 133 165 197 249 307
#     4   8  14  26  45  67  94 127 160 191 229 280
#     4   9  17  31  53  75  93 124 173 211 242 286
#     4   8  14  25  45  69  97 133 158 189 243 293
#     4   8  14  26  46  72  99 128 161 201 244 292
#     4   9  18  33  54  75  93 127 172 210 245 288
#
# _framework density 24.310510000000001
#
# number of rings (size 3 to 8) (size 9 to 14) (size 15 to 20)
#    0.000    3.250    0.000    0.000    0.000    6.000 
#    0.000    1.250    0.000   51.750    0.000    0.000 
#    0.000    0.000    0.000    0.000    0.000    0.000 
#
# Total GULP energy -89119.845341 kJ/mol
# GULP energy per Si atom -5569.990334 kJ/mol
# Density = 2.425518 g / cm^3
# Si number density = 24.310510 Si / 1000 Ang^3
#
#
#
# Elastic Constant Matrix: (Units=GPa)
#
#
# Indices 1 2 3 4 5 6 
#
# 1 90.9326 19.2004 22.6168 -0.1362 22.7522 8.7775
# 2 19.2004 70.4466 -0.5952 1.7145 0.7131 7.1862
# 3 22.6168 -0.5952 123.9616 7.0471 27.2043 10.6807
# 4 -0.1362 1.7145 7.0471 32.1421 3.0249 5.1967
# 5 22.7522 0.7131 27.2043 3.0249 34.1165 11.3889
# 6 8.7775 7.1862 10.6807 5.1967 11.3889 29.2741
#
#
#
# Elastic Compliance Matrix: (Units=1/GPa)
#
#
# Indices 1 2 3 4 5 6 
#
# 1 0.014225 -0.003845 -0.000726 0.001235 -0.009014 0.000231
# 2 -0.003845 0.015638 0.000436 -0.000606 0.003284 -0.004015
# 3 -0.000726 0.000436 0.009888 -0.001448 -0.007125 -0.000468
# 4 0.001235 -0.000606 -0.001448 0.032372 -0.000817 -0.005122
# 5 -0.009014 0.003284 -0.007125 -0.000817 0.045348 -0.013001
# 6 0.000231 -0.004015 -0.000468 -0.005122 -0.013001 0.041214
#
#
# Mechanical properties :
#
#
# Convention : Reuss Voigt Hill
#
# Bulk Modulus (GPa) = 31.76532 40.86499 36.31516
# Shear Modulus (GPa) = 28.17734 35.38113 31.77923
#
# Velocity S-wave (km/s) = 3.40819 3.81909 3.61947
# Velocity P-wave (km/s) = 5.34626 6.02440 5.69543
#
# Compressibility (1/GPa) = 0.03148087
#
# Stress axis : x y z
#
# Youngs Moduli (GPa) = 70.30105 63.94680 101.13481
#
# Poissons Ratio (x) = 0.24591 0.07339
# Poissons Ratio (y) = 0.27034 -0.04414
# Poissons Ratio (z) = 0.05102 -0.02791
#
# Static dielectric constant tensor:
#      x y z
#    x 2.064070 -0.099530 0.018280 
#    y -0.099530 1.972890 0.041980 
#    z 0.018280 0.041980 2.057320 
# 
# From -- ./inp_files/220315.got.cif
#   From: 2010.05.17/outbox.cif.g08.bks.cpg/sg2_111_cif.got.tgz:220315.got - 2010.06.03 11:33:40.
