data_PCOD9093638
_publ_section_title
;
Structure prediction by ZEFSAII (Michael W. Deem and Ramdas Pophale) SiO2 
 PCOD9093638
Probable space group: P -1
;
_chemical_formula_sum "Si O2"
_cell_formula_units_Z 14
_cell_length_a 9.525691
_cell_length_b 15.068415
_cell_length_c 9.405249
_cell_angle_alpha 108.423535
_cell_angle_beta 31.824033
_cell_angle_gamma 108.772713
_cell_volume 671.544495
_symmetry_space_group_name_H-M "P -1"
_symmetry_group_IT_number 2
_symmetry_cell_setting 'triclinic'
loop_
_space_group_symop_operation_xyz
x,y,z
-x,-y,-z
loop_
_atom_site_type_symbol
_atom_site_label
_atom_site_fract_x
_atom_site_fract_y
_atom_site_fract_z
Si Si1 0.376735 0.462900 0.780900
Si Si2 0.078054 0.954932 0.740740
Si Si3 0.911947 0.252725 0.876066
Si Si4 0.403358 0.104546 0.738014
Si Si5 0.499768 0.740611 0.505375
Si Si6 0.100441 0.451364 0.702447
Si Si7 0.207232 0.950223 0.201688
O O1 0.480104 0.360724 0.635205
O O2 0.243380 0.474831 0.745197
O O3 0.638610 0.536406 0.614965
O O4 0.123555 0.479540 0.103981
O O5 0.329551 0.918920 0.422590
O O6 0.247661 0.012918 0.747601
O O7 0.907437 0.027212 0.843901
O O8 0.850523 0.871469 0.938415
O O9 0.796058 0.161302 0.843712
O O10 0.214699 0.237313 0.651169
O O11 0.944976 0.348615 0.806343
O O12 0.733551 0.262875 0.176978
O O13 0.506989 0.180090 0.568334
O O14 0.000000 0.000000 0.500000
O O15 0.500000 0.000000 0.000000
#
# Coordination Sequence:
#
# PCOD9093638 Si02
#       7
#     2   2   2   2   2   2   2
#     4   9  16  26  43  69 101 134 159 194 247 305
#     4  10  21  36  52  74  99 137 173 212 264 294
#     4  11  21  32  49  71 102 139 177 205 253 306
#     4  10  20  33  55  75 104 131 171 210 252 326
#     4  11  19  30  50  77 106 133 168 203 251 322
#     4   9  16  28  42  65 100 137 164 194 242 311
#     4  12  25  39  54  73 104 138 184 224 252 293
#
# _framework density 20.847463999999999
#
# number of rings (size 3 to 8) (size 9 to 14) (size 15 to 20)
#    0.000    1.714    1.429    6.857    4.000    0.000 
#    0.000    0.000    0.000    0.000    0.000    0.000 
#    0.000   22.857    0.000    0.000    0.000    0.000 
#
# Total GULP energy -77971.010671 kJ/mol
# GULP energy per Si atom -5569.357905 kJ/mol
# Density = 2.080001 g / cm^3
# Si number density = 20.847464 Si / 1000 Ang^3
#
#
#
# Elastic Constant Matrix: (Units=GPa)
#
#
# Indices 1 2 3 4 5 6 
#
# 1 19.2821 12.4507 17.4392 -0.6849 -10.5088 1.9585
# 2 12.4507 124.6416 58.3795 -13.8988 -4.4757 3.3668
# 3 17.4392 58.3795 148.0840 -17.9120 -31.2546 3.3678
# 4 -0.6849 -13.8988 -17.9120 29.4662 1.1970 -4.2106
# 5 -10.5088 -4.4757 -31.2546 1.1970 26.5819 -3.0476
# 6 1.9585 3.3668 3.3678 -4.2106 -3.0476 15.9661
#
#
#
# Elastic Compliance Matrix: (Units=1/GPa)
#
#
# Indices 1 2 3 4 5 6 
#
# 1 0.070751 -0.006022 -0.000838 -0.003203 0.025753 -0.003161
# 2 -0.006022 0.010822 -0.004552 0.002282 -0.006146 -0.001154
# 3 -0.000838 -0.004552 0.011920 0.004883 0.012963 0.002310
# 4 -0.003203 0.002282 0.004883 0.039167 0.004245 0.010021
# 5 0.025753 -0.006146 0.012963 0.004245 0.062791 0.008508
# 6 -0.003161 -0.001154 0.002310 0.010021 0.008508 0.067043
#
#
# Mechanical properties :
#
#
# Convention : Reuss Voigt Hill
#
# Bulk Modulus (GPa) = 14.15059 52.06072 33.10566
# Shear Modulus (GPa) = 16.18781 27.98538 22.08660
#
# Velocity S-wave (km/s) = 2.78958 3.66784 3.25843
# Velocity P-wave (km/s) = 4.14464 6.55468 5.48370
#
# Compressibility (1/GPa) = 0.07066841
#
# Stress axis : x y z
#
# Youngs Moduli (GPa) = 14.13413 92.40856 83.89170
#
# Poissons Ratio (x) = 0.55648 0.07032
# Poissons Ratio (y) = 0.08511 0.38186
# Poissons Ratio (z) = 0.01185 0.42063
#
# Static dielectric constant tensor:
#      x y z
#    x 1.790360 -0.032340 0.080020 
#    y -0.032340 1.779980 0.016960 
#    z 0.080020 0.016960 1.909620 
# 
# From -- ./inp_files/437339.got.cif
#   From: 2010.05.17/outbox.cif.g08.bks.cpg/sg2_219_cif.got.tgz:437339.got - 2010.06.03 11:33:40.
