data_PCOD9093539
_publ_section_title
;
Structure prediction by ZEFSAII (Michael W. Deem and Ramdas Pophale) SiO2 
 PCOD9093539
Probable space group: P -1
;
_chemical_formula_sum "Si O2"
_cell_formula_units_Z 16
_cell_length_a 13.071866
_cell_length_b 11.905265
_cell_length_c 5.461716
_cell_angle_alpha 59.985323
_cell_angle_beta 86.109125
_cell_angle_gamma 97.828151
_cell_volume 719.911759
_symmetry_space_group_name_H-M "P -1"
_symmetry_group_IT_number 2
_symmetry_cell_setting 'triclinic'
loop_
_space_group_symop_operation_xyz
x,y,z
-x,-y,-z
loop_
_atom_site_type_symbol
_atom_site_label
_atom_site_fract_x
_atom_site_fract_y
_atom_site_fract_z
Si Si1 0.562743 0.095077 0.188829
Si Si2 0.997237 0.327132 0.330703
Si Si3 0.819149 0.203305 0.815638
Si Si4 0.563378 0.823852 0.256976
Si Si5 0.914728 0.871720 0.733264
Si Si6 0.657228 0.277351 0.361860
Si Si7 0.163270 0.557662 0.065718
Si Si8 0.205062 0.105811 0.764444
O O1 0.654860 0.182706 0.229135
O O2 0.500000 0.000000 0.500000
O O3 0.584611 0.984192 0.119914
O O4 0.487961 0.186685 0.990903
O O5 0.030735 0.254006 0.167846
O O6 0.101786 0.417256 0.325151
O O7 0.928970 0.219506 0.633519
O O8 0.912051 0.413124 0.173703
O O9 0.724826 0.225189 0.622074
O O10 0.836039 0.328320 0.858971
O O11 0.798938 0.053035 0.078528
O O12 0.464541 0.744483 0.514968
O O13 0.679543 0.803872 0.303806
O O14 0.833237 0.856427 0.535933
O O15 0.864300 0.879986 0.998375
O O16 0.000000 0.000000 0.500000
O O17 0.721567 0.417845 0.101771
#
# Coordination Sequence:
#
# PCOD9093539 Si02
#       8
#     2   2   2   2   2   2   2   2
#     4   9  17  30  52  78 123 154 193 248 310 360
#     4  10  23  40  63  86 123 155 216 257 313 365
#     4  11  21  36  60  94 120 163 199 261 317 378
#     4  10  20  33  52  86 121 163 198 254 299 378
#     4  12  26  45  62  93 125 175 206 257 303 374
#     4  10  20  33  56  89 124 155 199 255 320 366
#     4  10  21  39  63  92 116 161 201 267 316 367
#     4  12  26  38  67  91 131 168 210 245 315 375
#
# _framework density 22.224945000000002
#
# number of rings (size 3 to 8) (size 9 to 14) (size 15 to 20)
#    0.000    1.500    1.250    5.250    8.750    0.000 
#    0.000    0.000    0.000    1.500    0.000    0.000 
#    0.000    0.000    0.000    0.000    0.000    0.000 
#
# Total GULP energy -89098.458126 kJ/mol
# GULP energy per Si atom -5568.653633 kJ/mol
# Density = 2.217436 g / cm^3
# Si number density = 22.224945 Si / 1000 Ang^3
#
#
#
# Elastic Constant Matrix: (Units=GPa)
#
#
# Indices 1 2 3 4 5 6 
#
# 1 108.5029 23.0122 27.7854 -4.1255 -28.7199 24.8124
# 2 23.0122 59.9580 0.7456 3.5623 -12.1417 16.3648
# 3 27.7854 0.7456 42.0003 11.7750 -4.2079 13.0048
# 4 -4.1255 3.5623 11.7750 29.1406 12.8542 -3.4327
# 5 -28.7199 -12.1417 -4.2079 12.8542 39.3253 -1.7146
# 6 24.8124 16.3648 13.0048 -3.4327 -1.7146 31.5882
#
#
#
# Elastic Compliance Matrix: (Units=1/GPa)
#
#
# Indices 1 2 3 4 5 6 
#
# 1 0.015864 -0.001730 -0.006882 -0.000141 0.010004 -0.008204
# 2 -0.001730 0.025394 0.011726 -0.015520 0.012135 -0.017652
# 3 -0.006882 0.011726 0.043448 -0.027408 0.011290 -0.020922
# 4 -0.000141 -0.015520 -0.027408 0.062113 -0.027052 0.024716
# 5 0.010004 0.012135 0.011290 -0.027052 0.045693 -0.019252
# 6 -0.008204 -0.017652 -0.020922 0.024716 -0.019252 0.057501
#
#
# Mechanical properties :
#
#
# Convention : Reuss Voigt Hill
#
# Bulk Modulus (GPa) = 10.99707 34.83863 22.91785
# Shear Modulus (GPa) = 18.24178 30.60536 24.42357
#
# Velocity S-wave (km/s) = 2.86803 3.71492 3.31860
# Velocity P-wave (km/s) = 3.99078 5.84040 5.00183
#
# Compressibility (1/GPa) = 0.09093335
#
# Stress axis : x y z
#
# Youngs Moduli (GPa) = 63.03446 39.37956 23.01627
#
# Poissons Ratio (x) = 0.06812 0.15841
# Poissons Ratio (y) = 0.10904 -0.26989
# Poissons Ratio (z) = 0.43383 -0.46177
#
# Static dielectric constant tensor:
#      x y z
#    x 1.891480 0.009250 -0.048270 
#    y 0.009250 1.848010 0.004900 
#    z -0.048270 0.004900 1.891830 
# 
# From -- ./inp_files/68567.got.cif
#   From: 2010.05.17/outbox.cif.g08.bks.cpg/sg2_35_cif.got.tgz:68567.got - 2010.06.03 11:33:40.
