data_PCOD9093255
_publ_section_title
;
Structure prediction by ZEFSAII (Michael W. Deem and Ramdas Pophale) SiO2 
 PCOD9093255
Probable space group: P -1
;
_chemical_formula_sum "Si O2"
_cell_formula_units_Z 16
_cell_length_a 12.459995
_cell_length_b 9.243028
_cell_length_c 11.822239
_cell_angle_alpha 141.032146
_cell_angle_beta 94.930651
_cell_angle_gamma 87.054451
_cell_volume 852.826350
_symmetry_space_group_name_H-M "P -1"
_symmetry_group_IT_number 2
_symmetry_cell_setting 'triclinic'
loop_
_space_group_symop_operation_xyz
x,y,z
-x,-y,-z
loop_
_atom_site_type_symbol
_atom_site_label
_atom_site_fract_x
_atom_site_fract_y
_atom_site_fract_z
Si Si1 0.490091 0.051247 0.377951
Si Si2 0.812013 0.061105 0.913962
Si Si3 0.244453 0.050959 0.410044
Si Si4 0.487040 0.555045 0.162615
Si Si5 0.432364 0.889925 0.027442
Si Si6 0.306265 0.668166 0.354925
Si Si7 0.130383 0.457937 0.378557
Si Si8 0.885952 0.497204 0.333612
O O1 0.367496 0.124620 0.433998
O O2 0.587434 0.232678 0.510896
O O3 0.509650 0.827993 0.323444
O O4 0.486816 0.969097 0.197943
O O5 0.690443 0.035950 0.935419
O O6 0.800724 0.076199 0.785227
O O7 0.871226 0.820907 0.792043
O O8 0.861689 0.282169 0.117773
O O9 0.176111 0.273532 0.566950
O O10 0.251279 0.873580 0.406261
O O11 0.365029 0.515215 0.171951
O O12 0.500000 0.500000 0.000000
O O13 0.561760 0.388049 0.138573
O O14 0.500000 0.000000 0.000000
O O15 0.224433 0.546055 0.357917
O O16 0.147909 0.541700 0.560871
O O17 0.014398 0.540364 0.377467
#
# Coordination Sequence:
#
# PCOD9093255 Si02
#       8
#     2   2   2   2   2   2   2   2
#     4   9  20  35  54  82 119 156 177 229 302 346
#     4  10  21  38  60  81 116 155 193 240 297 342
#     4   9  20  39  58  89 113 150 197 239 285 353
#     4   9  18  34  54  77 118 156 181 220 285 354
#     4  10  20  32  52  88 117 143 196 237 272 353
#     4  11  21  37  59  84 127 145 191 246 288 337
#     4  10  23  42  58  89 114 154 197 250 286 344
#     4  10  22  41  66  79 114 159 202 233 301 349
#
# _framework density 18.761146
#
# number of rings (size 3 to 8) (size 9 to 14) (size 15 to 20)
#    0.000    2.250    0.000    3.375    5.250    0.500 
#    0.000    3.125    0.000    0.000    0.000    0.000 
#    0.000    0.000    0.000    0.000    0.000    0.000 
#
# Total GULP energy -89179.286211 kJ/mol
# GULP energy per Si atom -5573.705388 kJ/mol
# Density = 1.871844 g / cm^3
# Si number density = 18.761146 Si / 1000 Ang^3
#
#
#
# Elastic Constant Matrix: (Units=GPa)
#
#
# Indices 1 2 3 4 5 6 
#
# 1 59.9632 20.4535 24.5058 -2.2256 -13.5750 -6.0420
# 2 20.4535 44.8844 20.0217 -4.7700 -5.9834 -4.7113
# 3 24.5058 20.0217 117.4718 -1.3226 0.1395 -9.7988
# 4 -2.2256 -4.7700 -1.3226 20.2438 -8.3820 -11.1599
# 5 -13.5750 -5.9834 0.1395 -8.3820 27.8039 1.3365
# 6 -6.0420 -4.7113 -9.7988 -11.1599 1.3365 35.8438
#
#
#
# Elastic Compliance Matrix: (Units=1/GPa)
#
#
# Indices 1 2 3 4 5 6 
#
# 1 0.023877 -0.006249 -0.003460 0.008667 0.012728 0.004482
# 2 -0.006249 0.029161 -0.003102 0.011583 0.006477 0.005296
# 3 -0.003460 -0.003102 0.009891 -0.000701 -0.002694 0.001595
# 4 0.008667 0.011583 -0.000701 0.079914 0.029542 0.026571
# 5 0.012728 0.006477 -0.002694 0.029542 0.052036 0.009518
# 6 0.004482 0.005296 0.001595 0.026571 0.009518 0.037705
#
#
# Mechanical properties :
#
#
# Convention : Reuss Voigt Hill
#
# Bulk Modulus (GPa) = 26.80381 39.14238 32.97310
# Shear Modulus (GPa) = 18.47454 27.26753 22.87104
#
# Velocity S-wave (km/s) = 3.14143 3.81649 3.49530
# Velocity P-wave (km/s) = 5.24176 6.35056 5.82261
#
# Compressibility (1/GPa) = 0.03730813
#
# Stress axis : x y z
#
# Youngs Moduli (GPa) = 41.88127 34.29202 101.09716
#
# Poissons Ratio (x) = 0.21430 0.34975
# Poissons Ratio (y) = 0.26172 0.31361
# Poissons Ratio (z) = 0.14489 0.10638
#
# Static dielectric constant tensor:
#      x y z
#    x 1.630330 -0.023530 -0.014100 
#    y -0.023530 1.656550 -0.004310 
#    z -0.014100 -0.004310 1.772640 
# 
# From -- ./inp_files/276317.got.cif
#   From: 2010.05.17/outbox.cif.g08.bks.cpg/sg2_139_cif.got.tgz:276317.got - 2010.06.03 11:33:40.
