data_PCOD9093318
_publ_section_title
;
Structure prediction by ZEFSAII (Michael W. Deem and Ramdas Pophale) SiO2 
 PCOD9093318
Probable space group: P -1
;
_chemical_formula_sum "Si O2"
_cell_formula_units_Z 16
_cell_length_a 12.105756
_cell_length_b 12.349656
_cell_length_c 23.353084
_cell_angle_alpha 25.547599
_cell_angle_beta 149.673810
_cell_angle_gamma 142.223325
_cell_volume 759.162573
_symmetry_space_group_name_H-M "P -1"
_symmetry_group_IT_number 2
_symmetry_cell_setting 'triclinic'
loop_
_space_group_symop_operation_xyz
x,y,z
-x,-y,-z
loop_
_atom_site_type_symbol
_atom_site_label
_atom_site_fract_x
_atom_site_fract_y
_atom_site_fract_z
Si Si1 0.392210 0.377771 0.645593
Si Si2 0.496054 0.820764 0.639150
Si Si3 0.185552 0.309250 0.466280
Si Si4 0.749243 0.839263 0.918250
Si Si5 0.791889 0.283761 0.805356
Si Si6 0.850792 0.102281 0.721587
Si Si7 0.794382 0.645308 0.312475
Si Si8 0.705165 0.164603 0.335666
O O1 0.287878 0.262384 0.596069
O O2 0.649480 0.362302 0.757784
O O3 0.304037 0.661068 0.471336
O O4 0.311113 0.241377 0.732169
O O5 0.388362 0.552241 0.700436
O O6 0.353888 0.890893 0.598034
O O7 0.500000 0.000000 0.500000
O O8 0.742081 0.863159 0.753037
O O9 0.276549 0.553256 0.357174
O O10 0.927508 0.334423 0.350401
O O11 0.236981 0.084539 0.553844
O O12 0.510871 0.738200 0.838537
O O13 0.746404 0.996922 0.900716
O O14 0.833106 0.031758 0.813447
O O15 0.949684 0.659327 0.097067
O O16 0.089610 0.179719 0.767111
O O17 0.000000 0.500000 0.500000
#
# Coordination Sequence:
#
# PCOD9093318 Si02
#       8
#     2   2   2   2   2   2   2   2
#     4  11  19  34  58  86 109 139 186 232 280 328
#     4  11  19  31  52  83 112 140 178 229 275 337
#     4  11  21  34  58  84 114 139 180 241 280 325
#     4  10  21  37  54  78 111 150 190 216 280 336
#     4  11  21  34  57  79 109 154 181 227 273 338
#     4  10  20  36  57  81 112 147 183 237 277 329
#     4  10  20  32  55  86 109 144 181 228 290 328
#     4  10  22  36  54  85 113 142 182 233 284 327
#
# _framework density 21.075855000000001
#
# number of rings (size 3 to 8) (size 9 to 14) (size 15 to 20)
#    0.000    1.500    5.000    3.375    0.000    0.500 
#    0.000    0.625    0.000    3.000    0.000    0.000 
#    0.000    0.000    0.000    0.000    0.000    0.000 
#
# Total GULP energy -89203.254647 kJ/mol
# GULP energy per Si atom -5575.203415 kJ/mol
# Density = 2.102788 g / cm^3
# Si number density = 21.075855 Si / 1000 Ang^3
#
#
#
# Elastic Constant Matrix: (Units=GPa)
#
#
# Indices 1 2 3 4 5 6 
#
# 1 135.1268 26.7564 18.6168 4.0694 19.0651 1.3542
# 2 26.7564 59.7772 0.5099 12.0594 5.9059 4.6688
# 3 18.6168 0.5099 50.7650 21.1496 16.8895 7.0062
# 4 4.0694 12.0594 21.1496 21.3864 7.3317 2.1287
# 5 19.0651 5.9059 16.8895 7.3317 21.4864 7.9585
# 6 1.3542 4.6688 7.0062 2.1287 7.9585 35.8800
#
#
#
# Elastic Compliance Matrix: (Units=1/GPa)
#
#
# Indices 1 2 3 4 5 6 
#
# 1 0.009930 -0.005612 -0.005123 0.008515 -0.007041 0.002412
# 2 -0.005612 0.024732 0.013647 -0.025109 -0.002647 -0.003594
# 3 -0.005123 0.013647 0.048155 -0.047273 -0.019498 -0.003856
# 4 0.008515 -0.025109 -0.047273 0.106119 -0.002052 0.006336
# 5 -0.007041 -0.002647 -0.019498 -0.002052 0.073935 -0.011860
# 6 0.002412 -0.003594 -0.003856 0.006336 -0.011860 0.031255
#
#
# Mechanical properties :
#
#
# Convention : Reuss Voigt Hill
#
# Bulk Modulus (GPa) = 11.28152 37.49278 24.38715
# Shear Modulus (GPa) = 15.73071 29.06963 22.40017
#
# Velocity S-wave (km/s) = 2.73497 3.71790 3.26365
# Velocity P-wave (km/s) = 3.91636 6.02150 5.07919
#
# Compressibility (1/GPa) = 0.08864055
#
# Stress axis : x y z
#
# Youngs Moduli (GPa) = 100.70257 40.43364 20.76647
#
# Poissons Ratio (x) = 0.22690 0.10639
# Poissons Ratio (y) = 0.56511 -0.28340
# Poissons Ratio (z) = 0.51593 -0.55180
#
# Static dielectric constant tensor:
#      x y z
#    x 1.775410 -0.000490 0.006550 
#    y -0.000490 1.811670 0.015120 
#    z 0.006550 0.015120 1.790740 
# 
# From -- ./inp_files/351723.got.cif
#   From: 2010.05.17/outbox.cif.g08.bks.cpg/sg2_176_cif.got.tgz:351723.got - 2010.06.03 11:33:40.
