data_PCOD9093247
_publ_section_title
;
Structure prediction by ZEFSAII (Michael W. Deem and Ramdas Pophale) SiO2 
 PCOD9093247
Probable space group: P -1
;
_chemical_formula_sum "Si O2"
_cell_formula_units_Z 16
_cell_length_a 5.386993
_cell_length_b 14.752038
_cell_length_c 17.389754
_cell_angle_alpha 31.576563
_cell_angle_beta 72.789585
_cell_angle_gamma 60.183076
_cell_volume 602.519627
_symmetry_space_group_name_H-M "P -1"
_symmetry_group_IT_number 2
_symmetry_cell_setting 'triclinic'
loop_
_space_group_symop_operation_xyz
x,y,z
-x,-y,-z
loop_
_atom_site_type_symbol
_atom_site_label
_atom_site_fract_x
_atom_site_fract_y
_atom_site_fract_z
Si Si1 0.894626 0.645779 0.276794
Si Si2 0.078182 0.718337 0.980201
Si Si3 0.466326 0.039986 0.796584
Si Si4 0.735384 0.125871 0.375965
Si Si5 0.123014 0.382270 0.322663
Si Si6 0.564402 0.111500 0.249181
Si Si7 0.675652 0.191803 0.900438
Si Si8 0.929764 0.410666 0.162334
O O1 0.745842 0.748337 0.297629
O O2 0.598715 0.772456 0.156397
O O3 0.003096 0.429355 0.385617
O O4 0.206883 0.652984 0.239105
O O5 0.348676 0.737987 0.908772
O O6 0.955902 0.609728 0.010392
O O7 0.137984 0.581884 0.147967
O O8 0.816764 0.944413 0.852663
O O9 0.438733 0.027946 0.716619
O O10 0.408052 0.870233 0.965493
O O11 0.436988 0.201304 0.398836
O O12 0.789865 0.014969 0.369619
O O13 0.723265 0.331909 0.203456
O O14 0.000000 0.000000 0.500000
O O15 0.889954 0.395820 0.269242
O O16 0.256941 0.238861 0.230889
O O17 0.000000 0.000000 0.000000
#
# Coordination Sequence:
#
# PCOD9093247 Si02
#       8
#     2   2   2   2   2   2   2   2
#     4  11  22  36  55  92 132 181 212 252 307 391
#     4  10  21  35  57  92 131 157 198 238 330 383
#     4  11  22  31  55  85 136 168 199 248 306 400
#     4  11  25  45  64  85 114 163 225 276 322 376
#     4   9  22  36  61  88 125 164 212 257 319 376
#     4  11  23  37  58  91 125 169 199 260 319 390
#     4  10  20  32  52  80 130 182 209 240 295 373
#     4   9  22  39  59  86 119 159 202 259 319 378
#
# _framework density 26.555153000000001
#
# number of rings (size 3 to 8) (size 9 to 14) (size 15 to 20)
#    0.750    1.000    1.250    3.375    8.750    3.000 
#    0.000    0.000    0.000    0.750    0.000    4.375 
#    0.000    0.000    0.000    0.000    0.000    0.000 
#
# Total GULP energy -89123.342224 kJ/mol
# GULP energy per Si atom -5570.208889 kJ/mol
# Density = 2.649471 g / cm^3
# Si number density = 26.555153 Si / 1000 Ang^3
#
#
#
# Elastic Constant Matrix: (Units=GPa)
#
#
# Indices 1 2 3 4 5 6 
#
# 1 80.3531 19.1791 -1.8522 4.0452 -7.1991 -9.7252
# 2 19.1791 208.9250 15.9877 -4.4095 19.2360 18.8875
# 3 -1.8522 15.9877 53.9483 -5.0018 12.2192 -3.8682
# 4 4.0452 -4.4095 -5.0018 20.4983 3.1101 5.5237
# 5 -7.1991 19.2360 12.2192 3.1101 47.4936 4.9349
# 6 -9.7252 18.8875 -3.8682 5.5237 4.9349 40.3454
#
#
#
# Elastic Compliance Matrix: (Units=1/GPa)
#
#
# Indices 1 2 3 4 5 6 
#
# 1 0.014008 -0.002091 0.000383 -0.004802 0.002696 0.004720
# 2 -0.002091 0.005624 -0.001272 0.002532 -0.002085 -0.003350
# 3 0.000383 -0.001272 0.020780 0.004814 -0.005367 0.002677
# 4 -0.004802 0.002532 0.004814 0.054648 -0.005670 -0.008669
# 5 0.002696 -0.002085 -0.005367 -0.005670 0.024172 -0.001069
# 6 0.004720 -0.003350 0.002677 -0.008669 -0.001069 0.029067
#
#
# Mechanical properties :
#
#
# Convention : Reuss Voigt Hill
#
# Bulk Modulus (GPa) = 29.02563 45.53951 37.28257
# Shear Modulus (GPa) = 30.16746 42.32826 36.24786
#
# Velocity S-wave (km/s) = 3.37416 3.99679 3.69860
# Velocity P-wave (km/s) = 5.11214 6.20366 5.68416
#
# Compressibility (1/GPa) = 0.03445231
#
# Stress axis : x y z
#
# Youngs Moduli (GPa) = 71.38967 177.80820 48.12287
#
# Poissons Ratio (x) = 0.37188 -0.01845
# Poissons Ratio (y) = 0.14931 0.06120
# Poissons Ratio (z) = -0.02737 0.22612
#
# Static dielectric constant tensor:
#      x y z
#    x 2.225210 0.028510 0.015280 
#    y 0.028510 2.134940 -0.005060 
#    z 0.015280 -0.005060 2.330280 
# 
# From -- ./inp_files/66751.got.cif
#   From: 2010.05.17/outbox.cif.g08.bks.cpg/sg2_34_cif.got.tgz:66751.got - 2010.06.03 11:33:40.
