data_PCOD9093722
_publ_section_title
;
Structure prediction by ZEFSAII (Michael W. Deem and Ramdas Pophale) SiO2 
 PCOD9093722
Probable space group: P -1
;
_chemical_formula_sum "Si O2"
_cell_formula_units_Z 14
_cell_length_a 10.883047
_cell_length_b 17.991370
_cell_length_c 10.249461
_cell_angle_alpha 152.129835
_cell_angle_beta 124.554096
_cell_angle_gamma 40.844963
_cell_volume 578.722381
_symmetry_space_group_name_H-M "P -1"
_symmetry_group_IT_number 2
_symmetry_cell_setting 'triclinic'
loop_
_space_group_symop_operation_xyz
x,y,z
-x,-y,-z
loop_
_atom_site_type_symbol
_atom_site_label
_atom_site_fract_x
_atom_site_fract_y
_atom_site_fract_z
Si Si1 0.895618 0.065361 0.237265
Si Si2 0.722185 0.185489 0.039255
Si Si3 0.390473 0.014544 0.082049
Si Si4 0.725653 0.877375 0.415647
Si Si5 0.983142 0.842569 0.316977
Si Si6 0.303508 0.384177 0.162722
Si Si7 0.960403 0.530851 0.368462
O O1 0.809594 0.174994 0.214571
O O2 0.760584 0.011597 0.104850
O O3 0.882881 0.218312 0.568257
O O4 0.126514 0.844550 0.020843
O O5 0.482091 0.368441 0.182104
O O6 0.782416 0.958573 0.691150
O O7 0.258735 0.241255 0.423352
O O8 0.500000 0.000000 0.000000
O O9 0.545632 0.824956 0.979165
O O10 0.500000 0.000000 0.500000
O O11 0.772937 0.946947 0.421663
O O12 0.794181 0.652508 0.068306
O O13 0.000000 0.000000 0.500000
O O14 0.033522 0.652816 0.968836
O O15 0.119382 0.526519 0.375360
O O16 0.000000 0.500000 0.500000
#
# Coordination Sequence:
#
# PCOD9093722 Si02
#       7
#     2   2   2   2   2   2   2
#     4   9  18  33  57  83 116 148 192 238 288 337
#     4   8  15  32  58  81 105 156 191 229 291 333
#     4  11  21  35  58  82 112 153 194 232 284 342
#     4   8  15  30  56  82 106 150 192 225 281 342
#     4  10  20  33  56  87 118 151 186 238 294 336
#     4   9  18  33  58  83 112 146 195 234 282 339
#     4  11  21  36  57  82 118 156 190 231 283 348
#
# _framework density 24.191220000000001
#
# number of rings (size 3 to 8) (size 9 to 14) (size 15 to 20)
#    0.000    2.571    1.429    0.857    2.000    0.000 
#    0.000    1.429    0.000   87.429    0.000    0.000 
#    0.000    0.000    0.000    0.000    0.000    0.000 
#
# Total GULP energy -77941.499675 kJ/mol
# GULP energy per Si atom -5567.249977 kJ/mol
# Density = 2.413616 g / cm^3
# Si number density = 24.191220 Si / 1000 Ang^3
#
#
#
# Elastic Constant Matrix: (Units=GPa)
#
#
# Indices 1 2 3 4 5 6 
#
# 1 169.4693 32.0943 42.9450 14.0261 -12.9730 -47.2131
# 2 32.0943 89.0548 47.9269 -1.0230 -5.9433 -27.2583
# 3 42.9450 47.9269 172.7477 -27.7820 -9.2511 -14.6694
# 4 14.0261 -1.0230 -27.7820 52.4838 -12.3304 -0.3271
# 5 -12.9730 -5.9433 -9.2511 -12.3304 41.0894 -2.2220
# 6 -47.2131 -27.2583 -14.6694 -0.3271 -2.2220 37.1105
#
#
#
# Elastic Compliance Matrix: (Units=1/GPa)
#
#
# Indices 1 2 3 4 5 6 
#
# 1 0.010516 0.001897 -0.002321 -0.003244 0.002856 0.013997
# 2 0.001897 0.017053 -0.004231 -0.001790 0.002300 0.013388
# 3 -0.002321 -0.004231 0.008289 0.005377 0.001994 -0.002617
# 4 -0.003244 -0.001790 0.005377 0.024383 0.007100 -0.002676
# 5 0.002856 0.002300 0.001994 0.007100 0.028577 0.007884
# 6 0.013997 0.013388 -0.002617 -0.002676 0.007884 0.054003
#
#
# Mechanical properties :
#
#
# Convention : Reuss Voigt Hill
#
# Bulk Modulus (GPa) = 37.66586 75.24488 56.45537
# Shear Modulus (GPa) = 31.05965 46.69045 38.87505
#
# Velocity S-wave (km/s) = 3.58707 4.39801 4.01308
# Velocity P-wave (km/s) = 5.72363 7.54730 6.69782
#
# Compressibility (1/GPa) = 0.02654924
#
# Stress axis : x y z
#
# Youngs Moduli (GPa) = 95.09027 58.64003 120.64428
#
# Poissons Ratio (x) = -0.11122 0.27998
# Poissons Ratio (y) = -0.18035 0.51039
# Poissons Ratio (z) = 0.22067 0.24808
#
# Static dielectric constant tensor:
#      x y z
#    x 2.048230 0.018220 0.053270 
#    y 0.018220 1.993800 0.012520 
#    z 0.053270 0.012520 2.070870 
# 
# From -- ./inp_files/425197.got.cif
#   From: 2010.05.17/outbox.cif.g08.bks.cpg/sg2_213_cif.got.tgz:425197.got - 2010.06.03 11:33:40.
