data_PCOD9093992
_publ_section_title
;
Structure prediction by ZEFSAII (Michael W. Deem and Ramdas Pophale) SiO2 
 PCOD9093992
Probable space group: P -1
;
_chemical_formula_sum "Si O2"
_cell_formula_units_Z 16
_cell_length_a 7.888488
_cell_length_b 13.530992
_cell_length_c 9.525303
_cell_angle_alpha 70.504493
_cell_angle_beta 81.450278
_cell_angle_gamma 123.777866
_cell_volume 720.541667
_symmetry_space_group_name_H-M "P -1"
_symmetry_group_IT_number 2
_symmetry_cell_setting 'triclinic'
loop_
_space_group_symop_operation_xyz
x,y,z
-x,-y,-z
loop_
_atom_site_type_symbol
_atom_site_label
_atom_site_fract_x
_atom_site_fract_y
_atom_site_fract_z
Si Si1 0.592236 0.315885 0.343988
Si Si2 0.907908 0.052333 0.882737
Si Si3 0.222822 0.060388 0.359703
Si Si4 0.391554 0.302321 0.672975
Si Si5 0.979972 0.417140 0.757445
Si Si6 0.185310 0.436691 0.417398
Si Si7 0.235638 0.833619 0.477013
Si Si8 0.560581 0.147402 0.855067
O O1 0.418424 0.222326 0.286171
O O2 0.456062 0.303463 0.503208
O O3 0.688202 0.238879 0.413451
O O4 0.805727 0.477692 0.218746
O O5 0.125250 0.213516 0.764600
O O6 0.845875 0.979636 0.774342
O O7 0.669428 0.998200 0.995843
O O8 0.000000 0.000000 0.000000
O O9 0.295957 0.974307 0.448356
O O10 0.000000 0.000000 0.500000
O O11 0.547517 0.456077 0.644090
O O12 0.469638 0.227380 0.779247
O O13 0.873695 0.489555 0.710898
O O14 0.767773 0.256535 0.883292
O O15 0.083756 0.427647 0.587001
O O16 0.036424 0.282611 0.451637
O O17 0.341635 0.861374 0.296015
#
# Coordination Sequence:
#
# PCOD9093992 Si02
#       8
#     2   2   2   2   2   2   2   2
#     4   9  16  31  52  77 105 130 166 209 258 300
#     4  10  20  34  51  74 105 141 171 205 252 305
#     4  12  23  34  50  77 108 137 171 207 258 309
#     4   8  13  27  51  77 102 132 164 206 253 303
#     4   7  11  23  48  75  97 126 164 208 248 297
#     4   7  11  23  47  76 100 123 164 211 253 287
#     4   9  18  32  53  80 103 130 168 217 256 295
#     4   8  15  29  52  76  99 132 173 205 249 298
#
# _framework density 22.205515999999999
#
# number of rings (size 3 to 8) (size 9 to 14) (size 15 to 20)
#    0.000    3.250    1.250    3.375    0.000    0.500 
#    0.000    1.250    0.000    0.000    3.250    3.500 
#    0.000    0.000    0.000    0.000    0.000    0.000 
#
# Total GULP energy -89223.431584 kJ/mol
# GULP energy per Si atom -5576.464474 kJ/mol
# Density = 2.215498 g / cm^3
# Si number density = 22.205516 Si / 1000 Ang^3
#
#
#
# Elastic Constant Matrix: (Units=GPa)
#
#
# Indices 1 2 3 4 5 6 
#
# 1 80.7968 37.0297 25.1978 -10.7418 -15.2915 14.2896
# 2 37.0297 173.3176 32.1829 -26.6585 -27.0239 45.5413
# 3 25.1978 32.1829 36.6724 -11.7732 -13.8445 18.4825
# 4 -10.7418 -26.6585 -11.7732 27.4591 9.8982 -7.7370
# 5 -15.2915 -27.0239 -13.8445 9.8982 33.9044 -12.9253
# 6 14.2896 45.5413 18.4825 -7.7370 -12.9253 46.5848
#
#
#
# Elastic Compliance Matrix: (Units=1/GPa)
#
#
# Indices 1 2 3 4 5 6 
#
# 1 0.016349 -0.001586 -0.009275 0.000205 0.002636 0.000981
# 2 -0.001586 0.009181 -0.001205 0.005169 0.002096 -0.006570
# 3 -0.009275 -0.001205 0.045592 0.009337 0.006684 -0.010661
# 4 0.000205 0.005169 0.009337 0.047175 -0.006847 -0.002885
# 5 0.002636 0.002096 0.006684 -0.006847 0.038636 0.004073
# 6 0.000981 -0.006570 -0.010661 -0.002885 0.004073 0.032469
#
#
# Mechanical properties :
#
#
# Convention : Reuss Voigt Hill
#
# Bulk Modulus (GPa) = 21.28079 53.28973 37.28526
# Shear Modulus (GPa) = 21.81547 34.68144 28.24846
#
# Velocity S-wave (km/s) = 3.13778 3.95630 3.57057
# Velocity P-wave (km/s) = 4.76780 6.70226 5.81602
#
# Compressibility (1/GPa) = 0.04699074
#
# Stress axis : x y z
#
# Youngs Moduli (GPa) = 61.16664 108.92429 21.93366
#
# Poissons Ratio (x) = 0.17273 0.20343
# Poissons Ratio (y) = 0.09700 0.02643
# Poissons Ratio (z) = 0.56731 0.13124
#
# Static dielectric constant tensor:
#      x y z
#    x 1.880280 0.019230 0.021880 
#    y 0.019230 1.861730 -0.058470 
#    z 0.021880 -0.058470 1.791690 
# 
# From -- ./inp_files/202041.got.cif
#   From: 2010.05.17/outbox.cif.g08.bks.cpg/sg2_102_cif.got.tgz:202041.got - 2010.06.03 11:33:40.
