data_PCOD9093810
_publ_section_title
;
Structure prediction by ZEFSAII (Michael W. Deem and Ramdas Pophale) SiO2 
 PCOD9093810
Probable space group: P -1
;
_chemical_formula_sum "Si O2"
_cell_formula_units_Z 16
_cell_length_a 15.051508
_cell_length_b 15.327849
_cell_length_c 9.405375
_cell_angle_alpha 116.943435
_cell_angle_beta 94.089595
_cell_angle_gamma 140.816589
_cell_volume 808.081492
_symmetry_space_group_name_H-M "P -1"
_symmetry_group_IT_number 2
_symmetry_cell_setting 'triclinic'
loop_
_space_group_symop_operation_xyz
x,y,z
-x,-y,-z
loop_
_atom_site_type_symbol
_atom_site_label
_atom_site_fract_x
_atom_site_fract_y
_atom_site_fract_z
Si Si1 0.343144 0.379203 0.265538
Si Si2 0.912551 0.056437 0.085551
Si Si3 0.731824 0.221594 0.119201
Si Si4 0.379398 0.170273 0.382765
Si Si5 0.691038 0.100615 0.485873
Si Si6 0.350484 0.725527 0.413068
Si Si7 0.894275 0.269658 0.904016
Si Si8 0.047687 0.704584 0.580177
O O1 0.500000 0.500000 0.500000
O O2 0.497093 0.612576 0.381502
O O3 0.131919 0.225493 0.182183
O O4 0.237495 0.177647 0.034106
O O5 0.983043 0.218197 0.307020
O O6 0.758737 0.941552 0.854979
O O7 0.861655 0.273556 0.268378
O O8 0.848712 0.443880 0.304253
O O9 0.760926 0.202445 0.951528
O O10 0.500000 0.000000 0.000000
O O11 0.561517 0.267573 0.463598
O O12 0.213826 0.944618 0.291893
O O13 0.660393 0.174120 0.460328
O O14 0.877180 0.301743 0.772186
O O15 0.772554 0.109427 0.383614
O O16 0.491589 0.874179 0.394087
O O17 0.116666 0.468630 0.145620
#
# Coordination Sequence:
#
# PCOD9093810 Si02
#       8
#     2   2   2   2   2   2   2   2
#     4   9  20  36  60  85 113 152 190 241 303 361
#     4  10  20  37  57  87 120 147 190 246 302 353
#     4  11  26  35  54  85 124 162 193 238 290 343
#     4  10  20  33  58  86 111 150 197 240 288 342
#     4  10  23  36  57  82 118 167 203 234 279 344
#     4  10  21  36  60  78 117 158 209 237 270 344
#     4  11  21  38  56  80 117 163 207 234 279 344
#     4  11  24  37  54  88 124 152 194 243 295 343
#
# _framework density 19.799983000000001
#
# number of rings (size 3 to 8) (size 9 to 14) (size 15 to 20)
#    0.000    1.750    2.500    1.125    7.000    0.000 
#    0.000    0.000    0.000    3.000    0.000   33.250 
#    0.000    0.000    0.000    0.000    0.000    0.000 
#
# Total GULP energy -89091.690934 kJ/mol
# GULP energy per Si atom -5568.230683 kJ/mol
# Density = 1.975492 g / cm^3
# Si number density = 19.799983 Si / 1000 Ang^3
#
#
#
# Elastic Constant Matrix: (Units=GPa)
#
#
# Indices 1 2 3 4 5 6 
#
# 1 102.1637 26.1541 38.4710 6.1904 -2.1782 -10.4301
# 2 26.1541 54.7503 20.2684 11.8091 -12.5491 -0.6632
# 3 38.4710 20.2684 74.4641 16.5479 9.7549 -6.9348
# 4 6.1904 11.8091 16.5479 44.1557 -6.7128 -6.8229
# 5 -2.1782 -12.5491 9.7549 -6.7128 46.9911 6.7084
# 6 -10.4301 -0.6632 -6.9348 -6.8229 6.7084 23.7802
#
#
#
# Elastic Compliance Matrix: (Units=1/GPa)
#
#
# Indices 1 2 3 4 5 6 
#
# 1 0.013525 -0.004692 -0.005815 0.002300 0.000239 0.004698
# 2 -0.004692 0.024953 -0.005111 -0.003863 0.007836 -0.006171
# 3 -0.005815 -0.005111 0.020449 -0.006030 -0.007253 0.003586
# 4 0.002300 -0.003863 -0.006030 0.027046 0.003340 0.005961
# 5 0.000239 0.007836 -0.007253 0.003340 0.026556 -0.008325
# 6 0.004698 -0.006171 0.003586 0.005961 -0.008325 0.049045
#
#
# Mechanical properties :
#
#
# Convention : Reuss Voigt Hill
#
# Bulk Modulus (GPa) = 36.11427 44.57390 40.34408
# Shear Modulus (GPa) = 24.74780 32.75105 28.74942
#
# Velocity S-wave (km/s) = 3.53921 4.07147 3.81464
# Velocity P-wave (km/s) = 5.91443 6.68307 6.31047
#
# Compressibility (1/GPa) = 0.02768989
#
# Stress axis : x y z
#
# Youngs Moduli (GPa) = 73.93967 40.07579 48.90289
#
# Poissons Ratio (x) = 0.18805 0.28437
# Poissons Ratio (y) = 0.34696 0.24992
# Poissons Ratio (z) = 0.42996 0.20481
#
# Static dielectric constant tensor:
#      x y z
#    x 1.741070 -0.039700 0.030540 
#    y -0.039700 1.749890 0.047830 
#    z 0.030540 0.047830 1.767740 
# 
# From -- ./inp_files/315659.got.cif
#   From: 2010.05.17/outbox.cif.g08.bks.cpg/sg2_158_cif.got.tgz:315659.got - 2010.06.03 11:33:40.
