data_PCOD9093681
_publ_section_title
;
Structure prediction by ZEFSAII (Michael W. Deem and Ramdas Pophale) SiO2 
 PCOD9093681
Probable space group: P -1
;
_chemical_formula_sum "Si O2"
_cell_formula_units_Z 16
_cell_length_a 8.124648
_cell_length_b 16.689230
_cell_length_c 4.795152
_cell_angle_alpha 76.870641
_cell_angle_beta 114.238059
_cell_angle_gamma 103.439253
_cell_volume 570.246256
_symmetry_space_group_name_H-M "P -1"
_symmetry_group_IT_number 2
_symmetry_cell_setting 'triclinic'
loop_
_space_group_symop_operation_xyz
x,y,z
-x,-y,-z
loop_
_atom_site_type_symbol
_atom_site_label
_atom_site_fract_x
_atom_site_fract_y
_atom_site_fract_z
Si Si1 0.722755 0.249026 0.931687
Si Si2 0.809569 0.718401 0.225305
Si Si3 0.287585 0.042185 0.620766
Si Si4 0.052879 0.604845 0.662058
Si Si5 0.936817 0.827090 0.750563
Si Si6 0.262163 0.481328 0.077966
Si Si7 0.506689 0.371164 0.523977
Si Si8 0.517483 0.104043 0.237908
O O1 0.629197 0.300671 0.595239
O O2 0.828133 0.321063 0.143781
O O3 0.578214 0.191807 0.069179
O O4 0.869168 0.190887 0.985754
O O5 0.907991 0.787982 0.454593
O O6 0.639773 0.673100 0.318911
O O7 0.944364 0.649871 0.322065
O O8 0.791034 0.769197 0.892312
O O9 0.109151 0.080075 0.376998
O O10 0.450174 0.098122 0.511179
O O11 0.316427 0.949447 0.635665
O O12 0.347273 0.058199 0.969643
O O13 0.899175 0.564317 0.804850
O O14 0.175246 0.533382 0.737927
O O15 0.398565 0.414546 0.177562
O O16 0.372759 0.553559 0.288664
#
# Coordination Sequence:
#
# PCOD9093681 Si02
#       8
#     2   2   2   2   2   2   2   2
#     4  10  20  33  55  86 117 151 193 238 283 340
#     4  10  21  37  59  85 116 155 194 236 284 337
#     4  10  21  40  61  85 119 153 188 234 285 338
#     4   8  16  31  53  82 117 149 188 238 290 338
#     4  11  22  37  59  86 119 154 188 234 289 339
#     4   8  14  28  56  83 113 151 191 237 290 339
#     4   9  16  31  57  84 114 151 197 240 282 340
#     4  10  22  39  62  88 115 151 193 235 281 338
#
# _framework density 28.058056000000001
#
# number of rings (size 3 to 8) (size 9 to 14) (size 15 to 20)
#    0.000    2.500    0.000    2.250    0.000    2.500 
#    0.000    3.750    0.000  102.750    0.000    0.000 
#    0.000    0.000    0.000    0.000    0.000    0.000 
#
# Total GULP energy -89685.019324 kJ/mol
# GULP energy per Si atom -5605.313708 kJ/mol
# Density = 2.799419 g / cm^3
# Si number density = 28.058056 Si / 1000 Ang^3
#
#
#
# Elastic Constant Matrix: (Units=GPa)
#
#
# Indices 1 2 3 4 5 6 
#
# 1 96.5126 20.7058 49.2404 -12.0146 17.8223 -22.6622
# 2 20.7058 84.9471 47.4531 -39.4883 15.2220 -6.2937
# 3 49.2404 47.4531 151.2206 -33.3784 23.2253 -36.9639
# 4 -12.0146 -39.4883 -33.3784 57.5052 -20.8527 14.6770
# 5 17.8223 15.2220 23.2253 -20.8527 55.7127 -20.4861
# 6 -22.6622 -6.2937 -36.9639 14.6770 -20.4861 45.2589
#
#
#
# Elastic Compliance Matrix: (Units=1/GPa)
#
#
# Indices 1 2 3 4 5 6 
#
# 1 0.013243 -0.001818 -0.002949 -0.001803 -0.001812 0.003734
# 2 -0.001818 0.019922 -0.004338 0.012028 -0.000725 -0.005912
# 3 -0.002949 -0.004338 0.010701 0.001130 0.000486 0.006514
# 4 -0.001803 0.012028 0.001130 0.029393 0.005924 -0.005158
# 5 -0.001812 -0.000725 0.000486 0.005924 0.023766 0.008225
# 6 0.003734 -0.005912 0.006514 -0.005158 0.008225 0.033858
#
#
# Mechanical properties :
#
#
# Convention : Reuss Voigt Hill
#
# Bulk Modulus (GPa) = 38.97582 63.05321 51.01452
# Shear Modulus (GPa) = 31.71680 46.04744 38.88212
#
# Velocity S-wave (km/s) = 3.36579 4.05550 3.72664
# Velocity P-wave (km/s) = 5.38758 6.66713 6.06122
#
# Compressibility (1/GPa) = 0.02565694
#
# Stress axis : x y z
#
# Youngs Moduli (GPa) = 75.51332 50.19604 93.44589
#
# Poissons Ratio (x) = 0.09123 0.27553
# Poissons Ratio (y) = 0.13725 0.40541
# Poissons Ratio (z) = 0.22265 0.21777
#
# Static dielectric constant tensor:
#      x y z
#    x 2.228520 0.024900 0.136390 
#    y 0.024900 2.170280 -0.006960 
#    z 0.136390 -0.006960 2.109820 
# 
# From -- ./inp_files/52568.got.cif
#   From: 2010.05.17/outbox.cif.g08.bks.cpg/sg2_27_cif.got.tgz:52568.got - 2010.06.03 11:33:40.
