data_PCOD9093179
_publ_section_title
;
Structure prediction by ZEFSAII (Michael W. Deem and Ramdas Pophale) SiO2 
 PCOD9093179
Probable space group: P -1
;
_chemical_formula_sum "Si O2"
_cell_formula_units_Z 14
_cell_length_a 5.190774
_cell_length_b 10.337282
_cell_length_c 14.639366
_cell_angle_alpha 77.485296
_cell_angle_beta 95.641773
_cell_angle_gamma 85.964311
_cell_volume 759.742194
_symmetry_space_group_name_H-M "P -1"
_symmetry_group_IT_number 2
_symmetry_cell_setting 'triclinic'
loop_
_space_group_symop_operation_xyz
x,y,z
-x,-y,-z
loop_
_atom_site_type_symbol
_atom_site_label
_atom_site_fract_x
_atom_site_fract_y
_atom_site_fract_z
Si Si1 0.970973 0.934031 0.606438
Si Si2 0.523103 0.182727 0.884993
Si Si3 0.670317 0.589921 0.880388
Si Si4 0.193314 0.416297 0.911458
Si Si5 0.481240 0.172423 0.299144
Si Si6 0.186008 0.937656 0.936456
Si Si7 0.199227 0.964790 0.234909
O O1 0.720393 0.851623 0.622792
O O2 0.226851 0.837897 0.654354
O O3 0.000000 0.000000 0.500000
O O4 0.927546 0.046603 0.668082
O O5 0.301392 0.303003 0.861764
O O6 0.387303 0.045426 0.906077
O O7 0.714577 0.159567 0.808448
O O8 0.674181 0.188712 0.986725
O O9 0.397777 0.527621 0.895657
O O10 0.615370 0.702856 0.785432
O O11 0.900402 0.478566 0.875317
O O12 0.777967 0.637054 0.974750
O O13 0.447599 0.043037 0.254997
O O14 0.002275 0.932378 0.844008
O O15 0.000000 0.000000 0.000000
#
# Coordination Sequence:
#
# PCOD9093179 Si02
#       7
#     2   2   2   2   2   2   2
#     4  10  21  36  58  88 111 137 172 233 293 339
#     4  10  20  32  49  79 109 151 181 230 267 315
#     4  10  22  38  49  80 101 163 182 227 252 310
#     4  10  23  34  54  71 117 142 204 216 251 306
#     4  10  21  36  61  76 118 137 183 224 279 340
#     4   9  19  30  46  77 110 145 182 213 272 327
#     4   9  21  31  54  81 110 139 175 224 279 336
#
# _framework density 18.427306000000002
#
# number of rings (size 3 to 8) (size 9 to 14) (size 15 to 20)
#    0.857    1.429    0.000    2.143   12.000    1.143 
#    0.000    0.000    0.000    0.000    0.000    6.000 
#    0.000    0.000    0.000    0.000    0.000    0.000 
#
# Total GULP energy -77943.986710 kJ/mol
# GULP energy per Si atom -5567.427622 kJ/mol
# Density = 1.838536 g / cm^3
# Si number density = 18.427306 Si / 1000 Ang^3
#
#
#
# Elastic Constant Matrix: (Units=GPa)
#
#
# Indices 1 2 3 4 5 6 
#
# 1 62.5221 8.0940 10.1773 5.9426 -8.9757 -20.7975
# 2 8.0940 53.4273 38.9736 4.9721 -0.3260 -27.6225
# 3 10.1773 38.9736 125.4918 8.8458 -14.2274 -18.8318
# 4 5.9426 4.9721 8.8458 19.5708 -1.0930 -1.9687
# 5 -8.9757 -0.3260 -14.2274 -1.0930 23.2502 -1.1977
# 6 -20.7975 -27.6225 -18.8318 -1.9687 -1.1977 31.5449
#
#
#
# Elastic Compliance Matrix: (Units=1/GPa)
#
#
# Indices 1 2 3 4 5 6 
#
# 1 0.025477 0.009731 0.000547 -0.007248 0.011286 0.025621
# 2 0.009731 0.044470 -0.007955 -0.006537 0.001279 0.040248
# 3 0.000547 -0.007955 0.011436 -0.002893 0.006977 0.000306
# 4 -0.007248 -0.006537 -0.002893 0.055232 -0.002521 -0.008879
# 5 0.011286 0.001279 0.006977 -0.002521 0.052286 0.014553
# 6 0.025621 0.040248 0.000306 -0.008879 0.014553 0.084017
#
#
# Mechanical properties :
#
#
# Convention : Reuss Voigt Hill
#
# Bulk Modulus (GPa) = 11.62395 39.54789 25.58592
# Shear Modulus (GPa) = 16.83796 27.15294 21.99545
#
# Velocity S-wave (km/s) = 3.02611 3.84281 3.45865
# Velocity P-wave (km/s) = 4.30482 6.41854 5.46485
#
# Compressibility (1/GPa) = 0.08602931
#
# Stress axis : x y z
#
# Youngs Moduli (GPa) = 39.25088 22.48690 87.44560
#
# Poissons Ratio (x) = -0.21882 -0.04782
# Poissons Ratio (y) = -0.38195 0.69560
# Poissons Ratio (z) = -0.02146 0.17888
#
# Static dielectric constant tensor:
#      x y z
#    x 1.722630 -0.023660 -0.008240 
#    y -0.023660 1.676230 0.018330 
#    z -0.008240 0.018330 1.640080 
# 
# From -- ./inp_files/482077.got.cif
#   From: 2010.05.17/outbox.cif.g08.bks.cpg/sg2_242_cif.got.tgz:482077.got - 2010.06.03 11:33:40.
