data_PCOD9093982
_publ_section_title
;
Structure prediction by ZEFSAII (Michael W. Deem and Ramdas Pophale) SiO2 
 PCOD9093982
Probable space group: P -1
;
_chemical_formula_sum "Si O2"
_cell_formula_units_Z 12
_cell_length_a 9.355482
_cell_length_b 5.382826
_cell_length_c 10.889096
_cell_angle_alpha 81.148715
_cell_angle_beta 79.615122
_cell_angle_gamma 56.388073
_cell_volume 448.219216
_symmetry_space_group_name_H-M "P -1"
_symmetry_group_IT_number 2
_symmetry_cell_setting 'triclinic'
loop_
_space_group_symop_operation_xyz
x,y,z
-x,-y,-z
loop_
_atom_site_type_symbol
_atom_site_label
_atom_site_fract_x
_atom_site_fract_y
_atom_site_fract_z
Si Si1 0.993132 0.108419 0.853399
Si Si2 0.365014 0.043484 0.627221
Si Si3 0.107783 0.498002 0.863595
Si Si4 0.674626 0.454179 0.730197
Si Si5 0.295050 0.639026 0.538626
Si Si6 0.527446 0.702906 0.076218
O O1 0.131425 0.204845 0.816076
O O2 0.814542 0.400635 0.813972
O O3 0.006855 0.832234 0.799172
O O4 0.000000 0.000000 0.000000
O O5 0.277887 0.397388 0.635195
O O6 0.500000 0.000000 0.500000
O O7 0.503026 0.789710 0.719841
O O8 0.244227 0.940637 0.593169
O O9 0.281847 0.461010 0.887927
O O10 0.000000 0.500000 0.000000
O O11 0.766036 0.349439 0.591460
O O12 0.601243 0.252082 0.797790
O O13 0.500000 0.500000 0.500000
O O14 0.500000 0.500000 0.000000
O O15 0.500000 0.000000 0.000000
#
# Coordination Sequence:
#
# PCOD9093982 Si02
#       6
#     2   2   2   2   2   2
#     4  10  20  34  50  71 104 142 175 207 251 317
#     4   8  16  30  50  81 103 123 168 228 271 308
#     4  10  20  36  49  67 103 141 173 216 254 299
#     4  10  20  34  58  81 105 142 179 222 267 306
#     4   8  16  30  50  81 103 123 168 228 271 308
#     4  12  24  36  53  79 107 143 187 223 256 306
#
# _framework density 26.772613
#
# number of rings (size 3 to 8) (size 9 to 14) (size 15 to 20)
#    0.000    2.667    0.000    5.000    0.000   10.667 
#    0.000    0.000    0.000    0.000    0.000   63.000 
#    0.000    0.000    0.000    0.000    0.000    0.000 
#
# Total GULP energy -67050.842187 kJ/mol
# GULP energy per Si atom -5587.570182 kJ/mol
# Density = 2.671168 g / cm^3
# Si number density = 26.772613 Si / 1000 Ang^3
#
#
#
# Elastic Constant Matrix: (Units=GPa)
#
#
# Indices 1 2 3 4 5 6 
#
# 1 137.7490 36.6843 46.3493 -27.2485 6.3356 35.2683
# 2 36.6843 170.1205 47.2587 -13.4899 -5.5079 50.6223
# 3 46.3493 47.2587 150.4669 -25.8403 9.6376 24.6472
# 4 -27.2485 -13.4899 -25.8403 57.7400 15.9742 -11.5073
# 5 6.3356 -5.5079 9.6376 15.9742 47.5157 -22.1233
# 6 35.2683 50.6223 24.6472 -11.5073 -22.1233 57.3067
#
#
#
# Elastic Compliance Matrix: (Units=1/GPa)
#
#
# Indices 1 2 3 4 5 6 
#
# 1 0.010886 0.000595 -0.000826 0.005120 -0.006896 -0.008504
# 2 0.000595 0.008550 -0.001122 0.000955 -0.003115 -0.008448
# 3 -0.000826 -0.001122 0.008753 0.003894 -0.004627 -0.003270
# 4 0.005120 0.000955 0.003894 0.023915 -0.011954 -0.005481
# 5 -0.006896 -0.003115 -0.004627 -0.011954 0.036119 0.020529
# 6 -0.008504 -0.008448 -0.003270 -0.005481 0.020529 0.038377
#
#
# Mechanical properties :
#
#
# Convention : Reuss Voigt Hill
#
# Bulk Modulus (GPa) = 39.23945 79.88009 59.55977
# Shear Modulus (GPa) = 36.28409 54.38210 45.33309
#
# Velocity S-wave (km/s) = 3.68539 4.51184 4.11939
# Velocity P-wave (km/s) = 5.72694 7.55272 6.70229
#
# Compressibility (1/GPa) = 0.02548456
#
# Stress axis : x y z
#
# Youngs Moduli (GPa) = 91.85789 116.96021 114.24091
#
# Poissons Ratio (x) = -0.06964 0.09442
# Poissons Ratio (y) = -0.05469 0.12812
# Poissons Ratio (z) = 0.07592 0.13117
#
# Static dielectric constant tensor:
#      x y z
#    x 2.124800 -0.228360 -0.094310 
#    y -0.228360 3.226410 0.513850 
#    z -0.094310 0.513850 2.381870 
# 
# From -- ./inp_files/488084.got.cif
#   From: 2010.05.17/outbox.cif.g08.bks.cpg/sg2_245_cif.got.tgz:488084.got - 2010.06.03 11:33:40.
