data_PCOD9093525
_publ_section_title
;
Structure prediction by ZEFSAII (Michael W. Deem and Ramdas Pophale) SiO2 
 PCOD9093525
Probable space group: P -1
;
_chemical_formula_sum "Si O2"
_cell_formula_units_Z 16
_cell_length_a 15.750966
_cell_length_b 5.485026
_cell_length_c 14.807722
_cell_angle_alpha 103.262580
_cell_angle_beta 39.213028
_cell_angle_gamma 88.427342
_cell_volume 742.154854
_symmetry_space_group_name_H-M "P -1"
_symmetry_group_IT_number 2
_symmetry_cell_setting 'triclinic'
loop_
_space_group_symop_operation_xyz
x,y,z
-x,-y,-z
loop_
_atom_site_type_symbol
_atom_site_label
_atom_site_fract_x
_atom_site_fract_y
_atom_site_fract_z
Si Si1 0.656540 0.214869 0.559010
Si Si2 0.885022 0.086288 0.233481
Si Si3 0.897805 0.726747 0.040852
Si Si4 0.124844 0.732475 0.481655
Si Si5 0.402863 0.222896 0.531254
Si Si6 0.947931 0.363299 0.662298
Si Si7 0.376423 0.581341 0.744951
Si Si8 0.153867 0.673331 0.064654
O O1 0.725986 0.274682 0.597957
O O2 0.491212 0.365749 0.695375
O O3 0.756755 0.291195 0.409141
O O4 0.681804 0.913558 0.477041
O O5 0.825164 0.961557 0.188967
O O6 0.992206 0.860212 0.190465
O O7 0.993959 0.205213 0.108571
O O8 0.805918 0.603163 0.046132
O O9 0.000000 0.500000 0.000000
O O10 0.132822 0.610313 0.364639
O O11 0.038247 0.570380 0.597461
O O12 0.043018 0.050274 0.565982
O O13 0.323543 0.451682 0.689597
O O14 0.517026 0.293668 0.381640
O O15 0.500000 0.000000 0.500000
O O16 0.846529 0.395031 0.835929
O O17 0.261652 0.776568 0.924879
#
# Coordination Sequence:
#
# PCOD9093525 Si02
#       8
#     2   2   2   2   2   2   2   2
#     4  11  21  36  59  85 112 161 204 256 295 369
#     4  10  20  33  52  81 111 148 197 249 302 361
#     4   9  20  32  51  81 114 146 192 252 304 360
#     4  10  22  41  68  96 123 157 206 256 317 379
#     4   9  21  39  55  79 119 169 206 248 294 367
#     4  10  22  42  66  96 125 158 200 261 320 374
#     4  10  23  37  55  83 122 163 209 247 303 362
#     4  11  21  36  56  82 117 157 196 252 310 366
#
# _framework density 21.558844000000001
#
# number of rings (size 3 to 8) (size 9 to 14) (size 15 to 20)
#    0.000    2.000    1.250    1.500    1.750   13.000 
#    0.000    0.625    0.000    0.750    0.000    0.000 
#    0.000    0.000    0.000    0.000    0.000    0.000 
#
# Total GULP energy -89134.934947 kJ/mol
# GULP energy per Si atom -5570.933434 kJ/mol
# Density = 2.150978 g / cm^3
# Si number density = 21.558844 Si / 1000 Ang^3
#
#
#
# Elastic Constant Matrix: (Units=GPa)
#
#
# Indices 1 2 3 4 5 6 
#
# 1 120.0438 23.6954 43.7659 -10.0560 -2.1821 13.8494
# 2 23.6954 78.8386 4.6363 -8.4901 -2.8228 -0.7689
# 3 43.7659 4.6363 112.4032 -7.8262 3.1291 -16.8639
# 4 -10.0560 -8.4901 -7.8262 26.3379 -12.4765 -1.1463
# 5 -2.1821 -2.8228 3.1291 -12.4765 35.7270 -5.3326
# 6 13.8494 -0.7689 -16.8639 -1.1463 -5.3326 22.8227
#
#
#
# Elastic Compliance Matrix: (Units=1/GPa)
#
#
# Indices 1 2 3 4 5 6 
#
# 1 0.013148 -0.003586 -0.006875 0.001006 -0.000504 -0.013246
# 2 -0.003586 0.014447 0.001877 0.005745 0.003535 0.005164
# 3 -0.006875 0.001877 0.013991 0.003800 0.002107 0.015256
# 4 0.001006 0.005745 0.003800 0.050927 0.019382 0.009477
# 5 -0.000504 0.003535 0.002107 0.019382 0.036538 0.011493
# 6 -0.013246 0.005164 0.015256 0.009477 0.011493 0.066462
#
#
# Mechanical properties :
#
#
# Convention : Reuss Voigt Hill
#
# Bulk Modulus (GPa) = 40.95412 50.60897 45.78155
# Shear Modulus (GPa) = 22.64280 32.92338 27.78309
#
# Velocity S-wave (km/s) = 3.24432 3.91210 3.59375
# Velocity P-wave (km/s) = 5.75081 6.62811 6.20498
#
# Compressibility (1/GPa) = 0.02441757
#
# Stress axis : x y z
#
# Youngs Moduli (GPa) = 76.05761 69.21714 71.47615
#
# Poissons Ratio (x) = 0.24824 0.49138
# Poissons Ratio (y) = 0.27277 -0.13415
# Poissons Ratio (z) = 0.52288 -0.12991
#
# Static dielectric constant tensor:
#      x y z
#    x 1.822670 0.017020 -0.037480 
#    y 0.017020 1.991470 -0.070340 
#    z -0.037480 -0.070340 1.928950 
# 
# From -- ./inp_files/525361.got.cif
#   From: 2010.05.17/outbox.cif.g08.bks.cpg/sg2_263_cif.got.tgz:525361.got - 2010.06.03 11:33:40.
