data_PCOD9093646
_publ_section_title
;
Structure prediction by ZEFSAII (Michael W. Deem and Ramdas Pophale) SiO2 
 PCOD9093646
Probable space group: P -1
;
_chemical_formula_sum "Si O2"
_cell_formula_units_Z 16
_cell_length_a 11.334701
_cell_length_b 9.688886
_cell_length_c 7.461221
_cell_angle_alpha 102.760522
_cell_angle_beta 98.140216
_cell_angle_gamma 105.397822
_cell_volume 752.799332
_symmetry_space_group_name_H-M "P -1"
_symmetry_group_IT_number 2
_symmetry_cell_setting 'triclinic'
loop_
_space_group_symop_operation_xyz
x,y,z
-x,-y,-z
loop_
_atom_site_type_symbol
_atom_site_label
_atom_site_fract_x
_atom_site_fract_y
_atom_site_fract_z
Si Si1 0.437130 0.826980 0.970710
Si Si2 0.125508 0.756139 0.254086
Si Si3 0.605128 0.150683 0.611144
Si Si4 0.627190 0.466359 0.570910
Si Si5 0.106162 0.426816 0.299167
Si Si6 0.395292 0.371196 0.037862
Si Si7 0.860355 0.669649 0.118140
Si Si8 0.162895 0.660856 0.838549
O O1 0.414278 0.807509 0.174646
O O2 0.535783 0.743010 0.912514
O O3 0.301457 0.752223 0.829842
O O4 0.500000 0.000000 0.000000
O O5 0.255898 0.864882 0.383167
O O6 0.118377 0.593243 0.281445
O O7 0.989488 0.773929 0.260211
O O8 0.144273 0.743551 0.040956
O O9 0.599693 0.290667 0.532373
O O10 0.500000 0.000000 0.500000
O O11 0.500000 0.500000 0.500000
O O12 0.768033 0.547382 0.545353
O O13 0.647550 0.537507 0.792355
O O14 0.961736 0.359211 0.314194
O O15 0.111660 0.336034 0.091326
O O16 0.500000 0.500000 0.000000
O O17 0.269575 0.294841 0.877098
O O18 0.838705 0.503384 0.143861
#
# Coordination Sequence:
#
# PCOD9093646 Si02
#       8
#     2   2   2   2   2   2   2   2
#     4  11  22  33  51  77 105 137 166 204 256 304
#     4   7  12  24  46  73  93 123 167 203 245 288
#     4  10  20  35  53  75 106 137 167 203 249 306
#     4  10  20  33  55  80 101 130 169 213 253 293
#     4   7  12  24  46  73  95 120 163 212 245 282
#     4  11  18  33  53  77 103 129 169 212 254 295
#     4   8  12  23  49  74  93 120 163 215 247 281
#     4   8  12  25  47  71  96 123 164 209 245 286
#
# _framework density 21.254004999999999
#
# number of rings (size 3 to 8) (size 9 to 14) (size 15 to 20)
#    0.000    3.000    2.500    3.000    1.750    0.000 
#    0.000    0.000    2.750    6.000    0.000    0.000 
#    0.000    0.000    0.000    0.000    0.000    0.000 
#
# Total GULP energy -89068.261498 kJ/mol
# GULP energy per Si atom -5566.766344 kJ/mol
# Density = 2.120563 g / cm^3
# Si number density = 21.254005 Si / 1000 Ang^3
#
#
#
# Elastic Constant Matrix: (Units=GPa)
#
#
# Indices 1 2 3 4 5 6 
#
# 1 179.8130 54.8638 37.7539 13.7988 68.3779 27.7364
# 2 54.8638 83.6346 13.9759 15.6842 25.6683 13.6627
# 3 37.7539 13.9759 53.1861 7.4655 20.2820 10.7218
# 4 13.7988 15.6842 7.4655 23.0366 10.6751 10.2209
# 5 68.3779 25.6683 20.2820 10.6751 56.2966 14.5718
# 6 27.7364 13.6627 10.7218 10.2209 14.5718 25.1139
#
#
#
# Elastic Compliance Matrix: (Units=1/GPa)
#
#
# Indices 1 2 3 4 5 6 
#
# 1 0.012156 -0.003899 -0.002771 0.003795 -0.011401 -0.005051
# 2 -0.003899 0.016467 0.000150 -0.008063 -0.001090 -0.000802
# 3 -0.002771 0.000150 0.023232 -0.002626 -0.003594 -0.003785
# 4 0.003795 -0.008063 -0.002626 0.058788 -0.006216 -0.019003
# 5 -0.011401 -0.001090 -0.003594 -0.006216 0.035439 -0.003314
# 6 -0.005051 -0.000802 -0.003785 -0.019003 -0.003314 0.057106
#
#
# Mechanical properties :
#
#
# Convention : Reuss Voigt Hill
#
# Bulk Modulus (GPa) = 25.76369 58.86900 42.31635
# Shear Modulus (GPa) = 21.81806 34.89210 28.35508
#
# Velocity S-wave (km/s) = 3.20744 4.05615 3.65650
# Velocity P-wave (km/s) = 5.08577 7.04943 6.14652
#
# Compressibility (1/GPa) = 0.03881431
#
# Stress axis : x y z
#
# Youngs Moduli (GPa) = 82.26287 60.72720 43.04400
#
# Poissons Ratio (x) = 0.23676 0.11929
# Poissons Ratio (y) = 0.32072 -0.00644
# Poissons Ratio (z) = 0.22798 -0.00908
#
# Static dielectric constant tensor:
#      x y z
#    x 1.955220 0.040900 0.016790 
#    y 0.040900 1.501150 0.038150 
#    z 0.016790 0.038150 1.945750 
# 
# From -- ./inp_files/186801.got.cif
#   From: 2010.05.17/outbox.cif.g08.bks.cpg/sg2_94_cif.got.tgz:186801.got - 2010.06.03 11:33:40.
