data_PCOD9093254
_publ_section_title
;
Structure prediction by ZEFSAII (Michael W. Deem and Ramdas Pophale) SiO2 
 PCOD9093254
Probable space group: P -1
;
_chemical_formula_sum "Si O2"
_cell_formula_units_Z 15
_cell_length_a 16.767185
_cell_length_b 20.844700
_cell_length_c 12.129428
_cell_angle_alpha 149.643522
_cell_angle_beta 28.540717
_cell_angle_gamma 161.420602
_cell_volume 632.524115
_symmetry_space_group_name_H-M "P -1"
_symmetry_group_IT_number 2
_symmetry_cell_setting 'triclinic'
loop_
_space_group_symop_operation_xyz
x,y,z
-x,-y,-z
loop_
_atom_site_type_symbol
_atom_site_label
_atom_site_fract_x
_atom_site_fract_y
_atom_site_fract_z
Si Si1 0.000000 0.500000 0.500000
Si Si2 0.770829 0.930905 0.421479
Si Si3 0.251165 0.785474 0.825319
Si Si4 0.727373 0.714224 0.970838
Si Si5 0.964961 0.839746 0.354345
Si Si6 0.210435 0.808125 0.513945
Si Si7 0.502134 0.545535 0.326146
Si Si8 0.984460 0.553925 0.216741
O O1 0.126361 0.688550 0.711829
O O2 0.055259 0.618715 0.501691
O O3 0.552588 0.911258 0.648004
O O4 0.662083 0.744106 0.348291
O O5 0.791677 0.883047 0.204344
O O6 0.011318 0.130742 0.499428
O O7 0.112791 0.614463 0.832735
O O8 0.201713 0.895871 0.096988
O O9 0.581252 0.627213 0.900590
O O10 0.005685 0.804156 0.757118
O O11 0.500000 0.500000 0.000000
O O12 0.686293 0.622205 0.319641
O O13 0.000000 0.000000 0.500000
O O14 0.226458 0.761486 0.301374
O O15 0.500000 0.000000 0.500000
O O16 0.235619 0.466145 0.556386
O O17 0.000000 0.500000 0.000000
#
# Coordination Sequence:
#
# PCOD9093254 Si02
#       8
#     1   2   2   2   2   2   2   2
#     4  10  22  38  66  96 132 170 218 274 330 386
#     4   9  18  32  51  85 123 154 210 270 323 374
#     4  10  21  36  59  93 122 165 223 263 326 397
#     4   9  17  33  62  85 123 172 216 257 329 398
#     4  10  20  32  52  87 126 151 203 275 318 384
#     4  10  22  40  64 104 131 172 226 276 330 396
#     4   8  17  31  53  81 112 161 216 248 320 398
#     4   9  19  40  61  82 125 178 210 263 336 391
#
# _framework density 23.714510000000001
#
# number of rings (size 3 to 8) (size 9 to 14) (size 15 to 20)
#    0.000    2.667    0.000    2.800    7.467    1.067 
#    7.200    0.667    0.000    3.200    0.000    0.000 
#    0.000    0.000    0.000    0.000    0.000    0.000 
#
# Total GULP energy -83502.251775 kJ/mol
# GULP energy per Si atom -5566.816785 kJ/mol
# Density = 2.366053 g / cm^3
# Si number density = 23.714510 Si / 1000 Ang^3
#
#
#
# Elastic Constant Matrix: (Units=GPa)
#
#
# Indices 1 2 3 4 5 6 
#
# 1 101.0251 46.6820 83.2949 20.4519 33.2655 22.3653
# 2 46.6820 66.1262 47.5774 16.7660 12.1312 33.6548
# 3 83.2949 47.5774 154.0420 34.3568 32.3988 45.2893
# 4 20.4519 16.7660 34.3568 20.4952 13.7731 11.5930
# 5 33.2655 12.1312 32.3988 13.7731 53.1122 18.8035
# 6 22.3653 33.6548 45.2893 11.5930 18.8035 59.8866
#
#
#
# Elastic Compliance Matrix: (Units=1/GPa)
#
#
# Indices 1 2 3 4 5 6 
#
# 1 0.026857 -0.015124 -0.012069 0.008086 -0.011517 0.009647
# 2 -0.015124 0.033360 0.004373 -0.016607 0.009183 -0.016075
# 3 -0.012069 0.004373 0.017631 -0.018608 0.003769 -0.008865
# 4 0.008086 -0.016607 -0.018608 0.092275 -0.016586 0.007730
# 5 -0.011517 0.009183 0.003769 -0.016586 0.029390 -0.009727
# 6 0.009647 -0.016075 -0.008865 0.007730 -0.009727 0.030391
#
#
# Mechanical properties :
#
#
# Convention : Reuss Voigt Hill
#
# Bulk Modulus (GPa) = 31.04658 75.14465 53.09562
# Shear Modulus (GPa) = 17.46543 36.27474 26.87008
#
# Velocity S-wave (km/s) = 2.71677 3.91531 3.36975
# Velocity P-wave (km/s) = 4.79180 7.22465 6.13013
#
# Compressibility (1/GPa) = 0.03220967
#
# Stress axis : x y z
#
# Youngs Moduli (GPa) = 37.23367 29.97566 56.71897
#
# Poissons Ratio (x) = 0.45334 0.68453
# Poissons Ratio (y) = 0.56311 -0.24803
# Poissons Ratio (z) = 0.44936 -0.13108
#
# Static dielectric constant tensor:
#      x y z
#    x 1.906260 -0.033180 0.039610 
#    y -0.033180 2.014800 0.019820 
#    z 0.039610 0.019820 1.933410 
# 
# From -- ./inp_files/467298.got.cif
#   From: 2010.05.17/outbox.cif.g08.bks.cpg/sg2_234_cif.got.tgz:467298.got - 2010.06.03 11:33:40.
