data_PCOD9093220
_publ_section_title
;
Structure prediction by ZEFSAII (Michael W. Deem and Ramdas Pophale) SiO2 
 PCOD9093220
Probable space group: P -1
;
_chemical_formula_sum "Si O2"
_cell_formula_units_Z 16
_cell_length_a 8.185225
_cell_length_b 13.586803
_cell_length_c 18.149368
_cell_angle_alpha 155.265469
_cell_angle_beta 110.502037
_cell_angle_gamma 74.177335
_cell_volume 785.702491
_symmetry_space_group_name_H-M "P -1"
_symmetry_group_IT_number 2
_symmetry_cell_setting 'triclinic'
loop_
_space_group_symop_operation_xyz
x,y,z
-x,-y,-z
loop_
_atom_site_type_symbol
_atom_site_label
_atom_site_fract_x
_atom_site_fract_y
_atom_site_fract_z
Si Si1 0.409925 0.117906 0.755438
Si Si2 0.249389 0.118213 0.324410
Si Si3 0.540258 0.579526 0.162955
Si Si4 0.857220 0.679499 0.702907
Si Si5 0.110339 0.646689 0.928588
Si Si6 0.798401 0.346527 0.595943
Si Si7 0.557416 0.536842 0.309075
Si Si8 0.228674 0.864815 0.936179
O O1 0.473575 0.190055 0.731657
O O2 0.565772 0.991881 0.732489
O O3 0.235077 0.937323 0.602179
O O4 0.404843 0.363451 0.964247
O O5 0.217593 0.294500 0.372332
O O6 0.279908 0.279161 0.510912
O O7 0.108907 0.881547 0.138768
O O8 0.733949 0.502346 0.123853
O O9 0.525702 0.591829 0.256239
O O10 0.841388 0.438487 0.582330
O O11 0.061952 0.785518 0.804613
O O12 0.759587 0.856238 0.860198
O O13 0.169922 0.762843 0.938200
O O14 0.939194 0.472043 0.761260
O O15 0.612374 0.422091 0.643791
O O16 0.607110 0.271852 0.148688
#
# Coordination Sequence:
#
# PCOD9093220 Si02
#       8
#     2   2   2   2   2   2   2   2
#     4   9  19  34  56  75  94 133 174 203 249 305
#     4   9  18  32  52  74 102 140 169 193 245 309
#     4   9  18  37  57  71  96 134 172 206 244 306
#     4   9  17  33  51  69 103 140 167 198 241 299
#     4   8  16  34  54  72 101 136 168 199 244 305
#     4  10  20  32  51  80 105 128 164 213 254 283
#     4  10  20  32  51  79 101 124 170 216 248 288
#     4   8  16  32  52  70  96 140 174 194 239 303
#
# _framework density 20.363942000000002
#
# number of rings (size 3 to 8) (size 9 to 14) (size 15 to 20)
#    0.000    3.000    0.000    1.500    0.000    5.500 
#    0.000    5.000    0.000    7.500    0.000    0.000 
#    0.000    0.000    0.000    0.000    0.000    0.000 
#
# Total GULP energy -89101.506509 kJ/mol
# GULP energy per Si atom -5568.844157 kJ/mol
# Density = 2.031759 g / cm^3
# Si number density = 20.363942 Si / 1000 Ang^3
#
#
#
# Elastic Constant Matrix: (Units=GPa)
#
#
# Indices 1 2 3 4 5 6 
#
# 1 25.3869 4.3945 12.1868 -3.0976 10.1673 -10.0630
# 2 4.3945 74.7973 25.5658 -14.8145 14.3270 -0.5189
# 3 12.1868 25.5658 100.4896 3.9406 36.5287 6.6563
# 4 -3.0976 -14.8145 3.9406 26.2975 0.9710 3.9244
# 5 10.1673 14.3270 36.5287 0.9710 25.5817 0.4993
# 6 -10.0630 -0.5189 6.6563 3.9244 0.4993 16.5457
#
#
#
# Elastic Compliance Matrix: (Units=1/GPa)
#
#
# Indices 1 2 3 4 5 6 
#
# 1 0.067701 0.003114 -0.002472 0.004809 -0.026123 0.041915
# 2 0.003114 0.017733 -0.002433 0.010857 -0.008129 0.001099
# 3 -0.002472 -0.002433 0.022069 -0.002562 -0.028895 -0.008978
# 4 0.004809 0.010857 -0.002562 0.046284 -0.005963 -0.006502
# 5 -0.026123 -0.008129 -0.028895 -0.005963 0.095629 -0.005989
# 6 0.041915 0.001099 -0.008978 -0.006502 -0.005989 0.091300
#
#
# Mechanical properties :
#
#
# Convention : Reuss Voigt Hill
#
# Bulk Modulus (GPa) = 9.62264 31.66311 20.64287
# Shear Modulus (GPa) = 13.19479 24.25342 18.72410
#
# Velocity S-wave (km/s) = 2.54824 3.45483 3.03557
# Velocity P-wave (km/s) = 3.65973 5.61220 4.73764
#
# Compressibility (1/GPa) = 0.10392163
#
# Stress axis : x y z
#
# Youngs Moduli (GPa) = 14.77082 56.39161 45.31289
#
# Poissons Ratio (x) = -0.17561 0.11201
# Poissons Ratio (y) = -0.04600 0.11024
# Poissons Ratio (z) = 0.03651 0.13720
#
# Static dielectric constant tensor:
#      x y z
#    x 1.733570 -0.038670 -0.000150 
#    y -0.038670 1.735760 0.024610 
#    z -0.000150 0.024610 1.836050 
# 
# From -- ./inp_files/181838.got.cif
#   From: 2010.05.17/outbox.cif.g08.bks.cpg/sg2_91_cif.got.tgz:181838.got - 2010.06.03 11:33:40.
