data_PCOD9093127
_publ_section_title
;
Structure prediction by ZEFSAII (Michael W. Deem and Ramdas Pophale) SiO2 
 PCOD9093127
Probable space group: P -1
;
_chemical_formula_sum "Si O2"
_cell_formula_units_Z 16
_cell_length_a 14.082415
_cell_length_b 19.864922
_cell_length_c 10.362148
_cell_angle_alpha 26.478113
_cell_angle_beta 129.312997
_cell_angle_gamma 145.099449
_cell_volume 679.590968
_symmetry_space_group_name_H-M "P -1"
_symmetry_group_IT_number 2
_symmetry_cell_setting 'triclinic'
loop_
_space_group_symop_operation_xyz
x,y,z
-x,-y,-z
loop_
_atom_site_type_symbol
_atom_site_label
_atom_site_fract_x
_atom_site_fract_y
_atom_site_fract_z
Si Si1 0.625236 0.896504 0.231005
Si Si2 0.282829 0.865392 0.434100
Si Si3 0.841778 0.674533 0.616101
Si Si4 0.496374 0.917129 0.319253
Si Si5 0.451580 0.268531 0.034226
Si Si6 0.300335 0.453452 0.564895
Si Si7 0.055516 0.887231 0.022065
Si Si8 0.189921 0.818952 0.712689
O O1 0.488720 0.692784 0.364084
O O2 0.541797 0.817493 0.437641
O O3 0.830101 0.029514 0.154432
O O4 0.613765 0.061514 0.897440
O O5 0.195516 0.747094 0.699681
O O6 0.372522 0.812878 0.520186
O O7 0.150752 0.852211 0.260414
O O8 0.442257 0.124161 0.170386
O O9 0.655178 0.502470 0.828513
O O10 0.793501 0.577785 0.594823
O O11 0.994549 0.710188 0.752580
O O12 0.913765 0.910574 0.260793
O O13 0.695985 0.161295 0.113265
O O14 0.347696 0.321288 0.803645
O O15 0.325541 0.086160 0.350441
O O16 0.155841 0.333959 0.761734
#
# Coordination Sequence:
#
# PCOD9093127 Si02
#       8
#     2   2   2   2   2   2   2   2
#     4  10  24  39  62  80 113 159 198 232 262 349
#     4   9  18  36  59  84 114 150 185 239 280 331
#     4  12  18  32  59  95 119 138 183 243 299 338
#     4  10  21  44  58  77 117 165 194 220 282 335
#     4  10  20  31  58  94 114 143 181 240 299 331
#     4  12  19  35  60  94 116 139 194 239 294 330
#     4  11  18  34  60  90 116 144 188 239 290 332
#     4  10  21  36  59  87 119 149 180 241 293 339
#
# _framework density 23.543575000000001
#
# number of rings (size 3 to 8) (size 9 to 14) (size 15 to 20)
#    0.750    0.750    5.000    2.625    0.000    0.000 
#    0.000   13.125    0.000    0.000    0.000    0.000 
#    0.000    0.000    0.000    0.000    0.000    0.000 
#
# Total GULP energy -89191.371340 kJ/mol
# GULP energy per Si atom -5574.460709 kJ/mol
# Density = 2.348999 g / cm^3
# Si number density = 23.543575 Si / 1000 Ang^3
#
#
#
# Elastic Constant Matrix: (Units=GPa)
#
#
# Indices 1 2 3 4 5 6 
#
# 1 104.2619 23.0534 2.9783 -4.3925 -13.3483 11.1443
# 2 23.0534 53.8576 -2.0881 7.1394 -7.8298 20.0388
# 3 2.9783 -2.0881 42.3999 -7.5649 -10.8567 7.0443
# 4 -4.3925 7.1394 -7.5649 17.8773 12.6503 -10.0229
# 5 -13.3483 -7.8298 -10.8567 12.6503 24.9914 -10.4047
# 6 11.1443 20.0388 7.0443 -10.0229 -10.4047 48.5417
#
#
#
# Elastic Compliance Matrix: (Units=1/GPa)
#
#
# Indices 1 2 3 4 5 6 
#
# 1 0.011146 -0.004921 0.000222 0.002816 0.003395 0.000749
# 2 -0.004921 0.036263 0.003866 -0.040734 0.023644 -0.017744
# 3 0.000222 0.003866 0.027315 -0.000133 0.011985 -0.003069
# 4 0.002816 -0.040734 -0.000133 0.138404 -0.068883 0.030001
# 5 0.003395 0.023644 0.011985 -0.068883 0.085945 -0.008080
# 6 0.000749 -0.017744 -0.003069 0.030001 -0.008080 0.032662
#
#
# Mechanical properties :
#
#
# Convention : Reuss Voigt Hill
#
# Bulk Modulus (GPa) = 13.68785 27.60075 20.64430
# Shear Modulus (GPa) = 13.97611 30.05379 22.01495
#
# Velocity S-wave (km/s) = 2.43909 3.57671 3.06121
# Velocity P-wave (km/s) = 3.70927 5.36711 4.61327
#
# Compressibility (1/GPa) = 0.07305748
#
# Stress axis : x y z
#
# Youngs Moduli (GPa) = 89.71745 27.57640 36.61012
#
# Poissons Ratio (x) = 0.13570 -0.00812
# Poissons Ratio (y) = 0.44150 -0.14153
# Poissons Ratio (z) = -0.01990 -0.10661
#
# Static dielectric constant tensor:
#      x y z
#    x 1.937080 -0.027320 -0.033300 
#    y -0.027320 2.007230 0.085820 
#    z -0.033300 0.085820 1.948660 
# 
# From -- ./inp_files/421892.got.cif
#   From: 2010.05.17/outbox.cif.g08.bks.cpg/sg2_211_cif.got.tgz:421892.got - 2010.06.03 11:33:40.
