data_PCOD9093894
_publ_section_title
;
Structure prediction by ZEFSAII (Michael W. Deem and Ramdas Pophale) SiO2 
 PCOD9093894
Probable space group: P -1
;
_chemical_formula_sum "Si O2"
_cell_formula_units_Z 16
_cell_length_a 23.871152
_cell_length_b 8.263621
_cell_length_c 13.578643
_cell_angle_alpha 135.804318
_cell_angle_beta 24.008329
_cell_angle_gamma 124.436849
_cell_volume 720.966315
_symmetry_space_group_name_H-M "P -1"
_symmetry_group_IT_number 2
_symmetry_cell_setting 'triclinic'
loop_
_space_group_symop_operation_xyz
x,y,z
-x,-y,-z
loop_
_atom_site_type_symbol
_atom_site_label
_atom_site_fract_x
_atom_site_fract_y
_atom_site_fract_z
Si Si1 0.386616 0.014155 0.792689
Si Si2 0.602096 0.229302 0.738940
Si Si3 0.930000 0.712265 0.283153
Si Si4 0.314181 0.589007 0.116378
Si Si5 0.911724 0.811943 0.569453
Si Si6 0.408077 0.975236 0.042284
Si Si7 0.304010 0.030999 0.718297
Si Si8 0.008512 0.203521 0.347835
O O1 0.555682 0.875972 0.480019
O O2 0.336354 0.923412 0.730921
O O3 0.375508 0.301522 0.917624
O O4 0.260408 0.037038 0.084068
O O5 0.685989 0.258784 0.716063
O O6 0.691373 0.138631 0.456846
O O7 0.500000 0.500000 0.000000
O O8 0.499691 0.059971 0.848979
O O9 0.945170 0.642810 0.345208
O O10 0.756435 0.841193 0.605166
O O11 0.004926 0.923576 0.239390
O O12 0.000000 0.500000 0.000000
O O13 0.151680 0.654726 0.368045
O O14 0.397177 0.701801 0.950870
O O15 0.955796 0.714852 0.565824
O O16 0.000000 0.000000 0.500000
O O17 0.500000 0.000000 0.000000
O O18 0.140981 0.205316 0.065820
#
# Coordination Sequence:
#
# PCOD9093894 Si02
#       8
#     2   2   2   2   2   2   2   2
#     4  10  20  37  61  84 116 157 200 237 292 354
#     4  11  21  36  63  88 114 160 199 239 298 355
#     4  10  20  33  60  87 113 151 200 244 281 345
#     4  10  21  39  59  85 117 162 190 242 308 348
#     4   9  19  37  57  83 116 155 192 235 292 350
#     4   9  21  39  56  83 124 151 189 239 301 351
#     4  10  21  35  57  90 114 147 205 250 275 350
#     4   9  21  38  54  81 124 154 188 243 300 346
#
# _framework density 22.192439
#
# number of rings (size 3 to 8) (size 9 to 14) (size 15 to 20)
#    0.000    2.250    1.250    0.750    1.750    2.500 
#    0.000    6.875    0.000    0.000    0.000    0.000 
#    0.000    0.000    0.000    0.000    0.000    0.000 
#
# Total GULP energy -89159.701959 kJ/mol
# GULP energy per Si atom -5572.481372 kJ/mol
# Density = 2.214193 g / cm^3
# Si number density = 22.192439 Si / 1000 Ang^3
#
#
#
# Elastic Constant Matrix: (Units=GPa)
#
#
# Indices 1 2 3 4 5 6 
#
# 1 141.8899 14.6558 50.5391 0.0649 20.1477 16.1191
# 2 14.6558 104.9074 32.6438 -12.1214 7.7983 5.8914
# 3 50.5391 32.6438 113.5787 -22.6400 11.2405 5.1978
# 4 0.0649 -12.1214 -22.6400 27.5880 7.3121 0.4584
# 5 20.1477 7.7983 11.2405 7.3121 55.3760 -4.3992
# 6 16.1191 5.8914 5.1978 0.4584 -4.3992 17.1560
#
#
#
# Elastic Compliance Matrix: (Units=1/GPa)
#
#
# Indices 1 2 3 4 5 6 
#
# 1 0.010030 0.000416 -0.004325 -0.002384 -0.003232 -0.009021
# 2 0.000416 0.010966 -0.002230 0.003597 -0.002044 -0.004101
# 3 -0.004325 -0.002230 0.013812 0.011003 -0.002390 -0.000262
# 4 -0.002384 0.003597 0.011003 0.049308 -0.008853 -0.005917
# 5 -0.003232 -0.002044 -0.002390 -0.008853 0.021998 0.010340
# 6 -0.009021 -0.004101 -0.000262 -0.005917 0.010340 0.071062
#
#
# Mechanical properties :
#
#
# Convention : Reuss Voigt Hill
#
# Bulk Modulus (GPa) = 44.38606 61.78371 53.08488
# Shear Modulus (GPa) = 25.38558 37.52650 31.45604
#
# Velocity S-wave (km/s) = 3.38580 4.11659 3.76895
# Velocity P-wave (km/s) = 5.94381 7.10602 6.55074
#
# Compressibility (1/GPa) = 0.02252960
#
# Stress axis : x y z
#
# Youngs Moduli (GPa) = 99.69937 91.19255 72.40327
#
# Poissons Ratio (x) = -0.03794 0.31315
# Poissons Ratio (y) = -0.04148 0.16145
# Poissons Ratio (z) = 0.43121 0.20335
#
# Static dielectric constant tensor:
#      x y z
#    x 1.902580 -0.056830 0.011740 
#    y -0.056830 1.920980 -0.012130 
#    z 0.011740 -0.012130 1.804140 
# 
# From -- ./inp_files/541866.got.cif
#   From: 2010.05.17/outbox.cif.g08.bks.cpg/sg2_271_cif.got.tgz:541866.got - 2010.06.03 11:33:40.
