data_PCOD9093232
_publ_section_title
;
Structure prediction by ZEFSAII (Michael W. Deem and Ramdas Pophale) SiO2 
 PCOD9093232
Probable space group: P -1
;
_chemical_formula_sum "Si O2"
_cell_formula_units_Z 16
_cell_length_a 10.523655
_cell_length_b 7.875186
_cell_length_c 27.123768
_cell_angle_alpha 51.583000
_cell_angle_beta 20.802269
_cell_angle_gamma 58.530250
_cell_volume 611.360928
_symmetry_space_group_name_H-M "P -1"
_symmetry_group_IT_number 2
_symmetry_cell_setting 'triclinic'
loop_
_space_group_symop_operation_xyz
x,y,z
-x,-y,-z
loop_
_atom_site_type_symbol
_atom_site_label
_atom_site_fract_x
_atom_site_fract_y
_atom_site_fract_z
Si Si1 0.154636 0.861570 0.119852
Si Si2 0.406758 0.251517 0.098888
Si Si3 0.929386 0.244162 0.102951
Si Si4 0.615906 0.551184 0.613147
Si Si5 0.857863 0.582259 0.414179
Si Si6 0.367083 0.360669 0.833462
Si Si7 0.285261 0.455484 0.200870
Si Si8 0.373374 0.988608 0.604657
O O1 0.099594 0.620256 0.205642
O O2 0.856693 0.012257 0.199468
O O3 0.285637 0.856917 0.016852
O O4 0.500000 0.000000 0.000000
O O5 0.340097 0.260665 0.179765
O O6 0.039717 0.146844 0.222410
O O7 0.500000 0.500000 0.000000
O O8 0.628712 0.385218 0.196678
O O9 0.023511 0.231684 0.013058
O O10 0.316467 0.395239 0.955832
O O11 0.603792 0.502132 0.567888
O O12 0.340703 0.390170 0.778990
O O13 0.587654 0.810107 0.582843
O O14 0.000000 0.500000 0.500000
O O15 0.253305 0.701964 0.274815
O O16 0.006935 0.410723 0.355685
O O17 0.687002 0.758756 0.412610
O O18 0.500000 0.000000 0.500000
#
# Coordination Sequence:
#
# PCOD9093232 Si02
#       8
#     2   2   2   2   2   2   2   2
#     4   9  17  29  50  78 109 139 182 225 271 325
#     4  10  20  32  51  87 119 145 176 229 292 335
#     4   9  17  29  49  80 105 150 182 226 278 333
#     4   9  19  32  52  82 103 139 183 245 265 312
#     4   9  18  35  52  81 105 144 194 233 265 327
#     4   9  17  28  50  78 112 136 189 236 270 316
#     4   9  18  30  50  79 116 141 176 230 286 331
#     4  10  20  35  58  82 106 144 197 230 267 329
#
# _framework density 26.171122
#
# number of rings (size 3 to 8) (size 9 to 14) (size 15 to 20)
#    0.000    2.750    0.000    2.250    7.000    0.000 
#    0.000    2.500    0.000   12.000    9.750   28.875 
#    0.000    0.000    0.000    0.000    0.000    0.000 
#
# Total GULP energy -89179.040232 kJ/mol
# GULP energy per Si atom -5573.690015 kJ/mol
# Density = 2.611156 g / cm^3
# Si number density = 26.171122 Si / 1000 Ang^3
#
#
#
# Elastic Constant Matrix: (Units=GPa)
#
#
# Indices 1 2 3 4 5 6 
#
# 1 116.4960 46.1540 51.8149 11.7975 14.2624 -13.9980
# 2 46.1540 81.6968 17.3764 34.5439 -10.0848 -28.7535
# 3 51.8149 17.3764 69.5774 19.0357 11.0269 10.0465
# 4 11.7975 34.5439 19.0357 46.6609 5.9073 2.7707
# 5 14.2624 -10.0848 11.0269 5.9073 56.6339 19.9149
# 6 -13.9980 -28.7535 10.0465 2.7707 19.9149 55.0826
#
#
#
# Elastic Compliance Matrix: (Units=1/GPa)
#
#
# Indices 1 2 3 4 5 6 
#
# 1 0.019808 -0.012510 -0.013891 0.010588 -0.006637 0.002904
# 2 -0.012510 0.034684 0.004886 -0.026105 0.006532 0.012986
# 3 -0.013891 0.004886 0.027040 -0.011076 0.002454 -0.006241
# 4 0.010588 -0.026105 -0.011076 0.043962 -0.006680 -0.008712
# 5 -0.006637 0.006532 0.002454 -0.006680 0.023078 -0.006732
# 6 0.002904 0.012986 -0.006241 -0.008712 -0.006732 0.029682
#
#
# Mechanical properties :
#
#
# Convention : Reuss Voigt Hill
#
# Bulk Modulus (GPa) = 25.97306 55.38452 40.67879
# Shear Modulus (GPa) = 21.35680 41.83713 31.59696
#
# Velocity S-wave (km/s) = 2.85975 4.00259 3.47842
# Velocity P-wave (km/s) = 4.56619 6.52452 5.63114
#
# Compressibility (1/GPa) = 0.03850143
#
# Stress axis : x y z
#
# Youngs Moduli (GPa) = 50.48471 28.83215 36.98257
#
# Poissons Ratio (x) = 0.36069 0.51373
# Poissons Ratio (y) = 0.63156 -0.18070
# Poissons Ratio (z) = 0.70129 -0.14088
#
# Static dielectric constant tensor:
#      x y z
#    x 2.133770 -0.011150 0.140160 
#    y -0.011150 1.940630 0.194130 
#    z 0.140160 0.194130 1.949350 
# 
# From -- ./inp_files/622963.got.cif
#   From: 2010.05.17/outbox.cif.g08.bks.cpg/sg2_312_cif.got.tgz:622963.got - 2010.06.03 11:33:40.
