data_PCOD9093286
_publ_section_title
;
Structure prediction by ZEFSAII (Michael W. Deem and Ramdas Pophale) SiO2 
 PCOD9093286
Probable space group: P -1
;
_chemical_formula_sum "Si O2"
_cell_formula_units_Z 14
_cell_length_a 14.387865
_cell_length_b 5.592788
_cell_length_c 12.094431
_cell_angle_alpha 114.344605
_cell_angle_beta 41.786068
_cell_angle_gamma 121.704732
_cell_volume 551.371190
_symmetry_space_group_name_H-M "P -1"
_symmetry_group_IT_number 2
_symmetry_cell_setting 'triclinic'
loop_
_space_group_symop_operation_xyz
x,y,z
-x,-y,-z
loop_
_atom_site_type_symbol
_atom_site_label
_atom_site_fract_x
_atom_site_fract_y
_atom_site_fract_z
Si Si1 0.697612 0.866712 0.340124
Si Si2 0.955881 0.375306 0.680535
Si Si3 0.235472 0.335106 0.979241
Si Si4 0.456367 0.202092 0.190554
Si Si5 0.281709 0.133353 0.113344
Si Si6 0.354688 0.561004 0.506400
Si Si7 0.761770 0.343092 0.643878
O O1 0.788066 0.803478 0.145509
O O2 0.522075 0.710198 0.435902
O O3 0.726905 0.704991 0.391139
O O4 0.713418 0.192665 0.391610
O O5 0.873499 0.268336 0.615680
O O6 0.127906 0.498856 0.521428
O O7 0.881797 0.098471 0.766018
O O8 0.903707 0.609598 0.830879
O O9 0.367545 0.643134 0.916544
O O10 0.301913 0.158221 0.969002
O O11 0.399174 0.117088 0.099258
O O12 0.386987 0.432631 0.337897
O O13 0.381929 0.939326 0.288511
O O14 0.282339 0.438597 0.202837
#
# Coordination Sequence:
#
# PCOD9093286 Si02
#       7
#     2   2   2   2   2   2   2
#     4   9  19  35  56  81 112 151 194 234 280 340
#     4   9  19  35  53  76 109 149 189 224 274 343
#     4  10  21  34  55  84 114 143 181 237 290 336
#     4  10  21  34  55  84 114 143 181 237 290 336
#     4  10  20  32  54  84 112 146 180 230 288 346
#     4   9  19  35  56  81 112 151 194 234 280 340
#     4   9  19  35  53  76 109 149 189 224 274 343
#
# _framework density 25.391245999999999
#
# number of rings (size 3 to 8) (size 9 to 14) (size 15 to 20)
#    0.000    2.571    0.000    0.857    4.000    7.429 
#    0.000    0.000    0.000    1.714    0.000    0.000 
#    0.000    0.000    0.000    0.000    0.000    0.000 
#
# Total GULP energy -78203.977141 kJ/mol
# GULP energy per Si atom -5585.998367 kJ/mol
# Density = 2.533345 g / cm^3
# Si number density = 25.391246 Si / 1000 Ang^3
#
#
#
# Elastic Constant Matrix: (Units=GPa)
#
#
# Indices 1 2 3 4 5 6 
#
# 1 32.9445 -4.3892 -0.1907 -9.3227 3.6017 0.5066
# 2 -4.3892 91.6060 2.9040 -19.4812 6.1296 -25.7078
# 3 -0.1907 2.9040 71.4907 -17.5098 3.7520 -0.5141
# 4 -9.3227 -19.4812 -17.5098 46.7952 4.4740 3.5642
# 5 3.6017 6.1296 3.7520 4.4740 48.2516 2.7103
# 6 0.5066 -25.7078 -0.5141 3.5642 2.7103 19.4186
#
#
#
# Elastic Compliance Matrix: (Units=1/GPa)
#
#
# Indices 1 2 3 4 5 6 
#
# 1 0.034430 0.005535 0.002652 0.010205 -0.004722 0.005286
# 2 0.005535 0.020897 0.001851 0.008992 -0.005545 0.026693
# 3 0.002652 0.001851 0.015856 0.007329 -0.002447 0.001798
# 4 0.010205 0.008992 0.007329 0.029885 -0.005646 0.007135
# 5 -0.004722 -0.005545 -0.002447 -0.005646 0.023027 -0.009460
# 6 0.005286 0.026693 0.001798 0.007135 -0.009460 0.086756
#
#
# Mechanical properties :
#
#
# Convention : Reuss Voigt Hill
#
# Bulk Modulus (GPa) = 10.95766 21.40994 16.18380
# Shear Modulus (GPa) = 22.60465 36.07423 29.33944
#
# Velocity S-wave (km/s) = 2.98695 3.77335 3.40294
# Velocity P-wave (km/s) = 4.02749 5.23780 4.67201
#
# Compressibility (1/GPa) = 0.09126039
#
# Stress axis : x y z
#
# Youngs Moduli (GPa) = 29.04473 47.85323 63.06720
#
# Poissons Ratio (x) = -0.26488 -0.16727
# Poissons Ratio (y) = -0.16077 -0.11675
# Poissons Ratio (z) = -0.07703 -0.08859
#
# Static dielectric constant tensor:
#      x y z
#    x 2.076600 -0.051880 -0.004550 
#    y -0.051880 2.023330 0.004750 
#    z -0.004550 0.004750 2.036560 
# 
# From -- ./inp_files/64970.got.cif
#   From: 2010.05.17/outbox.cif.g08.bks.cpg/sg2_33_cif.got.tgz:64970.got - 2010.06.03 11:33:40.
