data_PCOD9093407
_publ_section_title
;
Structure prediction by ZEFSAII (Michael W. Deem and Ramdas Pophale) SiO2 
 PCOD9093407
Probable space group: P -1
;
_chemical_formula_sum "Si O2"
_cell_formula_units_Z 12
_cell_length_a 7.756422
_cell_length_b 9.774730
_cell_length_c 15.460248
_cell_angle_alpha 151.984410
_cell_angle_beta 62.472591
_cell_angle_gamma 117.314949
_cell_volume 484.587525
_symmetry_space_group_name_H-M "P -1"
_symmetry_group_IT_number 2
_symmetry_cell_setting 'triclinic'
loop_
_space_group_symop_operation_xyz
x,y,z
-x,-y,-z
loop_
_atom_site_type_symbol
_atom_site_label
_atom_site_fract_x
_atom_site_fract_y
_atom_site_fract_z
Si Si1 0.237896 0.414878 0.469440
Si Si2 0.172096 0.428354 0.985000
Si Si3 0.196221 0.668158 0.450178
Si Si4 0.409948 0.587513 0.182409
Si Si5 0.411791 0.891369 0.829491
Si Si6 0.101829 0.985766 0.061564
O O1 0.282548 0.672102 0.528715
O O2 0.298877 0.613587 0.649353
O O3 0.369487 0.166493 0.272904
O O4 0.022113 0.246052 0.444978
O O5 0.288232 0.638023 0.150717
O O6 0.048699 0.192129 0.941394
O O7 0.356737 0.321011 0.831225
O O8 0.000000 0.500000 0.000000
O O9 0.319080 0.726505 0.366343
O O10 0.141696 0.315465 0.265188
O O11 0.394616 0.231004 0.999325
O O12 0.306820 0.856945 0.928136
O O13 0.000000 0.000000 0.000000
#
# Coordination Sequence:
#
# PCOD9093407 Si02
#       6
#     2   2   2   2   2   2
#     4  10  20  32  60  94 120 150 208 252 300 352
#     4  11  23  36  63  95 124 154 202 257 307 348
#     4  10  20  37  61  90 117 158 204 252 297 359
#     4  10  22  42  61  88 123 159 203 254 300 357
#     4  10  20  37  61  90 117 158 204 252 297 359
#     4  11  19  39  65  88 117 156 205 254 294 354
#
# _framework density 24.76333
#
# number of rings (size 3 to 8) (size 9 to 14) (size 15 to 20)
#    0.000    1.667    5.000    0.000    4.667    1.333 
#    0.000    0.000    0.000   36.000    0.000    0.000 
#    0.000    0.000    0.000    0.000    0.000    0.000 
#
# Total GULP energy -66894.891788 kJ/mol
# GULP energy per Si atom -5574.574316 kJ/mol
# Density = 2.470697 g / cm^3
# Si number density = 24.763330 Si / 1000 Ang^3
#
#
#
# Elastic Constant Matrix: (Units=GPa)
#
#
# Indices 1 2 3 4 5 6 
#
# 1 130.8428 42.7145 37.7777 -23.4933 -36.3378 8.3728
# 2 42.7145 126.6265 25.7703 -40.7008 -20.9772 17.0961
# 3 37.7777 25.7703 106.8433 -32.3285 -38.5275 15.0721
# 4 -23.4933 -40.7008 -32.3285 49.4533 19.2248 -14.7146
# 5 -36.3378 -20.9772 -38.5275 19.2248 39.2291 -14.8560
# 6 8.3728 17.0961 15.0721 -14.7146 -14.8560 38.8553
#
#
#
# Elastic Compliance Matrix: (Units=1/GPa)
#
#
# Indices 1 2 3 4 5 6 
#
# 1 0.011007 -0.002363 -0.000138 0.000181 0.009646 0.002478
# 2 -0.002363 0.011431 0.000849 0.008324 0.000042 -0.001682
# 3 -0.000138 0.000849 0.015601 0.006027 0.013022 0.000866
# 4 0.000181 0.008324 0.006027 0.034346 -0.004274 0.005334
# 5 0.009646 0.000042 0.013022 -0.004274 0.053802 0.011804
# 6 0.002478 -0.001682 0.000866 0.005334 0.011804 0.032140
#
#
# Mechanical properties :
#
#
# Convention : Reuss Voigt Hill
#
# Bulk Modulus (GPa) = 28.78995 64.09309 46.44152
# Shear Modulus (GPa) = 28.86678 42.71090 35.78884
#
# Velocity S-wave (km/s) = 3.41795 4.15753 3.80575
# Velocity P-wave (km/s) = 5.21802 6.99894 6.17305
#
# Compressibility (1/GPa) = 0.03473435
#
# Stress axis : x y z
#
# Youngs Moduli (GPa) = 90.85130 87.48146 64.09914
#
# Poissons Ratio (x) = 0.20674 0.00887
# Poissons Ratio (y) = 0.21470 -0.05444
# Poissons Ratio (z) = 0.01257 -0.07430
#
# Static dielectric constant tensor:
#      x y z
#    x 2.254600 -0.085150 0.007960 
#    y -0.085150 2.055520 -0.049340 
#    z 0.007960 -0.049340 2.020550 
# 
# From -- ./inp_files/491689.got.cif
#   From: 2010.05.17/outbox.cif.g08.bks.cpg/sg2_246_cif.got.tgz:491689.got - 2010.06.03 11:33:40.
