data_PCOD9093438
_publ_section_title
;
Structure prediction by ZEFSAII (Michael W. Deem and Ramdas Pophale) SiO2 
 PCOD9093438
Probable space group: P -1
;
_chemical_formula_sum "Si O2"
_cell_formula_units_Z 16
_cell_length_a 11.744317
_cell_length_b 13.419808
_cell_length_c 15.586420
_cell_angle_alpha 51.394004
_cell_angle_beta 140.126932
_cell_angle_gamma 147.908568
_cell_volume 834.186428
_symmetry_space_group_name_H-M "P -1"
_symmetry_group_IT_number 2
_symmetry_cell_setting 'triclinic'
loop_
_space_group_symop_operation_xyz
x,y,z
-x,-y,-z
loop_
_atom_site_type_symbol
_atom_site_label
_atom_site_fract_x
_atom_site_fract_y
_atom_site_fract_z
Si Si1 0.065934 0.568915 0.309500
Si Si2 0.568998 0.916193 0.500491
Si Si3 0.340943 0.966910 0.843899
Si Si4 0.610205 0.522297 0.457855
Si Si5 0.254166 0.698572 0.587355
Si Si6 0.144094 0.406646 0.179835
Si Si7 0.841441 0.314175 0.886685
Si Si8 0.970792 0.950032 0.410037
O O1 0.275025 0.774368 0.366700
O O2 0.237792 0.529613 0.426358
O O3 0.024435 0.594176 0.175579
O O4 0.801058 0.393428 0.302236
O O5 0.504599 0.809556 0.610393
O O6 0.715240 0.130463 0.479955
O O7 0.752143 0.929356 0.538258
O O8 0.563160 0.095747 0.831383
O O9 0.196347 0.025204 0.742491
O O10 0.095850 0.744757 0.811568
O O11 0.500000 0.000000 0.000000
O O12 0.500000 0.500000 0.500000
O O13 0.359861 0.412674 0.311705
O O14 0.812529 0.736231 0.430943
O O15 0.000000 0.500000 0.500000
O O16 0.243874 0.597190 0.165268
O O17 0.026996 0.350823 0.046619
O O18 0.000000 0.000000 0.500000
#
# Coordination Sequence:
#
# PCOD9093438 Si02
#       8
#     2   2   2   2   2   2   2   2
#     4  11  20  33  55  83 109 146 191 233 283 332
#     4  10  20  36  56  82 119 147 186 238 287 338
#     4  10  20  34  49  71 109 154 186 218 269 334
#     4  12  20  32  49  81 117 150 185 231 277 334
#     4   9  20  37  57  84 113 147 188 239 292 334
#     4  10  20  33  48  70 115 154 186 224 274 329
#     4  10  20  33  49  75 110 150 190 225 269 337
#     4  12  22  33  53  86 118 149 184 229 286 343
#
# _framework density 19.180364999999998
#
# number of rings (size 3 to 8) (size 9 to 14) (size 15 to 20)
#    0.000    1.500    3.750    3.000    0.000    1.000 
#    0.000    0.000    0.000    0.000    0.000   24.500 
#    0.000    0.625    0.000    0.000    0.000    0.000 
#
# Total GULP energy -89099.757369 kJ/mol
# GULP energy per Si atom -5568.734836 kJ/mol
# Density = 1.913671 g / cm^3
# Si number density = 19.180365 Si / 1000 Ang^3
#
#
#
# Elastic Constant Matrix: (Units=GPa)
#
#
# Indices 1 2 3 4 5 6 
#
# 1 80.8239 30.3688 21.7580 -6.3154 -14.4329 27.5568
# 2 30.3688 129.7202 31.4756 -4.5916 -12.1193 19.9340
# 3 21.7580 31.4756 67.7112 -8.8023 -9.0983 8.5371
# 4 -6.3154 -4.5916 -8.8023 22.1243 5.4330 -5.1975
# 5 -14.4329 -12.1193 -9.0983 5.4330 20.2411 -11.3727
# 6 27.5568 19.9340 8.5371 -5.1975 -11.3727 47.3784
#
#
#
# Elastic Compliance Matrix: (Units=1/GPa)
#
#
# Indices 1 2 3 4 5 6 
#
# 1 0.017417 -0.001630 -0.003089 0.000226 0.005796 -0.007472
# 2 -0.001630 0.009387 -0.003426 -0.000846 0.002027 -0.001990
# 3 -0.003089 -0.003426 0.018309 0.005183 0.003317 0.001304
# 4 0.000226 -0.000846 0.005183 0.050201 -0.010165 0.002357
# 5 0.005796 0.002027 0.003317 -0.010165 0.064308 0.009500
# 6 -0.007472 -0.001990 0.001304 0.002357 0.009500 0.028594
#
#
# Mechanical properties :
#
#
# Convention : Reuss Voigt Hill
#
# Bulk Modulus (GPa) = 34.69550 49.49556 42.09553
# Shear Modulus (GPa) = 23.35215 30.92562 27.13889
#
# Velocity S-wave (km/s) = 3.49306 4.01977 3.76564
# Velocity P-wave (km/s) = 5.86489 6.88521 6.39543
#
# Compressibility (1/GPa) = 0.02882218
#
# Stress axis : x y z
#
# Youngs Moduli (GPa) = 57.41628 106.52768 54.61791
#
# Poissons Ratio (x) = 0.17368 0.16869
# Poissons Ratio (y) = 0.09361 0.18715
# Poissons Ratio (z) = 0.17733 0.36501
#
# Static dielectric constant tensor:
#      x y z
#    x 1.707860 -0.001290 -0.042620 
#    y -0.001290 1.755010 -0.006660 
#    z -0.042620 -0.006660 1.674800 
# 
# From -- ./inp_files/522356.got.cif
#   From: 2010.05.17/outbox.cif.g08.bks.cpg/sg2_262_cif.got.tgz:522356.got - 2010.06.03 11:33:40.
