data_PCOD9093569
_publ_section_title
;
Structure prediction by ZEFSAII (Michael W. Deem and Ramdas Pophale) SiO2 
 PCOD9093569
Probable space group: P -1
;
_chemical_formula_sum "Si O2"
_cell_formula_units_Z 16
_cell_length_a 20.560023
_cell_length_b 18.952846
_cell_length_c 7.507902
_cell_angle_alpha 46.542765
_cell_angle_beta 134.864047
_cell_angle_gamma 160.416860
_cell_volume 691.705595
_symmetry_space_group_name_H-M "P -1"
_symmetry_group_IT_number 2
_symmetry_cell_setting 'triclinic'
loop_
_space_group_symop_operation_xyz
x,y,z
-x,-y,-z
loop_
_atom_site_type_symbol
_atom_site_label
_atom_site_fract_x
_atom_site_fract_y
_atom_site_fract_z
Si Si1 0.114096 0.022494 0.084704
Si Si2 0.247052 0.571134 0.810468
Si Si3 0.018749 0.611605 0.092145
Si Si4 0.723871 0.220935 0.974592
Si Si5 0.303761 0.024563 0.081054
Si Si6 0.779737 0.673275 0.762549
Si Si7 0.901934 0.201630 0.542167
Si Si8 0.381144 0.316060 0.808518
O O1 0.986608 0.881588 0.902662
O O2 0.329666 0.253939 0.023607
O O3 0.117687 0.923281 0.364348
O O4 0.000000 0.000000 0.000000
O O5 0.477132 0.814227 0.809431
O O6 0.107761 0.513736 0.750807
O O7 0.128781 0.432924 0.642041
O O8 0.246033 0.464568 0.093668
O O9 0.839412 0.419999 0.941102
O O10 0.137504 0.824045 0.978361
O O11 0.202088 0.714615 0.200557
O O12 0.824529 0.217500 0.251653
O O13 0.500000 0.000000 0.000000
O O14 0.230450 0.928714 0.305486
O O15 0.328968 0.164086 0.876440
O O16 0.611089 0.545090 0.803624
O O17 0.742697 0.710601 0.463562
#
# Coordination Sequence:
#
# PCOD9093569 Si02
#       8
#     2   2   2   2   2   2   2   2
#     4  10  20  33  53  82 114 144 175 219 271 322
#     4   9  18  36  58  82 108 140 184 230 271 317
#     4  10  22  38  57  82 106 136 184 227 272 332
#     4  11  24  41  56  77 113 147 179 226 279 328
#     4   9  18  35  59  82 110 143 182 229 271 318
#     4   9  18  33  54  78 109 146 182 221 265 315
#     4   9  21  38  56  80 109 145 185 222 271 331
#     4   9  18  33  53  80 110 144 184 221 262 320
#
# _framework density 23.131228
#
# number of rings (size 3 to 8) (size 9 to 14) (size 15 to 20)
#    0.000    2.500    0.000    1.875    0.000    6.500 
#    0.000    5.000    0.000    0.000    0.000    0.000 
#    0.000    0.000    0.000    0.000    0.000    0.000 
#
# Total GULP energy -89195.982353 kJ/mol
# GULP energy per Si atom -5574.748897 kJ/mol
# Density = 2.307858 g / cm^3
# Si number density = 23.131228 Si / 1000 Ang^3
#
#
#
# Elastic Constant Matrix: (Units=GPa)
#
#
# Indices 1 2 3 4 5 6 
#
# 1 95.7081 31.1269 6.3893 -8.3574 10.9828 16.0324
# 2 31.1269 144.6140 14.3485 -4.0876 6.4796 24.8748
# 3 6.3893 14.3485 101.2738 -4.4959 18.7114 2.3642
# 4 -8.3574 -4.0876 -4.4959 23.0422 6.1172 6.9195
# 5 10.9828 6.4796 18.7114 6.1172 15.5750 -0.3454
# 6 16.0324 24.8748 2.3642 6.9195 -0.3454 29.9168
#
#
#
# Elastic Compliance Matrix: (Units=1/GPa)
#
#
# Indices 1 2 3 4 5 6 
#
# 1 0.016809 -0.000141 0.004581 0.017550 -0.024492 -0.013595
# 2 -0.000141 0.008892 0.000470 0.006060 -0.006741 -0.008834
# 3 0.004581 0.000470 0.015502 0.014509 -0.027920 -0.007749
# 4 0.017550 0.006060 0.014509 0.081532 -0.065130 -0.035200
# 5 -0.024492 -0.006741 -0.027920 -0.065130 0.144239 0.037666
# 6 -0.013595 -0.008834 -0.007749 -0.035200 0.037666 0.057246
#
#
# Mechanical properties :
#
#
# Convention : Reuss Voigt Hill
#
# Bulk Modulus (GPa) = 19.59887 49.48061 34.53974
# Shear Modulus (GPa) = 15.08727 33.02222 24.05474
#
# Velocity S-wave (km/s) = 2.55668 3.78246 3.22829
# Velocity P-wave (km/s) = 4.14811 6.36504 5.37218
#
# Compressibility (1/GPa) = 0.05102335
#
# Stress axis : x y z
#
# Youngs Moduli (GPa) = 59.49277 112.46691 64.50710
#
# Poissons Ratio (x) = 0.01581 -0.29552
# Poissons Ratio (y) = 0.00836 -0.03031
# Poissons Ratio (z) = -0.27255 -0.05284
#
# Static dielectric constant tensor:
#      x y z
#    x 1.924250 0.029470 -0.016140 
#    y 0.029470 1.870080 -0.029570 
#    z -0.016140 -0.029570 1.923630 
# 
# From -- ./inp_files/349455.got.cif
#   From: 2010.05.17/outbox.cif.g08.bks.cpg/sg2_175_cif.got.tgz:349455.got - 2010.06.03 11:33:40.
