data_PCOD9093201
_publ_section_title
;
Structure prediction by ZEFSAII (Michael W. Deem and Ramdas Pophale) SiO2 
 PCOD9093201
Probable space group: P -1
;
_chemical_formula_sum "Si O2"
_cell_formula_units_Z 16
_cell_length_a 14.027977
_cell_length_b 11.611702
_cell_length_c 9.865940
_cell_angle_alpha 87.154790
_cell_angle_beta 109.213431
_cell_angle_gamma 31.055617
_cell_volume 573.541711
_symmetry_space_group_name_H-M "P -1"
_symmetry_group_IT_number 2
_symmetry_cell_setting 'triclinic'
loop_
_space_group_symop_operation_xyz
x,y,z
-x,-y,-z
loop_
_atom_site_type_symbol
_atom_site_label
_atom_site_fract_x
_atom_site_fract_y
_atom_site_fract_z
Si Si1 0.688460 0.304985 0.233294
Si Si2 0.117772 0.952284 0.271341
Si Si3 0.846374 0.466205 0.149149
Si Si4 0.652682 0.519748 0.629945
Si Si5 0.540987 0.225816 0.851635
Si Si6 0.098815 0.154222 0.685317
Si Si7 0.559527 0.056225 0.298100
Si Si8 0.761827 0.808386 0.782859
O O1 0.535511 0.562244 0.233319
O O2 0.753257 0.106127 0.310989
O O3 0.500000 0.500000 0.000000
O O4 0.969699 0.059610 0.329874
O O5 0.387807 0.732650 0.447846
O O6 0.164670 0.783550 0.221283
O O7 0.924678 0.262167 0.123927
O O8 0.723120 0.558431 0.228267
O O9 0.094119 0.292804 0.277334
O O10 0.618197 0.763637 0.933751
O O11 0.574410 0.701279 0.688018
O O12 0.811926 0.416182 0.588738
O O13 0.677414 0.009917 0.813048
O O14 0.739565 0.011865 0.086395
O O15 0.159660 0.201476 0.620703
O O16 0.486411 0.015616 0.343155
O O17 0.000000 0.500000 0.000000
#
# Coordination Sequence:
#
# PCOD9093201 Si02
#       8
#     2   2   2   2   2   2   2   2
#     4   8  15  30  53  79 102 128 170 214 256 308
#     4   9  19  36  56  79 107 140 173 207 269 324
#     4   9  19  35  55  79 103 136 180 220 258 308
#     4  10  20  36  54  77 113 140 164 218 265 312
#     4   9  17  31  52  77 107 136 169 222 266 302
#     4   9  17  31  52  77 104 140 173 207 266 318
#     4  10  21  33  52  80 105 136 181 219 255 309
#     4  10  20  32  50  80 108 135 177 222 262 303
#
# _framework density 27.896837999999999
#
# number of rings (size 3 to 8) (size 9 to 14) (size 15 to 20)
#    0.000    2.750    0.000    2.250    0.000    7.000 
#    0.000    8.750    0.000    3.750    0.000    0.000 
#    0.000    0.000    0.000    0.000    0.000    0.000 
#
# Total GULP energy -89538.949383 kJ/mol
# GULP energy per Si atom -5596.184336 kJ/mol
# Density = 2.783334 g / cm^3
# Si number density = 27.896838 Si / 1000 Ang^3
#
#
#
# Elastic Constant Matrix: (Units=GPa)
#
#
# Indices 1 2 3 4 5 6 
#
# 1 183.7422 46.3144 14.6661 1.0407 22.7959 -35.1918
# 2 46.3144 100.6688 14.5402 1.0487 15.6735 -15.1772
# 3 14.6661 14.5402 78.5017 -5.6850 14.4072 -10.5860
# 4 1.0407 1.0487 -5.6850 31.1903 3.7897 0.5703
# 5 22.7959 15.6735 14.4072 3.7897 46.9781 -6.9653
# 6 -35.1918 -15.1772 -10.5860 0.5703 -6.9653 40.0977
#
#
#
# Elastic Compliance Matrix: (Units=1/GPa)
#
#
# Indices 1 2 3 4 5 6 
#
# 1 0.007246 -0.002254 0.000138 0.000012 -0.002038 0.005189
# 2 -0.002254 0.011748 -0.001133 -0.000293 -0.002189 0.001793
# 3 0.000138 -0.001133 0.014226 0.003050 -0.003893 0.002729
# 4 0.000012 -0.000293 0.003050 0.033067 -0.003568 -0.000385
# 5 -0.002038 -0.002189 -0.003893 -0.003568 0.024588 0.000677
# 6 0.005189 0.001793 0.002729 -0.000385 0.000677 0.031015
#
#
# Mechanical properties :
#
#
# Convention : Reuss Voigt Hill
#
# Bulk Modulus (GPa) = 37.42001 57.10603 47.26302
# Shear Modulus (GPa) = 36.41779 42.81268 39.61524
#
# Velocity S-wave (km/s) = 3.61701 3.92175 3.77246
# Velocity P-wave (km/s) = 5.55757 6.40482 5.99617
#
# Compressibility (1/GPa) = 0.02672367
#
# Stress axis : x y z
#
# Youngs Moduli (GPa) = 138.00442 85.11734 70.29445
#
# Poissons Ratio (x) = 0.19187 -0.00973
# Poissons Ratio (y) = 0.31109 0.07961
# Poissons Ratio (z) = -0.01910 0.09640
#
# Static dielectric constant tensor:
#      x y z
#    x 2.177440 -0.022520 -0.019040 
#    y -0.022520 2.122800 -0.024290 
#    z -0.019040 -0.024290 2.257820 
# 
# From -- ./inp_files/307528.got.cif
#   From: 2010.05.17/outbox.cif.g08.bks.cpg/sg2_154_cif.got.tgz:307528.got - 2010.06.03 11:33:40.
