data_PCOD9093315
_publ_section_title
;
Structure prediction by ZEFSAII (Michael W. Deem and Ramdas Pophale) SiO2 
 PCOD9093315
Probable space group: P -1
;
_chemical_formula_sum "Si O2"
_cell_formula_units_Z 16
_cell_length_a 14.858528
_cell_length_b 9.473330
_cell_length_c 5.174183
_cell_angle_alpha 84.963843
_cell_angle_beta 82.697039
_cell_angle_gamma 115.579660
_cell_volume 643.264004
_symmetry_space_group_name_H-M "P -1"
_symmetry_group_IT_number 2
_symmetry_cell_setting 'triclinic'
loop_
_space_group_symop_operation_xyz
x,y,z
-x,-y,-z
loop_
_atom_site_type_symbol
_atom_site_label
_atom_site_fract_x
_atom_site_fract_y
_atom_site_fract_z
Si Si1 0.916231 0.897628 0.755863
Si Si2 0.240739 0.033252 0.415031
Si Si3 0.629574 0.567051 0.151954
Si Si4 0.307972 0.552403 0.377597
Si Si5 0.558991 0.738231 0.808147
Si Si6 0.069009 0.825045 0.910703
Si Si7 0.220837 0.750588 0.106849
Si Si8 0.584992 0.161009 0.330654
O O1 0.808001 0.851288 0.678748
O O2 0.954314 0.771178 0.859569
O O3 0.000000 0.000000 0.500000
O O4 0.919351 0.026747 0.940625
O O5 0.354337 0.148377 0.435756
O O6 0.155647 0.911025 0.652895
O O7 0.252424 0.914415 0.224263
O O8 0.663389 0.507871 0.887063
O O9 0.616406 0.718852 0.040404
O O10 0.700615 0.569399 0.364123
O O11 0.512845 0.433720 0.254888
O O12 0.225541 0.611945 0.301427
O O13 0.387658 0.711628 0.468520
O O14 0.479679 0.806493 0.874642
O O15 0.107448 0.710878 0.055517
O O16 0.306428 0.800108 0.842156
O O17 0.500000 0.000000 0.500000
#
# Coordination Sequence:
#
# PCOD9093315 Si02
#       8
#     2   2   2   2   2   2   2   2
#     4   8  16  32  52  78 115 145 178 224 279 362
#     4  10  20  32  55  85 119 146 187 231 293 343
#     4  10  24  40  58  75 109 160 207 243 274 317
#     4  11  21  41  55  77 109 149 202 241 278 328
#     4  10  21  39  53  81 110 158 198 242 275 329
#     4   9  17  32  52  82 116 146 179 221 293 354
#     4  11  20  33  53  84 114 151 184 234 288 347
#     4  11  23  35  54  82 118 151 188 236 292 340
#
# _framework density 24.873148
#
# number of rings (size 3 to 8) (size 9 to 14) (size 15 to 20)
#    0.000    2.000    2.500    2.250    1.750    5.500 
#    6.750    0.000    0.000    0.000    0.000    1.750 
#    0.000    0.125    0.000    0.000    0.000    0.000 
#
# Total GULP energy -89125.417343 kJ/mol
# GULP energy per Si atom -5570.338584 kJ/mol
# Density = 2.481654 g / cm^3
# Si number density = 24.873148 Si / 1000 Ang^3
#
#
#
# Elastic Constant Matrix: (Units=GPa)
#
#
# Indices 1 2 3 4 5 6 
#
# 1 186.4708 20.7006 32.4068 -2.1486 26.7548 -63.6229
# 2 20.7006 39.7519 27.2387 12.3516 6.6724 -16.7124
# 3 32.4068 27.2387 111.3845 30.3133 12.8157 -16.7483
# 4 -2.1486 12.3516 30.3133 28.6224 -13.9891 8.0637
# 5 26.7548 6.6724 12.8157 -13.9891 41.2705 -20.6606
# 6 -63.6229 -16.7124 -16.7483 8.0637 -20.6606 45.5301
#
#
#
# Elastic Compliance Matrix: (Units=1/GPa)
#
#
# Indices 1 2 3 4 5 6 
#
# 1 0.010920 0.003652 0.000674 -0.007150 -0.001597 0.017390
# 2 0.003652 0.042672 0.000833 -0.029381 -0.008191 0.022560
# 3 0.000674 0.000833 0.018884 -0.028452 -0.012234 0.007682
# 4 -0.007150 -0.029381 -0.028452 0.104678 0.037241 -0.032883
# 5 -0.001597 -0.008191 -0.012234 0.037241 0.045075 0.004120
# 6 0.017390 0.022560 0.007682 -0.032883 0.004120 0.065064
#
#
# Mechanical properties :
#
#
# Convention : Reuss Voigt Hill
#
# Bulk Modulus (GPa) = 12.07800 55.36659 33.72230
# Shear Modulus (GPa) = 16.41638 40.23533 28.32585
#
# Velocity S-wave (km/s) = 2.57184 4.02633 3.37829
# Velocity P-wave (km/s) = 3.69940 6.62744 5.36696
#
# Compressibility (1/GPa) = 0.08279517
#
# Stress axis : x y z
#
# Youngs Moduli (GPa) = 91.57226 23.43436 52.95476
#
# Poissons Ratio (x) = -0.08559 -0.03570
# Poissons Ratio (y) = -0.33444 -0.04410
# Poissons Ratio (z) = -0.06174 -0.01952
#
# Static dielectric constant tensor:
#      x y z
#    x 2.050150 -0.071430 0.148410 
#    y -0.071430 2.000350 -0.038780 
#    z 0.148410 -0.038780 2.046820 
# 
# From -- ./inp_files/92281.got.cif
#   From: 2010.05.17/outbox.cif.g08.bks.cpg/sg2_47_cif.got.tgz:92281.got - 2010.06.03 11:33:40.
