data_PCOD9093629
_publ_section_title
;
Structure prediction by ZEFSAII (Michael W. Deem and Ramdas Pophale) SiO2 
 PCOD9093629
Probable space group: P -1
;
_chemical_formula_sum "Si O2"
_cell_formula_units_Z 16
_cell_length_a 18.647610
_cell_length_b 8.888309
_cell_length_c 8.497545
_cell_angle_alpha 105.409562
_cell_angle_beta 149.857419
_cell_angle_gamma 75.051142
_cell_volume 680.668779
_symmetry_space_group_name_H-M "P -1"
_symmetry_group_IT_number 2
_symmetry_cell_setting 'triclinic'
loop_
_space_group_symop_operation_xyz
x,y,z
-x,-y,-z
loop_
_atom_site_type_symbol
_atom_site_label
_atom_site_fract_x
_atom_site_fract_y
_atom_site_fract_z
Si Si1 0.986608 0.236085 0.561528
Si Si2 0.745867 0.010947 0.470271
Si Si3 0.653718 0.697127 0.133484
Si Si4 0.945764 0.142464 0.103034
Si Si5 0.693809 0.155460 0.098939
Si Si6 0.697695 0.819243 0.894399
Si Si7 0.501139 0.429129 0.660156
Si Si8 0.957771 0.553541 0.762537
O O1 0.949766 0.197699 0.303309
O O2 0.864072 0.164535 0.409168
O O3 0.989145 0.417950 0.657671
O O4 0.144955 0.165079 0.870595
O O5 0.675386 0.132974 0.245088
O O6 0.646937 0.864719 0.250654
O O7 0.799236 0.067561 0.755247
O O8 0.902694 0.949822 0.678370
O O9 0.790743 0.604750 0.443752
O O10 0.697248 0.740434 0.047022
O O11 0.521740 0.585346 0.845342
O O12 0.951363 0.298929 0.056095
O O13 0.629920 0.308863 0.930464
O O14 0.641501 0.997889 0.872802
O O15 0.623683 0.692617 0.610688
O O16 0.500000 0.500000 0.500000
O O17 0.000000 0.500000 0.000000
#
# Coordination Sequence:
#
# PCOD9093629 Si02
#       8
#     2   2   2   2   2   2   2   2
#     4  12  21  35  61  93 124 149 199 255 300 352
#     4   9  19  36  56  85 123 158 194 246 299 361
#     4   9  18  38  55  81 118 159 198 236 297 355
#     4  10  20  33  54  88 127 155 191 245 313 342
#     4  11  20  36  60  89 122 159 199 250 297 360
#     4  10  21  36  56  90 121 155 202 249 297 348
#     4  10  21  36  58  87 119 163 205 242 297 360
#     4  11  21  34  56  91 123 158 193 245 304 359
#
# _framework density 23.506295000000001
#
# number of rings (size 3 to 8) (size 9 to 14) (size 15 to 20)
#    0.000    1.750    5.000    1.875    0.000    0.000 
#    0.000    0.000    0.000    0.750    6.500    6.125 
#    0.000    0.000    0.000    0.000    0.000    0.000 
#
# Total GULP energy -89280.017807 kJ/mol
# GULP energy per Si atom -5580.001113 kJ/mol
# Density = 2.345279 g / cm^3
# Si number density = 23.506295 Si / 1000 Ang^3
#
#
#
# Elastic Constant Matrix: (Units=GPa)
#
#
# Indices 1 2 3 4 5 6 
#
# 1 27.8014 21.2559 24.5378 -5.4186 -4.6876 -4.6426
# 2 21.2559 119.2067 57.7312 2.0378 -11.8638 18.4519
# 3 24.5378 57.7312 115.2988 42.4535 -5.3563 3.2622
# 4 -5.4186 2.0378 42.4535 41.9607 5.1604 -2.7785
# 5 -4.6876 -11.8638 -5.3563 5.1604 18.2869 4.0819
# 6 -4.6426 18.4519 3.2622 -2.7785 4.0819 16.9050
#
#
#
# Elastic Compliance Matrix: (Units=1/GPa)
#
#
# Indices 1 2 3 4 5 6 
#
# 1 0.101303 -0.011210 -0.042789 0.064520 -0.026632 0.065348
# 2 -0.011210 0.018115 -0.005293 -0.000223 0.012972 -0.024999
# 3 -0.042789 -0.005293 0.040390 -0.050004 0.017384 -0.026184
# 4 0.064520 -0.000223 -0.050004 0.090465 -0.035158 0.050970
# 5 -0.026632 0.012972 0.017384 -0.035158 0.082568 -0.050543
# 6 0.065348 -0.024999 -0.026184 0.050970 -0.050543 0.130021
#
#
# Mechanical properties :
#
#
# Convention : Reuss Voigt Hill
#
# Bulk Modulus (GPa) = 24.25702 52.15075 38.20389
# Shear Modulus (GPa) = 8.40071 26.01599 17.20835
#
# Velocity S-wave (km/s) = 1.89250 3.33042 2.70862
# Velocity P-wave (km/s) = 3.88808 6.08465 5.10589
#
# Compressibility (1/GPa) = 0.04122519
#
# Stress axis : x y z
#
# Youngs Moduli (GPa) = 9.87133 55.20200 24.75868
#
# Poissons Ratio (x) = 0.61880 1.05940
# Poissons Ratio (y) = 0.11065 0.13104
# Poissons Ratio (z) = 0.42239 0.29218
#
# Static dielectric constant tensor:
#      x y z
#    x 2.136470 -0.046960 0.051270 
#    y -0.046960 1.918740 0.011040 
#    z 0.051270 0.011040 1.918410 
# 
# From -- ./inp_files/342842.got.cif
#   From: 2010.05.17/outbox.cif.g08.bks.cpg/sg2_172_cif.got.tgz:342842.got - 2010.06.03 11:33:40.
