data_PCOD9093628
_publ_section_title
;
Structure prediction by ZEFSAII (Michael W. Deem and Ramdas Pophale) SiO2 
 PCOD9093628
Probable space group: P -1
;
_chemical_formula_sum "Si O2"
_cell_formula_units_Z 16
_cell_length_a 8.107493
_cell_length_b 14.841681
_cell_length_c 7.538645
_cell_angle_alpha 59.488983
_cell_angle_beta 95.781934
_cell_angle_gamma 69.704994
_cell_volume 688.631258
_symmetry_space_group_name_H-M "P -1"
_symmetry_group_IT_number 2
_symmetry_cell_setting 'triclinic'
loop_
_space_group_symop_operation_xyz
x,y,z
-x,-y,-z
loop_
_atom_site_type_symbol
_atom_site_label
_atom_site_fract_x
_atom_site_fract_y
_atom_site_fract_z
Si Si1 0.759187 0.163121 0.205228
Si Si2 0.733159 0.042490 0.968598
Si Si3 0.215342 0.229995 0.192677
Si Si4 0.181930 0.018579 0.329321
Si Si5 0.851272 0.456829 0.955571
Si Si6 0.304132 0.168303 0.676314
Si Si7 0.212738 0.422751 0.538028
Si Si8 0.587803 0.611536 0.056187
O O1 0.982290 0.105054 0.308785
O O2 0.707378 0.089212 0.418462
O O3 0.729041 0.127917 0.039096
O O4 0.631985 0.302452 0.076254
O O5 0.524183 0.097901 0.809645
O O6 0.850650 0.026893 0.817690
O O7 0.782542 0.915424 0.184445
O O8 0.270253 0.107147 0.221847
O O9 0.261559 0.197695 0.435824
O O10 0.994415 0.322004 0.061380
O O11 0.306302 0.498295 0.954294
O O12 0.324544 0.299027 0.065528
O O13 0.760981 0.527758 0.695886
O O14 0.000000 0.500000 0.000000
O O15 0.235896 0.291946 0.644973
O O16 0.351710 0.426378 0.697990
O O17 0.000000 0.500000 0.500000
#
# Coordination Sequence:
#
# PCOD9093628 Si02
#       8
#     2   2   2   2   2   2   2   2
#     4  11  24  42  59  85 114 158 198 231 290 349
#     4  11  23  38  58  87 120 147 195 242 288 343
#     4  11  20  38  59  89 119 148 190 240 291 341
#     4  11  25  40  60  82 119 159 190 236 292 346
#     4  10  20  33  54  88 117 148 186 234 291 339
#     4  11  21  34  59  93 116 146 192 243 290 338
#     4  12  19  33  56  89 121 148 183 238 294 338
#     4  11  21  36  62  86 117 148 193 243 284 337
#
# _framework density 23.234494000000002
#
# number of rings (size 3 to 8) (size 9 to 14) (size 15 to 20)
#    0.000    1.000    7.500    1.875    1.750    1.000 
#    0.000    0.625    0.000    0.750    0.000    0.000 
#    0.000    0.000    0.000    0.000    0.000    0.000 
#
# Total GULP energy -89487.123328 kJ/mol
# GULP energy per Si atom -5592.945208 kJ/mol
# Density = 2.318161 g / cm^3
# Si number density = 23.234494 Si / 1000 Ang^3
#
#
#
# Elastic Constant Matrix: (Units=GPa)
#
#
# Indices 1 2 3 4 5 6 
#
# 1 46.7641 -0.5463 8.1857 0.7426 16.5196 -6.6082
# 2 -0.5463 119.7817 33.4024 -2.4955 1.9765 -16.7204
# 3 8.1857 33.4024 118.6369 9.8493 15.9558 -8.3917
# 4 0.7426 -2.4955 9.8493 37.4950 -8.2151 -2.7479
# 5 16.5196 1.9765 15.9558 -8.2151 26.0429 -9.4504
# 6 -6.6082 -16.7204 -8.3917 -2.7479 -9.4504 24.0407
#
#
#
# Elastic Compliance Matrix: (Units=1/GPa)
#
#
# Indices 1 2 3 4 5 6 
#
# 1 0.028517 -0.000076 0.001268 -0.005504 -0.020806 -0.000580
# 2 -0.000076 0.010474 -0.003360 0.003429 0.005536 0.008659
# 3 0.001268 -0.003360 0.010887 -0.005485 -0.009938 -0.002722
# 4 -0.005504 0.003429 -0.005485 0.033958 0.021384 0.011245
# 5 -0.020806 0.005536 -0.009938 0.021384 0.073435 0.025974
# 6 -0.000580 0.008659 -0.002722 0.011245 0.025974 0.058005
#
#
# Mechanical properties :
#
#
# Convention : Reuss Voigt Hill
#
# Bulk Modulus (GPa) = 21.95813 40.80736 31.38275
# Shear Modulus (GPa) = 21.29542 33.79178 27.54360
#
# Velocity S-wave (km/s) = 3.03073 3.81777 3.44679
# Velocity P-wave (km/s) = 4.66029 6.08566 5.42003
#
# Compressibility (1/GPa) = 0.04554121
#
# Stress axis : x y z
#
# Youngs Moduli (GPa) = 35.06741 95.47387 91.85135
#
# Poissons Ratio (x) = 0.00724 -0.11647
# Poissons Ratio (y) = 0.00266 0.30866
# Poissons Ratio (z) = -0.04447 0.32084
#
# Static dielectric constant tensor:
#      x y z
#    x 1.981530 -0.004340 -0.025650 
#    y -0.004340 1.876440 -0.000760 
#    z -0.025650 -0.000760 1.837040 
# 
# From -- ./inp_files/199682.got.cif
#   From: 2010.05.17/outbox.cif.g08.bks.cpg/sg2_100_cif.got.tgz:199682.got - 2010.06.03 11:33:40.
