data_PCOD9093351
_publ_section_title
;
Structure prediction by ZEFSAII (Michael W. Deem and Ramdas Pophale) SiO2 
 PCOD9093351
Probable space group: P -1
;
_chemical_formula_sum "Si O2"
_cell_formula_units_Z 16
_cell_length_a 10.795678
_cell_length_b 6.437341
_cell_length_c 15.030659
_cell_angle_alpha 121.036015
_cell_angle_beta 80.309118
_cell_angle_gamma 112.798399
_cell_volume 824.447493
_symmetry_space_group_name_H-M "P -1"
_symmetry_group_IT_number 2
_symmetry_cell_setting 'triclinic'
loop_
_space_group_symop_operation_xyz
x,y,z
-x,-y,-z
loop_
_atom_site_type_symbol
_atom_site_label
_atom_site_fract_x
_atom_site_fract_y
_atom_site_fract_z
Si Si1 0.259150 0.799359 0.738054
Si Si2 0.107135 0.286968 0.138700
Si Si3 0.901435 0.574912 0.183372
Si Si4 0.944613 0.151689 0.356718
Si Si5 0.165016 0.207703 0.925139
Si Si6 0.633422 0.433671 0.475433
Si Si7 0.845135 0.976306 0.509371
Si Si8 0.785962 0.454347 0.636314
O O1 0.222676 0.587520 0.773880
O O2 0.120098 0.728100 0.684380
O O3 0.363682 0.779730 0.646486
O O4 0.264319 0.072375 0.840861
O O5 0.193133 0.375031 0.238210
O O6 0.020053 0.464553 0.160034
O O7 0.194300 0.279667 0.040153
O O8 0.987274 0.008398 0.104079
O O9 0.846223 0.569010 0.088765
O O10 0.955154 0.877994 0.269288
O O11 0.088041 0.370381 0.401260
O O12 0.837521 0.067508 0.429738
O O13 0.500000 0.500000 0.500000
O O14 0.750007 0.693630 0.483340
O O15 0.335785 0.610336 0.434143
O O16 0.807850 0.196421 0.612709
O O17 0.000000 0.000000 0.500000
#
# Coordination Sequence:
#
# PCOD9093351 Si02
#       8
#     2   2   2   2   2   2   2   2
#     4  10  19  36  54  78 112 150 193 234 288 344
#     4  10  19  31  49  84 121 149 186 232 295 342
#     4  10  16  29  52  82 115 149 178 230 289 346
#     4  11  18  31  54  86 114 144 189 233 282 344
#     4   9  19  31  52  82 119 151 182 239 290 344
#     4  12  27  41  56  85 120 158 200 241 290 347
#     4  12  22  34  62  86 114 155 188 237 297 349
#     4  12  22  35  55  84 125 153 191 241 289 347
#
# _framework density 19.406935000000001
#
# number of rings (size 3 to 8) (size 9 to 14) (size 15 to 20)
#    0.000    1.250    7.500    2.250    0.000    0.500 
#    0.000    0.000    0.000    0.750    0.000    1.750 
#    0.000    0.000    0.000    0.000    0.000    0.000 
#
# Total GULP energy -89067.688306 kJ/mol
# GULP energy per Si atom -5566.730519 kJ/mol
# Density = 1.936276 g / cm^3
# Si number density = 19.406935 Si / 1000 Ang^3
#
#
#
# Elastic Constant Matrix: (Units=GPa)
#
#
# Indices 1 2 3 4 5 6 
#
# 1 80.5332 6.1044 37.9893 -13.1588 -7.8501 -12.2622
# 2 6.1044 51.8644 11.7887 -13.9055 9.2638 -22.8493
# 3 37.9893 11.7887 122.5271 -30.2757 1.0210 -10.2681
# 4 -13.1588 -13.9055 -30.2757 27.5085 -6.8506 5.6127
# 5 -7.8501 9.2638 1.0210 -6.8506 19.4198 -6.1458
# 6 -12.2622 -22.8493 -10.2681 5.6127 -6.1458 19.7130
#
#
#
# Elastic Compliance Matrix: (Units=1/GPa)
#
#
# Indices 1 2 3 4 5 6 
#
# 1 0.019280 0.007647 -0.002762 0.009273 0.014281 0.021230
# 2 0.007647 0.047369 0.002882 0.020536 0.005652 0.057078
# 3 -0.002762 0.002882 0.012540 0.013691 0.003357 0.005303
# 4 0.009273 0.020536 0.013691 0.067292 0.024988 0.025335
# 5 0.014281 0.005652 0.003357 0.024988 0.073664 0.033034
# 6 0.021230 0.057078 0.005303 0.025335 0.033034 0.135941
#
#
# Mechanical properties :
#
#
# Convention : Reuss Voigt Hill
#
# Bulk Modulus (GPa) = 10.55700 40.74327 25.65013
# Shear Modulus (GPa) = 13.43632 26.59775 20.01704
#
# Velocity S-wave (km/s) = 2.63410 3.70608 3.21508
# Velocity P-wave (km/s) = 3.83444 6.27321 5.19885
#
# Compressibility (1/GPa) = 0.09472389
#
# Stress axis : x y z
#
# Youngs Moduli (GPa) = 51.86610 21.11093 79.74502
#
# Poissons Ratio (x) = -0.16144 0.22026
# Poissons Ratio (y) = -0.39663 -0.22984
# Poissons Ratio (z) = 0.14326 -0.06084
#
# Static dielectric constant tensor:
#      x y z
#    x 1.688900 -0.049880 -0.011770 
#    y -0.049880 1.707920 -0.036960 
#    z -0.011770 -0.036960 1.866100 
# 
# From -- ./inp_files/564540.got.cif
#   From: 2010.05.17/outbox.cif.g08.bks.cpg/sg2_283_cif.got.tgz:564540.got - 2010.06.03 11:33:40.
