data_PCOD9093268
_publ_section_title
;
Structure prediction by ZEFSAII (Michael W. Deem and Ramdas Pophale) SiO2 
 PCOD9093268
Probable space group: P -1
;
_chemical_formula_sum "Si O2"
_cell_formula_units_Z 16
_cell_length_a 10.465760
_cell_length_b 13.829886
_cell_length_c 18.056149
_cell_angle_alpha 34.998556
_cell_angle_beta 114.691233
_cell_angle_gamma 142.782540
_cell_volume 667.859957
_symmetry_space_group_name_H-M "P -1"
_symmetry_group_IT_number 2
_symmetry_cell_setting 'triclinic'
loop_
_space_group_symop_operation_xyz
x,y,z
-x,-y,-z
loop_
_atom_site_type_symbol
_atom_site_label
_atom_site_fract_x
_atom_site_fract_y
_atom_site_fract_z
Si Si1 0.540744 0.087158 0.868493
Si Si2 0.328855 0.018340 0.631124
Si Si3 0.191946 0.954780 0.120436
Si Si4 0.848523 0.665954 0.647862
Si Si5 0.703629 0.724542 0.254351
Si Si6 0.731386 0.600174 0.124172
Si Si7 0.905602 0.146657 0.162078
Si Si8 0.488293 0.171645 0.193878
O O1 0.765273 0.479401 0.668617
O O2 0.655431 0.045339 0.879921
O O3 0.240811 0.841674 0.918124
O O4 0.500000 0.000000 0.000000
O O5 0.185332 0.934226 0.725015
O O6 0.472537 0.987209 0.690555
O O7 0.059195 0.747354 0.681456
O O8 0.561593 0.395812 0.423913
O O9 0.358037 0.307988 0.927055
O O10 0.217626 0.944373 0.221467
O O11 0.881394 0.652440 0.194271
O O12 0.524141 0.379972 0.767863
O O13 0.000000 0.000000 0.500000
O O14 0.761960 0.836347 0.283001
O O15 0.995599 0.062288 0.071289
O O16 0.522469 0.290373 0.209493
O O17 0.236064 0.487867 0.003799
#
# Coordination Sequence:
#
# PCOD9093268 Si02
#       8
#     2   2   2   2   2   2   2   2
#     4  11  20  34  57  84 113 142 183 238 289 334
#     4  11  19  32  55  88 115 144 183 236 295 338
#     4  11  22  38  63  84 113 151 199 238 282 339
#     4   9  19  32  53  80 113 146 174 223 289 335
#     4   9  20  37  54  78 117 153 183 231 283 341
#     4  10  23  41  59  81 112 159 198 236 278 334
#     4  10  20  32  53  86 114 144 183 230 292 344
#     4  11  22  36  60  88 117 145 193 244 284 336
#
# _framework density 23.957115999999999
#
# number of rings (size 3 to 8) (size 9 to 14) (size 15 to 20)
#    0.000    1.750    1.250    4.875    3.500    0.000 
#    0.000    0.625    0.000   13.500    0.000    0.000 
#    0.000    0.000    0.000    0.000    0.000    0.000 
#
# Total GULP energy -89217.668655 kJ/mol
# GULP energy per Si atom -5576.104291 kJ/mol
# Density = 2.390259 g / cm^3
# Si number density = 23.957116 Si / 1000 Ang^3
#
#
#
# Elastic Constant Matrix: (Units=GPa)
#
#
# Indices 1 2 3 4 5 6 
#
# 1 90.3861 32.1229 13.6898 -11.4358 29.6240 -9.6409
# 2 32.1229 127.8732 18.6145 -1.5570 21.2931 2.0970
# 3 13.6898 18.6145 67.2702 -14.2423 16.7188 0.0234
# 4 -11.4358 -1.5570 -14.2423 26.6360 -2.8130 14.3053
# 5 29.6240 21.2931 16.7188 -2.8130 27.6590 1.6247
# 6 -9.6409 2.0970 0.0234 14.3053 1.6247 44.8337
#
#
#
# Elastic Compliance Matrix: (Units=1/GPa)
#
#
# Indices 1 2 3 4 5 6 
#
# 1 0.018967 -0.001790 0.002906 0.005819 -0.020280 0.003039
# 2 -0.001790 0.009198 -0.001344 -0.001292 -0.004469 -0.000240
# 3 0.002906 -0.001344 0.020477 0.012215 -0.013052 -0.002747
# 4 0.005819 -0.001292 0.012215 0.054337 -0.006166 -0.015809
# 5 -0.020280 -0.004469 -0.013052 -0.006166 0.068852 -0.004673
# 6 0.003039 -0.000240 -0.002747 -0.015809 -0.004673 0.028184
#
#
# Mechanical properties :
#
#
# Convention : Reuss Voigt Hill
#
# Bulk Modulus (GPa) = 20.75237 46.04266 33.39752
# Shear Modulus (GPa) = 23.09140 34.56589 28.82865
#
# Velocity S-wave (km/s) = 3.10798 3.80257 3.47269
# Velocity P-wave (km/s) = 4.64333 6.20805 5.48181
#
# Compressibility (1/GPa) = 0.04818726
#
# Stress axis : x y z
#
# Youngs Moduli (GPa) = 52.72448 108.72115 48.83564
#
# Poissons Ratio (x) = 0.19458 -0.14194
# Poissons Ratio (y) = 0.09436 0.06562
# Poissons Ratio (z) = -0.15324 0.14609
#
# Static dielectric constant tensor:
#      x y z
#    x 1.948310 -0.044880 0.043830 
#    y -0.044880 1.960010 -0.006360 
#    z 0.043830 -0.006360 1.978220 
# 
# From -- ./inp_files/221862.got.cif
#   From: 2010.05.17/outbox.cif.g08.bks.cpg/sg2_111_cif.got.tgz:221862.got - 2010.06.03 11:33:40.
