data_PCOD9093630
_publ_section_title
;
Structure prediction by ZEFSAII (Michael W. Deem and Ramdas Pophale) SiO2 
 PCOD9093630
Probable space group: P -1
;
_chemical_formula_sum "Si O2"
_cell_formula_units_Z 16
_cell_length_a 11.443068
_cell_length_b 13.834483
_cell_length_c 13.845358
_cell_angle_alpha 46.953325
_cell_angle_beta 30.318212
_cell_angle_gamma 44.776350
_cell_volume 764.144535
_symmetry_space_group_name_H-M "P -1"
_symmetry_group_IT_number 2
_symmetry_cell_setting 'triclinic'
loop_
_space_group_symop_operation_xyz
x,y,z
-x,-y,-z
loop_
_atom_site_type_symbol
_atom_site_label
_atom_site_fract_x
_atom_site_fract_y
_atom_site_fract_z
Si Si1 0.207999 0.404249 0.222587
Si Si2 0.308686 0.233254 0.894247
Si Si3 0.260067 0.952198 0.403826
Si Si4 0.441122 0.195083 0.045611
Si Si5 0.344277 0.510092 0.700471
Si Si6 0.424831 0.625676 0.862456
Si Si7 0.732385 0.378643 0.682271
Si Si8 0.825517 0.206360 0.254019
O O1 0.242932 0.329681 0.144931
O O2 0.451044 0.330984 0.163323
O O3 0.983739 0.383571 0.454735
O O4 0.214964 0.560730 0.090005
O O5 0.552738 0.181616 0.692096
O O6 0.198587 0.402050 0.857385
O O7 0.377794 0.180703 0.989469
O O8 0.105422 0.169281 0.047641
O O9 0.221571 0.914027 0.567138
O O10 0.395488 0.067341 0.220059
O O11 0.000000 0.000000 0.500000
O O12 0.693176 0.233187 0.841035
O O13 0.500000 0.500000 0.500000
O O14 0.532653 0.434468 0.702195
O O15 0.217821 0.665295 0.725143
O O16 0.639781 0.491837 0.756159
O O17 0.337805 0.735249 0.763234
#
# Coordination Sequence:
#
# PCOD9093630 Si02
#       8
#     2   2   2   2   2   2   2   2
#     4  10  20  38  65  83 124 153 193 259 290 350
#     4  11  23  38  59  86 121 157 196 245 300 364
#     4  12  25  40  59  85 123 164 202 243 290 356
#     4  10  23  36  56  90 111 152 211 231 288 352
#     4  10  20  33  54  89 120 147 191 234 312 352
#     4   9  21  39  58  96 113 153 204 238 308 353
#     4   9  20  34  59  87 118 155 191 246 294 354
#     4  11  23  38  60  86 124 158 191 250 297 360
#
# _framework density 20.938448999999999
#
# number of rings (size 3 to 8) (size 9 to 14) (size 15 to 20)
#    0.000    1.750    2.500    1.875    7.000    0.000 
#    0.000    0.625    0.000    1.500    0.000    0.000 
#    0.000    0.000    0.000    0.000    0.000    0.000 
#
# Total GULP energy -89263.826125 kJ/mol
# GULP energy per Si atom -5578.989133 kJ/mol
# Density = 2.089079 g / cm^3
# Si number density = 20.938449 Si / 1000 Ang^3
#
#
#
# Elastic Constant Matrix: (Units=GPa)
#
#
# Indices 1 2 3 4 5 6 
#
# 1 53.5912 -1.8975 12.6270 0.1351 17.3209 -10.4477
# 2 -1.8975 36.5510 24.9014 -5.3847 -3.7013 -5.9326
# 3 12.6270 24.9014 162.5756 -16.4706 3.9484 -14.1307
# 4 0.1351 -5.3847 -16.4706 38.4128 -2.0018 7.7570
# 5 17.3209 -3.7013 3.9484 -2.0018 29.8304 -7.1101
# 6 -10.4477 -5.9326 -14.1307 7.7570 -7.1101 18.7121
#
#
#
# Elastic Compliance Matrix: (Units=1/GPa)
#
#
# Indices 1 2 3 4 5 6 
#
# 1 0.024892 0.002299 -0.001410 -0.003078 -0.011712 0.010388
# 2 0.002299 0.032840 -0.004365 0.000965 0.005815 0.010209
# 3 -0.001410 -0.004365 0.007356 0.002033 0.000050 0.002561
# 4 -0.003078 0.000965 0.002033 0.029473 0.000806 -0.011789
# 5 -0.011712 0.005815 0.000050 0.000806 0.043876 0.011680
# 6 0.010388 0.010209 0.002561 -0.011789 0.011680 0.073737
#
#
# Mechanical properties :
#
#
# Convention : Reuss Voigt Hill
#
# Bulk Modulus (GPa) = 17.20060 35.99774 26.59917
# Shear Modulus (GPa) = 20.96400 31.86353 26.41376
#
# Velocity S-wave (km/s) = 3.16764 3.90522 3.55561
# Velocity P-wave (km/s) = 4.64879 6.12893 5.43944
#
# Compressibility (1/GPa) = 0.05813750
#
# Stress axis : x y z
#
# Youngs Moduli (GPa) = 40.17416 30.45058 135.93744
#
# Poissons Ratio (x) = -0.07002 0.19167
# Poissons Ratio (y) = -0.09238 0.59333
# Poissons Ratio (z) = 0.05664 0.13291
#
# Static dielectric constant tensor:
#      x y z
#    x 1.799520 0.023580 -0.014960 
#    y 0.023580 1.817040 -0.032910 
#    z -0.014960 -0.032910 1.799390 
# 
# From -- ./inp_files/98365.got.cif
#   From: 2010.05.17/outbox.cif.g08.bks.cpg/sg2_50_cif.got.tgz:98365.got - 2010.06.03 11:33:40.
