data_PCOD9093726
_publ_section_title
;
Structure prediction by ZEFSAII (Michael W. Deem and Ramdas Pophale) SiO2 
 PCOD9093726
Probable space group: P -1
;
_chemical_formula_sum "Si O2"
_cell_formula_units_Z 16
_cell_length_a 10.046608
_cell_length_b 15.049334
_cell_length_c 8.602877
_cell_angle_alpha 38.168564
_cell_angle_beta 88.857386
_cell_angle_gamma 64.436944
_cell_volume 594.400424
_symmetry_space_group_name_H-M "P -1"
_symmetry_group_IT_number 2
_symmetry_cell_setting 'triclinic'
loop_
_space_group_symop_operation_xyz
x,y,z
-x,-y,-z
loop_
_atom_site_type_symbol
_atom_site_label
_atom_site_fract_x
_atom_site_fract_y
_atom_site_fract_z
Si Si1 0.230576 0.506104 0.646804
Si Si2 0.761086 0.253933 0.469119
Si Si3 0.312317 0.031752 0.810667
Si Si4 0.874504 0.968578 0.623660
Si Si5 0.662088 0.497284 0.828763
Si Si6 0.350872 0.752048 0.010729
Si Si7 0.729878 0.704237 0.343818
Si Si8 0.852943 0.685701 0.854994
O O1 0.157651 0.704828 0.455031
O O2 0.167421 0.465174 0.552377
O O3 0.437924 0.399935 0.755863
O O4 0.228827 0.379817 0.947931
O O5 0.854643 0.040553 0.699687
O O6 0.553705 0.361937 0.355778
O O7 0.744074 0.374625 0.153542
O O8 0.210963 0.184920 0.743059
O O9 0.278081 0.143262 0.499889
O O10 0.259445 0.907910 0.936084
O O11 0.525944 0.876090 0.051080
O O12 0.686462 0.139719 0.301540
O O13 0.916201 0.774487 0.841879
O O14 0.000000 0.000000 0.500000
O O15 0.710108 0.621771 0.611133
O O16 0.717551 0.356603 0.874528
O O17 0.000000 0.500000 0.000000
#
# Coordination Sequence:
#
# PCOD9093726 Si02
#       8
#     2   2   2   2   2   2   2   2
#     4  10  20  35  56  88 115 148 193 235 291 345
#     4   9  18  32  54  82 116 149 190 234 274 342
#     4   9  20  35  53  82 114 150 189 232 285 340
#     4  10  20  34  55  85 113 143 191 242 286 332
#     4   9  17  32  54  83 115 152 185 227 289 339
#     4   8  18  33  54  83 116 146 183 235 281 339
#     4  10  20  33  56  88 123 151 183 238 294 347
#     4  11  23  40  62  81 112 158 198 243 289 341
#
# _framework density 26.91788
#
# number of rings (size 3 to 8) (size 9 to 14) (size 15 to 20)
#    0.000    2.500    0.000    2.250    0.000   13.000 
#    0.000    0.625    0.000    3.000    0.000   18.375 
#    0.000    0.000    0.000    0.000    0.000    0.000 
#
# Total GULP energy -89428.313357 kJ/mol
# GULP energy per Si atom -5589.269585 kJ/mol
# Density = 2.685661 g / cm^3
# Si number density = 26.917880 Si / 1000 Ang^3
#
#
#
# Elastic Constant Matrix: (Units=GPa)
#
#
# Indices 1 2 3 4 5 6 
#
# 1 89.0289 61.8004 32.7290 -13.0021 -12.2050 43.2412
# 2 61.8004 227.6521 26.9403 -47.5533 -24.5486 67.4898
# 3 32.7290 26.9403 95.1182 6.2795 -10.4837 -1.5954
# 4 -13.0021 -47.5533 6.2795 42.3348 16.7701 -15.6315
# 5 -12.2050 -24.5486 -10.4837 16.7701 31.8209 -12.3799
# 6 43.2412 67.4898 -1.5954 -15.6315 -12.3799 51.3786
#
#
#
# Elastic Compliance Matrix: (Units=1/GPa)
#
#
# Indices 1 2 3 4 5 6 
#
# 1 0.025359 0.001808 -0.010299 0.004034 -0.003610 -0.023681
# 2 0.001808 0.009521 -0.004364 0.008406 -0.002588 -0.012230
# 3 -0.010299 -0.004364 0.017032 -0.008636 0.008421 0.014331
# 4 0.004034 0.008406 -0.008636 0.040492 -0.018848 -0.006928
# 5 -0.003610 -0.002588 0.008421 -0.018848 0.045382 0.011900
# 6 -0.023681 -0.012230 0.014331 -0.006928 0.011900 0.056662
#
#
# Mechanical properties :
#
#
# Convention : Reuss Voigt Hill
#
# Bulk Modulus (GPa) = 38.16599 72.74874 55.45737
# Shear Modulus (GPa) = 21.84434 44.46216 33.15325
#
# Velocity S-wave (km/s) = 2.85181 4.06861 3.51329
# Velocity P-wave (km/s) = 5.00532 7.01115 6.09136
#
# Compressibility (1/GPa) = 0.02620134
#
# Stress axis : x y z
#
# Youngs Moduli (GPa) = 39.43354 105.03344 58.71375
#
# Poissons Ratio (x) = -0.18993 0.60471
# Poissons Ratio (y) = -0.07131 0.25623
# Poissons Ratio (z) = 0.40614 0.45837
#
# Static dielectric constant tensor:
#      x y z
#    x 2.068300 0.032530 0.047640 
#    y 0.032530 2.181550 -0.021020 
#    z 0.047640 -0.021020 2.125990 
# 
# From -- ./inp_files/271529.got.cif
#   From: 2010.05.17/outbox.cif.g08.bks.cpg/sg2_136_cif.got.tgz:271529.got - 2010.06.03 11:33:40.
