data_PCOD9093523
_publ_section_title
;
Structure prediction by ZEFSAII (Michael W. Deem and Ramdas Pophale) SiO2 
 PCOD9093523
Probable space group: P -1
;
_chemical_formula_sum "Si O2"
_cell_formula_units_Z 14
_cell_length_a 7.832422
_cell_length_b 20.666502
_cell_length_c 5.811694
_cell_angle_alpha 115.722243
_cell_angle_beta 85.700149
_cell_angle_gamma 133.772222
_cell_volume 574.123434
_symmetry_space_group_name_H-M "P -1"
_symmetry_group_IT_number 2
_symmetry_cell_setting 'triclinic'
loop_
_space_group_symop_operation_xyz
x,y,z
-x,-y,-z
loop_
_atom_site_type_symbol
_atom_site_label
_atom_site_fract_x
_atom_site_fract_y
_atom_site_fract_z
Si Si1 0.535594 0.600855 0.899949
Si Si2 0.342254 0.796490 0.650161
Si Si3 0.905327 0.208367 0.939470
Si Si4 0.309585 0.521559 0.299149
Si Si5 0.226360 0.679168 0.089069
Si Si6 0.717095 0.865597 0.103982
Si Si7 0.734950 0.004728 0.642249
O O1 0.399361 0.575057 0.627118
O O2 0.596558 0.533293 0.794522
O O3 0.408650 0.580585 0.129190
O O4 0.811701 0.719761 0.043869
O O5 0.209131 0.687723 0.374716
O O6 0.506259 0.904051 0.657553
O O7 0.131974 0.777575 0.773584
O O8 0.556661 0.826837 0.832722
O O9 0.821325 0.253599 0.886412
O O10 0.730835 0.087405 0.720118
O O11 0.005987 0.433780 0.170424
O O12 0.519086 0.759692 0.119334
O O13 0.995631 0.920438 0.136566
O O14 0.753787 0.956033 0.351400
#
# Coordination Sequence:
#
# PCOD9093523 Si02
#       7
#     2   2   2   2   2   2   2
#     4   9  19  31  52  82 113 145 182 224 283 332
#     4  10  20  33  52  80 105 140 183 222 274 330
#     4  10  21  32  52  81 111 138 177 230 279 325
#     4   9  18  32  54  79 114 145 181 229 275 334
#     4   9  20  33  54  81 107 138 180 225 276 325
#     4   9  20  36  55  75 103 143 188 218 269 336
#     4  10  20  37  53  75 108 143 180 226 272 329
#
# _framework density 24.385000000000002
#
# number of rings (size 3 to 8) (size 9 to 14) (size 15 to 20)
#    0.000    2.571    0.000    0.857   12.000    6.286 
#    0.000    0.000    0.000    1.714    0.000    0.000 
#    0.000    0.000    0.000    0.000    0.000    0.000 
#
# Total GULP energy -78112.184679 kJ/mol
# GULP energy per Si atom -5579.441763 kJ/mol
# Density = 2.432950 g / cm^3
# Si number density = 24.385000 Si / 1000 Ang^3
#
#
#
# Elastic Constant Matrix: (Units=GPa)
#
#
# Indices 1 2 3 4 5 6 
#
# 1 79.0053 14.2673 7.3508 -0.7951 -6.2608 15.7705
# 2 14.2673 93.3833 37.1115 -0.8360 5.0963 22.2537
# 3 7.3508 37.1115 96.9907 -0.1450 17.9788 0.9979
# 4 -0.7951 -0.8360 -0.1450 29.9759 1.9464 5.4987
# 5 -6.2608 5.0963 17.9788 1.9464 24.0785 8.3293
# 6 15.7705 22.2537 0.9979 5.4987 8.3293 22.8081
#
#
#
# Elastic Compliance Matrix: (Units=1/GPa)
#
#
# Indices 1 2 3 4 5 6 
#
# 1 0.018361 0.004145 -0.005671 0.003801 0.015848 -0.023195
# 2 0.004145 0.020257 -0.010354 0.004940 0.013971 -0.028470
# 3 -0.005671 -0.010354 0.018179 -0.002949 -0.019962 0.021229
# 4 0.003801 0.004940 -0.002949 0.036555 0.005460 -0.018126
# 5 0.015848 0.013971 -0.019962 0.005460 0.075334 -0.052543
# 6 -0.023195 -0.028470 0.021229 -0.018126 -0.052543 0.110289
#
#
# Mechanical properties :
#
#
# Convention : Reuss Voigt Hill
#
# Bulk Modulus (GPa) = 30.26942 42.98204 36.62573
# Shear Modulus (GPa) = 15.93639 29.41583 22.67611
#
# Velocity S-wave (km/s) = 2.55920 3.47696 3.05277
# Velocity P-wave (km/s) = 4.60139 5.81238 5.24197
#
# Compressibility (1/GPa) = 0.03303664
#
# Stress axis : x y z
#
# Youngs Moduli (GPa) = 54.46438 49.36676 55.00708
#
# Poissons Ratio (x) = -0.20464 0.31194
# Poissons Ratio (y) = -0.22577 0.56956
# Poissons Ratio (z) = 0.30886 0.51116
#
# Static dielectric constant tensor:
#      x y z
#    x 2.007610 -0.013320 -0.039130 
#    y -0.013320 1.980620 -0.137430 
#    z -0.039130 -0.137430 2.127600 
# 
# From -- ./inp_files/55049.got.cif
#   From: 2010.05.17/outbox.cif.g08.bks.cpg/sg2_28_cif.got.tgz:55049.got - 2010.06.03 11:33:40.
