data_PCOD9093560
_publ_section_title
;
Structure prediction by ZEFSAII (Michael W. Deem and Ramdas Pophale) SiO2 
 PCOD9093560
Probable space group: P -1
;
_chemical_formula_sum "Si O2"
_cell_formula_units_Z 16
_cell_length_a 21.394086
_cell_length_b 6.248821
_cell_length_c 18.288742
_cell_angle_alpha 63.950178
_cell_angle_beta 17.945473
_cell_angle_gamma 59.192507
_cell_volume 636.256397
_symmetry_space_group_name_H-M "P -1"
_symmetry_group_IT_number 2
_symmetry_cell_setting 'triclinic'
loop_
_space_group_symop_operation_xyz
x,y,z
-x,-y,-z
loop_
_atom_site_type_symbol
_atom_site_label
_atom_site_fract_x
_atom_site_fract_y
_atom_site_fract_z
Si Si1 0.443014 0.399968 0.000607
Si Si2 0.135995 0.091962 0.396440
Si Si3 0.929768 0.863606 0.236068
Si Si4 0.461849 0.375582 0.437389
Si Si5 0.013324 0.057728 0.270774
Si Si6 0.820873 0.857976 0.146207
Si Si7 0.608735 0.590113 0.651090
Si Si8 0.730098 0.667453 0.118481
O O1 0.470775 0.575076 0.877229
O O2 0.641803 0.140680 0.807053
O O3 0.500000 0.500000 0.000000
O O4 0.225099 0.326325 0.251092
O O5 0.006511 0.105598 0.613575
O O6 0.000000 0.000000 0.500000
O O7 0.709307 0.812359 0.502178
O O8 0.992194 0.929810 0.237197
O O9 0.099109 0.600977 0.056960
O O10 0.961312 0.076053 0.114341
O O11 0.234555 0.329934 0.707244
O O12 0.512769 0.382478 0.294272
O O13 0.503109 0.622839 0.383099
O O14 0.634828 0.132304 0.318849
O O15 0.810894 0.323584 0.461595
O O16 0.226655 0.135863 0.015782
O O17 0.783869 0.746324 0.126239
#
# Coordination Sequence:
#
# PCOD9093560 Si02
#       8
#     2   2   2   2   2   2   2   2
#     4  10  22  42  59  87 128 153 193 253 296 351
#     4  10  22  39  62  89 116 158 200 241 300 359
#     4   9  18  36  55  76 107 146 181 224 279 331
#     4  10  20  33  53  81 108 142 187 225 281 333
#     4   9  19  37  56  77 112 142 182 233 276 338
#     4   9  19  36  53  76 110 144 182 235 271 327
#     4  10  21  35  56  81 109 146 183 226 285 341
#     4   9  18  34  55  76 107 143 181 228 274 325
#
# _framework density 25.147096000000001
#
# number of rings (size 3 to 8) (size 9 to 14) (size 15 to 20)
#    0.000    2.500    0.000    1.125    1.750    2.000 
#    6.750    5.625    0.000    0.000    0.000    0.000 
#    0.000    0.000    0.000    0.000    0.000    0.000 
#
# Total GULP energy -89411.644480 kJ/mol
# GULP energy per Si atom -5588.227780 kJ/mol
# Density = 2.508986 g / cm^3
# Si number density = 25.147096 Si / 1000 Ang^3
#
#
#
# Elastic Constant Matrix: (Units=GPa)
#
#
# Indices 1 2 3 4 5 6 
#
# 1 113.6228 31.4990 62.3191 -33.1903 27.6801 7.8893
# 2 31.4990 119.1904 73.9041 -29.6000 5.1505 4.7830
# 3 62.3191 73.9041 197.4111 -39.8236 10.3700 -3.4241
# 4 -33.1903 -29.6000 -39.8236 57.1455 0.2401 -2.9640
# 5 27.6801 5.1505 10.3700 0.2401 49.4018 -1.5258
# 6 7.8893 4.7830 -3.4241 -2.9640 -1.5258 33.8529
#
#
#
# Elastic Compliance Matrix: (Units=1/GPa)
#
#
# Indices 1 2 3 4 5 6 
#
# 1 0.014257 0.000038 -0.002950 0.006098 -0.007509 -0.003431
# 2 0.000038 0.011588 -0.003671 0.003378 -0.000529 -0.001745
# 3 -0.002950 -0.003671 0.007770 0.001911 0.000463 0.002180
# 4 0.006098 0.003378 0.001911 0.024152 -0.004281 0.000217
# 5 -0.007509 -0.000529 0.000463 -0.004281 0.024509 0.002601
# 6 -0.003431 -0.001745 0.002180 0.000217 0.002601 0.030943
#
#
# Mechanical properties :
#
#
# Convention : Reuss Voigt Hill
#
# Bulk Modulus (GPa) = 48.90223 85.07432 66.98827
# Shear Modulus (GPa) = 37.53727 45.58017 41.55872
#
# Velocity S-wave (km/s) = 3.86775 4.26201 4.06966
# Velocity P-wave (km/s) = 6.27970 7.62390 6.98421
#
# Compressibility (1/GPa) = 0.02044897
#
# Stress axis : x y z
#
# Youngs Moduli (GPa) = 70.13975 86.29632 128.69664
#
# Poissons Ratio (x) = -0.00326 0.37963
# Poissons Ratio (y) = -0.00265 0.47247
# Poissons Ratio (z) = 0.20690 0.31681
#
# Static dielectric constant tensor:
#      x y z
#    x 1.945300 0.010210 -0.027320 
#    y 0.010210 2.006180 -0.017370 
#    z -0.027320 -0.017370 2.064960 
# 
# From -- ./inp_files/105788.got.cif
#   From: 2010.05.17/outbox.cif.g08.bks.cpg/sg2_53_cif.got.tgz:105788.got - 2010.06.03 11:33:40.
