data_PCOD9093512
_publ_section_title
;
Structure prediction by ZEFSAII (Michael W. Deem and Ramdas Pophale) SiO2 
 PCOD9093512
Probable space group: P -1
;
_chemical_formula_sum "Si O2"
_cell_formula_units_Z 16
_cell_length_a 8.406838
_cell_length_b 9.201707
_cell_length_c 19.840084
_cell_angle_alpha 36.654382
_cell_angle_beta 48.662567
_cell_angle_gamma 61.305203
_cell_volume 683.694662
_symmetry_space_group_name_H-M "P -1"
_symmetry_group_IT_number 2
_symmetry_cell_setting 'triclinic'
loop_
_space_group_symop_operation_xyz
x,y,z
-x,-y,-z
loop_
_atom_site_type_symbol
_atom_site_label
_atom_site_fract_x
_atom_site_fract_y
_atom_site_fract_z
Si Si1 0.911588 0.853105 0.385102
Si Si2 0.462770 0.292347 0.864217
Si Si3 0.194271 0.555733 0.025814
Si Si4 0.996443 0.942990 0.865993
Si Si5 0.258895 0.685637 0.704398
Si Si6 0.269159 0.651096 0.435303
Si Si7 0.752165 0.603361 0.321261
Si Si8 0.454520 0.792582 0.985541
O O1 0.792655 0.581732 0.509452
O O2 0.115347 0.845275 0.380007
O O3 0.985638 0.947354 0.254679
O O4 0.743332 0.026735 0.395034
O O5 0.436926 0.551901 0.742905
O O6 0.608758 0.304879 0.884935
O O7 0.232984 0.181563 0.000296
O O8 0.510503 0.084755 0.873998
O O9 0.156497 0.735995 0.907703
O O10 0.353719 0.359217 0.035422
O O11 0.281423 0.721555 0.003079
O O12 0.968242 0.417165 0.160908
O O13 0.073250 0.163361 0.813124
O O14 0.247686 0.579101 0.672599
O O15 0.523289 0.712330 0.343485
O O16 0.219121 0.549729 0.562044
#
# Coordination Sequence:
#
# PCOD9093512 Si02
#       8
#     2   2   2   2   2   2   2   2
#     4  10  21  39  61  83 108 146 185 232 283 325
#     4  10  21  36  53  85 120 147 183 223 264 337
#     4  10  21  36  53  85 120 147 183 223 264 337
#     4  10  20  36  58  81 116 153 180 218 278 332
#     4  11  22  35  58  85 114 148 182 223 282 332
#     4   9  22  42  60  80 108 141 192 238 276 328
#     4  10  21  39  61  83 108 146 185 232 283 325
#     4  10  20  33  52  74 118 158 182 219 258 304
#
# _framework density 23.402262
#
# number of rings (size 3 to 8) (size 9 to 14) (size 15 to 20)
#    0.000    2.000    0.000    3.000    0.000   11.000 
#    0.000    2.500    0.000    3.000    0.000    0.000 
#    0.000    0.000    0.000    0.000    0.000    0.000 
#
# Total GULP energy -89506.238849 kJ/mol
# GULP energy per Si atom -5594.139928 kJ/mol
# Density = 2.334900 g / cm^3
# Si number density = 23.402262 Si / 1000 Ang^3
#
#
#
# Elastic Constant Matrix: (Units=GPa)
#
#
# Indices 1 2 3 4 5 6 
#
# 1 123.8248 29.3287 25.6134 -9.0808 29.3221 -6.7585
# 2 29.3287 114.4394 9.8590 -17.7259 18.0931 -1.6829
# 3 25.6134 9.8590 45.7301 -4.3554 9.3700 -8.6151
# 4 -9.0808 -17.7259 -4.3554 26.1334 -5.8886 5.1204
# 5 29.3221 18.0931 9.3700 -5.8886 35.5222 -7.2741
# 6 -6.7585 -1.6829 -8.6151 5.1204 -7.2741 43.1505
#
#
#
# Elastic Compliance Matrix: (Units=1/GPa)
#
#
# Indices 1 2 3 4 5 6 
#
# 1 0.011036 -0.001180 -0.004456 0.000747 -0.007318 -0.000529
# 2 -0.001180 0.010570 -0.000544 0.006115 -0.003498 -0.001197
# 3 -0.004456 -0.000544 0.025713 0.001180 -0.001819 0.003968
# 4 0.000747 0.006115 0.001180 0.044248 0.002422 -0.004251
# 5 -0.007318 -0.003498 -0.001819 0.002422 0.037763 0.004433
# 6 -0.000529 -0.001197 0.003968 -0.004251 0.004433 0.025089
#
#
# Mechanical properties :
#
#
# Convention : Reuss Voigt Hill
#
# Bulk Modulus (GPa) = 28.60482 45.95517 37.27999
# Shear Modulus (GPa) = 28.02190 35.57412 31.79801
#
# Velocity S-wave (km/s) = 3.46410 3.90309 3.69013
# Velocity P-wave (km/s) = 5.31504 6.32391 5.84130
#
# Compressibility (1/GPa) = 0.03495914
#
# Stress axis : x y z
#
# Youngs Moduli (GPa) = 90.61373 94.60679 38.89051
#
# Poissons Ratio (x) = 0.11159 0.17330
# Poissons Ratio (y) = 0.10688 0.02117
# Poissons Ratio (z) = 0.40378 0.05151
#
# Static dielectric constant tensor:
#      x y z
#    x 1.930850 -0.037740 0.007920 
#    y -0.037740 1.906500 -0.009430 
#    z 0.007920 -0.009430 1.901730 
# 
# From -- ./inp_files/201893.got.cif
#   From: 2010.05.17/outbox.cif.g08.bks.cpg/sg2_101_cif.got.tgz:201893.got - 2010.06.03 11:33:40.
