data_PCOD9093615
_publ_section_title
;
Structure prediction by ZEFSAII (Michael W. Deem and Ramdas Pophale) SiO2 
 PCOD9093615
Probable space group: P -1
;
_chemical_formula_sum "Si O2"
_cell_formula_units_Z 14
_cell_length_a 19.370210
_cell_length_b 12.265277
_cell_length_c 18.607511
_cell_angle_alpha 138.402653
_cell_angle_beta 160.700061
_cell_angle_gamma 32.078336
_cell_volume 741.312375
_symmetry_space_group_name_H-M "P -1"
_symmetry_group_IT_number 2
_symmetry_cell_setting 'triclinic'
loop_
_space_group_symop_operation_xyz
x,y,z
-x,-y,-z
loop_
_atom_site_type_symbol
_atom_site_label
_atom_site_fract_x
_atom_site_fract_y
_atom_site_fract_z
Si Si1 0.102054 0.186839 0.472858
Si Si2 0.306763 0.337470 0.636282
Si Si3 0.194274 0.157714 0.310315
Si Si4 0.919484 0.375446 0.003501
Si Si5 0.624012 0.255276 0.429952
Si Si6 0.199926 0.484660 0.246896
Si Si7 0.063941 0.953880 0.891540
O O1 0.295507 0.214331 0.631691
O O2 0.869889 0.416429 0.393213
O O3 0.249298 0.988689 0.574811
O O4 0.979373 0.125865 0.262816
O O5 0.178050 0.310081 0.428336
O O6 0.616146 0.221766 0.863566
O O7 0.500000 0.000000 0.500000
O O8 0.121545 0.031978 0.221737
O O9 0.974734 0.294205 0.098902
O O10 0.618738 0.585268 0.786807
O O11 0.992854 0.181486 0.930831
O O12 0.140225 0.405681 0.218441
O O13 0.487455 0.320386 0.407887
O O14 0.823505 0.311705 0.656203
O O15 0.000000 0.500000 0.000000
#
# Coordination Sequence:
#
# PCOD9093615 Si02
#       7
#     2   2   2   2   2   2   2
#     4  10  21  38  59  87 115 152 190 233 285 344
#     4  10  22  39  60  83 118 151 193 237 278 342
#     4  11  24  38  58  87 114 151 195 239 287 341
#     4  11  22  34  57  86 116 148 187 237 291 339
#     4  10  20  33  54  83 119 147 187 232 285 342
#     4   9  18  32  51  83 115 150 181 230 282 334
#     4  11  21  36  61  87 112 149 190 242 292 332
#
# _framework density 18.885427
#
# number of rings (size 3 to 8) (size 9 to 14) (size 15 to 20)
#    0.000    1.714    1.429    4.286    4.000    1.143 
#    0.000    0.714    0.000    1.714    0.000    0.000 
#    0.000    0.000    0.000    0.000    0.000    0.000 
#
# Total GULP energy -78096.787821 kJ/mol
# GULP energy per Si atom -5578.341987 kJ/mol
# Density = 1.884244 g / cm^3
# Si number density = 18.885427 Si / 1000 Ang^3
#
#
#
# Elastic Constant Matrix: (Units=GPa)
#
#
# Indices 1 2 3 4 5 6 
#
# 1 53.0655 41.5422 29.2427 2.6228 -5.0600 6.0118
# 2 41.5422 149.9429 48.8924 4.7514 2.8749 17.9047
# 3 29.2427 48.8924 82.4301 2.3905 2.8697 3.8176
# 4 2.6228 4.7514 2.3905 22.1996 9.6627 0.2466
# 5 -5.0600 2.8749 2.8697 9.6627 34.8274 1.5555
# 6 6.0118 17.9047 3.8176 0.2466 1.5555 18.0146
#
#
#
# Elastic Compliance Matrix: (Units=1/GPa)
#
#
# Indices 1 2 3 4 5 6 
#
# 1 0.027726 -0.005071 -0.006775 -0.004170 0.006308 -0.003264
# 2 -0.005071 0.010300 -0.003909 -0.000793 -0.000703 -0.007645
# 3 -0.006775 -0.003909 0.016784 0.000845 -0.002404 0.002785
# 4 -0.004170 -0.000793 0.000845 0.052209 -0.015211 0.002600
# 5 0.006308 -0.000703 -0.002404 -0.015211 0.034269 -0.003647
# 6 -0.003264 -0.007645 0.002785 0.002600 -0.003647 0.063887
#
#
# Mechanical properties :
#
#
# Convention : Reuss Voigt Hill
#
# Bulk Modulus (GPa) = 42.92083 58.31034 50.61559
# Shear Modulus (GPa) = 20.45383 26.05907 23.25645
#
# Velocity S-wave (km/s) = 3.29454 3.71866 3.51301
# Velocity P-wave (km/s) = 6.10314 7.02715 6.58138
#
# Compressibility (1/GPa) = 0.02329871
#
# Stress axis : x y z
#
# Youngs Moduli (GPa) = 36.06743 97.08431 59.58120
#
# Poissons Ratio (x) = 0.49234 0.40369
# Poissons Ratio (y) = 0.18291 0.23289
# Poissons Ratio (z) = 0.24437 0.37949
#
# Static dielectric constant tensor:
#      x y z
#    x 1.680290 0.038340 0.001460 
#    y 0.038340 1.655350 -0.001170 
#    z 0.001460 -0.001170 1.690460 
# 
# From -- ./inp_files/65442.got.cif
#   From: 2010.05.17/outbox.cif.g08.bks.cpg/sg2_33_cif.got.tgz:65442.got - 2010.06.03 11:33:40.
