data_PCOD9093620
_publ_section_title
;
Structure prediction by ZEFSAII (Michael W. Deem and Ramdas Pophale) SiO2 
 PCOD9093620
Probable space group: P -1
;
_chemical_formula_sum "Si O2"
_cell_formula_units_Z 14
_cell_length_a 5.800417
_cell_length_b 4.861805
_cell_length_c 19.949104
_cell_angle_alpha 108.028055
_cell_angle_beta 85.526610
_cell_angle_gamma 97.905497
_cell_volume 529.495996
_symmetry_space_group_name_H-M "P -1"
_symmetry_group_IT_number 2
_symmetry_cell_setting 'triclinic'
loop_
_space_group_symop_operation_xyz
x,y,z
-x,-y,-z
loop_
_atom_site_type_symbol
_atom_site_label
_atom_site_fract_x
_atom_site_fract_y
_atom_site_fract_z
Si Si1 0.336156 0.232189 0.047813
Si Si2 0.242033 0.259855 0.911942
Si Si3 0.519004 0.023779 0.215623
Si Si4 0.526715 0.082333 0.582476
Si Si5 0.909225 0.483858 0.824936
Si Si6 0.144580 0.179294 0.693510
Si Si7 0.718608 0.677941 0.653331
O O1 0.520241 0.519279 0.072300
O O2 0.194476 0.231281 0.121041
O O3 0.163284 0.242637 0.989132
O O4 0.500000 0.000000 0.000000
O O5 0.331250 0.970023 0.855433
O O6 0.069308 0.384676 0.873823
O O7 0.300528 0.776155 0.197060
O O8 0.685321 0.911809 0.259295
O O9 0.415922 0.298353 0.270785
O O10 0.297777 0.210999 0.625698
O O11 0.733448 0.343969 0.610918
O O12 0.500000 0.000000 0.500000
O O13 0.572226 0.810042 0.606988
O O14 0.040860 0.459832 0.749233
O O15 0.949085 0.904698 0.668431
#
# Coordination Sequence:
#
# PCOD9093620 Si02
#       7
#     2   2   2   2   2   2   2
#     4  10  20  33  54  84 120 159 211 269 328 387
#     4   9  18  35  55  79 118 163 209 266 323 388
#     4   8  17  37  60  85 119 161 216 268 319 385
#     4  11  24  42  68 101 137 173 220 274 328 398
#     4   9  17  36  62  82 121 169 216 266 330 390
#     4   9  20  40  66  91 132 170 221 271 328 394
#     4  10  22  41  66  98 133 178 220 267 336 395
#
# _framework density 26.440238999999998
#
# number of rings (size 3 to 8) (size 9 to 14) (size 15 to 20)
#    0.000    2.571    0.000    0.857    0.000    4.000 
#   15.429    0.000   18.857    0.000    0.000    0.000 
#    0.000    0.000    0.000    0.000    0.000    0.000 
#
# Total GULP energy -78367.540453 kJ/mol
# GULP energy per Si atom -5597.681461 kJ/mol
# Density = 2.638006 g / cm^3
# Si number density = 26.440239 Si / 1000 Ang^3
#
#
#
# Elastic Constant Matrix: (Units=GPa)
#
#
# Indices 1 2 3 4 5 6 
#
# 1 101.8890 20.2900 60.5952 -5.1593 -2.5549 1.7349
# 2 20.2900 102.8785 46.3004 4.3373 1.3209 1.0837
# 3 60.5952 46.3004 232.6650 6.0420 -18.5685 11.5447
# 4 -5.1593 4.3373 6.0420 36.0110 3.5810 -2.5072
# 5 -2.5549 1.3209 -18.5685 3.5810 37.7539 2.1646
# 6 1.7349 1.0837 11.5447 -2.5072 2.1646 36.2897
#
#
#
# Elastic Compliance Matrix: (Units=1/GPa)
#
#
# Indices 1 2 3 4 5 6 
#
# 1 0.011946 -0.001074 -0.003070 0.002496 -0.000939 0.000666
# 2 -0.001074 0.010881 -0.001987 -0.000970 -0.001360 0.000373
# 3 -0.003070 -0.001987 0.005873 -0.001622 0.003016 -0.001954
# 4 0.002496 -0.000970 -0.001622 0.029048 -0.003501 0.002641
# 5 -0.000939 -0.001360 0.003016 -0.003501 0.028448 -0.002813
# 6 0.000666 0.000373 -0.001954 0.002641 -0.002813 0.028485
#
#
# Mechanical properties :
#
#
# Convention : Reuss Voigt Hill
#
# Bulk Modulus (GPa) = 60.84277 76.86707 68.85492
# Shear Modulus (GPa) = 37.75768 42.69404 40.22586
#
# Velocity S-wave (km/s) = 3.78304 4.02274 3.90473
# Velocity P-wave (km/s) = 6.49178 7.12121 6.81377
#
# Compressibility (1/GPa) = 0.01643581
#
# Stress axis : x y z
#
# Youngs Moduli (GPa) = 83.71042 91.90378 170.27387
#
# Poissons Ratio (x) = 0.09875 0.52277
# Poissons Ratio (y) = 0.08994 0.33839
# Poissons Ratio (z) = 0.25701 0.18264
#
# Static dielectric constant tensor:
#      x y z
#    x 2.170790 -0.023530 -0.040440 
#    y -0.023530 2.060840 0.009900 
#    z -0.040440 0.009900 2.070420 
# 
# From -- ./inp_files/7479.got.cif
#   From: 2010.05.17/outbox.cif.g08.bks.cpg/sg2_4_cif.got.tgz:7479.got - 2010.06.03 11:33:40.
