data_PCOD9093832
_publ_section_title
;
Structure prediction by ZEFSAII (Michael W. Deem and Ramdas Pophale) SiO2 
 PCOD9093832
Probable space group: P -1
;
_chemical_formula_sum "Si O2"
_cell_formula_units_Z 14
_cell_length_a 18.862927
_cell_length_b 17.936100
_cell_length_c 5.238184
_cell_angle_alpha 132.629054
_cell_angle_beta 132.316515
_cell_angle_gamma 29.000155
_cell_volume 615.685747
_symmetry_space_group_name_H-M "P -1"
_symmetry_group_IT_number 2
_symmetry_cell_setting 'triclinic'
loop_
_space_group_symop_operation_xyz
x,y,z
-x,-y,-z
loop_
_atom_site_type_symbol
_atom_site_label
_atom_site_fract_x
_atom_site_fract_y
_atom_site_fract_z
Si Si1 0.093381 0.634301 0.659859
Si Si2 0.730012 0.068869 0.042185
Si Si3 0.841917 0.777884 0.746120
Si Si4 0.913194 0.967604 0.771461
Si Si5 0.177217 0.418246 0.986470
Si Si6 0.635950 0.863074 0.827973
Si Si7 0.605815 0.678339 0.086131
O O1 0.269041 0.476524 0.787964
O O2 0.007487 0.676872 0.814124
O O3 0.032871 0.787893 0.753790
O O4 0.055647 0.582898 0.226692
O O5 0.832926 0.000351 0.386764
O O6 0.558641 0.233904 0.077834
O O7 0.751364 0.932087 0.705835
O O8 0.794428 0.074527 0.964677
O O9 0.853566 0.646496 0.438319
O O10 0.729185 0.874142 0.938263
O O11 0.000000 0.000000 0.000000
O O12 0.306668 0.387289 0.121906
O O13 0.245560 0.292704 0.078069
O O14 0.580231 0.819546 0.403163
O O15 0.500000 0.000000 0.000000
#
# Coordination Sequence:
#
# PCOD9093832 Si02
#       7
#     2   2   2   2   2   2   2
#     4  10  24  41  67  94 137 180 224 283 336 401
#     4  11  25  44  75  99 136 176 229 277 346 409
#     4  10  22  36  60  99 133 191 227 264 322 400
#     4  11  27  51  75  99 127 172 231 293 350 413
#     4  10  21  35  61  91 146 177 230 261 328 388
#     4  10  20  33  58  90 144 183 229 265 315 392
#     4  10  23  40  60 102 136 180 220 276 333 398
#
# _framework density 22.738872000000001
#
# number of rings (size 3 to 8) (size 9 to 14) (size 15 to 20)
#    0.000    1.714    0.000    2.571   14.000    7.429 
#    0.000    1.429    0.000    0.000    0.000    0.000 
#    0.000    0.000    0.000    0.000    0.000    0.000 
#
# Total GULP energy -77982.690867 kJ/mol
# GULP energy per Si atom -5570.192205 kJ/mol
# Density = 2.268712 g / cm^3
# Si number density = 22.738872 Si / 1000 Ang^3
#
#
#
# Elastic Constant Matrix: (Units=GPa)
#
#
# Indices 1 2 3 4 5 6 
#
# 1 200.2181 72.7697 57.0806 1.1407 -5.7214 -17.6159
# 2 72.7697 127.9677 34.4866 -0.5453 16.5913 -27.2249
# 3 57.0806 34.4866 67.1161 -6.4699 -6.3412 -3.8422
# 4 1.1407 -0.5453 -6.4699 16.6237 4.6158 2.6581
# 5 -5.7214 16.5913 -6.3412 4.6158 36.5242 -1.3317
# 6 -17.6159 -27.2249 -3.8422 2.6581 -1.3317 31.5709
#
#
#
# Elastic Compliance Matrix: (Units=1/GPa)
#
#
# Indices 1 2 3 4 5 6 
#
# 1 0.007756 -0.003024 -0.005083 -0.003457 0.002197 0.001485
# 2 -0.003024 0.013684 -0.004660 -0.000681 -0.007074 0.009304
# 3 -0.005083 -0.004660 0.022556 0.008617 0.003978 -0.004668
# 4 -0.003457 -0.000681 0.008617 0.066985 -0.007472 -0.007423
# 5 0.002197 -0.007074 0.003978 -0.007472 0.032484 -0.002390
# 6 0.001485 0.009304 -0.004668 -0.007423 -0.002390 0.040483
#
#
# Mechanical properties :
#
#
# Convention : Reuss Voigt Hill
#
# Bulk Modulus (GPa) = 54.16866 80.44177 67.30521
# Shear Modulus (GPa) = 23.18700 32.34143 27.76422
#
# Velocity S-wave (km/s) = 3.19675 3.77543 3.49808
# Velocity P-wave (km/s) = 6.12367 7.37958 6.78077
#
# Compressibility (1/GPa) = 0.01846086
#
# Stress axis : x y z
#
# Youngs Moduli (GPa) = 128.93217 73.07797 44.33330
#
# Poissons Ratio (x) = 0.22102 0.22534
# Poissons Ratio (y) = 0.38995 0.20661
# Poissons Ratio (z) = 0.65535 0.34058
#
# Static dielectric constant tensor:
#      x y z
#    x 1.852210 -0.003520 0.020270 
#    y -0.003520 1.954750 0.063540 
#    z 0.020270 0.063540 2.666620 
# 
# From -- ./inp_files/94230.got.cif
#   From: 2010.05.17/outbox.cif.g08.bks.cpg/sg2_48_cif.got.tgz:94230.got - 2010.06.03 11:33:40.
