data_PCOD9093391
_publ_section_title
;
Structure prediction by ZEFSAII (Michael W. Deem and Ramdas Pophale) SiO2 
 PCOD9093391
Probable space group: P -1
;
_chemical_formula_sum "Si O2"
_cell_formula_units_Z 16
_cell_length_a 10.780567
_cell_length_b 9.463057
_cell_length_c 21.236197
_cell_angle_alpha 143.949073
_cell_angle_beta 28.581623
_cell_angle_gamma 140.057311
_cell_volume 597.452344
_symmetry_space_group_name_H-M "P -1"
_symmetry_group_IT_number 2
_symmetry_cell_setting 'triclinic'
loop_
_space_group_symop_operation_xyz
x,y,z
-x,-y,-z
loop_
_atom_site_type_symbol
_atom_site_label
_atom_site_fract_x
_atom_site_fract_y
_atom_site_fract_z
Si Si1 0.549906 0.559533 0.140864
Si Si2 0.101895 0.842187 0.453213
Si Si3 0.226480 0.558640 0.117003
Si Si4 0.082243 0.030711 0.293995
Si Si5 0.457926 0.466789 0.408989
Si Si6 0.127037 0.033403 0.128431
Si Si7 0.391711 0.589895 0.807430
Si Si8 0.257165 0.741115 0.701804
O O1 0.359102 0.285240 0.119078
O O2 0.656606 0.575755 0.169650
O O3 0.362698 0.751516 0.283677
O O4 0.786528 0.586131 0.995333
O O5 0.856568 0.611800 0.487095
O O6 0.132519 0.936787 0.546087
O O7 0.000000 0.000000 0.500000
O O8 0.220721 0.831952 0.196207
O O9 0.988476 0.468312 0.238534
O O10 0.500000 0.500000 0.000000
O O11 0.034205 0.976976 0.222019
O O12 0.298051 0.283008 0.286085
O O13 0.632895 0.542064 0.296582
O O14 0.461657 0.665420 0.533276
O O15 0.568560 0.234366 0.303461
O O16 0.898160 0.083159 0.202075
O O17 0.250923 0.815446 0.966043
#
# Coordination Sequence:
#
# PCOD9093391 Si02
#       8
#     2   2   2   2   2   2   2   2
#     4  11  20  35  61  93 119 149 192 250 305 343
#     4  11  22  37  61  93 120 149 198 254 297 341
#     4  12  19  36  61  90 121 153 195 245 296 347
#     4  10  20  32  59  89 121 146 194 249 291 348
#     4  10  23  41  58  84 120 159 201 237 291 362
#     4  11  19  37  58  92 117 159 194 238 299 353
#     4  10  20  36  60  89 118 151 197 249 293 347
#     4  11  23  38  63  84 118 167 196 235 299 353
#
# _framework density 26.780380000000001
#
# number of rings (size 3 to 8) (size 9 to 14) (size 15 to 20)
#    0.000    1.250    5.000    2.250    1.750    3.000 
#    0.000    0.625    2.750    2.250    0.000    0.000 
#    0.000    0.000    0.000    0.000    0.000    0.000 
#
# Total GULP energy -89466.714966 kJ/mol
# GULP energy per Si atom -5591.669685 kJ/mol
# Density = 2.671943 g / cm^3
# Si number density = 26.780380 Si / 1000 Ang^3
#
#
#
# Elastic Constant Matrix: (Units=GPa)
#
#
# Indices 1 2 3 4 5 6 
#
# 1 75.3478 20.0231 22.6373 -15.8480 14.3137 -21.0582
# 2 20.0231 104.1947 26.4870 -24.4151 8.1053 -23.2953
# 3 22.6373 26.4870 135.3627 -26.7720 25.8087 -18.1224
# 4 -15.8480 -24.4151 -26.7720 42.0249 -12.8327 -4.5849
# 5 14.3137 8.1053 25.8087 -12.8327 56.0197 -13.7332
# 6 -21.0582 -23.2953 -18.1224 -4.5849 -13.7332 45.4945
#
#
#
# Elastic Compliance Matrix: (Units=1/GPa)
#
#
# Indices 1 2 3 4 5 6 
#
# 1 0.017336 0.000477 -0.000244 0.007453 -0.000531 0.008762
# 2 0.000477 0.013593 -0.000084 0.009700 0.002337 0.008830
# 3 -0.000244 -0.000084 0.009429 0.005602 -0.002122 0.003524
# 4 0.007453 0.009700 0.005602 0.039914 0.007398 0.016904
# 5 -0.000531 0.002337 -0.002122 0.007398 0.022170 0.007544
# 6 0.008762 0.008830 0.003524 0.016904 0.007544 0.035943
#
#
# Mechanical properties :
#
#
# Convention : Reuss Voigt Hill
#
# Bulk Modulus (GPa) = 24.59705 50.35556 37.47631
# Shear Modulus (GPa) = 32.97318 45.09167 39.03243
#
# Velocity S-wave (km/s) = 3.51272 4.10781 3.82186
# Velocity P-wave (km/s) = 5.06526 6.42984 5.78791
#
# Compressibility (1/GPa) = 0.04065528
#
# Stress axis : x y z
#
# Youngs Moduli (GPa) = 57.68472 73.56972 106.05188
#
# Poissons Ratio (x) = -0.03513 0.02589
# Poissons Ratio (y) = -0.02754 0.00895
# Poissons Ratio (z) = 0.01408 0.00621
#
# Static dielectric constant tensor:
#      x y z
#    x 2.252890 0.079570 0.085450 
#    y 0.079570 2.156050 0.041410 
#    z 0.085450 0.041410 2.080360 
# 
# From -- ./inp_files/182598.got.cif
#   From: 2010.05.17/outbox.cif.g08.bks.cpg/sg2_92_cif.got.tgz:182598.got - 2010.06.03 11:33:40.
