data_PCOD9093849
_publ_section_title
;
Structure prediction by ZEFSAII (Michael W. Deem and Ramdas Pophale) SiO2 
 PCOD9093849
Probable space group: P -1
;
_chemical_formula_sum "Si O2"
_cell_formula_units_Z 14
_cell_length_a 17.189551
_cell_length_b 7.166073
_cell_length_c 5.266000
_cell_angle_alpha 116.936005
_cell_angle_beta 86.165311
_cell_angle_gamma 100.798451
_cell_volume 567.941202
_symmetry_space_group_name_H-M "P -1"
_symmetry_group_IT_number 2
_symmetry_cell_setting 'triclinic'
loop_
_space_group_symop_operation_xyz
x,y,z
-x,-y,-z
loop_
_atom_site_type_symbol
_atom_site_label
_atom_site_fract_x
_atom_site_fract_y
_atom_site_fract_z
Si Si1 0.531666 0.293948 0.771794
Si Si2 0.423248 0.935564 0.802599
Si Si3 0.272271 0.131112 0.952470
Si Si4 0.697896 0.422019 0.006417
Si Si5 0.215579 0.501535 0.459530
Si Si6 0.062217 0.228983 0.430237
Si Si7 0.900825 0.012295 0.228010
O O1 0.571689 0.285483 0.479610
O O2 0.454141 0.112211 0.681660
O O3 0.500000 0.500000 0.000000
O O4 0.609263 0.289694 0.930550
O O5 0.341520 0.007219 0.935876
O O6 0.500000 0.000000 0.000000
O O7 0.304913 0.327336 0.876694
O O8 0.192797 0.989026 0.768762
O O9 0.243431 0.270643 0.272368
O O10 0.744528 0.400121 0.235917
O O11 0.749889 0.376595 0.725395
O O12 0.121727 0.442411 0.476122
O O13 0.967687 0.210078 0.419371
O O14 0.086230 0.160046 0.663519
O O15 0.078759 0.061976 0.105091
#
# Coordination Sequence:
#
# PCOD9093849 Si02
#       7
#     2   2   2   2   2   2   2
#     4  11  24  42  61  86 120 160 204 259 314 365
#     4  11  26  41  61  91 118 160 211 258 304 375
#     4   9  19  34  53  84 118 153 202 244 305 349
#     4  10  20  33  59  81 112 156 193 242 300 351
#     4   9  17  30  54  84 113 152 193 246 287 360
#     4   9  14  26  44  81 118 143 198 233 299 343
#     4   9  16  25  47  76 117 155 181 250 287 359
#
# _framework density 24.650438999999999
#
# number of rings (size 3 to 8) (size 9 to 14) (size 15 to 20)
#    0.857    1.429    2.857    0.000    4.000    0.571 
#    0.000    0.000    0.000    0.000    0.000    2.000 
#    0.000    0.000    0.000    0.000    0.000    0.286 
#
# Total GULP energy -78014.636693 kJ/mol
# GULP energy per Si atom -5572.474049 kJ/mol
# Density = 2.459433 g / cm^3
# Si number density = 24.650439 Si / 1000 Ang^3
#
#
#
# Elastic Constant Matrix: (Units=GPa)
#
#
# Indices 1 2 3 4 5 6 
#
# 1 178.4282 54.2661 30.8555 14.2520 25.5920 13.4063
# 2 54.2661 47.2698 1.7008 5.5254 -3.9569 5.6020
# 3 30.8555 1.7008 104.2534 -11.7321 13.3798 -19.4956
# 4 14.2520 5.5254 -11.7321 27.4869 -1.5331 2.7916
# 5 25.5920 -3.9569 13.3798 -1.5331 39.9839 11.7655
# 6 13.4063 5.6020 -19.4956 2.7916 11.7655 54.2876
#
#
#
# Elastic Compliance Matrix: (Units=1/GPa)
#
#
# Indices 1 2 3 4 5 6 
#
# 1 0.011768 -0.013404 -0.002932 -0.005037 -0.007893 -0.000606
# 2 -0.013404 0.037817 0.001253 0.000899 0.012810 -0.002965
# 3 -0.002932 0.001253 0.012619 0.005881 -0.003649 0.005615
# 4 -0.005037 0.000899 0.005881 0.041423 0.002777 0.000531
# 5 -0.007893 0.012810 -0.003649 0.002777 0.035141 -0.008442
# 6 -0.000606 -0.002965 0.005615 0.000531 -0.008442 0.022695
#
#
# Mechanical properties :
#
#
# Convention : Reuss Voigt Hill
#
# Bulk Modulus (GPa) = 31.21226 55.95512 43.58369
# Shear Modulus (GPa) = 24.71468 40.56028 32.63748
#
# Velocity S-wave (km/s) = 3.16983 4.06078 3.64265
# Velocity P-wave (km/s) = 5.10750 6.68844 5.95071
#
# Compressibility (1/GPa) = 0.03203869
#
# Stress axis : x y z
#
# Youngs Moduli (GPa) = 84.97518 26.44306 79.24361
#
# Poissons Ratio (x) = 0.35446 0.23231
# Poissons Ratio (y) = 1.13905 -0.09930
# Poissons Ratio (z) = 0.24911 -0.03314
#
# Static dielectric constant tensor:
#      x y z
#    x 1.961740 0.069500 -0.039980 
#    y 0.069500 2.282000 -0.177000 
#    z -0.039980 -0.177000 2.076180 
# 
# From -- ./inp_files/105794.got.cif
#   From: 2010.05.17/outbox.cif.g08.bks.cpg/sg2_53_cif.got.tgz:105794.got - 2010.06.03 11:33:40.
