data_PCOD9093216
_publ_section_title
;
Structure prediction by ZEFSAII (Michael W. Deem and Ramdas Pophale) SiO2 
 PCOD9093216
Probable space group: P -1
;
_chemical_formula_sum "Si O2"
_cell_formula_units_Z 16
_cell_length_a 14.932745
_cell_length_b 5.705690
_cell_length_c 22.960174
_cell_angle_alpha 65.099815
_cell_angle_beta 158.757335
_cell_angle_gamma 105.909369
_cell_volume 599.788874
_symmetry_space_group_name_H-M "P -1"
_symmetry_group_IT_number 2
_symmetry_cell_setting 'triclinic'
loop_
_space_group_symop_operation_xyz
x,y,z
-x,-y,-z
loop_
_atom_site_type_symbol
_atom_site_label
_atom_site_fract_x
_atom_site_fract_y
_atom_site_fract_z
Si Si1 0.200336 0.854142 0.189107
Si Si2 0.247035 0.160053 0.434482
Si Si3 0.465206 0.396035 0.226722
Si Si4 0.034897 0.107104 0.422120
Si Si5 0.372950 0.146006 0.754386
Si Si6 0.630653 0.683701 0.134987
Si Si7 0.717949 0.713408 0.744342
Si Si8 0.227392 0.430010 0.955321
O O1 0.520610 0.790011 0.391062
O O2 0.187634 0.552746 0.210123
O O3 0.125917 0.077143 0.172981
O O4 0.000000 0.000000 0.000000
O O5 0.069041 0.045376 0.380012
O O6 0.423561 0.911668 0.526654
O O7 0.062974 0.421015 0.261145
O O8 0.624640 0.603704 0.311462
O O9 0.321847 0.374436 0.202689
O O10 0.284318 0.494763 0.049512
O O11 0.667146 0.092914 0.359671
O O12 0.904537 0.442145 0.306800
O O13 0.846601 0.995799 0.358066
O O14 0.330150 0.288030 0.776222
O O15 0.653654 0.898939 0.944971
O O16 0.411315 0.540186 0.013514
O O17 0.500000 0.000000 0.000000
#
# Coordination Sequence:
#
# PCOD9093216 Si02
#       8
#     2   2   2   2   2   2   2   2
#     4  10  21  41  69  97 120 148 196 253 309 365
#     4   9  21  35  60  87 118 156 202 258 299 362
#     4  10  22  36  54  85 118 166 196 252 294 364
#     4  10  20  36  50  83 111 158 218 251 296 345
#     4  10  21  31  53  73 119 163 206 248 293 349
#     4  10  20  32  51  74 113 163 205 258 296 344
#     4   9  22  39  67  94 119 155 195 249 302 366
#     4  10  21  37  50  84 118 160 205 242 305 354
#
# _framework density 26.676055000000002
#
# number of rings (size 3 to 8) (size 9 to 14) (size 15 to 20)
#    0.750    1.500    0.000    2.250    1.750   12.500 
#    0.000    0.000    0.000    1.500    0.000    0.000 
#    0.000    0.000    0.000    0.000    0.000    0.000 
#
# Total GULP energy -89190.443866 kJ/mol
# GULP energy per Si atom -5574.402742 kJ/mol
# Density = 2.661534 g / cm^3
# Si number density = 26.676055 Si / 1000 Ang^3
#
#
#
# Elastic Constant Matrix: (Units=GPa)
#
#
# Indices 1 2 3 4 5 6 
#
# 1 106.3257 34.1809 34.5605 0.3340 7.0220 22.6552
# 2 34.1809 166.7510 59.6233 -39.6073 16.5245 1.1052
# 3 34.5605 59.6233 191.1684 -20.4354 -6.8319 6.9079
# 4 0.3340 -39.6073 -20.4354 38.9303 -9.1428 10.1091
# 5 7.0220 16.5245 -6.8319 -9.1428 18.8601 4.5437
# 6 22.6552 1.1052 6.9079 10.1091 4.5437 33.1700
#
#
#
# Elastic Compliance Matrix: (Units=1/GPa)
#
#
# Indices 1 2 3 4 5 6 
#
# 1 0.012273 -0.002079 -0.001596 -0.001802 -0.002491 -0.007090
# 2 -0.002079 0.009318 -0.001873 0.007542 -0.004363 -0.000201
# 3 -0.001596 -0.001873 0.006897 0.004113 0.007340 -0.002543
# 4 -0.001802 0.007542 0.004113 0.044787 0.021223 -0.016433
# 5 -0.002491 -0.004363 0.007340 0.021223 0.074665 -0.016377
# 6 -0.007090 -0.000201 -0.002543 -0.016433 -0.016377 0.042779
#
#
# Mechanical properties :
#
#
# Convention : Reuss Voigt Hill
#
# Bulk Modulus (GPa) = 57.49452 80.10827 68.80139
# Shear Modulus (GPa) = 24.08330 40.58411 32.33371
#
# Velocity S-wave (km/s) = 3.00793 3.90470 3.48528
# Velocity P-wave (km/s) = 5.80200 7.10100 6.48411
#
# Compressibility (1/GPa) = 0.01739296
#
# Stress axis : x y z
#
# Youngs Moduli (GPa) = 81.47823 107.31866 144.98076
#
# Poissons Ratio (x) = 0.22316 0.23135
# Poissons Ratio (y) = 0.16943 0.27150
# Poissons Ratio (z) = 0.13002 0.20097
#
# Static dielectric constant tensor:
#      x y z
#    x 2.109800 0.043490 0.008430 
#    y 0.043490 2.211970 0.070360 
#    z 0.008430 0.070360 2.175790 
# 
# From -- ./inp_files/620080.got.cif
#   From: 2010.05.17/outbox.cif.g08.bks.cpg/sg2_311_cif.got.tgz:620080.got - 2010.06.03 11:33:40.
