data_PCOD9093717
_publ_section_title
;
Structure prediction by ZEFSAII (Michael W. Deem and Ramdas Pophale) SiO2 
 PCOD9093717
Probable space group: P -1
;
_chemical_formula_sum "Si O2"
_cell_formula_units_Z 12
_cell_length_a 7.492293
_cell_length_b 8.187079
_cell_length_c 11.396345
_cell_angle_alpha 82.618825
_cell_angle_beta 140.654632
_cell_angle_gamma 87.588655
_cell_volume 428.258598
_symmetry_space_group_name_H-M "P -1"
_symmetry_group_IT_number 2
_symmetry_cell_setting 'triclinic'
loop_
_space_group_symop_operation_xyz
x,y,z
-x,-y,-z
loop_
_atom_site_type_symbol
_atom_site_label
_atom_site_fract_x
_atom_site_fract_y
_atom_site_fract_z
Si Si1 0.335326 0.563563 0.086161
Si Si2 0.604251 0.179471 0.292285
Si Si3 0.455023 0.362146 0.584888
Si Si4 0.774385 0.944159 0.057763
Si Si5 0.906276 0.570369 0.238206
Si Si6 0.881797 0.902302 0.627131
O O1 0.432913 0.370406 0.199654
O O2 0.327353 0.668258 0.192252
O O3 0.594331 0.603381 0.136592
O O4 0.097423 0.548156 0.868552
O O5 0.851318 0.175403 0.318520
O O6 0.760801 0.086584 0.492422
O O7 0.381010 0.070978 0.141873
O O8 0.500000 0.500000 0.500000
O O9 0.370038 0.198252 0.502278
O O10 0.140679 0.471873 0.456515
O O11 0.935486 0.753176 0.192161
O O12 0.979523 0.070498 0.179738
O O13 0.500000 0.000000 0.000000
#
# Coordination Sequence:
#
# PCOD9093717 Si02
#       6
#     2   2   2   2   2   2
#     4  10  21  38  63  88 116 152 205 254 293 341
#     4   9  18  34  58  90 110 144 192 258 299 326
#     4  12  26  39  57  87 128 168 193 232 297 367
#     4   9  19  33  58  92 117 138 189 256 306 338
#     4  10  21  39  64  89 117 155 201 254 293 338
#     4  10  20  33  56  86 119 149 192 242 296 348
#
# _framework density 28.020454000000001
#
# number of rings (size 3 to 8) (size 9 to 14) (size 15 to 20)
#    0.000    2.000    1.667    1.500    9.333    0.667 
#    0.000    3.333    0.000    4.000    0.000    0.000 
#    0.000    0.000    0.000    0.000    0.000    0.000 
#
# Total GULP energy -67192.116318 kJ/mol
# GULP energy per Si atom -5599.343026 kJ/mol
# Density = 2.795668 g / cm^3
# Si number density = 28.020454 Si / 1000 Ang^3
#
#
#
# Elastic Constant Matrix: (Units=GPa)
#
#
# Indices 1 2 3 4 5 6 
#
# 1 90.2644 21.9320 23.2284 21.6694 -14.6807 11.2554
# 2 21.9320 125.2513 36.0464 43.3417 -16.1346 16.2669
# 3 23.2284 36.0464 161.7453 40.3237 -30.8010 5.8404
# 4 21.6694 43.3417 40.3237 70.1169 -14.7925 8.1794
# 5 -14.6807 -16.1346 -30.8010 -14.7925 20.4370 -6.9752
# 6 11.2554 16.2669 5.8404 8.1794 -6.9752 26.6488
#
#
#
# Elastic Compliance Matrix: (Units=1/GPa)
#
#
# Indices 1 2 3 4 5 6 
#
# 1 0.013112 -0.000336 0.000125 -0.002142 0.006794 -0.002925
# 2 -0.000336 0.010873 -0.000428 -0.005386 0.002393 -0.004122
# 3 0.000125 -0.000428 0.009231 -0.002717 0.012478 0.002285
# 4 -0.002142 -0.005386 -0.002717 0.020940 0.005174 -0.000285
# 5 0.006794 0.002393 0.012478 0.005174 0.082684 0.012989
# 6 -0.002925 -0.004122 0.002285 -0.000285 0.012989 0.044263
#
#
# Mechanical properties :
#
#
# Convention : Reuss Voigt Hill
#
# Bulk Modulus (GPa) = 31.30938 59.96385 45.63661
# Shear Modulus (GPa) = 25.90327 43.17748 34.54037
#
# Velocity S-wave (km/s) = 3.04376 3.92972 3.51477
# Velocity P-wave (km/s) = 4.85290 6.48358 5.72658
#
# Compressibility (1/GPa) = 0.03193931
#
# Stress axis : x y z
#
# Youngs Moduli (GPa) = 76.26713 91.97021 108.33227
#
# Poissons Ratio (x) = 0.03087 -0.01356
# Poissons Ratio (y) = 0.02560 0.04634
# Poissons Ratio (z) = -0.00955 0.03934
#
# Static dielectric constant tensor:
#      x y z
#    x 2.279270 -0.023940 0.110050 
#    y -0.023940 2.191220 0.052310 
#    z 0.110050 0.052310 2.160920 
# 
# From -- ./inp_files/145752.got.cif
#   From: 2010.05.17/outbox.cif.g08.bks.cpg/sg2_73_cif.got.tgz:145752.got - 2010.06.03 11:33:40.
