data_PCOD9093691
_publ_section_title
;
Structure prediction by ZEFSAII (Michael W. Deem and Ramdas Pophale) SiO2 
 PCOD9093691
Probable space group: P -1
;
_chemical_formula_sum "Si O2"
_cell_formula_units_Z 16
_cell_length_a 11.448896
_cell_length_b 9.398745
_cell_length_c 12.430348
_cell_angle_alpha 89.482319
_cell_angle_beta 129.853129
_cell_angle_gamma 127.639755
_cell_volume 632.190595
_symmetry_space_group_name_H-M "P -1"
_symmetry_group_IT_number 2
_symmetry_cell_setting 'triclinic'
loop_
_space_group_symop_operation_xyz
x,y,z
-x,-y,-z
loop_
_atom_site_type_symbol
_atom_site_label
_atom_site_fract_x
_atom_site_fract_y
_atom_site_fract_z
Si Si1 0.464755 0.789862 0.007649
Si Si2 0.557646 0.918495 0.687752
Si Si3 0.964569 0.389143 0.616923
Si Si4 0.061677 0.876527 0.240377
Si Si5 0.410740 0.510587 0.145932
Si Si6 0.758482 0.380045 0.791758
Si Si7 0.086217 0.201536 0.610276
Si Si8 0.806741 0.158831 0.050114
O O1 0.247858 0.645380 0.790754
O O2 0.726600 0.009140 0.106545
O O3 0.457368 0.635376 0.063304
O O4 0.376182 0.840173 0.042017
O O5 0.268075 0.683152 0.534095
O O6 0.674588 0.911214 0.660942
O O7 0.597408 0.118536 0.682494
O O8 0.720300 0.020182 0.890518
O O9 0.939795 0.290442 0.719326
O O10 0.946519 0.248819 0.520056
O O11 0.968386 0.875405 0.295677
O O12 0.857973 0.751602 0.029895
O O13 0.392822 0.611846 0.230866
O O14 0.636964 0.570329 0.271911
O O15 0.000000 0.500000 0.000000
O O16 0.912393 0.579476 0.790259
O O17 0.000000 0.000000 0.500000
#
# Coordination Sequence:
#
# PCOD9093691 Si02
#       8
#     2   2   2   2   2   2   2   2
#     4  10  20  34  50  83 110 148 168 216 268 324
#     4  11  17  33  54  82 111 140 168 230 270 310
#     4   9  21  33  52  81 113 137 175 222 269 315
#     4   9  19  30  50  79 106 129 176 219 270 303
#     4  11  17  35  56  75 109 139 176 223 260 310
#     4  10  16  29  55  80 102 134 174 222 264 306
#     4  10  22  33  50  83 103 140 181 223 266 313
#     4  10  20  32  53  80 116 134 182 208 270 330
#
# _framework density 25.308823
#
# number of rings (size 3 to 8) (size 9 to 14) (size 15 to 20)
#    0.750    1.250    5.000    2.250    0.000    0.500 
#    0.000    0.000    0.000    3.000    0.000    2.625 
#    0.000    0.000    0.000    0.000    0.000    0.000 
#
# Total GULP energy -89240.462625 kJ/mol
# GULP energy per Si atom -5577.528914 kJ/mol
# Density = 2.525122 g / cm^3
# Si number density = 25.308823 Si / 1000 Ang^3
#
#
#
# Elastic Constant Matrix: (Units=GPa)
#
#
# Indices 1 2 3 4 5 6 
#
# 1 159.0304 18.3247 28.2606 5.0932 9.5264 32.3926
# 2 18.3247 57.1404 11.5661 18.0401 12.4194 21.8297
# 3 28.2606 11.5661 54.3771 13.3868 8.2345 2.6916
# 4 5.0932 18.0401 13.3868 19.6256 4.6614 5.6968
# 5 9.5264 12.4194 8.2345 4.6614 43.7380 4.7064
# 6 32.3926 21.8297 2.6916 5.6968 4.7064 28.2972
#
#
#
# Elastic Compliance Matrix: (Units=1/GPa)
#
#
# Indices 1 2 3 4 5 6 
#
# 1 0.009480 0.001879 -0.005422 0.003233 -0.000595 -0.012339
# 2 0.001879 0.034449 -0.000508 -0.023921 -0.005069 -0.023020
# 3 -0.005422 -0.000508 0.025557 -0.017305 -0.002510 0.008069
# 4 0.003233 -0.023921 -0.017305 0.083967 0.000460 -0.000582
# 5 -0.000595 -0.005069 -0.002510 0.000460 0.024790 0.000614
# 6 -0.012339 -0.023020 0.008069 -0.000582 0.000614 0.066470
#
#
# Mechanical properties :
#
#
# Convention : Reuss Voigt Hill
#
# Bulk Modulus (GPa) = 16.29052 42.98339 29.63695
# Shear Modulus (GPa) = 18.29651 32.49192 25.39422
#
# Velocity S-wave (km/s) = 2.69165 3.58693 3.17104
# Velocity P-wave (km/s) = 4.01381 5.84595 5.01427
#
# Compressibility (1/GPa) = 0.06138539
#
# Stress axis : x y z
#
# Youngs Moduli (GPa) = 105.48096 29.02807 39.12828
#
# Poissons Ratio (x) = -0.05456 0.21216
# Poissons Ratio (y) = -0.19824 0.01988
# Poissons Ratio (z) = 0.57193 0.01475
#
# Static dielectric constant tensor:
#      x y z
#    x 2.017000 0.024010 -0.020340 
#    y 0.024010 2.082120 0.031600 
#    z -0.020340 0.031600 2.093610 
# 
# From -- ./inp_files/277021.got.cif
#   From: 2010.05.17/outbox.cif.g08.bks.cpg/sg2_139_cif.got.tgz:277021.got - 2010.06.03 11:33:40.
