data_PCOD9093079
_publ_section_title
;
Structure prediction by ZEFSAII (Michael W. Deem and Ramdas Pophale) SiO2 
 PCOD9093079
Probable space group: P -1
;
_chemical_formula_sum "Si O2"
_cell_formula_units_Z 14
_cell_length_a 8.961883
_cell_length_b 7.018795
_cell_length_c 16.519562
_cell_angle_alpha 69.322582
_cell_angle_beta 46.384676
_cell_angle_gamma 53.828710
_cell_volume 604.699256
_symmetry_space_group_name_H-M "P -1"
_symmetry_group_IT_number 2
_symmetry_cell_setting 'triclinic'
loop_
_space_group_symop_operation_xyz
x,y,z
-x,-y,-z
loop_
_atom_site_type_symbol
_atom_site_label
_atom_site_fract_x
_atom_site_fract_y
_atom_site_fract_z
Si Si1 0.238397 0.827690 0.856699
Si Si2 0.339440 0.370018 0.384348
Si Si3 0.685062 0.034646 0.035233
Si Si4 0.347227 0.253323 0.568145
Si Si5 0.562011 0.674158 0.055893
Si Si6 0.199021 0.971878 0.491811
Si Si7 0.927172 0.202043 0.705464
O O1 0.385413 0.759417 0.729003
O O2 0.339117 0.950330 0.860986
O O3 0.301929 0.590166 0.919887
O O4 0.954430 0.983480 0.928868
O O5 0.303826 0.428905 0.483967
O O6 0.233194 0.198962 0.433812
O O7 0.207297 0.591256 0.341844
O O8 0.672798 0.818474 0.033193
O O9 0.474168 0.270452 0.034837
O O10 0.100290 0.266331 0.681009
O O11 0.500000 0.000000 0.500000
O O12 0.522142 0.238051 0.575467
O O13 0.284591 0.800021 0.168760
O O14 0.090955 0.978163 0.620725
O O15 0.000000 0.000000 0.500000
#
# Coordination Sequence:
#
# PCOD9093079 Si02
#       7
#     2   2   2   2   2   2   2
#     4  10  21  37  58  83 112 148 188 228 280 329
#     4   9  18  34  54  74 104 143 177 212 271 331
#     4  10  22  36  58  82 114 146 188 236 274 326
#     4   8  16  31  52  75 100 139 175 208 264 339
#     4  10  21  37  58  83 112 148 188 228 280 329
#     4  10  20  31  52  81 106 133 174 228 258 328
#     4   9  18  34  54  74 104 143 177 212 271 331
#
# _framework density 23.152002
#
# number of rings (size 3 to 8) (size 9 to 14) (size 15 to 20)
#    0.000    2.857    0.000    2.571    8.000    0.000 
#    0.000    2.857    0.000    6.857    0.000    0.000 
#    0.000    0.000    0.000    0.000    0.000    0.000 
#
# Total GULP energy -78063.012136 kJ/mol
# GULP energy per Si atom -5575.929438 kJ/mol
# Density = 2.309931 g / cm^3
# Si number density = 23.152002 Si / 1000 Ang^3
#
#
#
# Elastic Constant Matrix: (Units=GPa)
#
#
# Indices 1 2 3 4 5 6 
#
# 1 161.4081 15.2418 16.8454 -12.5125 -20.7522 -21.2986
# 2 15.2418 42.2262 -14.4547 -9.6210 3.1676 -15.6055
# 3 16.8454 -14.4547 63.6285 7.3350 -10.0759 -4.3032
# 4 -12.5125 -9.6210 7.3350 25.2965 -5.4266 0.3013
# 5 -20.7522 3.1676 -10.0759 -5.4266 19.8603 -3.8769
# 6 -21.2986 -15.6055 -4.3032 0.3013 -3.8769 31.9628
#
#
#
# Elastic Compliance Matrix: (Units=1/GPa)
#
#
# Indices 1 2 3 4 5 6 
#
# 1 0.009626 -0.000125 -0.000837 0.007713 0.013280 0.007779
# 2 -0.000125 0.036399 0.009145 0.012149 0.005831 0.019512
# 3 -0.000837 0.009145 0.020085 -0.000896 0.009120 0.007726
# 4 0.007713 0.012149 -0.000896 0.052941 0.022710 0.013206
# 5 0.013280 0.005831 0.009120 0.022710 0.078469 0.022228
# 6 0.007779 0.019512 0.007726 0.013206 0.022228 0.049608
#
#
# Mechanical properties :
#
#
# Convention : Reuss Voigt Hill
#
# Bulk Modulus (GPa) = 12.12490 33.61419 22.86955
# Shear Modulus (GPa) = 19.36063 32.06595 25.71329
#
# Velocity S-wave (km/s) = 2.89492 3.72562 3.33623
# Velocity P-wave (km/s) = 4.05247 5.74956 4.97393
#
# Compressibility (1/GPa) = 0.08247488
#
# Stress axis : x y z
#
# Youngs Moduli (GPa) = 103.88067 27.47324 49.78787
#
# Poissons Ratio (x) = 0.00344 0.04168
# Poissons Ratio (y) = 0.01303 -0.45529
# Poissons Ratio (z) = 0.08696 -0.25123
#
# Static dielectric constant tensor:
#      x y z
#    x 1.924560 -0.014680 0.058170 
#    y -0.014680 2.017480 0.016990 
#    z 0.058170 0.016990 1.920750 
# 
# From -- ./inp_files/197747.got.cif
#   From: 2010.05.17/outbox.cif.g08.bks.cpg/sg2_99_cif.got.tgz:197747.got - 2010.06.03 11:33:40.
