data_PCOD9093294
_publ_section_title
;
Structure prediction by ZEFSAII (Michael W. Deem and Ramdas Pophale) SiO2 
 PCOD9093294
Probable space group: P -1
;
_chemical_formula_sum "Si O2"
_cell_formula_units_Z 15
_cell_length_a 20.525457
_cell_length_b 12.230792
_cell_length_c 17.546321
_cell_angle_alpha 36.089867
_cell_angle_beta 160.139546
_cell_angle_gamma 152.733749
_cell_volume 674.446903
_symmetry_space_group_name_H-M "P -1"
_symmetry_group_IT_number 2
_symmetry_cell_setting 'triclinic'
loop_
_space_group_symop_operation_xyz
x,y,z
-x,-y,-z
loop_
_atom_site_type_symbol
_atom_site_label
_atom_site_fract_x
_atom_site_fract_y
_atom_site_fract_z
Si Si1 0.656991 0.466266 0.137120
Si Si2 0.851511 0.328933 0.192757
Si Si3 0.000000 0.000000 0.500000
Si Si4 0.600247 0.737757 0.342631
Si Si5 0.270261 0.826948 0.287647
Si Si6 0.371685 0.217483 0.363880
Si Si7 0.209947 0.810952 0.620046
Si Si8 0.175453 0.178950 0.999350
O O1 0.608768 0.218981 0.208504
O O2 0.647452 0.563913 0.990968
O O3 0.940626 0.651189 0.374612
O O4 0.500000 0.500000 0.000000
O O5 0.840990 0.307582 0.284849
O O6 0.057620 0.596210 0.233689
O O7 0.919914 0.167929 0.328950
O O8 0.592008 0.248336 0.921976
O O9 0.829064 0.839938 0.479400
O O10 0.457626 0.458951 0.363197
O O11 0.687904 0.919280 0.407005
O O12 0.390826 0.769591 0.389321
O O13 0.500000 0.000000 0.500000
O O14 0.193646 0.986186 0.090249
O O15 0.276213 0.225750 0.169861
O O16 0.117753 0.954086 0.257077
#
# Coordination Sequence:
#
# PCOD9093294 Si02
#       8
#     2   2   1   2   2   2   2   2
#     4  11  26  44  63  85 121 170 210 251 299 371
#     4  11  21  37  61  97 129 155 200 256 316 359
#     4  10  20  32  54  90 128 162 182 240 314 374
#     4  11  21  38  61  94 128 157 200 256 316 363
#     4  10  21  33  59  94 125 156 193 249 305 367
#     4  10  20  37  64  94 123 153 192 265 310 365
#     4  10  25  40  60  89 121 164 206 253 299 370
#     4  10  22  38  62  92 121 159 208 246 310 361
#
# _framework density 22.240445999999999
#
# number of rings (size 3 to 8) (size 9 to 14) (size 15 to 20)
#    0.000    1.600    2.667    2.400    7.467    5.333 
#    0.000    0.667    0.000    1.600    0.000    0.000 
#    0.000    0.000    0.000    0.000    0.000    0.000 
#
# Total GULP energy -83515.900332 kJ/mol
# GULP energy per Si atom -5567.726689 kJ/mol
# Density = 2.218983 g / cm^3
# Si number density = 22.240446 Si / 1000 Ang^3
#
#
#
# Elastic Constant Matrix: (Units=GPa)
#
#
# Indices 1 2 3 4 5 6 
#
# 1 68.9549 21.4939 23.0102 -8.1743 30.6533 -23.4537
# 2 21.4939 91.5490 5.7479 -8.7220 22.5705 -31.7053
# 3 23.0102 5.7479 38.5332 -6.5196 16.9618 -13.9728
# 4 -8.1743 -8.7220 -6.5196 27.1098 -7.6488 10.5256
# 5 30.6533 22.5705 16.9618 -7.6488 35.4440 -10.0910
# 6 -23.4537 -31.7053 -13.9728 10.5256 -10.0910 36.2481
#
#
#
# Elastic Compliance Matrix: (Units=1/GPa)
#
#
# Indices 1 2 3 4 5 6 
#
# 1 0.029418 0.004213 -0.002796 -0.003188 -0.022861 0.016203
# 2 0.004213 0.019587 0.007710 -0.002266 -0.014779 0.019374
# 3 -0.002796 0.007710 0.039577 0.000408 -0.016974 0.015347
# 4 -0.003188 -0.002266 0.000408 0.043327 0.009412 -0.013848
# 5 -0.022861 -0.014779 -0.016974 0.009412 0.061926 -0.019756
# 6 0.016203 0.019374 0.015347 -0.013848 -0.019756 0.059455
#
#
# Mechanical properties :
#
#
# Convention : Reuss Voigt Hill
#
# Bulk Modulus (GPa) = 9.36011 33.28233 21.32122
# Shear Modulus (GPa) = 18.47409 29.67938 24.07673
#
# Velocity S-wave (km/s) = 2.88523 3.65701 3.29381
# Velocity P-wave (km/s) = 3.91371 5.72965 4.90643
#
# Compressibility (1/GPa) = 0.10683633
#
# Stress axis : x y z
#
# Youngs Moduli (GPa) = 33.99252 51.05305 25.26714
#
# Poissons Ratio (x) = -0.21507 0.07065
# Poissons Ratio (y) = -0.14320 -0.19482
# Poissons Ratio (z) = 0.09505 -0.39363
#
# Static dielectric constant tensor:
#      x y z
#    x 1.900830 -0.011360 -0.017110 
#    y -0.011360 1.854980 -0.006840 
#    z -0.017110 -0.006840 1.862100 
# 
# From -- ./inp_files/577970.got.cif
#   From: 2010.05.17/outbox.cif.g08.bks.cpg/sg2_289_cif.got.tgz:577970.got - 2010.06.03 11:33:40.
