data_PCOD9093055
_publ_section_title
;
Structure prediction by ZEFSAII (Michael W. Deem and Ramdas Pophale) SiO2 
 PCOD9093055
Probable space group: P -1
;
_chemical_formula_sum "Si O2"
_cell_formula_units_Z 16
_cell_length_a 11.515999
_cell_length_b 18.133596
_cell_length_c 20.141822
_cell_angle_alpha 160.292494
_cell_angle_beta 139.980266
_cell_angle_gamma 36.515387
_cell_volume 843.109338
_symmetry_space_group_name_H-M "P -1"
_symmetry_group_IT_number 2
_symmetry_cell_setting 'triclinic'
loop_
_space_group_symop_operation_xyz
x,y,z
-x,-y,-z
loop_
_atom_site_type_symbol
_atom_site_label
_atom_site_fract_x
_atom_site_fract_y
_atom_site_fract_z
Si Si1 0.483974 0.968508 0.130722
Si Si2 0.710761 0.974440 0.040357
Si Si3 0.028894 0.544541 0.243605
Si Si4 0.694611 0.261410 0.393438
Si Si5 0.463884 0.947789 0.638673
Si Si6 0.658517 0.442388 0.818883
Si Si7 0.407930 0.381984 0.912743
Si Si8 0.025780 0.239589 0.733070
O O1 0.414351 0.114736 0.292938
O O2 0.633621 0.075073 0.252308
O O3 0.321033 0.002609 0.032323
O O4 0.563791 0.690168 0.948005
O O5 0.759357 0.163739 0.265183
O O6 0.500000 0.000000 0.000000
O O7 0.866289 0.720647 0.911500
O O8 0.132214 0.691279 0.453724
O O9 0.070108 0.575776 0.211069
O O10 0.796738 0.617230 0.205186
O O11 0.500000 0.500000 0.500000
O O12 0.258687 0.141071 0.743532
O O13 0.418879 0.744389 0.408452
O O14 0.529965 0.108023 0.753630
O O15 0.618130 0.477788 0.909613
O O16 0.894369 0.341342 0.826066
O O17 0.500000 0.500000 0.000000
O O18 0.000000 0.000000 0.500000
#
# Coordination Sequence:
#
# PCOD9093055 Si02
#       8
#     2   2   2   2   2   2   2   2
#     4  10  20  31  51  81 119 150 185 218 271 357
#     4  10  20  31  49  82 116 154 186 213 280 341
#     4  11  21  35  55  81 121 155 181 238 282 337
#     4  11  20  31  49  82 124 157 179 216 276 350
#     4   9  20  35  58  85 110 151 188 235 296 341
#     4  10  20  35  58  81 114 154 182 238 293 338
#     4  10  24  42  59  83 110 149 207 246 280 330
#     4   9  17  30  50  81 113 140 181 219 282 355
#
# _framework density 18.977371999999999
#
# number of rings (size 3 to 8) (size 9 to 14) (size 15 to 20)
#    0.000    2.000    2.500    3.000    1.750   10.000 
#    0.000    0.000    0.000    3.000    0.000    5.250 
#    0.000    0.000    0.000    0.000    0.000    0.000 
#
# Total GULP energy -89103.204207 kJ/mol
# GULP energy per Si atom -5568.950263 kJ/mol
# Density = 1.893418 g / cm^3
# Si number density = 18.977372 Si / 1000 Ang^3
#
#
#
# Elastic Constant Matrix: (Units=GPa)
#
#
# Indices 1 2 3 4 5 6 
#
# 1 74.0949 34.2843 49.5801 -3.5146 8.3512 28.3416
# 2 34.2843 95.6795 50.5221 -9.5125 -6.4582 32.1945
# 3 49.5801 50.5221 136.8859 -17.1929 -8.9678 30.0891
# 4 -3.5146 -9.5125 -17.1929 38.0449 8.1658 -3.8116
# 5 8.3512 -6.4582 -8.9678 8.1658 24.5150 -0.0416
# 6 28.3416 32.1945 30.0891 -3.8116 -0.0416 22.4431
#
#
#
# Elastic Compliance Matrix: (Units=1/GPa)
#
#
# Indices 1 2 3 4 5 6 
#
# 1 0.030668 0.003210 -0.004965 0.000197 -0.011546 -0.036664
# 2 0.003210 0.021391 -0.001569 0.000908 0.003611 -0.032474
# 3 -0.004965 -0.001569 0.011856 0.002815 0.004666 -0.006888
# 4 0.000197 0.000908 0.002815 0.029632 -0.008669 -0.000308
# 5 -0.011546 0.003611 0.004666 -0.008669 0.050273 0.001767
# 6 -0.036664 -0.032474 -0.006888 -0.000308 0.001767 0.146625
#
#
# Mechanical properties :
#
#
# Convention : Reuss Voigt Hill
#
# Bulk Modulus (GPa) = 17.46234 63.93704 40.69969
# Shear Modulus (GPa) = 15.81365 28.48552 22.14959
#
# Velocity S-wave (km/s) = 2.88981 3.87851 3.42008
# Velocity P-wave (km/s) = 4.51179 7.33631 6.09006
#
# Compressibility (1/GPa) = 0.05726611
#
# Stress axis : x y z
#
# Youngs Moduli (GPa) = 32.60712 46.74927 84.34484
#
# Poissons Ratio (x) = -0.15005 0.41879
# Poissons Ratio (y) = -0.10466 0.13232
# Poissons Ratio (z) = 0.16190 0.07334
#
# Static dielectric constant tensor:
#      x y z
#    x 1.675470 0.021310 0.001960 
#    y 0.021310 1.729450 -0.019620 
#    z 0.001960 -0.019620 1.753260 
# 
# From -- ./inp_files/579732.got.cif
#   From: 2010.05.17/outbox.cif.g08.bks.cpg/sg2_290_cif.got.tgz:579732.got - 2010.06.03 11:33:40.
