data_PCOD9093622
_publ_section_title
;
Structure prediction by ZEFSAII (Michael W. Deem and Ramdas Pophale) SiO2 
 PCOD9093622
Probable space group: P -1
;
_chemical_formula_sum "Si O2"
_cell_formula_units_Z 16
_cell_length_a 13.898916
_cell_length_b 19.937081
_cell_length_c 11.701977
_cell_angle_alpha 33.907200
_cell_angle_beta 123.235090
_cell_angle_gamma 147.591355
_cell_volume 833.705513
_symmetry_space_group_name_H-M "P -1"
_symmetry_group_IT_number 2
_symmetry_cell_setting 'triclinic'
loop_
_space_group_symop_operation_xyz
x,y,z
-x,-y,-z
loop_
_atom_site_type_symbol
_atom_site_label
_atom_site_fract_x
_atom_site_fract_y
_atom_site_fract_z
Si Si1 0.974171 0.881680 0.500400
Si Si2 0.501101 0.356955 0.676104
Si Si3 0.365641 0.518309 0.659323
Si Si4 0.136990 0.452545 0.222467
Si Si5 0.599750 0.532026 0.902603
Si Si6 0.954533 0.033665 0.040861
Si Si7 0.562300 0.808572 0.597404
Si Si8 0.690232 0.148946 0.328061
O O1 0.882334 0.671827 0.703991
O O2 0.821461 0.774766 0.659865
O O3 0.958201 0.954733 0.273507
O O4 0.213765 0.063481 0.429231
O O5 0.500000 0.500000 0.500000
O O6 0.511824 0.340157 0.573162
O O7 0.704864 0.468541 0.697139
O O8 0.278236 0.119466 0.910689
O O9 0.438625 0.443218 0.832237
O O10 0.443777 0.670051 0.599175
O O11 0.120670 0.285601 0.810723
O O12 0.895543 0.271716 0.350259
O O13 0.236514 0.660983 0.944930
O O14 0.500000 0.500000 0.000000
O O15 0.581147 0.375189 0.136505
O O16 0.000000 0.000000 0.000000
O O17 0.614784 0.991075 0.403246
O O18 0.500000 0.000000 0.500000
#
# Coordination Sequence:
#
# PCOD9093622 Si02
#       8
#     2   2   2   2   2   2   2   2
#     4  11  20  36  60  86 126 162 201 254 311 364
#     4  12  22  39  62  89 132 166 198 255 310 375
#     4  11  22  37  54  91 128 162 209 246 308 382
#     4  10  22  39  63  94 115 158 212 255 312 368
#     4  10  20  33  54  84 124 163 200 242 302 373
#     4  12  23  34  58  89 124 169 206 239 302 374
#     4  10  23  38  60  88 122 165 208 261 311 366
#     4  10  22  42  68  89 116 157 214 268 310 362
#
# _framework density 19.191428999999999
#
# number of rings (size 3 to 8) (size 9 to 14) (size 15 to 20)
#    0.000    1.250    5.000    0.750    0.000    7.000 
#    0.000    0.625    0.000    1.500    0.000    0.000 
#    0.000    0.000    0.000    0.000    0.000    0.000 
#
# Total GULP energy -89071.796596 kJ/mol
# GULP energy per Si atom -5566.987287 kJ/mol
# Density = 1.914775 g / cm^3
# Si number density = 19.191429 Si / 1000 Ang^3
#
#
#
# Elastic Constant Matrix: (Units=GPa)
#
#
# Indices 1 2 3 4 5 6 
#
# 1 85.0089 39.1583 40.0270 0.0700 -14.7548 -5.3861
# 2 39.1583 98.4210 22.0106 -13.0620 -8.0636 -4.6264
# 3 40.0270 22.0106 71.8134 -15.0473 -10.1910 -9.7197
# 4 0.0700 -13.0620 -15.0473 30.8634 1.6167 6.0709
# 5 -14.7548 -8.0636 -10.1910 1.6167 41.2629 -6.7951
# 6 -5.3861 -4.6264 -9.7197 6.0709 -6.7951 27.5129
#
#
#
# Elastic Compliance Matrix: (Units=1/GPa)
#
#
# Indices 1 2 3 4 5 6 
#
# 1 0.020501 -0.006530 -0.010313 -0.008487 0.004200 0.002182
# 2 -0.006530 0.013398 0.000843 0.006084 0.000252 -0.000008
# 3 -0.010313 0.000843 0.022513 0.010374 0.002350 0.004368
# 4 -0.008487 0.006084 0.010374 0.041459 -0.001997 -0.006615
# 5 0.004200 0.000252 0.002350 -0.001997 0.027932 0.009034
# 6 0.002182 -0.000008 0.004368 -0.006615 0.009034 0.042006
#
#
# Mechanical properties :
#
#
# Convention : Reuss Voigt Hill
#
# Bulk Modulus (GPa) = 40.96284 50.84833 45.90559
# Shear Modulus (GPa) = 24.04465 30.19768 27.12117
#
# Velocity S-wave (km/s) = 3.54345 3.97104 3.76332
# Velocity P-wave (km/s) = 6.17512 6.89771 6.54639
#
# Compressibility (1/GPa) = 0.02441237
#
# Stress axis : x y z
#
# Youngs Moduli (GPa) = 48.77697 74.63895 44.41898
#
# Poissons Ratio (x) = 0.48741 0.45807
# Poissons Ratio (y) = 0.31853 -0.03744
# Poissons Ratio (z) = 0.50301 -0.06291
#
# Static dielectric constant tensor:
#      x y z
#    x 1.715870 -0.002120 -0.017800 
#    y -0.002120 1.805580 0.004670 
#    z -0.017800 0.004670 1.722370 
# 
# From -- ./inp_files/457436.got.cif
#   From: 2010.05.17/outbox.cif.g08.bks.cpg/sg2_229_cif.got.tgz:457436.got - 2010.06.03 11:33:40.
