data_PCOD9093669
_publ_section_title
;
Structure prediction by ZEFSAII (Michael W. Deem and Ramdas Pophale) SiO2 
 PCOD9093669
Probable space group: P -1
;
_chemical_formula_sum "Si O2"
_cell_formula_units_Z 16
_cell_length_a 22.042684
_cell_length_b 8.881502
_cell_length_c 30.986576
_cell_angle_alpha 137.033256
_cell_angle_beta 9.784615
_cell_angle_gamma 136.851790
_cell_volume 700.773869
_symmetry_space_group_name_H-M "P -1"
_symmetry_group_IT_number 2
_symmetry_cell_setting 'triclinic'
loop_
_space_group_symop_operation_xyz
x,y,z
-x,-y,-z
loop_
_atom_site_type_symbol
_atom_site_label
_atom_site_fract_x
_atom_site_fract_y
_atom_site_fract_z
Si Si1 0.460516 0.286920 0.110184
Si Si2 0.736877 0.417869 0.614727
Si Si3 0.745038 0.609738 0.312584
Si Si4 0.896727 0.480759 0.773165
Si Si5 0.859849 0.773216 0.072913
Si Si6 0.325274 0.942671 0.008898
Si Si7 0.333908 0.896814 0.534999
Si Si8 0.170015 0.709179 0.310334
O O1 0.432123 0.507965 0.206306
O O2 0.068056 0.268277 0.360161
O O3 0.802695 0.329360 0.848464
O O4 0.521426 0.086169 0.057468
O O5 0.459306 0.311359 0.753092
O O6 0.913073 0.642261 0.515823
O O7 0.500000 0.500000 0.500000
O O8 0.618699 0.842372 0.430523
O O9 0.125107 0.709916 0.086743
O O10 0.847223 0.408606 0.168771
O O11 0.005098 0.360800 0.627871
O O12 0.161410 0.696206 0.642615
O O13 0.504536 0.561450 0.054138
O O14 0.691267 0.825338 0.247893
O O15 0.000000 0.000000 0.000000
O O16 0.986914 0.094251 0.274318
O O17 0.624125 0.050834 0.789824
#
# Coordination Sequence:
#
# PCOD9093669 Si02
#       8
#     2   2   2   2   2   2   2   2
#     4  10  20  33  55  84 132 152 183 239 311 354
#     4  10  20  35  53  89 117 155 195 237 295 356
#     4  10  20  36  57  89 115 142 208 251 280 342
#     4   9  17  32  54  81 115 160 187 232 297 353
#     4  12  20  36  63  85 114 154 204 250 285 335
#     4   9  19  34  53  88 117 153 192 238 296 346
#     4   9  19  35  59  87 111 156 199 238 285 346
#     4   9  17  31  54  80 115 154 201 237 279 352
#
# _framework density 22.831900999999998
#
# number of rings (size 3 to 8) (size 9 to 14) (size 15 to 20)
#    0.750    1.500    3.750    0.000    1.750    1.000 
#    0.000    0.000    0.000    3.000    0.000    3.500 
#    0.000    0.000    0.000    0.000    0.000    0.000 
#
# Total GULP energy -89153.389393 kJ/mol
# GULP energy per Si atom -5572.086837 kJ/mol
# Density = 2.277993 g / cm^3
# Si number density = 22.831901 Si / 1000 Ang^3
#
#
#
# Elastic Constant Matrix: (Units=GPa)
#
#
# Indices 1 2 3 4 5 6 
#
# 1 51.8310 9.2661 12.7403 -9.3896 8.6399 -3.7100
# 2 9.2661 102.6272 32.2313 -16.6929 13.7321 6.0734
# 3 12.7403 32.2313 60.4297 -3.6447 20.6982 4.0008
# 4 -9.3896 -16.6929 -3.6447 40.7303 -3.4377 12.7894
# 5 8.6399 13.7321 20.6982 -3.4377 30.0692 -2.2786
# 6 -3.7100 6.0734 4.0008 12.7894 -2.2786 25.9626
#
#
#
# Elastic Compliance Matrix: (Units=1/GPa)
#
#
# Indices 1 2 3 4 5 6 
#
# 1 0.021462 0.000124 -0.003258 0.004023 -0.003425 0.001258
# 2 0.000124 0.013135 -0.005649 0.006493 -0.001824 -0.005543
# 3 -0.003258 -0.005649 0.025372 -0.000771 -0.014335 -0.003932
# 4 0.004023 0.006493 -0.000771 0.033441 -0.001085 -0.017394
# 5 -0.003425 -0.001824 -0.014335 -0.001085 0.045322 0.006658
# 6 0.001258 -0.005543 -0.003932 -0.017394 0.006658 0.049752
#
#
# Mechanical properties :
#
#
# Convention : Reuss Voigt Hill
#
# Bulk Modulus (GPa) = 23.58362 35.92926 29.75644
# Shear Modulus (GPa) = 22.70826 30.06244 26.38535
#
# Velocity S-wave (km/s) = 3.15712 3.63255 3.40315
# Velocity P-wave (km/s) = 4.86226 5.77620 5.33882
#
# Compressibility (1/GPa) = 0.04240232
#
# Stress axis : x y z
#
# Youngs Moduli (GPa) = 46.59405 76.13226 39.41399
#
# Poissons Ratio (x) = -0.00942 0.12842
# Poissons Ratio (y) = -0.00576 0.22264
# Poissons Ratio (z) = 0.15181 0.43005
#
# Static dielectric constant tensor:
#      x y z
#    x 1.908730 0.034220 0.006730 
#    y 0.034220 1.933950 0.054840 
#    z 0.006730 0.054840 1.867430 
# 
# From -- ./inp_files/624011.got.cif
#   From: 2010.05.17/outbox.cif.g08.bks.cpg/sg2_313_cif.got.tgz:624011.got - 2010.06.03 11:33:40.
