data_PCOD9093362
_publ_section_title
;
Structure prediction by ZEFSAII (Michael W. Deem and Ramdas Pophale) SiO2 
 PCOD9093362
Probable space group: P -1
;
_chemical_formula_sum "Si O2"
_cell_formula_units_Z 16
_cell_length_a 9.296053
_cell_length_b 10.865093
_cell_length_c 14.703980
_cell_angle_alpha 123.172640
_cell_angle_beta 139.538356
_cell_angle_gamma 83.289327
_cell_volume 673.037267
_symmetry_space_group_name_H-M "P -1"
_symmetry_group_IT_number 2
_symmetry_cell_setting 'triclinic'
loop_
_space_group_symop_operation_xyz
x,y,z
-x,-y,-z
loop_
_atom_site_type_symbol
_atom_site_label
_atom_site_fract_x
_atom_site_fract_y
_atom_site_fract_z
Si Si1 0.435683 0.551882 0.393072
Si Si2 0.615278 0.881021 0.509066
Si Si3 0.170291 0.985287 0.824519
Si Si4 0.090052 0.429009 0.435025
Si Si5 0.631387 0.756990 0.280716
Si Si6 0.779939 0.095208 0.380145
Si Si7 0.127220 0.631028 0.889535
Si Si8 0.262393 0.024665 0.089446
O O1 0.500000 0.500000 0.500000
O O2 0.561206 0.759107 0.521200
O O3 0.598658 0.499853 0.386145
O O4 0.122107 0.458921 0.198113
O O5 0.523579 0.747534 0.326107
O O6 0.930203 0.007920 0.700818
O O7 0.500000 0.000000 0.500000
O O8 0.303200 0.009890 0.800255
O O9 0.053409 0.780326 0.704519
O O10 0.283417 0.071303 0.011213
O O11 0.000000 0.500000 0.500000
O O12 0.986109 0.449399 0.296459
O O13 0.902236 0.760668 0.413320
O O14 0.734546 0.954974 0.377371
O O15 0.380032 0.630882 0.045139
O O16 0.571101 0.149574 0.319897
O O17 0.208671 0.831963 0.002376
O O18 0.000000 0.000000 0.000000
#
# Coordination Sequence:
#
# PCOD9093362 Si02
#       8
#     2   2   2   2   2   2   2   2
#     4   9  19  39  61  90 124 163 209 269 320 370
#     4  10  21  36  62  89 127 167 212 257 316 384
#     4   9  19  35  55  86 123 158 208 264 311 367
#     4   9  18  35  59  86 119 164 210 260 314 371
#     4   9  19  36  58  82 121 168 203 251 321 380
#     4   9  18  35  55  81 118 168 201 250 315 376
#     4   9  19  36  57  88 124 159 208 262 311 378
#     4  10  20  32  57  92 126 157 208 270 317 371
#
# _framework density 23.772829000000002
#
# number of rings (size 3 to 8) (size 9 to 14) (size 15 to 20)
#    0.000    2.750    0.000    1.125    3.500    1.500 
#    4.500    0.000    2.750    6.750    0.000    0.000 
#    0.000    0.000    0.000    0.000    0.000    0.000 
#
# Total GULP energy -89220.520685 kJ/mol
# GULP energy per Si atom -5576.282543 kJ/mol
# Density = 2.371872 g / cm^3
# Si number density = 23.772829 Si / 1000 Ang^3
#
#
#
# Elastic Constant Matrix: (Units=GPa)
#
#
# Indices 1 2 3 4 5 6 
#
# 1 163.5879 46.2943 69.3898 -27.7889 28.2338 -19.6378
# 2 46.2943 87.0655 19.4918 -17.6904 5.4689 -13.6648
# 3 69.3898 19.4918 119.3226 -33.4818 28.0980 -24.0660
# 4 -27.7889 -17.6904 -33.4818 36.8472 -3.3922 7.5475
# 5 28.2338 5.4689 28.0980 -3.3922 38.9990 -16.0296
# 6 -19.6378 -13.6648 -24.0660 7.5475 -16.0296 39.6997
#
#
#
# Elastic Compliance Matrix: (Units=1/GPa)
#
#
# Indices 1 2 3 4 5 6 
#
# 1 0.009667 -0.003792 -0.003683 0.001906 -0.003939 -0.000709
# 2 -0.003792 0.014660 0.001631 0.005018 0.001521 0.003819
# 3 -0.003683 0.001631 0.015477 0.010765 -0.006331 0.003519
# 4 0.001906 0.005018 0.010765 0.040393 -0.006838 -0.001244
# 5 -0.003939 0.001521 -0.006331 -0.006838 0.036710 0.010860
# 6 -0.000709 0.003819 0.003519 -0.001244 0.010860 0.032908
#
#
# Mechanical properties :
#
#
# Convention : Reuss Voigt Hill
#
# Bulk Modulus (GPa) = 35.56724 71.14753 53.35739
# Shear Modulus (GPa) = 29.26112 38.76250 34.01181
#
# Velocity S-wave (km/s) = 3.51217 4.04237 3.78656
# Velocity P-wave (km/s) = 5.60722 7.19588 6.45065
#
# Compressibility (1/GPa) = 0.02811576
#
# Stress axis : x y z
#
# Youngs Moduli (GPa) = 103.44905 68.21146 64.61144
#
# Poissons Ratio (x) = 0.25866 0.23794
# Poissons Ratio (y) = 0.39228 -0.10535
# Poissons Ratio (z) = 0.38096 -0.11122
#
# Static dielectric constant tensor:
#      x y z
#    x 1.795070 0.213000 -0.272550 
#    y 0.213000 1.789700 0.201860 
#    z -0.272550 0.201860 1.693060 
# 
# From -- ./inp_files/499358.got.cif
#   From: 2010.05.17/outbox.cif.g08.bks.cpg/sg2_250_cif.got.tgz:499358.got - 2010.06.03 11:33:40.
