data_PCOD9093659
_publ_section_title
;
Structure prediction by ZEFSAII (Michael W. Deem and Ramdas Pophale) SiO2 
 PCOD9093659
Probable space group: P -1
;
_chemical_formula_sum "Si O2"
_cell_formula_units_Z 16
_cell_length_a 10.870265
_cell_length_b 20.585774
_cell_length_c 9.582940
_cell_angle_alpha 139.881347
_cell_angle_beta 105.756970
_cell_angle_gamma 43.572313
_cell_volume 734.973499
_symmetry_space_group_name_H-M "P -1"
_symmetry_group_IT_number 2
_symmetry_cell_setting 'triclinic'
loop_
_space_group_symop_operation_xyz
x,y,z
-x,-y,-z
loop_
_atom_site_type_symbol
_atom_site_label
_atom_site_fract_x
_atom_site_fract_y
_atom_site_fract_z
Si Si1 0.404544 0.907581 0.801980
Si Si2 0.725838 0.847283 0.657249
Si Si3 0.626980 0.821652 0.312146
Si Si4 0.169376 0.478514 0.573863
Si Si5 0.247408 0.933079 0.530690
Si Si6 0.212467 0.476776 0.285660
Si Si7 0.168682 0.672645 0.058546
Si Si8 0.420798 0.468790 0.086340
O O1 0.495783 0.942064 0.794268
O O2 0.633824 0.692999 0.545121
O O3 0.222542 0.974349 0.755061
O O4 0.318056 0.006837 0.086200
O O5 0.784888 0.766584 0.390715
O O6 0.940826 0.677548 0.539381
O O7 0.500000 0.000000 0.500000
O O8 0.434568 0.881349 0.427358
O O9 0.749526 0.662492 0.985922
O O10 0.296073 0.432424 0.396041
O O11 0.068086 0.640497 0.893710
O O12 0.000000 0.500000 0.500000
O O13 0.384651 0.737863 0.247022
O O14 0.012780 0.117718 0.682831
O O15 0.316075 0.486725 0.221746
O O16 0.230673 0.611228 0.139655
O O17 0.421931 0.535561 0.849584
#
# Coordination Sequence:
#
# PCOD9093659 Si02
#       8
#     2   2   2   2   2   2   2   2
#     4  10  20  37  56  90 130 155 212 251 307 379
#     4  10  20  33  55  82 125 170 195 251 309 374
#     4  10  22  33  53  89 129 164 199 254 321 379
#     4  12  24  38  64  95 126 168 207 254 323 381
#     4  10  21  39  65  93 121 164 213 265 308 372
#     4  11  23  38  60  88 128 164 207 265 310 367
#     4  11  24  43  72  88 123 173 214 260 315 373
#     4  10  24  46  64  95 123 165 222 263 303 372
#
# _framework density 21.769493000000001
#
# number of rings (size 3 to 8) (size 9 to 14) (size 15 to 20)
#    0.000    1.500    2.500    2.250    7.000    0.500 
#    0.000    0.000    0.000    1.500    0.000    0.000 
#    0.000    0.000    0.000    0.000    0.000    0.000 
#
# Total GULP energy -89162.262888 kJ/mol
# GULP energy per Si atom -5572.641431 kJ/mol
# Density = 2.171994 g / cm^3
# Si number density = 21.769493 Si / 1000 Ang^3
#
#
#
# Elastic Constant Matrix: (Units=GPa)
#
#
# Indices 1 2 3 4 5 6 
#
# 1 55.1904 17.4152 -17.4977 -9.6330 -5.6891 -2.0997
# 2 17.4152 101.4913 7.3147 7.4816 5.8041 0.3881
# 3 -17.4977 7.3147 41.1378 5.0172 -3.1571 -4.8343
# 4 -9.6330 7.4816 5.0172 34.9710 5.7452 -0.1911
# 5 -5.6891 5.8041 -3.1571 5.7452 16.0996 4.1121
# 6 -2.0997 0.3881 -4.8343 -0.1911 4.1121 24.9923
#
#
#
# Elastic Compliance Matrix: (Units=1/GPa)
#
#
# Indices 1 2 3 4 5 6 
#
# 1 0.026520 -0.006542 0.013098 0.004905 0.011792 0.002961
# 2 -0.006542 0.011912 -0.005173 -0.002537 -0.006542 -0.000678
# 3 0.013098 -0.005173 0.032613 -0.001936 0.012183 0.005470
# 4 0.004905 -0.002537 -0.001936 0.032384 -0.009782 0.001934
# 5 0.011792 -0.006542 0.012183 -0.009782 0.076888 -0.009277
# 6 0.002961 -0.000678 0.005470 0.001934 -0.009277 0.042871
#
#
# Mechanical properties :
#
#
# Convention : Reuss Voigt Hill
#
# Bulk Modulus (GPa) = 13.54783 23.58709 18.56746
# Shear Modulus (GPa) = 20.40594 27.91841 24.16217
#
# Velocity S-wave (km/s) = 3.06496 3.58502 3.33515
# Velocity P-wave (km/s) = 4.33153 5.29103 4.83514
#
# Compressibility (1/GPa) = 0.07381255
#
# Stress axis : x y z
#
# Youngs Moduli (GPa) = 37.70690 83.94752 30.66217
#
# Poissons Ratio (x) = 0.54918 -0.40162
# Poissons Ratio (y) = 0.24668 0.15862
# Poissons Ratio (z) = -0.49389 0.43426
#
# Static dielectric constant tensor:
#      x y z
#    x 1.850510 0.000170 0.055690 
#    y 0.000170 1.880770 -0.062750 
#    z 0.055690 -0.062750 1.850930 
# 
# From -- ./inp_files/203816.got.cif
#   From: 2010.05.17/outbox.cif.g08.bks.cpg/sg2_102_cif.got.tgz:203816.got - 2010.06.03 11:33:40.
