data_PCOD9093940
_publ_section_title
;
Structure prediction by ZEFSAII (Michael W. Deem and Ramdas Pophale) SiO2 
 PCOD9093940
Probable space group: P -1
;
_chemical_formula_sum "Si O2"
_cell_formula_units_Z 16
_cell_length_a 10.230039
_cell_length_b 12.755344
_cell_length_c 13.544693
_cell_angle_alpha 135.738961
_cell_angle_beta 60.953778
_cell_angle_gamma 87.671080
_cell_volume 831.754004
_symmetry_space_group_name_H-M "P -1"
_symmetry_group_IT_number 2
_symmetry_cell_setting 'triclinic'
loop_
_space_group_symop_operation_xyz
x,y,z
-x,-y,-z
loop_
_atom_site_type_symbol
_atom_site_label
_atom_site_fract_x
_atom_site_fract_y
_atom_site_fract_z
Si Si1 0.576542 0.931664 0.272950
Si Si2 0.321211 0.904534 0.486224
Si Si3 0.550256 0.719700 0.791246
Si Si4 0.148283 0.503840 0.167210
Si Si5 0.483814 0.463327 0.136201
Si Si6 0.052113 0.531519 0.610432
Si Si7 0.067663 0.828488 0.284022
Si Si8 0.323912 0.069499 0.981769
O O1 0.400773 0.944027 0.387890
O O2 0.604886 0.051923 0.416916
O O3 0.763549 0.701565 0.052994
O O4 0.566429 0.991420 0.203944
O O5 0.412066 0.680548 0.301839
O O6 0.088125 0.056228 0.668542
O O7 0.527754 0.595733 0.789195
O O8 0.723182 0.578490 0.555854
O O9 0.607690 0.825765 0.911756
O O10 0.371559 0.894609 0.911321
O O11 0.333720 0.465831 0.125090
O O12 0.055446 0.675724 0.239529
O O13 0.002470 0.551720 0.340620
O O14 0.706111 0.300323 0.912085
O O15 0.000000 0.500000 0.500000
O O16 0.904751 0.762415 0.837643
O O17 0.000000 0.000000 0.500000
#
# Coordination Sequence:
#
# PCOD9093940 Si02
#       8
#     2   2   2   2   2   2   2   2
#     4  10  21  44  62  83 127 161 200 256 296 355
#     4  11  25  41  60  88 123 167 201 244 308 357
#     4  10  20  33  62  92 118 151 199 250 299 352
#     4  11  20  38  64  88 124 153 203 255 299 353
#     4  12  22  41  58  92 131 151 194 260 301 358
#     4   9  17  33  53  89 115 149 191 249 295 338
#     4  12  25  35  62  93 119 158 202 246 308 361
#     4   9  19  34  58  89 114 149 200 247 293 346
#
# _framework density 19.236454999999999
#
# number of rings (size 3 to 8) (size 9 to 14) (size 15 to 20)
#    0.000    1.500    6.250    1.125    1.750    3.500 
#    0.000    0.625    0.000    3.750    0.000    0.000 
#    0.000    0.000    0.000    0.000    0.000    0.000 
#
# Total GULP energy -89266.277367 kJ/mol
# GULP energy per Si atom -5579.142335 kJ/mol
# Density = 1.919267 g / cm^3
# Si number density = 19.236455 Si / 1000 Ang^3
#
#
#
# Elastic Constant Matrix: (Units=GPa)
#
#
# Indices 1 2 3 4 5 6 
#
# 1 37.5814 29.9701 34.4174 6.4552 -9.4571 2.0106
# 2 29.9701 86.8183 43.5676 8.1946 -17.5248 -4.2637
# 3 34.4174 43.5676 105.9007 -5.8781 -16.5583 2.9547
# 4 6.4552 8.1946 -5.8781 33.0415 -0.0226 -2.9955
# 5 -9.4571 -17.5248 -16.5583 -0.0226 26.3184 2.9906
# 6 2.0106 -4.2637 2.9547 -2.9955 2.9906 15.9176
#
#
#
# Elastic Compliance Matrix: (Units=1/GPa)
#
#
# Indices 1 2 3 4 5 6 
#
# 1 0.047766 -0.009423 -0.011167 -0.009817 0.004907 -0.009254
# 2 -0.009423 0.018455 -0.003927 -0.002959 0.005838 0.005209
# 3 -0.011167 -0.003927 0.015602 0.005743 0.003432 -0.002102
# 4 -0.009817 -0.002959 0.005743 0.034513 -0.002578 0.006361
# 5 0.004907 0.005838 0.003432 -0.002578 0.046824 -0.008976
# 6 -0.009254 0.005209 -0.002102 0.006361 -0.008976 0.068661
#
#
# Mechanical properties :
#
#
# Convention : Reuss Voigt Hill
#
# Bulk Modulus (GPa) = 30.49705 49.57896 40.03800
# Shear Modulus (GPa) = 17.13599 23.21185 20.17392
#
# Velocity S-wave (km/s) = 2.98788 3.47747 3.24193
# Velocity P-wave (km/s) = 5.27176 6.47712 5.90527
#
# Compressibility (1/GPa) = 0.03279006
#
# Stress axis : x y z
#
# Youngs Moduli (GPa) = 20.93543 54.18544 64.09630
#
# Poissons Ratio (x) = 0.51057 0.71575
# Poissons Ratio (y) = 0.19727 0.25170
# Poissons Ratio (z) = 0.23378 0.21278
#
# Static dielectric constant tensor:
#      x y z
#    x 1.690000 -0.011840 -0.036550 
#    y -0.011840 1.678850 0.002550 
#    z -0.036550 0.002550 1.691980 
# 
# From -- ./inp_files/392996.got.cif
#   From: 2010.05.17/outbox.cif.g08.bks.cpg/sg2_197_cif.got.tgz:392996.got - 2010.06.03 11:33:40.
