data_PCOD9093326
_publ_section_title
;
Structure prediction by ZEFSAII (Michael W. Deem and Ramdas Pophale) SiO2 
 PCOD9093326
Probable space group: P -1
;
_chemical_formula_sum "Si O2"
_cell_formula_units_Z 16
_cell_length_a 24.792558
_cell_length_b 24.619262
_cell_length_c 8.243668
_cell_angle_alpha 140.111477
_cell_angle_beta 140.284610
_cell_angle_gamma 11.590481
_cell_volume 642.254668
_symmetry_space_group_name_H-M "P -1"
_symmetry_group_IT_number 2
_symmetry_cell_setting 'triclinic'
loop_
_space_group_symop_operation_xyz
x,y,z
-x,-y,-z
loop_
_atom_site_type_symbol
_atom_site_label
_atom_site_fract_x
_atom_site_fract_y
_atom_site_fract_z
Si Si1 0.439107 0.921036 0.639880
Si Si2 0.522078 0.460320 0.264351
Si Si3 0.809720 0.685974 0.143846
Si Si4 0.748507 0.082151 0.042537
Si Si5 0.201507 0.510457 0.765526
Si Si6 0.929590 0.993714 0.589550
Si Si7 0.906917 0.443671 0.039744
Si Si8 0.344502 0.907430 0.678697
O O1 0.694698 0.637379 0.490843
O O2 0.272543 0.137574 0.625001
O O3 0.299839 0.981418 0.560981
O O4 0.539627 0.891845 0.940425
O O5 0.500000 0.500000 0.500000
O O6 0.233220 0.762463 0.216783
O O7 0.633705 0.258648 0.051665
O O8 0.750022 0.299195 0.333189
O O9 0.923509 0.519853 0.170017
O O10 0.000000 0.500000 0.000000
O O11 0.883083 0.005312 0.324453
O O12 0.967527 0.802261 0.864494
O O13 0.474092 0.300185 0.969411
O O14 0.138426 0.509641 0.767215
O O15 0.781600 0.064380 0.517223
O O16 0.174226 0.134535 0.916228
O O17 0.660125 0.623502 0.801171
#
# Coordination Sequence:
#
# PCOD9093326 Si02
#       8
#     2   2   2   2   2   2   2   2
#     4  10  25  40  63  90 117 162 202 243 302 365
#     4  10  20  32  55  89 121 157 198 244 297 344
#     4  10  21  43  65  83 121 157 207 245 291 360
#     4  11  21  36  57  87 130 154 190 251 306 347
#     4  12  23  38  60  92 125 156 196 248 310 351
#     4  11  18  34  59  86 118 156 208 241 287 348
#     4  11  21  38  62  88 121 158 193 254 300 347
#     4  11  21  38  61  88 119 159 204 246 290 351
#
# _framework density 24.912236
#
# number of rings (size 3 to 8) (size 9 to 14) (size 15 to 20)
#    0.000    1.250    3.750    4.500    1.750    0.500 
#    0.000    0.625    0.000    4.500    0.000    0.000 
#    0.000    0.000    0.000    0.000    0.000    0.000 
#
# Total GULP energy -89498.405664 kJ/mol
# GULP energy per Si atom -5593.650354 kJ/mol
# Density = 2.485553 g / cm^3
# Si number density = 24.912236 Si / 1000 Ang^3
#
#
#
# Elastic Constant Matrix: (Units=GPa)
#
#
# Indices 1 2 3 4 5 6 
#
# 1 153.4931 54.6635 27.5684 33.6395 19.4314 -4.2212
# 2 54.6635 93.3477 2.5938 22.4686 13.1088 -3.5486
# 3 27.5684 2.5938 38.9667 16.8124 11.7059 5.2915
# 4 33.6395 22.4686 16.8124 43.9480 11.4439 9.6627
# 5 19.4314 13.1088 11.7059 11.4439 28.3568 7.4879
# 6 -4.2212 -3.5486 5.2915 9.6627 7.4879 37.2930
#
#
#
# Elastic Compliance Matrix: (Units=1/GPa)
#
#
# Indices 1 2 3 4 5 6 
#
# 1 0.010179 -0.004564 -0.005117 -0.003580 -0.002043 0.002782
# 2 -0.004564 0.015419 0.005834 -0.005975 -0.004687 0.002612
# 3 -0.005117 0.005834 0.036384 -0.010285 -0.009919 -0.000530
# 4 -0.003580 -0.005975 -0.010285 0.034906 -0.002498 -0.008057
# 5 -0.002043 -0.004687 -0.009919 -0.002498 0.046010 -0.007861
# 6 0.002782 0.002612 -0.000530 -0.008057 -0.007861 0.031119
#
#
# Mechanical properties :
#
#
# Convention : Reuss Voigt Hill
#
# Bulk Modulus (GPa) = 18.42044 50.60653 34.51349
# Shear Modulus (GPa) = 25.02393 35.31834 30.17114
#
# Velocity S-wave (km/s) = 3.17280 3.76933 3.48386
# Velocity P-wave (km/s) = 4.56425 6.26912 5.48335
#
# Compressibility (1/GPa) = 0.05428751
#
# Stress axis : x y z
#
# Youngs Moduli (GPa) = 98.23888 64.85492 27.48424
#
# Poissons Ratio (x) = 0.29602 0.14065
# Poissons Ratio (y) = 0.44840 -0.16035
# Poissons Ratio (z) = 0.50272 -0.37837
#
# Static dielectric constant tensor:
#      x y z
#    x 2.027280 0.000110 0.020330 
#    y 0.000110 1.973950 -0.054300 
#    z 0.020330 -0.054300 2.034450 
# 
# From -- ./inp_files/358030.got.cif
#   From: 2010.05.17/outbox.cif.g08.bks.cpg/sg2_180_cif.got.tgz:358030.got - 2010.06.03 11:33:40.
