data_PCOD9093957
_publ_section_title
;
Structure prediction by ZEFSAII (Michael W. Deem and Ramdas Pophale) SiO2 
 PCOD9093957
Probable space group: P -1
;
_chemical_formula_sum "Si O2"
_cell_formula_units_Z 14
_cell_length_a 12.206039
_cell_length_b 10.390319
_cell_length_c 11.016106
_cell_angle_alpha 53.836345
_cell_angle_beta 140.203443
_cell_angle_gamma 94.512641
_cell_volume 497.152084
_symmetry_space_group_name_H-M "P -1"
_symmetry_group_IT_number 2
_symmetry_cell_setting 'triclinic'
loop_
_space_group_symop_operation_xyz
x,y,z
-x,-y,-z
loop_
_atom_site_type_symbol
_atom_site_label
_atom_site_fract_x
_atom_site_fract_y
_atom_site_fract_z
Si Si1 0.946946 0.997674 0.251015
Si Si2 0.611224 0.651962 0.104218
Si Si3 0.397853 0.899942 0.318013
Si Si4 0.018638 0.403617 0.791773
Si Si5 0.250185 0.105564 0.658790
Si Si6 0.746914 0.441716 0.761843
Si Si7 0.463266 0.638178 0.752112
O O1 0.871319 0.949141 0.330931
O O2 0.786147 0.030693 0.984724
O O3 0.895376 0.221194 0.097464
O O4 0.220449 0.798657 0.541099
O O5 0.856073 0.518745 0.465541
O O6 0.495111 0.575909 0.116472
O O7 0.662503 0.576386 0.049830
O O8 0.402990 0.928691 0.775616
O O9 0.664419 0.670330 0.615205
O O10 0.401888 0.779804 0.503783
O O11 0.285112 0.142833 0.134559
O O12 0.949159 0.619110 0.674522
O O13 0.891413 0.367005 0.800414
O O14 0.500000 0.000000 0.000000
O O15 0.500000 0.500000 0.500000
#
# Coordination Sequence:
#
# PCOD9093957 Si02
#       7
#     2   2   2   2   2   2   2
#     4  11  20  36  63  95 117 159 212 253 299 355
#     4  10  21  38  58  88 129 159 196 253 312 357
#     4  11  20  36  63  89 122 155 206 253 297 357
#     4  11  21  41  64  90 123 162 203 252 302 362
#     4  10  22  40  58  88 125 163 202 251 302 363
#     4  10  20  33  63  92 115 154 208 254 296 345
#     4  11  21  36  62  95 122 161 196 260 310 353
#
# _framework density 28.160397
#
# number of rings (size 3 to 8) (size 9 to 14) (size 15 to 20)
#    0.000    1.429    2.857    6.429    0.000    1.143 
#    2.571    0.714    0.000    7.714    7.429    0.000 
#    0.000    0.000    0.000    0.000    0.000    0.000 
#
# Total GULP energy -78356.137025 kJ/mol
# GULP energy per Si atom -5596.866930 kJ/mol
# Density = 2.809630 g / cm^3
# Si number density = 28.160397 Si / 1000 Ang^3
#
#
#
# Elastic Constant Matrix: (Units=GPa)
#
#
# Indices 1 2 3 4 5 6 
#
# 1 165.6507 28.2045 30.1279 -20.1030 0.6547 -15.1849
# 2 28.2045 107.5449 44.1817 -43.6653 -4.9128 6.4673
# 3 30.1279 44.1817 128.3375 -37.3438 2.3597 -1.7048
# 4 -20.1030 -43.6653 -37.3438 77.7521 -5.9604 -3.9354
# 5 0.6547 -4.9128 2.3597 -5.9604 47.8862 -16.7470
# 6 -15.1849 6.4673 -1.7048 -3.9354 -16.7470 32.4807
#
#
#
# Elastic Compliance Matrix: (Units=1/GPa)
#
#
# Indices 1 2 3 4 5 6 
#
# 1 0.006918 -0.001241 -0.000875 0.001000 0.001451 0.004305
# 2 -0.001241 0.013282 -0.002614 0.005914 0.001610 -0.001815
# 3 -0.000875 -0.002614 0.009802 0.003063 -0.000011 0.000991
# 4 0.001000 0.005914 0.003063 0.018414 0.004053 0.003772
# 5 0.001451 0.001610 -0.000011 0.004053 0.026632 0.014580
# 6 0.004305 -0.001815 0.000991 0.003772 0.014580 0.041188
#
#
# Mechanical properties :
#
#
# Convention : Reuss Voigt Hill
#
# Bulk Modulus (GPa) = 48.68287 67.39573 58.03930
# Shear Modulus (GPa) = 37.72387 51.55840 44.64114
#
# Velocity S-wave (km/s) = 3.66404 4.28352 3.98583
# Velocity P-wave (km/s) = 5.93510 6.96057 6.46819
#
# Compressibility (1/GPa) = 0.02054111
#
# Stress axis : x y z
#
# Youngs Moduli (GPa) = 144.56040 75.29148 102.02170
#
# Poissons Ratio (x) = 0.09344 0.08928
# Poissons Ratio (y) = 0.17941 0.26667
# Poissons Ratio (z) = 0.12650 0.19680
#
# Static dielectric constant tensor:
#      x y z
#    x 2.150170 0.072820 0.007110 
#    y 0.072820 2.398590 0.064750 
#    z 0.007110 0.064750 2.263410 
# 
# From -- ./inp_files/425331.got.cif
#   From: 2010.05.17/outbox.cif.g08.bks.cpg/sg2_213_cif.got.tgz:425331.got - 2010.06.03 11:33:40.
