data_PCOD9093647
_publ_section_title
;
Structure prediction by ZEFSAII (Michael W. Deem and Ramdas Pophale) SiO2 
 PCOD9093647
Probable space group: P -1
;
_chemical_formula_sum "Si O2"
_cell_formula_units_Z 16
_cell_length_a 13.755965
_cell_length_b 5.307940
_cell_length_c 12.383534
_cell_angle_alpha 67.326346
_cell_angle_beta 74.659470
_cell_angle_gamma 65.941464
_cell_volume 755.621217
_symmetry_space_group_name_H-M "P -1"
_symmetry_group_IT_number 2
_symmetry_cell_setting 'triclinic'
loop_
_space_group_symop_operation_xyz
x,y,z
-x,-y,-z
loop_
_atom_site_type_symbol
_atom_site_label
_atom_site_fract_x
_atom_site_fract_y
_atom_site_fract_z
Si Si1 0.468150 0.918567 0.403539
Si Si2 0.675795 0.623339 0.026854
Si Si3 0.799152 0.444065 0.810535
Si Si4 0.526096 0.405965 0.231830
Si Si5 0.965762 0.912759 0.140852
Si Si6 0.831212 0.497793 0.204318
Si Si7 0.678254 0.080976 0.787795
Si Si8 0.665293 0.334856 0.397798
O O1 0.569807 0.635373 0.397526
O O2 0.356079 0.869726 0.470631
O O3 0.500000 0.000000 0.500000
O O4 0.469215 0.167394 0.278011
O O5 0.577952 0.512705 0.098910
O O6 0.739656 0.624656 0.118302
O O7 0.755330 0.416139 0.949337
O O8 0.644041 0.934743 0.927381
O O9 0.749749 0.268997 0.773588
O O10 0.926586 0.303287 0.799782
O O11 0.751731 0.792610 0.751519
O O12 0.432134 0.686072 0.261737
O O13 0.627895 0.255560 0.304950
O O14 0.883903 0.736839 0.179022
O O15 0.915588 0.208314 0.174723
O O16 0.000000 0.000000 0.000000
O O17 0.774522 0.394453 0.338085
#
# Coordination Sequence:
#
# PCOD9093647 Si02
#       8
#     2   2   2   2   2   2   2   2
#     4   9  19  35  58  78 117 136 177 232 276 338
#     4   9  21  33  49  81 115 150 182 227 258 331
#     4  10  22  35  52  72 117 145 193 230 258 304
#     4  10  20  33  55  80 109 152 181 214 279 330
#     4  12  21  36  54  82 107 152 190 229 274 320
#     4  11  23  33  60  79 113 149 183 227 281 329
#     4  10  21  36  50  78 111 158 182 225 258 325
#     4   9  21  37  53  87 113 139 180 229 283 332
#
# _framework density 21.174630000000001
#
# number of rings (size 3 to 8) (size 9 to 14) (size 15 to 20)
#    0.750    1.250    1.250    2.250    7.000    1.500 
#    0.000    0.000    0.000    0.000    0.000    5.250 
#    0.000    0.000    0.000    0.000    0.000    0.000 
#
# Total GULP energy -89187.616483 kJ/mol
# GULP energy per Si atom -5574.226030 kJ/mol
# Density = 2.112644 g / cm^3
# Si number density = 21.174630 Si / 1000 Ang^3
#
#
#
# Elastic Constant Matrix: (Units=GPa)
#
#
# Indices 1 2 3 4 5 6 
#
# 1 72.8935 14.5147 25.8923 -17.3707 -10.6882 3.5906
# 2 14.5147 76.4352 12.8560 -23.8686 -6.4218 9.0771
# 3 25.8923 12.8560 49.9024 -5.9841 -26.7959 -0.5903
# 4 -17.3707 -23.8686 -5.9841 27.4572 5.0685 -3.2196
# 5 -10.6882 -6.4218 -26.7959 5.0685 29.5871 -5.9611
# 6 3.5906 9.0771 -0.5903 -3.2196 -5.9611 33.8280
#
#
#
# Elastic Compliance Matrix: (Units=1/GPa)
#
#
# Indices 1 2 3 4 5 6 
#
# 1 0.020154 0.002126 -0.013341 0.012652 -0.007111 -0.002991
# 2 0.002126 0.019276 -0.006836 0.016993 -0.005118 -0.004802
# 3 -0.013341 -0.006836 0.051340 -0.010053 0.044125 0.010965
# 4 0.012652 0.016993 -0.010053 0.058823 -0.011425 -0.002493
# 5 -0.007111 -0.005118 0.044125 -0.011425 0.075069 0.015039
# 6 -0.002991 -0.004802 0.010965 -0.002493 0.015039 0.033771
#
#
# Mechanical properties :
#
#
# Convention : Reuss Voigt Hill
#
# Bulk Modulus (GPa) = 18.29251 33.97299 26.13275
# Shear Modulus (GPa) = 15.98675 27.90567 21.94621
#
# Velocity S-wave (km/s) = 2.75070 3.63420 3.22287
# Velocity P-wave (km/s) = 4.32968 5.80422 5.12030
#
# Compressibility (1/GPa) = 0.05466719
#
# Stress axis : x y z
#
# Youngs Moduli (GPa) = 49.61772 51.87840 19.47783
#
# Poissons Ratio (x) = -0.11027 0.25986
# Poissons Ratio (y) = -0.10546 0.13315
# Poissons Ratio (z) = 0.66196 0.35464
#
# Static dielectric constant tensor:
#      x y z
#    x 1.836780 0.067350 0.041930 
#    y 0.067350 1.811200 0.000090 
#    z 0.041930 0.000090 1.804880 
# 
# From -- ./inp_files/510810.got.cif
#   From: 2010.05.17/outbox.cif.g08.bks.cpg/sg2_256_cif.got.tgz:510810.got - 2010.06.03 11:33:40.
