data_PCOD9093732
_publ_section_title
;
Structure prediction by ZEFSAII (Michael W. Deem and Ramdas Pophale) SiO2 
 PCOD9093732
Probable space group: P -1
;
_chemical_formula_sum "Si O2"
_cell_formula_units_Z 16
_cell_length_a 13.401360
_cell_length_b 22.108449
_cell_length_c 19.649958
_cell_angle_alpha 26.771019
_cell_angle_beta 18.000917
_cell_angle_gamma 35.471709
_cell_volume 784.794185
_symmetry_space_group_name_H-M "P -1"
_symmetry_group_IT_number 2
_symmetry_cell_setting 'triclinic'
loop_
_space_group_symop_operation_xyz
x,y,z
-x,-y,-z
loop_
_atom_site_type_symbol
_atom_site_label
_atom_site_fract_x
_atom_site_fract_y
_atom_site_fract_z
Si Si1 0.103244 0.579392 0.644842
Si Si2 0.449293 0.630011 0.859859
Si Si3 0.837931 0.829994 0.504328
Si Si4 0.551272 0.321362 0.438889
Si Si5 0.251864 0.450872 0.809125
Si Si6 0.192711 0.020608 0.967381
Si Si7 0.914268 0.646363 0.415461
Si Si8 0.586984 0.070098 0.221587
O O1 0.105821 0.547966 0.754597
O O2 0.480755 0.609040 0.344107
O O3 0.950570 0.705154 0.594401
O O4 0.892399 0.434524 0.893276
O O5 0.506508 0.756637 0.748326
O O6 0.746906 0.664506 0.577490
O O7 0.500000 0.500000 0.000000
O O8 0.739174 0.931976 0.520948
O O9 0.105476 0.909037 0.196241
O O10 0.557555 0.448709 0.356746
O O11 0.356912 0.170675 0.741780
O O12 0.356670 0.341919 0.476576
O O13 0.939640 0.337284 0.154706
O O14 0.429832 0.000410 0.770698
O O15 0.847087 0.017717 0.154140
O O16 0.000000 0.500000 0.500000
O O17 0.237882 0.769094 0.069052
#
# Coordination Sequence:
#
# PCOD9093732 Si02
#       8
#     2   2   2   2   2   2   2   2
#     4  10  22  39  62  91 121 157 206 260 301 357
#     4  10  20  33  56  94 124 149 192 250 317 362
#     4  11  22  40  63  97 124 161 196 252 316 375
#     4  10  23  40  63  85 118 167 204 252 310 357
#     4  10  22  43  61  85 119 161 214 255 298 357
#     4  10  22  42  59  92 125 165 200 244 309 380
#     4  11  20  34  60  95 123 154 198 258 313 366
#     4  10  22  37  60  91 131 160 194 244 315 376
#
# _framework density 20.387512000000001
#
# number of rings (size 3 to 8) (size 9 to 14) (size 15 to 20)
#    0.000    1.750    2.500    1.875    7.000    0.000 
#    6.750    1.250    0.000    0.000    0.000    0.000 
#    0.000    0.000    0.000    0.000    0.000    0.000 
#
# Total GULP energy -89295.129151 kJ/mol
# GULP energy per Si atom -5580.945572 kJ/mol
# Density = 2.034111 g / cm^3
# Si number density = 20.387512 Si / 1000 Ang^3
#
#
#
# Elastic Constant Matrix: (Units=GPa)
#
#
# Indices 1 2 3 4 5 6 
#
# 1 61.3886 4.5559 9.4544 -0.0756 15.9894 4.7560
# 2 4.5559 50.1382 4.9919 5.1254 5.2082 -0.8289
# 3 9.4544 4.9919 49.7193 -1.0615 9.2907 4.4784
# 4 -0.0756 5.1254 -1.0615 26.1326 6.6601 6.7479
# 5 15.9894 5.2082 9.2907 6.6601 24.8248 -3.4740
# 6 4.7560 -0.8289 4.4784 6.7479 -3.4740 14.4957
#
#
#
# Elastic Compliance Matrix: (Units=1/GPa)
#
#
# Indices 1 2 3 4 5 6 
#
# 1 0.022749 -0.001433 0.001326 0.009975 -0.019956 -0.017381
# 2 -0.001433 0.020976 -0.002265 -0.005280 -0.000556 0.004694
# 3 0.001326 -0.002265 0.024335 0.009089 -0.014121 -0.015698
# 4 0.009975 -0.005280 0.009089 0.057751 -0.029869 -0.040425
# 5 -0.019956 -0.000556 -0.014121 -0.029869 0.072449 0.042146
# 6 -0.017381 0.004694 -0.015698 -0.040425 0.042146 0.108726
#
#
# Mechanical properties :
#
#
# Convention : Reuss Voigt Hill
#
# Bulk Modulus (GPa) = 15.79414 22.13892 18.96653
# Shear Modulus (GPa) = 15.02243 22.57354 18.79798
#
# Velocity S-wave (km/s) = 2.71743 3.33111 3.03980
# Velocity P-wave (km/s) = 4.19639 5.06731 4.65228
#
# Compressibility (1/GPa) = 0.06331461
#
# Stress axis : x y z
#
# Youngs Moduli (GPa) = 43.95886 47.67395 41.09295
#
# Poissons Ratio (x) = 0.06832 -0.05448
# Poissons Ratio (y) = 0.06300 0.09308
# Poissons Ratio (z) = -0.05828 0.10799
#
# Static dielectric constant tensor:
#      x y z
#    x 1.742320 0.027500 -0.017410 
#    y 0.027500 1.756400 0.003600 
#    z -0.017410 0.003600 1.792730 
# 
# From -- ./inp_files/570731.got.cif
#   From: 2010.05.17/outbox.cif.g08.bks.cpg/sg2_286_cif.got.tgz:570731.got - 2010.06.03 11:33:40.
