data_PCOD9093152
_publ_section_title
;
Structure prediction by ZEFSAII (Michael W. Deem and Ramdas Pophale) SiO2 
 PCOD9093152
Probable space group: P -1
;
_chemical_formula_sum "Si O2"
_cell_formula_units_Z 16
_cell_length_a 11.204856
_cell_length_b 5.365996
_cell_length_c 16.209309
_cell_angle_alpha 75.930560
_cell_angle_beta 117.092241
_cell_angle_gamma 79.760691
_cell_volume 793.277075
_symmetry_space_group_name_H-M "P -1"
_symmetry_group_IT_number 2
_symmetry_cell_setting 'triclinic'
loop_
_space_group_symop_operation_xyz
x,y,z
-x,-y,-z
loop_
_atom_site_type_symbol
_atom_site_label
_atom_site_fract_x
_atom_site_fract_y
_atom_site_fract_z
Si Si1 0.838941 0.166946 0.906290
Si Si2 0.086564 0.509581 0.790768
Si Si3 0.813496 0.342597 0.451891
Si Si4 0.283750 0.991653 0.966267
Si Si5 0.361232 0.492620 0.778246
Si Si6 0.087303 0.341287 0.120421
Si Si7 0.509109 0.157706 0.102896
Si Si8 0.098715 0.270521 0.439579
O O1 0.830464 0.454207 0.843632
O O2 0.812299 0.954852 0.851078
O O3 0.750530 0.187806 0.959746
O O4 0.000000 0.000000 0.000000
O O5 0.146938 0.190389 0.860275
O O6 0.220782 0.568268 0.786932
O O7 0.021593 0.665371 0.841482
O O8 0.965037 0.584788 0.677466
O O9 0.692452 0.422536 0.337768
O O10 0.807312 0.576493 0.496886
O O11 0.960261 0.303523 0.450867
O O12 0.826698 0.053134 0.519281
O O13 0.399185 0.824132 0.950568
O O14 0.351155 0.197060 0.018267
O O15 0.431040 0.165219 0.829709
O O16 0.458728 0.656561 0.831994
O O17 0.000000 0.500000 0.000000
#
# Coordination Sequence:
#
# PCOD9093152 Si02
#       8
#     2   2   2   2   2   2   2   2
#     4  10  20  33  50  69  95 144 168 211 252 293
#     4  10  20  32  52  75 110 142 170 204 259 315
#     4   9  17  33  48  69 101 127 168 216 258 299
#     4  10  21  36  51  72 112 140 177 213 248 294
#     4  10  21  35  53  73 102 140 177 219 251 303
#     4  10  20  32  47  73  97 141 170 202 247 306
#     4  10  23  34  51  77  99 145 183 208 244 309
#     4   9  18  29  48  74  97 134 165 201 262 322
#
# _framework density 20.169498999999998
#
# number of rings (size 3 to 8) (size 9 to 14) (size 15 to 20)
#    0.000    2.250    2.500    0.750    3.500   12.500 
#    0.000    0.000    0.000    0.000    0.000    0.000 
#    0.000   20.000    0.000    0.000    0.000    0.000 
#
# Total GULP energy -89307.534137 kJ/mol
# GULP energy per Si atom -5581.720884 kJ/mol
# Density = 2.012359 g / cm^3
# Si number density = 20.169499 Si / 1000 Ang^3
#
#
#
# Elastic Constant Matrix: (Units=GPa)
#
#
# Indices 1 2 3 4 5 6 
#
# 1 36.9073 16.2658 26.0808 -5.2521 -5.9211 3.3927
# 2 16.2658 151.4919 53.6315 6.8317 6.9667 15.9884
# 3 26.0808 53.6315 118.5241 6.4398 4.7555 4.0763
# 4 -5.2521 6.8317 6.4398 24.8665 2.1062 4.3054
# 5 -5.9211 6.9667 4.7555 2.1062 15.1213 4.4671
# 6 3.3927 15.9884 4.0763 4.3054 4.4671 13.8680
#
#
#
# Elastic Compliance Matrix: (Units=1/GPa)
#
#
# Indices 1 2 3 4 5 6 
#
# 1 0.041497 -0.000743 -0.009799 0.012625 0.023173 -0.017799
# 2 -0.000743 0.008891 -0.003525 -0.000109 -0.000669 -0.008784
# 3 -0.009799 -0.003525 0.012522 -0.004872 -0.007449 0.006692
# 4 0.012625 -0.000109 -0.004872 0.046802 0.005252 -0.017752
# 5 0.023173 -0.000669 -0.007449 0.005252 0.086652 -0.032251
# 6 -0.017799 -0.008784 0.006692 -0.017752 -0.032251 0.100522
#
#
# Mechanical properties :
#
#
# Convention : Reuss Voigt Hill
#
# Bulk Modulus (GPa) = 28.75474 55.43105 42.09290
# Shear Modulus (GPa) = 14.85388 24.83417 19.84403
#
# Velocity S-wave (km/s) = 2.71671 3.51276 3.14006
# Velocity P-wave (km/s) = 4.91204 6.63286 5.83623
#
# Compressibility (1/GPa) = 0.03477687
#
# Stress axis : x y z
#
# Youngs Moduli (GPa) = 24.09804 112.46799 79.86158
#
# Poissons Ratio (x) = 0.08358 0.78253
# Poissons Ratio (y) = 0.01791 0.28151
# Poissons Ratio (z) = 0.23613 0.39644
#
# Static dielectric constant tensor:
#      x y z
#    x 1.817280 -0.250000 -0.051510 
#    y -0.250000 2.843130 0.255300 
#    z -0.051510 0.255300 1.759880 
# 
# From -- ./inp_files/97228.got.cif
#   From: 2010.05.17/outbox.cif.g08.bks.cpg/sg2_49_cif.got.tgz:97228.got - 2010.06.03 11:33:40.
