data_PCOD9093292
_publ_section_title
;
Structure prediction by ZEFSAII (Michael W. Deem and Ramdas Pophale) SiO2 
 PCOD9093292
Probable space group: P -1
;
_chemical_formula_sum "Si O2"
_cell_formula_units_Z 16
_cell_length_a 14.386563
_cell_length_b 20.003200
_cell_length_c 17.592438
_cell_angle_alpha 21.536340
_cell_angle_beta 143.561103
_cell_angle_gamma 156.605944
_cell_volume 694.548640
_symmetry_space_group_name_H-M "P -1"
_symmetry_group_IT_number 2
_symmetry_cell_setting 'triclinic'
loop_
_space_group_symop_operation_xyz
x,y,z
-x,-y,-z
loop_
_atom_site_type_symbol
_atom_site_label
_atom_site_fract_x
_atom_site_fract_y
_atom_site_fract_z
Si Si1 0.250474 0.174570 0.651854
Si Si2 0.967124 0.158252 0.584592
Si Si3 0.244923 0.882521 0.088478
Si Si4 0.759186 0.048900 0.820861
Si Si5 0.526925 0.290550 0.576464
Si Si6 0.349948 0.636725 0.589100
Si Si7 0.755304 0.328469 0.297244
Si Si8 0.571376 0.647159 0.985114
O O1 0.500000 0.500000 0.500000
O O2 0.030836 0.108745 0.602351
O O3 0.298299 0.162371 0.609703
O O4 0.233301 0.985208 0.895716
O O5 0.218640 0.400118 0.545668
O O6 0.884633 0.289960 0.372253
O O7 0.769071 0.878525 0.804843
O O8 0.295703 0.038056 0.034476
O O9 0.439030 0.895807 0.192860
O O10 0.966168 0.546161 0.270232
O O11 0.629742 0.127454 0.634683
O O12 0.054788 0.337424 0.701171
O O13 0.674760 0.819799 0.949708
O O14 0.523543 0.306785 0.466732
O O15 0.443842 0.583550 0.771561
O O16 0.672695 0.451053 0.084647
O O17 0.500000 0.000000 0.500000
#
# Coordination Sequence:
#
# PCOD9093292 Si02
#       8
#     2   2   2   2   2   2   2   2
#     4  10  20  32  57  87 107 148 195 243 283 327
#     4   9  18  35  51  82 114 143 190 235 278 337
#     4  10  20  37  56  88 116 143 191 242 283 338
#     4  10  21  33  58  86 117 147 184 241 293 342
#     4   9  18  33  54  81 112 143 186 243 281 325
#     4  10  20  32  54  86 117 143 192 234 292 343
#     4   9  21  38  56  80 121 155 183 227 292 346
#     4  11  20  36  59  82 121 157 176 232 299 351
#
# _framework density 23.036542000000001
#
# number of rings (size 3 to 8) (size 9 to 14) (size 15 to 20)
#    0.000    2.250    1.250    1.500    8.750    0.000 
#    2.250    1.875    0.000    1.500    0.000    0.000 
#    0.000    0.000    0.000    0.000    0.000    0.000 
#
# Total GULP energy -89434.540419 kJ/mol
# GULP energy per Si atom -5589.658776 kJ/mol
# Density = 2.298411 g / cm^3
# Si number density = 23.036542 Si / 1000 Ang^3
#
#
#
# Elastic Constant Matrix: (Units=GPa)
#
#
# Indices 1 2 3 4 5 6 
#
# 1 169.0988 30.6314 32.8867 9.2589 -3.3500 29.0466
# 2 30.6314 56.0158 21.5697 14.7877 5.6121 15.0632
# 3 32.8867 21.5697 85.3059 23.2470 5.2816 17.9098
# 4 9.2589 14.7877 23.2470 32.3069 6.0515 11.1250
# 5 -3.3500 5.6121 5.2816 6.0515 27.6084 1.0064
# 6 29.0466 15.0632 17.9098 11.1250 1.0064 36.3661
#
#
#
# Elastic Compliance Matrix: (Units=1/GPa)
#
#
# Indices 1 2 3 4 5 6 
#
# 1 0.007480 -0.002796 -0.001788 0.001666 0.001617 -0.004490
# 2 -0.002796 0.023319 -0.001964 -0.006343 -0.003152 -0.004431
# 3 -0.001788 -0.001964 0.016005 -0.008963 -0.000810 -0.002876
# 4 0.001666 -0.006343 -0.008963 0.043525 -0.006063 -0.007437
# 5 0.001617 -0.003152 -0.000810 -0.006063 0.038498 0.001203
# 6 -0.004490 -0.004431 -0.002876 -0.007437 0.001203 0.036578
#
#
# Mechanical properties :
#
#
# Convention : Reuss Voigt Hill
#
# Bulk Modulus (GPa) = 29.66758 53.39956 41.53357
# Shear Modulus (GPa) = 26.35213 34.27848 30.31530
#
# Velocity S-wave (km/s) = 3.38587 3.86165 3.63156
# Velocity P-wave (km/s) = 5.30961 6.56611 5.97100
#
# Compressibility (1/GPa) = 0.03370683
#
# Stress axis : x y z
#
# Youngs Moduli (GPa) = 133.68884 42.88297 62.48018
#
# Poissons Ratio (x) = 0.11991 0.11172
# Poissons Ratio (y) = 0.37382 0.12274
# Poissons Ratio (z) = 0.23905 0.08424
#
# Static dielectric constant tensor:
#      x y z
#    x 1.882480 -0.000150 0.002220 
#    y -0.000150 1.882250 -0.023620 
#    z 0.002220 -0.023620 1.964250 
# 
# From -- ./inp_files/451676.got.cif
#   From: 2010.05.17/outbox.cif.g08.bks.cpg/sg2_226_cif.got.tgz:451676.got - 2010.06.03 11:33:40.
