data_PCOD9093375
_publ_section_title
;
Structure prediction by ZEFSAII (Michael W. Deem and Ramdas Pophale) SiO2 
 PCOD9093375
Probable space group: P -1
;
_chemical_formula_sum "Si O2"
_cell_formula_units_Z 16
_cell_length_a 9.144906
_cell_length_b 11.782383
_cell_length_c 15.627031
_cell_angle_alpha 37.899435
_cell_angle_beta 68.313538
_cell_angle_gamma 43.849380
_cell_volume 632.887322
_symmetry_space_group_name_H-M "P -1"
_symmetry_group_IT_number 2
_symmetry_cell_setting 'triclinic'
loop_
_space_group_symop_operation_xyz
x,y,z
-x,-y,-z
loop_
_atom_site_type_symbol
_atom_site_label
_atom_site_fract_x
_atom_site_fract_y
_atom_site_fract_z
Si Si1 0.029125 0.141670 0.608306
Si Si2 0.481339 0.962580 0.927828
Si Si3 0.492907 0.752939 0.499754
Si Si4 0.066092 0.301799 0.342825
Si Si5 0.704376 0.376814 0.271717
Si Si6 0.114001 0.509650 0.052080
Si Si7 0.744800 0.085760 0.723181
Si Si8 0.318386 0.075501 0.726729
O O1 0.174858 0.865678 0.680074
O O2 0.171157 0.067186 0.706082
O O3 0.767976 0.286694 0.602093
O O4 0.012954 0.331308 0.436378
O O5 0.574125 0.080206 0.801483
O O6 0.269876 0.110721 0.817700
O O7 0.606995 0.649303 0.087578
O O8 0.500000 0.000000 0.000000
O O9 0.494064 0.559027 0.667153
O O10 0.345821 0.011411 0.444230
O O11 0.301041 0.903091 0.374192
O O12 0.693777 0.710575 0.442624
O O13 0.025300 0.507660 0.163785
O O14 0.900745 0.284303 0.349841
O O15 0.397841 0.233371 0.154653
O O16 0.000000 0.500000 0.000000
O O17 0.993216 0.811607 0.880257
#
# Coordination Sequence:
#
# PCOD9093375 Si02
#       8
#     2   2   2   2   2   2   2   2
#     4  11  21  32  57  90 121 144 171 236 295 337
#     4  11  24  40  59  78 106 151 201 240 269 328
#     4   9  17  30  54  83 116 143 175 221 275 345
#     4  10  16  29  52  87 116 143 178 216 280 352
#     4  11  18  33  59  88 111 143 190 221 280 346
#     4  11  16  30  55  82 114 148 177 222 276 335
#     4  11  18  33  55  80 109 150 186 226 281 332
#     4  10  22  36  53  86 123 142 183 231 286 332
#
# _framework density 25.28096
#
# number of rings (size 3 to 8) (size 9 to 14) (size 15 to 20)
#    0.000    1.500    7.500    1.500    0.000    6.500 
#    0.000    3.125    0.000    0.750    0.000    0.000 
#    0.000    0.000    0.000    0.000    0.000    0.000 
#
# Total GULP energy -89094.599182 kJ/mol
# GULP energy per Si atom -5568.412449 kJ/mol
# Density = 2.522342 g / cm^3
# Si number density = 25.280960 Si / 1000 Ang^3
#
#
#
# Elastic Constant Matrix: (Units=GPa)
#
#
# Indices 1 2 3 4 5 6 
#
# 1 104.3829 22.7826 34.1173 24.4995 15.5835 23.8178
# 2 22.7826 61.7721 52.0001 11.7793 9.5499 11.4789
# 3 34.1173 52.0001 156.3207 34.6260 -16.8579 10.1544
# 4 24.4995 11.7793 34.6260 64.9905 -2.3806 -3.0448
# 5 15.5835 9.5499 -16.8579 -2.3806 44.7498 13.2479
# 6 23.8178 11.4789 10.1544 -3.0448 13.2479 29.1941
#
#
#
# Elastic Compliance Matrix: (Units=1/GPa)
#
#
# Indices 1 2 3 4 5 6 
#
# 1 0.014029 -0.000908 -0.001261 -0.005013 -0.002455 -0.010058
# 2 -0.000908 0.025879 -0.009097 0.000085 -0.007827 -0.002710
# 3 -0.001261 -0.009097 0.011586 -0.003926 0.007494 -0.003235
# 4 -0.005013 0.000085 -0.003926 0.019687 -0.001059 0.007956
# 5 -0.002455 -0.007827 0.007494 -0.001059 0.031119 -0.011758
# 6 -0.010058 -0.002710 -0.003235 0.007956 -0.011758 0.050815
#
#
# Mechanical properties :
#
#
# Convention : Reuss Voigt Hill
#
# Bulk Modulus (GPa) = 34.52817 60.03064 47.27940
# Shear Modulus (GPa) = 26.98294 42.02524 34.50409
#
# Velocity S-wave (km/s) = 3.27053 4.08159 3.69836
# Velocity P-wave (km/s) = 5.28671 6.78302 6.08107
#
# Compressibility (1/GPa) = 0.02896186
#
# Stress axis : x y z
#
# Youngs Moduli (GPa) = 71.28252 38.64134 86.30806
#
# Poissons Ratio (x) = 0.03509 0.10880
# Poissons Ratio (y) = 0.06473 0.78518
# Poissons Ratio (z) = 0.08986 0.35154
#
# Static dielectric constant tensor:
#      x y z
#    x 1.970880 -0.064810 -0.040020 
#    y -0.064810 2.317550 -0.065110 
#    z -0.040020 -0.065110 2.006110 
# 
# From -- ./inp_files/347146.got.cif
#   From: 2010.05.17/outbox.cif.g08.bks.cpg/sg2_174_cif.got.tgz:347146.got - 2010.06.03 11:33:40.
