data_PCOD9093867
_publ_section_title
;
Structure prediction by ZEFSAII (Michael W. Deem and Ramdas Pophale) SiO2 
 PCOD9093867
Probable space group: P -1
;
_chemical_formula_sum "Si O2"
_cell_formula_units_Z 16
_cell_length_a 7.514058
_cell_length_b 12.534644
_cell_length_c 11.677160
_cell_angle_alpha 50.012065
_cell_angle_beta 59.142320
_cell_angle_gamma 79.933773
_cell_volume 703.053611
_symmetry_space_group_name_H-M "P -1"
_symmetry_group_IT_number 2
_symmetry_cell_setting 'triclinic'
loop_
_space_group_symop_operation_xyz
x,y,z
-x,-y,-z
loop_
_atom_site_type_symbol
_atom_site_label
_atom_site_fract_x
_atom_site_fract_y
_atom_site_fract_z
Si Si1 0.157672 0.836785 0.289448
Si Si2 0.570490 0.579709 0.041589
Si Si3 0.325537 0.273326 0.572457
Si Si4 0.716235 0.322392 0.234512
Si Si5 0.838256 0.101442 0.488446
Si Si6 0.248030 0.018474 0.932521
Si Si7 0.255001 0.557006 0.371444
Si Si8 0.529210 0.152557 0.192716
O O1 0.167639 0.855105 0.407892
O O2 0.282220 0.717199 0.294977
O O3 0.909901 0.785537 0.365480
O O4 0.257674 0.982756 0.087379
O O5 0.738952 0.493888 0.096176
O O6 0.368451 0.556400 0.211204
O O7 0.500000 0.500000 0.000000
O O8 0.616974 0.747852 0.881718
O O9 0.501696 0.277105 0.414344
O O10 0.352527 0.171151 0.737969
O O11 0.338680 0.435611 0.495462
O O12 0.876090 0.244620 0.301266
O O13 0.672143 0.247793 0.176767
O O14 0.615371 0.991165 0.606165
O O15 0.000000 0.000000 0.500000
O O16 0.332780 0.899991 0.914401
O O17 0.000000 0.000000 0.000000
O O18 0.000000 0.500000 0.500000
#
# Coordination Sequence:
#
# PCOD9093867 Si02
#       8
#     2   2   2   2   2   2   2   2
#     4  10  21  37  56  87 125 148 193 243 294 355
#     4   9  19  37  61  89 112 149 202 251 288 346
#     4   9  18  36  60  88 112 150 197 241 288 348
#     4  10  21  39  63  84 114 152 205 241 291 353
#     4  12  26  39  58  87 122 160 195 245 304 351
#     4  10  20  33  59  88 117 147 195 240 294 343
#     4   9  17  34  59  86 115 151 190 240 293 348
#     4  11  21  39  64  86 115 157 200 246 292 354
#
# _framework density 22.757867999999998
#
# number of rings (size 3 to 8) (size 9 to 14) (size 15 to 20)
#    0.000    2.000    2.500    1.125    3.500    1.500 
#    0.000    4.375    0.000    0.000    0.000    0.000 
#    0.000    0.000    0.000    0.000    0.000    0.000 
#
# Total GULP energy -89289.463976 kJ/mol
# GULP energy per Si atom -5580.591499 kJ/mol
# Density = 2.270607 g / cm^3
# Si number density = 22.757868 Si / 1000 Ang^3
#
#
#
# Elastic Constant Matrix: (Units=GPa)
#
#
# Indices 1 2 3 4 5 6 
#
# 1 73.3422 35.4729 21.0698 -0.5751 15.8888 -15.7455
# 2 35.4729 130.4793 51.2561 -8.6090 32.0877 -35.7699
# 3 21.0698 51.2561 119.8400 -25.2129 38.7363 -7.8139
# 4 -0.5751 -8.6090 -25.2129 42.3276 -14.0985 11.2620
# 5 15.8888 32.0877 38.7363 -14.0985 41.5151 -3.7456
# 6 -15.7455 -35.7699 -7.8139 11.2620 -3.7456 35.0878
#
#
#
# Elastic Compliance Matrix: (Units=1/GPa)
#
#
# Indices 1 2 3 4 5 6 
#
# 1 0.017223 -0.001250 -0.001238 -0.004402 -0.005331 0.007022
# 2 -0.001250 0.015444 -0.003931 -0.006134 -0.008487 0.015371
# 3 -0.001238 -0.003931 0.013676 0.005917 -0.007620 -0.004230
# 4 -0.004402 -0.006134 0.005917 0.033903 0.010918 -0.016627
# 5 -0.005331 -0.008487 -0.007620 0.010918 0.042449 -0.011715
# 6 0.007022 0.015371 -0.004230 -0.016627 -0.011715 0.050465
#
#
# Mechanical properties :
#
#
# Convention : Reuss Voigt Hill
#
# Bulk Modulus (GPa) = 29.84660 59.91768 44.88214
# Shear Modulus (GPa) = 25.35922 38.17696 31.76809
#
# Velocity S-wave (km/s) = 3.34174 4.10021 3.74025
# Velocity P-wave (km/s) = 5.29462 6.98578 6.19815
#
# Compressibility (1/GPa) = 0.03350466
#
# Stress axis : x y z
#
# Youngs Moduli (GPa) = 58.06116 64.74870 73.12297
#
# Poissons Ratio (x) = 0.08094 0.09056
# Poissons Ratio (y) = 0.07258 0.28742
# Poissons Ratio (z) = 0.07191 0.25451
#
# Static dielectric constant tensor:
#      x y z
#    x 2.025790 -0.014470 0.156590 
#    y -0.014470 1.821840 -0.014210 
#    z 0.156590 -0.014210 2.053600 
# 
# From -- ./inp_files/274602.got.cif
#   From: 2010.05.17/outbox.cif.g08.bks.cpg/sg2_138_cif.got.tgz:274602.got - 2010.06.03 11:33:40.
