data_PCOD9093477
_publ_section_title
;
Structure prediction by ZEFSAII (Michael W. Deem and Ramdas Pophale) SiO2 
 PCOD9093477
Probable space group: P -1
;
_chemical_formula_sum "Si O2"
_cell_formula_units_Z 16
_cell_length_a 18.804833
_cell_length_b 12.233143
_cell_length_c 12.360866
_cell_angle_alpha 27.008597
_cell_angle_beta 36.153854
_cell_angle_gamma 44.166852
_cell_volume 761.793911
_symmetry_space_group_name_H-M "P -1"
_symmetry_group_IT_number 2
_symmetry_cell_setting 'triclinic'
loop_
_space_group_symop_operation_xyz
x,y,z
-x,-y,-z
loop_
_atom_site_type_symbol
_atom_site_label
_atom_site_fract_x
_atom_site_fract_y
_atom_site_fract_z
Si Si1 0.939346 0.486435 0.406599
Si Si2 0.286339 0.039598 0.418049
Si Si3 0.705333 0.539220 0.795081
Si Si4 0.603358 0.800817 0.054121
Si Si5 0.130810 0.027384 0.008596
Si Si6 0.493489 0.324876 0.503164
Si Si7 0.404650 0.188690 0.499774
Si Si8 0.854275 0.219165 0.014627
O O1 0.834675 0.542900 0.572765
O O2 0.916191 0.203006 0.660965
O O3 0.065140 0.551618 0.252425
O O4 0.919041 0.701367 0.154798
O O5 0.399164 0.862812 0.445436
O O6 0.313654 0.258720 0.271130
O O7 0.170643 0.920096 0.721009
O O8 0.282327 0.115303 0.230927
O O9 0.620406 0.606926 0.740059
O O10 0.724108 0.301936 0.053549
O O11 0.548120 0.576304 0.254310
O O12 0.612865 0.736065 0.225725
O O13 0.500000 0.000000 0.000000
O O14 0.097274 0.940774 0.003022
O O15 0.276611 0.058635 0.801428
O O16 0.450613 0.310285 0.446157
O O17 0.500000 0.000000 0.500000
#
# Coordination Sequence:
#
# PCOD9093477 Si02
#       8
#     2   2   2   2   2   2   2   2
#     4  10  21  35  56  78 125 166 201 241 301 357
#     4  11  19  34  54  85 114 145 197 248 289 351
#     4  10  20  33  50  85 121 153 192 236 285 374
#     4   9  21  39  59  78 108 151 210 252 286 345
#     4  10  20  36  49  84 117 160 204 236 284 379
#     4  10  20  40  58  81 116 157 195 246 299 349
#     4  11  20  37  57  87 123 162 192 233 309 365
#     4  11  20  33  54  79 122 160 196 246 297 346
#
# _framework density 21.003056999999998
#
# number of rings (size 3 to 8) (size 9 to 14) (size 15 to 20)
#    0.000    1.750    3.750    2.625    1.750    1.000 
#   13.500    6.875    0.000    0.000    0.000    4.375 
#    0.000    1.000    0.000    0.000    0.000    0.000 
#
# Total GULP energy -89129.921907 kJ/mol
# GULP energy per Si atom -5570.620119 kJ/mol
# Density = 2.095525 g / cm^3
# Si number density = 21.003057 Si / 1000 Ang^3
#
#
#
# Elastic Constant Matrix: (Units=GPa)
#
#
# Indices 1 2 3 4 5 6 
#
# 1 74.8250 29.1693 12.9782 7.0948 5.7807 -6.5913
# 2 29.1693 62.4670 11.8238 -12.9451 13.1328 9.9601
# 3 12.9782 11.8238 91.9024 4.2848 12.8751 -2.0940
# 4 7.0948 -12.9451 4.2848 40.4844 2.2946 10.4452
# 5 5.7807 13.1328 12.8751 2.2946 32.9533 2.0493
# 6 -6.5913 9.9601 -2.0940 10.4452 2.0493 23.0962
#
#
#
# Elastic Compliance Matrix: (Units=1/GPa)
#
#
# Indices 1 2 3 4 5 6 
#
# 1 0.023702 -0.018346 -0.000182 -0.015718 0.002982 0.021503
# 2 -0.018346 0.037271 -0.002600 0.024131 -0.010338 -0.031540
# 3 -0.000182 -0.002600 0.011969 -0.002829 -0.003645 0.003757
# 4 -0.015718 0.024131 -0.002829 0.044838 -0.006711 -0.034831
# 5 0.002982 -0.010338 -0.003645 -0.006711 0.035532 0.004861
# 6 0.021503 -0.031540 0.003757 -0.034831 0.004861 0.078697
#
#
# Mechanical properties :
#
#
# Convention : Reuss Voigt Hill
#
# Bulk Modulus (GPa) = 32.58715 37.45966 35.02341
# Shear Modulus (GPa) = 17.57511 30.98832 24.28172
#
# Velocity S-wave (km/s) = 2.89587 3.84529 3.40384
# Velocity P-wave (km/s) = 5.17016 6.13099 5.67096
#
# Compressibility (1/GPa) = 0.03068694
#
# Stress axis : x y z
#
# Youngs Moduli (GPa) = 42.19029 26.83083 83.54609
#
# Poissons Ratio (x) = 0.49224 0.01519
# Poissons Ratio (y) = 0.77403 0.21719
# Poissons Ratio (z) = 0.00767 0.06975
#
# Static dielectric constant tensor:
#      x y z
#    x 1.782580 -0.068290 0.046980 
#    y -0.068290 1.786760 -0.031620 
#    z 0.046980 -0.031620 1.931490 
# 
# From -- ./inp_files/464242.got.cif
#   From: 2010.05.17/outbox.cif.g08.bks.cpg/sg2_233_cif.got.tgz:464242.got - 2010.06.03 11:33:40.
