data_PCOD9093881
_publ_section_title
;
Structure prediction by ZEFSAII (Michael W. Deem and Ramdas Pophale) SiO2 
 PCOD9093881
Probable space group: P -1
;
_chemical_formula_sum "Si O2"
_cell_formula_units_Z 16
_cell_length_a 16.803981
_cell_length_b 10.710015
_cell_length_c 23.347970
_cell_angle_alpha 34.849408
_cell_angle_beta 160.205267
_cell_angle_gamma 146.256837
_cell_volume 773.916859
_symmetry_space_group_name_H-M "P -1"
_symmetry_group_IT_number 2
_symmetry_cell_setting 'triclinic'
loop_
_space_group_symop_operation_xyz
x,y,z
-x,-y,-z
loop_
_atom_site_type_symbol
_atom_site_label
_atom_site_fract_x
_atom_site_fract_y
_atom_site_fract_z
Si Si1 0.240941 0.632139 0.947474
Si Si2 0.414438 0.155251 0.719788
Si Si3 0.722804 0.853580 0.238041
Si Si4 0.224967 0.584281 0.222052
Si Si5 0.477050 0.193491 0.547805
Si Si6 0.817389 0.271505 0.436908
Si Si7 0.676737 0.359247 0.192670
Si Si8 0.908442 0.522649 0.650999
O O1 0.057951 0.470716 0.930344
O O2 0.112435 0.566634 0.823284
O O3 0.246059 0.895378 0.860547
O O4 0.527408 0.658954 0.141244
O O5 0.387871 0.167829 0.765076
O O6 0.675519 0.300071 0.814356
O O7 0.214479 0.270047 0.514385
O O8 0.372753 0.892333 0.773750
O O9 0.995135 0.834507 0.430244
O O10 0.292330 0.346581 0.361039
O O11 0.390942 0.745686 0.323433
O O12 0.688310 0.299448 0.604321
O O13 0.337209 0.924885 0.551433
O O14 0.648877 0.327263 0.253362
O O15 0.000000 0.500000 0.500000
O O16 0.953962 0.492551 0.308845
O O17 0.500000 0.500000 0.000000
#
# Coordination Sequence:
#
# PCOD9093881 Si02
#       8
#     2   2   2   2   2   2   2   2
#     4  10  20  33  59  95 125 147 197 263 310 343
#     4  11  20  38  68  92 120 163 210 258 303 364
#     4  11  22  36  60  92 126 161 202 254 308 367
#     4   9  17  33  64  95 119 149 208 270 296 347
#     4   9  18  36  63  93 116 158 211 253 303 361
#     4  12  25  42  62  88 129 170 203 246 318 383
#     4  12  25  40  61  95 127 162 208 256 309 364
#     4  10  20  39  69  89 117 160 213 259 295 364
#
# _framework density 20.674054000000002
#
# number of rings (size 3 to 8) (size 9 to 14) (size 15 to 20)
#    0.000    1.500    5.000    1.875    1.750    0.500 
#    0.000    2.500    0.000    0.000    0.000    0.000 
#    0.000    0.000    0.000    0.000    0.000    0.000 
#
# Total GULP energy -89310.337771 kJ/mol
# GULP energy per Si atom -5581.896111 kJ/mol
# Density = 2.062700 g / cm^3
# Si number density = 20.674054 Si / 1000 Ang^3
#
#
#
# Elastic Constant Matrix: (Units=GPa)
#
#
# Indices 1 2 3 4 5 6 
#
# 1 59.8399 30.6870 -0.2303 -12.1171 0.6497 22.5835
# 2 30.6870 124.5280 21.5166 -8.2058 -4.1508 23.4972
# 3 -0.2303 21.5166 68.4539 -8.3099 -3.2155 7.1305
# 4 -12.1171 -8.2058 -8.3099 22.1396 2.2668 1.7330
# 5 0.6497 -4.1508 -3.2155 2.2668 19.0486 4.5249
# 6 22.5835 23.4972 7.1305 1.7330 4.5249 36.0294
#
#
#
# Elastic Compliance Matrix: (Units=1/GPa)
#
#
# Indices 1 2 3 4 5 6 
#
# 1 0.028813 -0.003421 0.005249 0.017739 0.001295 -0.017884
# 2 -0.003421 0.010325 -0.002523 0.001065 0.002884 -0.004504
# 3 0.005249 -0.002523 0.017181 0.008580 0.002522 -0.005774
# 4 0.017739 0.001065 0.008580 0.059983 -0.002234 -0.016117
# 5 0.001295 0.002884 0.002522 -0.002234 0.056182 -0.010140
# 6 -0.017884 -0.004504 -0.005774 -0.016117 -0.010140 0.045094
#
#
# Mechanical properties :
#
#
# Convention : Reuss Voigt Hill
#
# Bulk Modulus (GPa) = 18.20485 39.64092 28.92288
# Shear Modulus (GPa) = 21.07248 28.83341 24.95294
#
# Velocity S-wave (km/s) = 3.19607 3.73857 3.47791
# Velocity P-wave (km/s) = 4.73757 6.15238 5.49074
#
# Compressibility (1/GPa) = 0.05493042
#
# Stress axis : x y z
#
# Youngs Moduli (GPa) = 34.70631 96.84908 58.20505
#
# Poissons Ratio (x) = 0.33128 -0.30554
# Poissons Ratio (y) = 0.11872 0.14686
# Poissons Ratio (z) = -0.18219 0.24436
#
# Static dielectric constant tensor:
#      x y z
#    x 1.749330 0.004190 0.002680 
#    y 0.004190 1.745830 0.015150 
#    z 0.002680 0.015150 1.779720 
# 
# From -- ./inp_files/284960.got.cif
#   From: 2010.05.17/outbox.cif.g08.bks.cpg/sg2_143_cif.got.tgz:284960.got - 2010.06.03 11:33:40.
