data_PCOD9093769
_publ_section_title
;
Structure prediction by ZEFSAII (Michael W. Deem and Ramdas Pophale) SiO2 
 PCOD9093769
Probable space group: P -1
;
_chemical_formula_sum "Si O2"
_cell_formula_units_Z 14
_cell_length_a 13.279629
_cell_length_b 12.640405
_cell_length_c 7.067136
_cell_angle_alpha 90.336781
_cell_angle_beta 57.714921
_cell_angle_gamma 45.707977
_cell_volume 559.745594
_symmetry_space_group_name_H-M "P -1"
_symmetry_group_IT_number 2
_symmetry_cell_setting 'triclinic'
loop_
_space_group_symop_operation_xyz
x,y,z
-x,-y,-z
loop_
_atom_site_type_symbol
_atom_site_label
_atom_site_fract_x
_atom_site_fract_y
_atom_site_fract_z
Si Si1 0.316021 0.215308 0.256979
Si Si2 0.551937 0.533760 0.168249
Si Si3 0.418008 0.925249 0.674705
Si Si4 0.421836 0.408376 0.420891
Si Si5 0.985785 0.636363 0.968713
Si Si6 0.006664 0.708198 0.372154
Si Si7 0.403439 0.858227 0.257918
O O1 0.089993 0.328738 0.443176
O O2 0.379572 0.178668 0.414192
O O3 0.385146 0.268166 0.074674
O O4 0.500000 0.000000 0.000000
O O5 0.482538 0.463800 0.234511
O O6 0.581425 0.543436 0.361044
O O7 0.383339 0.747548 0.281881
O O8 0.769305 0.399025 0.836142
O O9 0.405919 0.814195 0.767713
O O10 0.444424 0.879833 0.425091
O O11 0.227838 0.149386 0.895446
O O12 0.187183 0.528227 0.639549
O O13 0.000000 0.500000 0.000000
O O14 0.008815 0.674938 0.148751
O O15 0.812045 0.932579 0.601742
#
# Coordination Sequence:
#
# PCOD9093769 Si02
#       7
#     2   2   2   2   2   2   2
#     4  10  21  36  57  88 117 149 193 233 286 345
#     4   9  18  35  58  84 116 152 194 239 278 334
#     4  10  21  39  60  83 119 152 180 240 293 330
#     4   9  19  35  58  88 114 149 197 234 282 345
#     4  10  20  33  57  88 113 147 193 233 286 347
#     4   9  19  33  52  82 116 150 189 232 285 341
#     4   9  20  37  58  84 117 153 192 237 284 337
#
# _framework density 25.011364
#
# number of rings (size 3 to 8) (size 9 to 14) (size 15 to 20)
#    0.000    2.571    0.000    0.857    0.000   15.429 
#    0.000   10.714    0.000    6.857    0.000    0.000 
#    0.000    0.000    0.000    0.000    0.000    0.000 
#
# Total GULP energy -78147.488855 kJ/mol
# GULP energy per Si atom -5581.963490 kJ/mol
# Density = 2.495444 g / cm^3
# Si number density = 25.011364 Si / 1000 Ang^3
#
#
#
# Elastic Constant Matrix: (Units=GPa)
#
#
# Indices 1 2 3 4 5 6 
#
# 1 110.0426 40.9617 28.7908 8.3270 -1.0002 0.9770
# 2 40.9617 229.7719 99.0264 -13.6790 -42.5111 42.4357
# 3 28.7908 99.0264 140.0038 4.4405 -20.2514 17.8864
# 4 8.3270 -13.6790 4.4405 38.8673 9.1083 -5.1185
# 5 -1.0002 -42.5111 -20.2514 9.1083 39.0086 -10.3143
# 6 0.9770 42.4357 17.8864 -5.1185 -10.3143 22.7091
#
#
#
# Elastic Compliance Matrix: (Units=1/GPa)
#
#
# Indices 1 2 3 4 5 6 
#
# 1 0.010415 -0.002572 -0.000976 -0.002153 -0.001492 0.003965
# 2 -0.002572 0.009977 -0.004276 0.001759 0.004854 -0.012563
# 3 -0.000976 -0.004276 0.010723 -0.002916 0.001454 -0.000410
# 4 -0.002153 0.001759 -0.002916 0.028854 -0.005577 0.003073
# 5 -0.001492 0.004854 0.001454 -0.005577 0.034012 0.004040
# 6 0.003965 -0.012563 -0.000410 0.003073 0.004040 0.070191
#
#
# Mechanical properties :
#
#
# Convention : Reuss Voigt Hill
#
# Bulk Modulus (GPa) = 64.66342 90.81958 77.74150
# Shear Modulus (GPa) = 27.03050 40.85294 33.94172
#
# Velocity S-wave (km/s) = 3.29101 4.04589 3.68781
# Velocity P-wave (km/s) = 6.35222 7.62993 7.02020
#
# Compressibility (1/GPa) = 0.01546469
#
# Stress axis : x y z
#
# Youngs Moduli (GPa) = 96.01995 100.23316 93.25502
#
# Poissons Ratio (x) = 0.25783 0.09104
# Poissons Ratio (y) = 0.24699 0.39879
# Poissons Ratio (z) = 0.09374 0.42863
#
# Static dielectric constant tensor:
#      x y z
#    x 2.012650 -0.027060 0.033190 
#    y -0.027060 2.056530 -0.054000 
#    z 0.033190 -0.054000 2.025930 
# 
# From -- ./inp_files/470374.got.cif
#   From: 2010.05.17/outbox.cif.g08.bks.cpg/sg2_236_cif.got.tgz:470374.got - 2010.06.03 11:33:40.
