data_PCOD9093397
_publ_section_title
;
Structure prediction by ZEFSAII (Michael W. Deem and Ramdas Pophale) SiO2 
 PCOD9093397
Probable space group: P -1
;
_chemical_formula_sum "Si O2"
_cell_formula_units_Z 14
_cell_length_a 8.857916
_cell_length_b 12.853036
_cell_length_c 12.403673
_cell_angle_alpha 67.276701
_cell_angle_beta 33.359159
_cell_angle_gamma 48.973764
_cell_volume 539.322965
_symmetry_space_group_name_H-M "P -1"
_symmetry_group_IT_number 2
_symmetry_cell_setting 'triclinic'
loop_
_space_group_symop_operation_xyz
x,y,z
-x,-y,-z
loop_
_atom_site_type_symbol
_atom_site_label
_atom_site_fract_x
_atom_site_fract_y
_atom_site_fract_z
Si Si1 0.574647 0.151887 0.306555
Si Si2 0.374114 0.794317 0.355076
Si Si3 0.759472 0.000857 0.481404
Si Si4 0.371769 0.729213 0.972010
Si Si5 0.405909 0.493467 0.721981
Si Si6 0.165217 0.587837 0.284366
Si Si7 0.043889 0.285887 0.265523
O O1 0.390657 0.086055 0.399481
O O2 0.775460 0.165680 0.086681
O O3 0.236987 0.326631 0.466358
O O4 0.762592 0.062491 0.340095
O O5 0.661134 0.619534 0.225074
O O6 0.052998 0.814927 0.605236
O O7 0.162679 0.887497 0.337331
O O8 0.483079 0.863046 0.342481
O O9 0.671762 0.554298 0.828624
O O10 0.571713 0.768302 0.909612
O O11 0.108683 0.721422 0.200775
O O12 0.548136 0.466880 0.768356
O O13 0.756562 0.426382 0.462671
O O14 0.081596 0.655845 0.804277
#
# Coordination Sequence:
#
# PCOD9093397 Si02
#       7
#     2   2   2   2   2   2   2
#     4  11  21  38  59  82 110 156 178 229 275 327
#     4   9  17  34  55  88 108 140 192 231 255 345
#     4  10  20  32  60  86 108 150 196 212 272 328
#     4  11  23  37  57  85 112 142 186 234 279 331
#     4   9  18  33  58  84 104 148 181 223 287 323
#     4  11  23  37  57  85 112 142 186 234 279 331
#     4   9  18  33  58  84 104 148 181 223 287 323
#
# _framework density 25.958470999999999
#
# number of rings (size 3 to 8) (size 9 to 14) (size 15 to 20)
#    0.857    1.143    4.286    0.429    4.000    0.571 
#    0.000    2.857    0.000    3.429    0.000    0.000 
#    0.000    0.000    0.000    0.000    0.000    0.000 
#
# Total GULP energy -78305.162519 kJ/mol
# GULP energy per Si atom -5593.225894 kJ/mol
# Density = 2.589939 g / cm^3
# Si number density = 25.958471 Si / 1000 Ang^3
#
#
#
# Elastic Constant Matrix: (Units=GPa)
#
#
# Indices 1 2 3 4 5 6 
#
# 1 110.4572 36.4359 23.1559 -14.0242 19.4495 -14.2607
# 2 36.4359 101.3397 21.1726 -14.9002 9.5141 -5.8309
# 3 23.1559 21.1726 94.2372 -27.8178 7.8837 -10.0256
# 4 -14.0242 -14.9002 -27.8178 46.0697 -9.9664 17.2710
# 5 19.4495 9.5141 7.8837 -9.9664 21.8725 -13.3545
# 6 -14.2607 -5.8309 -10.0256 17.2710 -13.3545 51.5179
#
#
#
# Elastic Compliance Matrix: (Units=1/GPa)
#
#
# Indices 1 2 3 4 5 6 
#
# 1 0.011958 -0.003199 -0.001563 -0.000393 -0.008510 0.000570
# 2 -0.003199 0.011654 -0.001188 0.002105 -0.001360 -0.000856
# 3 -0.001563 -0.001188 0.013393 0.007422 0.000222 -0.000391
# 4 -0.000393 0.002105 0.007422 0.030801 0.006475 -0.007074
# 5 -0.008510 -0.001360 0.000222 0.006475 0.064055 0.011968
# 6 0.000570 -0.000856 -0.000391 -0.007074 0.011968 0.024869
#
#
# Mechanical properties :
#
#
# Convention : Reuss Voigt Hill
#
# Bulk Modulus (GPa) = 39.83303 51.95143 45.89223
# Shear Modulus (GPa) = 28.24856 38.90999 33.57928
#
# Velocity S-wave (km/s) = 3.30240 3.87581 3.60053
# Velocity P-wave (km/s) = 5.46986 6.33134 5.91630
#
# Compressibility (1/GPa) = 0.02510479
#
# Stress axis : x y z
#
# Youngs Moduli (GPa) = 83.62400 85.80652 74.66491
#
# Poissons Ratio (x) = 0.27449 0.11670
# Poissons Ratio (y) = 0.26751 0.08873
# Poissons Ratio (z) = 0.13071 0.10197
#
# Static dielectric constant tensor:
#      x y z
#    x 1.984230 -0.000620 0.016070 
#    y -0.000620 2.058400 0.022340 
#    z 0.016070 0.022340 2.103810 
# 
# From -- ./inp_files/164014.got.cif
#   From: 2010.05.17/outbox.cif.g08.bks.cpg/sg2_83_cif.got.tgz:164014.got - 2010.06.03 11:33:40.
