data_PCOD9093467
_publ_section_title
;
Structure prediction by ZEFSAII (Michael W. Deem and Ramdas Pophale) SiO2 
 PCOD9093467
Probable space group: P -1
;
_chemical_formula_sum "Si O2"
_cell_formula_units_Z 16
_cell_length_a 14.832524
_cell_length_b 18.831061
_cell_length_c 8.421566
_cell_angle_alpha 72.783398
_cell_angle_beta 72.986592
_cell_angle_gamma 18.986208
_cell_volume 730.378773
_symmetry_space_group_name_H-M "P -1"
_symmetry_group_IT_number 2
_symmetry_cell_setting 'triclinic'
loop_
_space_group_symop_operation_xyz
x,y,z
-x,-y,-z
loop_
_atom_site_type_symbol
_atom_site_label
_atom_site_fract_x
_atom_site_fract_y
_atom_site_fract_z
Si Si1 0.161762 0.298821 0.900103
Si Si2 0.471490 0.108929 0.139622
Si Si3 0.677979 0.255879 0.955764
Si Si4 0.157591 0.456618 0.392980
Si Si5 0.777189 0.343723 0.857790
Si Si6 0.265933 0.938135 0.098785
Si Si7 0.827499 0.842778 0.418278
Si Si8 0.410403 0.905896 0.354670
O O1 0.885903 0.505329 0.799233
O O2 0.359962 0.214884 0.774837
O O3 0.304302 0.113939 0.909397
O O4 0.184842 0.297073 0.077945
O O5 0.536951 0.052814 0.329552
O O6 0.559002 0.125485 0.028798
O O7 0.669780 0.346502 0.833348
O O8 0.612840 0.232555 0.896243
O O9 0.464410 0.423564 0.103056
O O10 0.000000 0.000000 0.000000
O O11 0.988747 0.648600 0.429671
O O12 0.000000 0.500000 0.500000
O O13 0.454415 0.235723 0.469806
O O14 0.985740 0.232187 0.709896
O O15 0.961303 0.178329 0.022199
O O16 0.275870 0.949379 0.272156
O O17 0.787652 0.888607 0.592617
#
# Coordination Sequence:
#
# PCOD9093467 Si02
#       8
#     2   2   2   2   2   2   2   2
#     4   8  15  31  50  70 103 143 182 221 255 296
#     4   8  15  29  50  74 101 136 181 220 253 293
#     4   9  18  35  60  83 102 127 166 218 266 310
#     4   9  19  32  48  72 105 145 183 214 253 304
#     4   9  19  36  58  81 103 130 171 215 263 315
#     4   9  18  33  55  80 105 138 176 215 257 308
#     4  10  20  33  51  77 109 142 171 214 266 313
#     4  10  20  33  50  76 112 145 175 211 260 315
#
# _framework density 21.90644
#
# number of rings (size 3 to 8) (size 9 to 14) (size 15 to 20)
#    0.000    3.000    0.000    0.000    0.000    8.500 
#    0.000    1.250    0.000   21.000    0.000    0.000 
#    0.000    0.000    0.000    0.000    0.000    0.000 
#
# Total GULP energy -89211.100932 kJ/mol
# GULP energy per Si atom -5575.693808 kJ/mol
# Density = 2.185658 g / cm^3
# Si number density = 21.906440 Si / 1000 Ang^3
#
#
#
# Elastic Constant Matrix: (Units=GPa)
#
#
# Indices 1 2 3 4 5 6 
#
# 1 123.9632 24.3833 34.2680 -0.0290 19.6708 32.5022
# 2 24.3833 80.6654 26.0727 6.0387 6.7430 9.8510
# 3 34.2680 26.0727 52.5852 1.8016 18.1650 9.8980
# 4 -0.0290 6.0387 1.8016 29.7108 4.0425 -0.5740
# 5 19.6708 6.7430 18.1650 4.0425 29.5197 9.1011
# 6 32.5022 9.8510 9.8980 -0.5740 9.1011 24.5206
#
#
#
# Elastic Compliance Matrix: (Units=1/GPa)
#
#
# Indices 1 2 3 4 5 6 
#
# 1 0.013979 -0.000429 -0.005618 0.000266 -0.000946 -0.015732
# 2 -0.000429 0.015425 -0.007599 -0.003160 0.003031 -0.003759
# 3 -0.005618 -0.007599 0.030836 0.001759 -0.014848 0.003604
# 4 0.000266 -0.003160 0.001759 0.035130 -0.006398 0.003403
# 5 -0.000946 0.003031 -0.014848 -0.006398 0.047443 -0.011728
# 6 -0.015732 -0.003759 0.003604 0.003403 -0.011728 0.066123
#
#
# Mechanical properties :
#
#
# Convention : Reuss Voigt Hill
#
# Bulk Modulus (GPa) = 30.35170 47.40686 38.87928
# Shear Modulus (GPa) = 20.22557 28.24955 24.23756
#
# Velocity S-wave (km/s) = 3.04183 3.59493 3.32989
# Velocity P-wave (km/s) = 5.12076 6.23851 5.70707
#
# Compressibility (1/GPa) = 0.03294708
#
# Stress axis : x y z
#
# Youngs Moduli (GPa) = 71.53361 64.82890 32.42970
#
# Poissons Ratio (x) = 0.02784 0.18219
# Poissons Ratio (y) = 0.03072 0.24644
# Poissons Ratio (z) = 0.40188 0.49266
#
# Static dielectric constant tensor:
#      x y z
#    x 1.839060 0.001220 0.041270 
#    y 0.001220 1.920160 -0.026390 
#    z 0.041270 -0.026390 1.841360 
# 
# From -- ./inp_files/313529.got.cif
#   From: 2010.05.17/outbox.cif.g08.bks.cpg/sg2_157_cif.got.tgz:313529.got - 2010.06.03 11:33:40.
