data_PCOD9093221
_publ_section_title
;
Structure prediction by ZEFSAII (Michael W. Deem and Ramdas Pophale) SiO2 
 PCOD9093221
Probable space group: P -1
;
_chemical_formula_sum "Si O2"
_cell_formula_units_Z 12
_cell_length_a 8.988827
_cell_length_b 13.800050
_cell_length_c 11.347835
_cell_angle_alpha 131.154841
_cell_angle_beta 41.853769
_cell_angle_gamma 104.828979
_cell_volume 625.599601
_symmetry_space_group_name_H-M "P -1"
_symmetry_group_IT_number 2
_symmetry_cell_setting 'triclinic'
loop_
_space_group_symop_operation_xyz
x,y,z
-x,-y,-z
loop_
_atom_site_type_symbol
_atom_site_label
_atom_site_fract_x
_atom_site_fract_y
_atom_site_fract_z
Si Si1 0.399845 0.145287 0.100868
Si Si2 0.095596 0.347873 0.653082
Si Si3 0.948297 0.303701 0.342178
Si Si4 0.470823 0.443945 0.601390
Si Si5 0.700627 0.279164 0.904058
Si Si6 0.254123 0.448162 0.151028
O O1 0.266046 0.275564 0.379309
O O2 0.616235 0.168339 0.924758
O O3 0.179692 0.164858 0.153590
O O4 0.500000 0.000000 0.000000
O O5 0.257558 0.392557 0.678778
O O6 0.848961 0.492481 0.869223
O O7 0.987819 0.241955 0.680315
O O8 0.729353 0.311906 0.392941
O O9 0.808248 0.411140 0.619407
O O10 0.084365 0.379601 0.248486
O O11 0.500000 0.500000 0.500000
O O12 0.397103 0.582626 0.839780
O O13 0.539283 0.333776 0.921626
#
# Coordination Sequence:
#
# PCOD9093221 Si02
#       6
#     2   2   2   2   2   2
#     4  10  21  37  53  69  97 139 178 207 232 278
#     4  11  19  31  54  77 103 131 158 205 258 299
#     4   8  15  29  50  72  99 129 163 201 245 295
#     4  11  17  31  53  79 108 127 150 202 267 310
#     4  10  20  32  51  79 102 127 166 205 251 301
#     4   8  14  28  48  75 100 124 157 205 255 297
#
# _framework density 19.181597
#
# number of rings (size 3 to 8) (size 9 to 14) (size 15 to 20)
#    0.000    2.333    3.333    3.000    0.000    0.667 
#    0.000    0.833    0.000    1.000    0.000    0.000 
#    0.000    0.000    0.000    0.000    0.000    0.000 
#
# Total GULP energy -66830.304026 kJ/mol
# GULP energy per Si atom -5569.192002 kJ/mol
# Density = 1.913794 g / cm^3
# Si number density = 19.181597 Si / 1000 Ang^3
#
#
#
# Elastic Constant Matrix: (Units=GPa)
#
#
# Indices 1 2 3 4 5 6 
#
# 1 130.2478 52.4856 21.8926 -0.6906 -42.2366 -5.0246
# 2 52.4856 117.0067 33.9148 -10.2912 -38.5795 -8.4273
# 3 21.8926 33.9148 20.5907 -14.4976 -14.9151 0.7355
# 4 -0.6906 -10.2912 -14.4976 30.9392 2.7263 -9.9168
# 5 -42.2366 -38.5795 -14.9151 2.7263 32.0009 -5.8263
# 6 -5.0246 -8.4273 0.7355 -9.9168 -5.8263 26.7488
#
#
#
# Elastic Compliance Matrix: (Units=1/GPa)
#
#
# Indices 1 2 3 4 5 6 
#
# 1 0.014953 0.002458 -0.003973 0.000072 0.022407 0.008600
# 2 0.002458 0.022842 -0.029858 -0.004508 0.019253 0.011001
# 3 -0.003973 -0.029858 0.196734 0.086589 0.047993 0.026993
# 4 0.000072 -0.004508 0.086589 0.078936 0.034290 0.032946
# 5 0.022407 0.019253 0.047993 0.034290 0.111863 0.046033
# 6 0.008600 0.011001 0.026993 0.032946 0.046033 0.063965
#
#
# Mechanical properties :
#
#
# Convention : Reuss Voigt Hill
#
# Bulk Modulus (GPa) = 5.82126 53.82569 29.82347
# Shear Modulus (GPa) = 8.20612 28.57459 18.39036
#
# Velocity S-wave (km/s) = 2.07061 3.86383 3.09973
# Velocity P-wave (km/s) = 2.95938 6.93020 5.32849
#
# Compressibility (1/GPa) = 0.17178415
#
# Stress axis : x y z
#
# Youngs Moduli (GPa) = 66.87441 43.77823 5.08300
#
# Poissons Ratio (x) = -0.10759 0.02019
# Poissons Ratio (y) = -0.16436 0.15177
# Poissons Ratio (z) = 0.26568 1.30713
#
# Static dielectric constant tensor:
#      x y z
#    x 1.697420 -0.019870 -0.036130 
#    y -0.019870 1.682880 -0.023420 
#    z -0.036130 -0.023420 1.722400 
# 
# From -- ./inp_files/149102.got.cif
#   From: 2010.05.17/outbox.cif.g08.bks.cpg/sg2_75_cif.got.tgz:149102.got - 2010.06.03 11:33:40.
