data_PCOD9093083
_publ_section_title
;
Structure prediction by ZEFSAII (Michael W. Deem and Ramdas Pophale) SiO2 
 PCOD9093083
Probable space group: P -1
;
_chemical_formula_sum "Si O2"
_cell_formula_units_Z 14
_cell_length_a 15.775905
_cell_length_b 5.849685
_cell_length_c 10.567165
_cell_angle_alpha 123.396370
_cell_angle_beta 52.671012
_cell_angle_gamma 118.824777
_cell_volume 631.021698
_symmetry_space_group_name_H-M "P -1"
_symmetry_group_IT_number 2
_symmetry_cell_setting 'triclinic'
loop_
_space_group_symop_operation_xyz
x,y,z
-x,-y,-z
loop_
_atom_site_type_symbol
_atom_site_label
_atom_site_fract_x
_atom_site_fract_y
_atom_site_fract_z
Si Si1 0.855509 0.729682 0.994755
Si Si2 0.230386 0.281677 0.643330
Si Si3 0.070839 0.637722 0.859477
Si Si4 0.340438 0.759836 0.992915
Si Si5 0.637554 0.106180 0.543768
Si Si6 0.389464 0.822072 0.693096
Si Si7 0.449183 0.380333 0.146801
O O1 0.820535 0.722889 0.172062
O O2 0.765711 0.472618 0.939306
O O3 0.865297 0.056791 0.055764
O O4 0.978725 0.681758 0.856796
O O5 0.151282 0.438122 0.684076
O O6 0.348912 0.492020 0.604943
O O7 0.262469 0.985780 0.504983
O O8 0.000000 0.500000 0.000000
O O9 0.329097 0.857946 0.888833
O O10 0.442587 0.608416 0.863772
O O11 0.381662 0.057804 0.115221
O O12 0.641049 0.049900 0.372177
O O13 0.628362 0.421762 0.676226
O O14 0.516372 0.937108 0.639095
O O15 0.500000 0.500000 0.000000
#
# Coordination Sequence:
#
# PCOD9093083 Si02
#       7
#     2   2   2   2   2   2   2
#     4   9  19  35  56  85 111 150 192 245 290 344
#     4  10  20  31  52  85 116 149 181 241 302 343
#     4   9  18  33  55  84 116 141 189 243 302 345
#     4  10  23  39  59  80 117 161 201 239 286 342
#     4  11  23  33  55  85 121 155 195 240 285 345
#     4  10  22  34  55  84 117 155 196 239 288 338
#     4  11  24  39  55  82 120 162 201 235 281 353
#
# _framework density 22.186242
#
# number of rings (size 3 to 8) (size 9 to 14) (size 15 to 20)
#    0.000    2.000    1.429    1.286   12.000    1.143 
#    0.000    0.000    0.000    0.857    0.000   15.000 
#    0.000   13.714    0.000    0.000    0.000    0.000 
#
# Total GULP energy -78012.965743 kJ/mol
# GULP energy per Si atom -5572.354696 kJ/mol
# Density = 2.213574 g / cm^3
# Si number density = 22.186242 Si / 1000 Ang^3
#
#
#
# Elastic Constant Matrix: (Units=GPa)
#
#
# Indices 1 2 3 4 5 6 
#
# 1 103.5085 40.5028 44.3525 27.4250 -36.9918 -2.0470
# 2 40.5028 126.8607 26.8572 9.9368 -14.7324 20.5945
# 3 44.3525 26.8572 67.3584 27.5133 -29.5182 -3.2713
# 4 27.4250 9.9368 27.5133 38.0109 -22.6096 0.2559
# 5 -36.9918 -14.7324 -29.5182 -22.6096 40.6387 4.1464
# 6 -2.0470 20.5945 -3.2713 0.2559 4.1464 35.4457
#
#
#
# Elastic Compliance Matrix: (Units=1/GPa)
#
#
# Indices 1 2 3 4 5 6 
#
# 1 0.017014 -0.003399 -0.004682 -0.002451 0.009343 0.001450
# 2 -0.003399 0.010568 -0.002985 0.002167 0.000456 -0.006681
# 3 -0.004682 -0.002985 0.027217 -0.010717 0.008146 0.003100
# 4 -0.002451 0.002167 -0.010717 0.044971 0.016261 -0.004616
# 5 0.009343 0.000456 0.008146 0.016261 0.048729 -0.004791
# 6 0.001450 -0.006681 0.003100 -0.004616 -0.004791 0.033057
#
#
# Mechanical properties :
#
#
# Convention : Reuss Voigt Hill
#
# Bulk Modulus (GPa) = 30.61259 57.90584 44.25921
# Shear Modulus (GPa) = 23.30148 35.22009 29.26078
#
# Velocity S-wave (km/s) = 3.24430 3.98863 3.63557
# Velocity P-wave (km/s) = 5.27844 6.88250 6.13314
#
# Compressibility (1/GPa) = 0.03266629
#
# Stress axis : x y z
#
# Youngs Moduli (GPa) = 58.77368 94.62818 36.74145
#
# Poissons Ratio (x) = 0.32169 0.17203
# Poissons Ratio (y) = 0.19980 0.10967
# Poissons Ratio (z) = 0.27518 0.28246
#
# Static dielectric constant tensor:
#      x y z
#    x 1.897760 -0.053840 -0.020030 
#    y -0.053840 1.919450 0.006960 
#    z -0.020030 0.006960 1.858050 
# 
# From -- ./inp_files/322797.got.cif
#   From: 2010.05.17/outbox.cif.g08.bks.cpg/sg2_162_cif.got.tgz:322797.got - 2010.06.03 11:33:40.
