data_PCOD9093966
_publ_section_title
;
Structure prediction by ZEFSAII (Michael W. Deem and Ramdas Pophale) SiO2 
 PCOD9093966
Probable space group: P -1
;
_chemical_formula_sum "Si O2"
_cell_formula_units_Z 14
_cell_length_a 13.559750
_cell_length_b 8.916803
_cell_length_c 16.639916
_cell_angle_alpha 135.107427
_cell_angle_beta 155.443290
_cell_angle_gamma 57.783510
_cell_volume 546.052327
_symmetry_space_group_name_H-M "P -1"
_symmetry_group_IT_number 2
_symmetry_cell_setting 'triclinic'
loop_
_space_group_symop_operation_xyz
x,y,z
-x,-y,-z
loop_
_atom_site_type_symbol
_atom_site_label
_atom_site_fract_x
_atom_site_fract_y
_atom_site_fract_z
Si Si1 0.415926 0.054157 0.287986
Si Si2 0.034778 0.809175 0.168071
Si Si3 0.504777 0.031103 0.874975
Si Si4 0.017667 0.314763 0.339475
Si Si5 0.928536 0.658052 0.855228
Si Si6 0.582215 0.654233 0.898503
Si Si7 0.996869 0.315641 0.660974
O O1 0.683134 0.120345 0.558226
O O2 0.431468 0.993589 0.182584
O O3 0.300995 0.251173 0.290719
O O4 0.191522 0.832317 0.076045
O O5 0.013376 0.055604 0.225259
O O6 0.984859 0.672881 0.996467
O O7 0.801851 0.666839 0.000779
O O8 0.512186 0.853569 0.881973
O O9 0.200083 0.937706 0.601577
O O10 0.752624 0.253377 0.170189
O O11 0.317671 0.440574 0.630375
O O12 0.978066 0.496827 0.317326
O O13 0.866460 0.420108 0.673456
O O14 0.737916 0.683375 0.107457
#
# Coordination Sequence:
#
# PCOD9093966 Si02
#       7
#     2   2   2   2   2   2   2
#     4  11  19  34  44  51  62  72  77  94 100 106
#     4  11  21  35  43  52  61  71  82  90 100 111
#     4  10  20  35  43  54  63  71  83  91  99 113
#     4  10  20  34  45  55  63  71  83  90 100 114
#     4  11  21  31  42  53  61  70  81  90 100 111
#     4  10  21  33  45  55  61  72  83  89 102 111
#     4  11  21  33  45  53  61  73  81  93 101 108
#
# _framework density 25.638569
#
# number of rings (size 3 to 8) (size 9 to 14) (size 15 to 20)
#    0.000    1.429    5.714    2.143    0.000    3.429 
#    2.571    0.000    0.000    0.000    0.000    0.000 
#    0.000    0.000    0.000    0.000    0.000    0.000 
#
# Total GULP energy -78042.792988 kJ/mol
# GULP energy per Si atom -5574.485213 kJ/mol
# Density = 2.558021 g / cm^3
# Si number density = 25.638569 Si / 1000 Ang^3
#
#
#
# Elastic Constant Matrix: (Units=GPa)
#
#
# Indices 1 2 3 4 5 6 
#
# 1 -17.5300 134.1992 5.8130 -3.2406 -3.9795 -82.8473
# 2 134.1992 -40.9961 115.3048 3.4289 12.3131 87.9085
# 3 5.8130 115.3048 228.2335 -26.4653 38.9534 -17.7585
# 4 -3.2406 3.4289 -26.4653 60.9677 2.0931 -12.2014
# 5 -3.9795 12.3131 38.9534 2.0931 27.9413 -3.0015
# 6 -82.8473 87.9085 -17.7585 -12.2014 -3.0015 -24.6948
#
#
#
# Elastic Compliance Matrix: (Units=1/GPa)
#
#
# Indices 1 2 3 4 5 6 
#
# 1 0.008821 0.005624 -0.004686 -0.003108 0.004977 -0.005273
# 2 0.005624 0.007750 -0.003850 0.000239 0.003905 0.010897
# 3 -0.004686 -0.003850 0.008434 0.003175 -0.011421 -0.004228
# 4 -0.003108 0.000239 0.003175 0.017988 -0.006228 0.000863
# 5 0.004977 0.003905 -0.011421 -0.006228 0.051407 0.002246
# 6 -0.005273 0.010897 -0.004228 0.000863 0.002246 0.018329
#
#
# Mechanical properties :
#
#
# Convention : Reuss Voigt Hill
#
# Bulk Modulus (GPa) = 52.13114 75.59349 63.86231
# Shear Modulus (GPa) = 40.01660 7.13552 23.57606
#
# Velocity S-wave (km/s) = 3.95498 1.67008 3.03571
# Velocity P-wave (km/s) = 6.42130 5.76777 6.10329
#
# Compressibility (1/GPa) = 0.01918239
#
# Stress axis : x y z
#
# Youngs Moduli (GPa) = 113.36062 129.02615 118.56592
#
# Poissons Ratio (x) = -0.72567 0.55563
# Poissons Ratio (y) = -0.63756 0.45645
# Poissons Ratio (z) = 0.53123 0.49671
#
# Static dielectric constant tensor:
#      x y z
#    x 2.115210 -0.056850 0.006940 
#    y -0.056850 2.081840 0.010150 
#    z 0.006940 0.010150 2.061640 
# 
# From -- ./inp_files/562333.got.cif
#   From: 2010.05.17/outbox.cif.g08.bks.cpg/sg2_282_cif.got.tgz:562333.got - 2010.06.03 11:33:40.
