data_PCOD9093862
_publ_section_title
;
Structure prediction by ZEFSAII (Michael W. Deem and Ramdas Pophale) SiO2 
 PCOD9093862
Probable space group: P -1
;
_chemical_formula_sum "Si O2"
_cell_formula_units_Z 16
_cell_length_a 12.063126
_cell_length_b 23.387027
_cell_length_c 8.214444
_cell_angle_alpha 73.493664
_cell_angle_beta 76.973148
_cell_angle_gamma 20.637324
_cell_volume 777.492440
_symmetry_space_group_name_H-M "P -1"
_symmetry_group_IT_number 2
_symmetry_cell_setting 'triclinic'
loop_
_space_group_symop_operation_xyz
x,y,z
-x,-y,-z
loop_
_atom_site_type_symbol
_atom_site_label
_atom_site_fract_x
_atom_site_fract_y
_atom_site_fract_z
Si Si1 0.248961 0.792034 0.691164
Si Si2 0.985729 0.736230 0.976564
Si Si3 0.347796 0.946181 0.504046
Si Si4 0.072091 0.105397 0.804029
Si Si5 0.815040 0.053650 0.880342
Si Si6 0.356890 0.095857 0.733369
Si Si7 0.633709 0.691499 0.435620
Si Si8 0.471470 0.600905 0.048437
O O1 0.446090 0.726672 0.539346
O O2 0.457988 0.655487 0.864153
O O3 0.973517 0.886417 0.629131
O O4 0.050371 0.937379 0.742441
O O5 0.181391 0.597074 0.906384
O O6 0.691682 0.910487 0.844807
O O7 0.840861 0.777647 0.155026
O O8 0.229749 0.667079 0.016169
O O9 0.574553 0.891886 0.443491
O O10 0.522267 0.803467 0.487220
O O11 0.216595 0.002436 0.683113
O O12 0.178301 0.121724 0.732184
O O13 0.696361 0.290829 0.821749
O O14 0.211501 0.001046 0.997639
O O15 0.486424 0.237959 0.766466
O O16 0.000000 0.000000 0.000000
O O17 0.000000 0.500000 0.500000
#
# Coordination Sequence:
#
# PCOD9093862 Si02
#       8
#     2   2   2   2   2   2   2   2
#     4  10  20  37  60  83 112 161 205 242 306 372
#     4   9  18  33  56  85 114 148 199 246 294 353
#     4  11  21  40  58  83 123 166 200 243 309 379
#     4  10  21  36  59  87 118 159 202 246 301 366
#     4  10  20  40  65  86 116 165 206 248 302 369
#     4  10  20  33  59  86 119 160 197 242 306 366
#     4  11  25  39  61  93 120 155 212 261 307 354
#     4   9  18  34  57  83 110 150 197 248 292 354
#
# _framework density 20.578979
#
# number of rings (size 3 to 8) (size 9 to 14) (size 15 to 20)
#    0.000    2.000    1.250    3.375    7.000    0.000 
#    0.000    6.875    0.000    0.000    0.000    0.000 
#    0.000    0.000    0.000    0.000    0.000    0.000 
#
# Total GULP energy -89195.612606 kJ/mol
# GULP energy per Si atom -5574.725788 kJ/mol
# Density = 2.053214 g / cm^3
# Si number density = 20.578979 Si / 1000 Ang^3
#
#
#
# Elastic Constant Matrix: (Units=GPa)
#
#
# Indices 1 2 3 4 5 6 
#
# 1 53.6674 16.4611 18.4823 2.6422 -13.2708 1.6270
# 2 16.4611 108.7057 40.1051 2.7350 0.7683 10.2286
# 3 18.4823 40.1051 84.8527 14.5164 -8.3390 3.6255
# 4 2.6422 2.7350 14.5164 19.7000 -2.3799 4.4913
# 5 -13.2708 0.7683 -8.3390 -2.3799 32.3921 2.6434
# 6 1.6270 10.2286 3.6255 4.4913 2.6434 13.9891
#
#
#
# Elastic Compliance Matrix: (Units=1/GPa)
#
#
# Indices 1 2 3 4 5 6 
#
# 1 0.022545 -0.002130 -0.003146 0.001166 0.008749 -0.002277
# 2 -0.002130 0.012436 -0.006026 0.004731 -0.001679 -0.008485
# 3 -0.003146 -0.006026 0.017456 -0.012203 0.002144 0.003760
# 4 0.001166 0.004731 -0.012203 0.064361 0.003732 -0.021801
# 5 0.008749 -0.001679 0.002144 0.003732 0.036003 -0.008347
# 6 -0.002277 -0.008485 0.003760 -0.021801 -0.008347 0.085555
#
#
# Mechanical properties :
#
#
# Convention : Reuss Voigt Hill
#
# Bulk Modulus (GPa) = 33.51996 44.14698 38.83347
# Shear Modulus (GPa) = 18.45661 24.69473 21.57567
#
# Velocity S-wave (km/s) = 2.99802 3.46786 3.24146
# Velocity P-wave (km/s) = 5.32053 6.12648 5.73767
#
# Compressibility (1/GPa) = 0.02983297
#
# Stress axis : x y z
#
# Youngs Moduli (GPa) = 44.35551 80.41167 57.28649
#
# Poissons Ratio (x) = 0.17129 0.18025
# Poissons Ratio (y) = 0.09448 0.34519
# Poissons Ratio (z) = 0.13956 0.48453
#
# Static dielectric constant tensor:
#      x y z
#    x 1.800720 0.018930 0.022120 
#    y 0.018930 1.746580 0.010110 
#    z 0.022120 0.010110 1.753230 
# 
# From -- ./inp_files/284792.got.cif
#   From: 2010.05.17/outbox.cif.g08.bks.cpg/sg2_143_cif.got.tgz:284792.got - 2010.06.03 11:33:40.
