data_PCOD9093961
_publ_section_title
;
Structure prediction by ZEFSAII (Michael W. Deem and Ramdas Pophale) SiO2 
 PCOD9093961
Probable space group: P -1
;
_chemical_formula_sum "Si O2"
_cell_formula_units_Z 14
_cell_length_a 9.120058
_cell_length_b 11.419041
_cell_length_c 16.116642
_cell_angle_alpha 134.254362
_cell_angle_beta 148.075246
_cell_angle_gamma 55.934964
_cell_volume 633.417894
_symmetry_space_group_name_H-M "P -1"
_symmetry_group_IT_number 2
_symmetry_cell_setting 'triclinic'
loop_
_space_group_symop_operation_xyz
x,y,z
-x,-y,-z
loop_
_atom_site_type_symbol
_atom_site_label
_atom_site_fract_x
_atom_site_fract_y
_atom_site_fract_z
Si Si1 0.384924 0.835601 0.742744
Si Si2 0.304346 0.690112 0.445017
Si Si3 0.509559 0.011565 0.630616
Si Si4 0.744117 0.094202 0.954935
Si Si5 0.810289 0.477353 0.170137
Si Si6 0.144662 0.165612 0.407481
Si Si7 0.769128 0.506828 0.486855
O O1 0.344434 0.773805 0.596604
O O2 0.416206 0.657774 0.712220
O O3 0.123556 0.890142 0.694850
O O4 0.603587 0.992249 0.913504
O O5 0.306597 0.844126 0.459804
O O6 0.569429 0.593490 0.499134
O O7 0.028384 0.566471 0.253599
O O8 0.791140 0.947338 0.696404
O O9 0.540136 0.086711 0.773376
O O10 0.400609 0.139615 0.578373
O O11 0.828944 0.284706 0.099971
O O12 0.000000 0.000000 0.000000
O O13 0.951526 0.544950 0.357978
O O14 0.500000 0.500000 0.000000
O O15 0.148496 0.350771 0.468383
#
# Coordination Sequence:
#
# PCOD9093961 Si02
#       7
#     2   2   2   2   2   2   2
#     4  10  20  33  64  85 108 151 203 235 272 347
#     4   9  19  38  63  84 113 155 201 235 286 351
#     4   9  21  37  62  83 113 152 199 240 284 344
#     4  11  22  39  61  87 119 156 194 240 300 348
#     4  11  23  35  60  93 121 143 193 258 292 333
#     4  10  20  36  60  86 114 149 200 240 281 342
#     4  10  20  41  60  85 116 159 192 235 296 356
#
# _framework density 22.102311
#
# number of rings (size 3 to 8) (size 9 to 14) (size 15 to 20)
#    0.000    2.000    0.000    5.571    6.000    1.143 
#    0.000    2.857    0.000   12.000    0.000    0.000 
#    0.000    0.000    0.000    0.000    0.000    0.000 
#
# Total GULP energy -78002.978987 kJ/mol
# GULP energy per Si atom -5571.641356 kJ/mol
# Density = 2.205200 g / cm^3
# Si number density = 22.102311 Si / 1000 Ang^3
#
#
#
# Elastic Constant Matrix: (Units=GPa)
#
#
# Indices 1 2 3 4 5 6 
#
# 1 106.8541 15.9561 30.2412 7.6241 37.2794 5.7193
# 2 15.9561 94.5681 33.0135 1.5482 13.5855 14.9684
# 3 30.2412 33.0135 91.7754 8.3147 29.3376 9.1587
# 4 7.6241 1.5482 8.3147 35.3618 5.6335 0.6523
# 5 37.2794 13.5855 29.3376 5.6335 38.6949 1.3252
# 6 5.7193 14.9684 9.1587 0.6523 1.3252 30.9105
#
#
#
# Elastic Compliance Matrix: (Units=1/GPa)
#
#
# Indices 1 2 3 4 5 6 
#
# 1 0.014254 -0.000121 -0.000085 -0.000872 -0.013431 -0.001959
# 2 -0.000121 0.012887 -0.003649 0.000663 -0.001564 -0.005084
# 3 -0.000085 -0.003649 0.015974 -0.001877 -0.010391 -0.002466
# 4 -0.000872 0.000663 -0.001877 0.029236 -0.002221 -0.000125
# 5 -0.013431 -0.001564 -0.010391 -0.002221 0.047385 0.004336
# 6 -0.001959 -0.005084 -0.002466 -0.000125 0.004336 0.035723
#
#
# Mechanical properties :
#
#
# Convention : Reuss Voigt Hill
#
# Bulk Modulus (GPa) = 28.24468 50.17993 39.21230
# Shear Modulus (GPa) = 28.57622 35.25921 31.91771
#
# Velocity S-wave (km/s) = 3.59960 3.99842 3.80424
# Velocity P-wave (km/s) = 5.48480 6.63847 6.08902
#
# Compressibility (1/GPa) = 0.03540490
#
# Stress axis : x y z
#
# Youngs Moduli (GPa) = 70.15722 77.59714 62.60025
#
# Poissons Ratio (x) = 0.00942 0.00533
# Poissons Ratio (y) = 0.00852 0.22840
# Poissons Ratio (z) = 0.00597 0.28312
#
# Static dielectric constant tensor:
#      x y z
#    x 1.887300 0.010790 -0.017680 
#    y 0.010790 1.877030 -0.019640 
#    z -0.017680 -0.019640 1.887750 
# 
# From -- ./inp_files/401917.got.cif
#   From: 2010.05.17/outbox.cif.g08.bks.cpg/sg2_201_cif.got.tgz:401917.got - 2010.06.03 11:33:40.
