data_PCOD9093644
_publ_section_title
;
Structure prediction by ZEFSAII (Michael W. Deem and Ramdas Pophale) SiO2 
 PCOD9093644
Probable space group: P -1
;
_chemical_formula_sum "Si O2"
_cell_formula_units_Z 16
_cell_length_a 12.046586
_cell_length_b 17.963919
_cell_length_c 5.257437
_cell_angle_alpha 70.220970
_cell_angle_beta 59.238974
_cell_angle_gamma 62.437948
_cell_volume 858.941925
_symmetry_space_group_name_H-M "P -1"
_symmetry_group_IT_number 2
_symmetry_cell_setting 'triclinic'
loop_
_space_group_symop_operation_xyz
x,y,z
-x,-y,-z
loop_
_atom_site_type_symbol
_atom_site_label
_atom_site_fract_x
_atom_site_fract_y
_atom_site_fract_z
Si Si1 0.030716 0.084080 0.280724
Si Si2 0.551722 0.585209 0.625339
Si Si3 0.229150 0.780867 0.391124
Si Si4 0.482646 0.238378 0.643069
Si Si5 0.463685 0.083473 0.118378
Si Si6 0.328158 0.881570 0.812720
Si Si7 0.795452 0.944180 0.406646
Si Si8 0.368053 0.598523 0.324979
O O1 0.124621 0.097053 0.385233
O O2 0.893666 0.168270 0.338513
O O3 0.109316 0.070187 0.936644
O O4 0.000000 0.000000 0.500000
O O5 0.602168 0.662561 0.411349
O O6 0.441898 0.588540 0.525819
O O7 0.657402 0.488463 0.603456
O O8 0.472290 0.602220 0.970381
O O9 0.378747 0.768134 0.354026
O O10 0.242971 0.688423 0.383105
O O11 0.218629 0.846147 0.099639
O O12 0.545677 0.197089 0.349787
O O13 0.422442 0.172614 0.914576
O O14 0.602519 0.075508 0.114686
O O15 0.336048 0.084090 0.440753
O O16 0.500000 0.000000 0.000000
O O17 0.262880 0.953831 0.599733
#
# Coordination Sequence:
#
# PCOD9093644 Si02
#       8
#     2   2   2   2   2   2   2   2
#     4  12  25  37  54  73 107 145 181 216 252 308
#     4   9  17  30  49  79 107 135 162 210 270 315
#     4  10  21  34  52  80 106 145 174 212 264 315
#     4  10  20  33  55  79 108 138 173 218 266 323
#     4  11  23  36  53  77 104 143 181 221 266 308
#     4  11  20  34  56  73 108 138 178 219 267 310
#     4  12  25  38  52  75 105 143 182 218 252 303
#     4   9  17  30  50  75 110 135 166 208 259 329
#
# _framework density 18.627569000000001
#
# number of rings (size 3 to 8) (size 9 to 14) (size 15 to 20)
#    0.000    1.500    3.750    2.250    3.500    0.000 
#    0.000    0.000    0.000    0.000    0.000    1.750 
#    0.000    0.000    0.000    0.000    0.000    0.000 
#
# Total GULP energy -89215.308014 kJ/mol
# GULP energy per Si atom -5575.956751 kJ/mol
# Density = 1.858517 g / cm^3
# Si number density = 18.627569 Si / 1000 Ang^3
#
#
#
# Elastic Constant Matrix: (Units=GPa)
#
#
# Indices 1 2 3 4 5 6 
#
# 1 30.0764 11.1749 11.5526 0.7496 11.3756 -2.5599
# 2 11.1749 154.7848 37.4554 -8.3809 -18.1520 17.7504
# 3 11.5526 37.4554 85.9823 0.2026 -1.3829 5.4274
# 4 0.7496 -8.3809 0.2026 30.8385 2.8824 1.5012
# 5 11.3756 -18.1520 -1.3829 2.8824 23.0808 1.9040
# 6 -2.5599 17.7504 5.4274 1.5012 1.9040 14.2821
#
#
#
# Elastic Compliance Matrix: (Units=1/GPa)
#
#
# Indices 1 2 3 4 5 6 
#
# 1 0.057358 -0.011273 -0.005445 -0.002254 -0.039812 0.031905
# 2 -0.011273 0.011985 -0.002289 0.002951 0.016001 -0.018490
# 3 -0.005445 -0.002289 0.013615 -0.000601 0.002065 -0.003518
# 4 -0.002254 0.002951 -0.000601 0.033665 -0.000202 -0.007354
# 5 -0.039812 0.016001 0.002065 -0.000202 0.078840 -0.038297
# 6 0.031905 -0.018490 -0.003518 -0.007354 -0.038297 0.105932
#
#
# Mechanical properties :
#
#
# Convention : Reuss Voigt Hill
#
# Bulk Modulus (GPa) = 22.24924 43.46769 32.85847
# Shear Modulus (GPa) = 14.10873 27.68430 20.89652
#
# Velocity S-wave (km/s) = 2.75510 3.85931 3.35297
# Velocity P-wave (km/s) = 4.70010 6.57608 5.71558
#
# Compressibility (1/GPa) = 0.04494535
#
# Stress axis : x y z
#
# Youngs Moduli (GPa) = 17.43427 83.43805 73.44571
#
# Poissons Ratio (x) = 0.94062 0.39989
# Poissons Ratio (y) = 0.19654 0.16809
# Poissons Ratio (z) = 0.09493 0.19096
#
# Static dielectric constant tensor:
#      x y z
#    x 1.699800 -0.002750 0.048450 
#    y -0.002750 1.694620 -0.019430 
#    z 0.048450 -0.019430 1.697110 
# 
# From -- ./inp_files/73973.got.cif
#   From: 2010.05.17/outbox.cif.g08.bks.cpg/sg2_37_cif.got.tgz:73973.got - 2010.06.03 11:33:40.
