data_PCOD9093882
_publ_section_title
;
Structure prediction by ZEFSAII (Michael W. Deem and Ramdas Pophale) SiO2 
 PCOD9093882
Probable space group: P -1
;
_chemical_formula_sum "Si O2"
_cell_formula_units_Z 16
_cell_length_a 12.734959
_cell_length_b 9.743203
_cell_length_c 8.935187
_cell_angle_alpha 66.161826
_cell_angle_beta 45.531330
_cell_angle_gamma 63.900557
_cell_volume 702.496953
_symmetry_space_group_name_H-M "P -1"
_symmetry_group_IT_number 2
_symmetry_cell_setting 'triclinic'
loop_
_space_group_symop_operation_xyz
x,y,z
-x,-y,-z
loop_
_atom_site_type_symbol
_atom_site_label
_atom_site_fract_x
_atom_site_fract_y
_atom_site_fract_z
Si Si1 0.185586 0.070444 0.901929
Si Si2 0.266458 0.685379 0.497243
Si Si3 0.430758 0.180589 0.424746
Si Si4 0.608602 0.865667 0.854088
Si Si5 0.375009 0.418169 0.826693
Si Si6 0.171959 0.981780 0.297097
Si Si7 0.745009 0.229252 0.202098
Si Si8 0.193353 0.387541 0.721594
O O1 0.347008 0.081040 0.660361
O O2 0.099266 0.253587 0.883295
O O3 0.153664 0.917324 0.922987
O O4 0.193250 0.036772 0.084357
O O5 0.444469 0.594024 0.375154
O O6 0.251974 0.801380 0.322466
O O7 0.229715 0.788388 0.638161
O O8 0.150697 0.572364 0.665831
O O9 0.446518 0.129013 0.261810
O O10 0.575081 0.218875 0.337311
O O11 0.298833 0.338981 0.492566
O O12 0.765781 0.913292 0.693243
O O13 0.623702 0.702431 0.989401
O O14 0.500000 0.000000 0.000000
O O15 0.272181 0.588571 0.892305
O O16 0.296101 0.365676 0.780635
O O17 0.000000 0.000000 0.500000
#
# Coordination Sequence:
#
# PCOD9093882 Si02
#       8
#     2   2   2   2   2   2   2   2
#     4  10  21  39  61  85 124 169 209 251 313 371
#     4  11  20  39  61  95 129 172 206 256 317 377
#     4  10  20  33  59  95 132 157 205 254 320 366
#     4  12  23  37  64  97 127 169 212 262 321 374
#     4  11  19  34  60  98 140 157 206 254 328 367
#     4  12  27  45  64  89 128 172 216 265 319 378
#     4  11  20  34  62 104 134 162 198 270 315 380
#     4   9  19  36  61  93 131 161 203 259 314 372
#
# _framework density 22.775901000000001
#
# number of rings (size 3 to 8) (size 9 to 14) (size 15 to 20)
#    0.750    0.500    5.000    2.625    0.000    1.500 
#    0.000    3.125    0.000    1.500    0.000    0.000 
#    0.000    0.000    0.000    0.000    0.000    0.000 
#
# Total GULP energy -89156.136222 kJ/mol
# GULP energy per Si atom -5572.258514 kJ/mol
# Density = 2.272406 g / cm^3
# Si number density = 22.775901 Si / 1000 Ang^3
#
#
#
# Elastic Constant Matrix: (Units=GPa)
#
#
# Indices 1 2 3 4 5 6 
#
# 1 33.2031 28.7083 23.4131 -1.2612 -2.8469 4.8820
# 2 28.7083 143.1679 37.9602 -21.4163 12.8671 20.3761
# 3 23.4131 37.9602 87.2270 -18.9379 22.5814 -2.0218
# 4 -1.2612 -21.4163 -18.9379 37.8495 -4.1442 7.0336
# 5 -2.8469 12.8671 22.5814 -4.1442 28.9864 4.4191
# 6 4.8820 20.3761 -2.0218 7.0336 4.4191 35.3418
#
#
#
# Elastic Compliance Matrix: (Units=1/GPa)
#
#
# Indices 1 2 3 4 5 6 
#
# 1 0.052570 -0.008389 -0.018337 -0.008852 0.022599 -0.004538
# 2 -0.008389 0.010880 -0.000291 0.006446 -0.003596 -0.005964
# 3 -0.018337 -0.000291 0.023389 0.007878 -0.019515 0.004911
# 4 -0.008852 0.006446 0.007878 0.034911 -0.003574 -0.008544
# 5 0.022599 -0.003596 -0.019515 -0.003574 0.054263 -0.008238
# 6 -0.004538 -0.005964 0.004911 -0.008544 -0.008238 0.035372
#
#
# Mechanical properties :
#
#
# Convention : Reuss Voigt Hill
#
# Bulk Modulus (GPa) = 30.48295 49.30681 39.89488
# Shear Modulus (GPa) = 18.09265 32.00328 25.04796
#
# Velocity S-wave (km/s) = 2.82153 3.75258 3.31986
# Velocity P-wave (km/s) = 4.90180 6.36172 5.67887
#
# Compressibility (1/GPa) = 0.03280522
#
# Stress axis : x y z
#
# Youngs Moduli (GPa) = 19.02221 91.90877 42.75430
#
# Poissons Ratio (x) = 0.77100 0.78401
# Poissons Ratio (y) = 0.15957 0.01245
# Poissons Ratio (z) = 0.34882 0.02676
#
# Static dielectric constant tensor:
#      x y z
#    x 1.920870 -0.074570 -0.083470 
#    y -0.074570 2.048490 0.021460 
#    z -0.083470 0.021460 1.858830 
# 
# From -- ./inp_files/297771.got.cif
#   From: 2010.05.17/outbox.cif.g08.bks.cpg/sg2_149_cif.got.tgz:297771.got - 2010.06.03 11:33:40.
