data_PCOD9093261
_publ_section_title
;
Structure prediction by ZEFSAII (Michael W. Deem and Ramdas Pophale) SiO2 
 PCOD9093261
Probable space group: P -1
;
_chemical_formula_sum "Si O2"
_cell_formula_units_Z 12
_cell_length_a 9.130497
_cell_length_b 30.262755
_cell_length_c 15.261579
_cell_angle_alpha 167.027802
_cell_angle_beta 139.352013
_cell_angle_gamma 34.381754
_cell_volume 498.931199
_symmetry_space_group_name_H-M "P -1"
_symmetry_group_IT_number 2
_symmetry_cell_setting 'triclinic'
loop_
_space_group_symop_operation_xyz
x,y,z
-x,-y,-z
loop_
_atom_site_type_symbol
_atom_site_label
_atom_site_fract_x
_atom_site_fract_y
_atom_site_fract_z
Si Si1 0.230602 0.925151 0.358386
Si Si2 0.375362 0.835310 0.438461
Si Si3 0.294890 0.425565 0.454535
Si Si4 0.577726 0.691853 0.908381
Si Si5 0.484669 0.847897 0.804774
Si Si6 0.818836 0.635676 0.377061
O O1 0.390538 0.902024 0.474959
O O2 0.261670 0.672487 0.895804
O O3 0.348456 0.911096 0.289674
O O4 0.904891 0.145870 0.644237
O O5 0.665973 0.612585 0.180173
O O6 0.327404 0.055084 0.900170
O O7 0.379260 0.280795 0.121330
O O8 0.506733 0.282944 0.356181
O O9 0.000000 0.500000 0.500000
O O10 0.500000 0.500000 0.500000
O O11 0.868158 0.568358 0.852327
O O12 0.625228 0.685564 0.469443
O O13 0.207076 0.113189 0.167909
#
# Coordination Sequence:
#
# PCOD9093261 Si02
#       6
#     2   2   2   2   2   2
#     4  10  20  33  53  80 105 134 174 215 258 301
#     4   9  18  34  55  73 104 146 168 201 262 326
#     4  11  17  33  56  79 100 134 178 214 250 306
#     4  10  20  32  53  82 103 132 175 220 250 300
#     4   9  17  31  57  74  94 140 177 199 245 317
#     4   9  17  33  57  74 101 141 176 199 261 314
#
# _framework density 24.051411999999999
#
# number of rings (size 3 to 8) (size 9 to 14) (size 15 to 20)
#    1.000    1.333    3.333    1.000    0.000    0.667 
#    0.000    5.000    0.000    0.000    0.000    0.000 
#    0.000    0.000    0.000    0.000    0.000    0.000 
#
# Total GULP energy -66914.650938 kJ/mol
# GULP energy per Si atom -5576.220911 kJ/mol
# Density = 2.399667 g / cm^3
# Si number density = 24.051412 Si / 1000 Ang^3
#
#
#
# Elastic Constant Matrix: (Units=GPa)
#
#
# Indices 1 2 3 4 5 6 
#
# 1 138.1795 42.5686 32.1996 1.2524 -13.5948 32.7270
# 2 42.5686 131.8056 32.9790 -0.5362 -3.5096 21.9188
# 3 32.1996 32.9790 49.9217 7.6575 -8.7117 11.6513
# 4 1.2524 -0.5362 7.6575 40.3598 16.0202 -2.8900
# 5 -13.5948 -3.5096 -8.7117 16.0202 38.3797 -3.1286
# 6 32.7270 21.9188 11.6513 -2.8900 -3.1286 28.4042
#
#
#
# Elastic Compliance Matrix: (Units=1/GPa)
#
#
# Indices 1 2 3 4 5 6 
#
# 1 0.011098 -0.000927 -0.003322 -0.001640 0.002916 -0.010555
# 2 -0.000927 0.009949 -0.005478 0.001547 -0.001666 -0.004388
# 3 -0.003322 -0.005478 0.029687 -0.009317 0.008614 -0.004122
# 4 -0.001640 0.001547 -0.009317 0.033406 -0.015997 0.006154
# 5 0.002916 -0.001666 0.008614 -0.015997 0.035296 -0.003348
# 6 -0.010555 -0.004388 -0.004122 0.006154 -0.003348 0.052701
#
#
# Mechanical properties :
#
#
# Convention : Reuss Voigt Hill
#
# Bulk Modulus (GPa) = 31.96969 59.48905 45.72937
# Shear Modulus (GPa) = 24.75013 35.57272 30.16143
#
# Velocity S-wave (km/s) = 3.21136 3.84999 3.54508
# Velocity P-wave (km/s) = 5.20303 6.67465 5.98425
#
# Compressibility (1/GPa) = 0.03127963
#
# Stress axis : x y z
#
# Youngs Moduli (GPa) = 90.10348 100.51614 33.68433
#
# Poissons Ratio (x) = 0.09317 0.11191
# Poissons Ratio (y) = 0.08352 0.18453
# Poissons Ratio (z) = 0.29935 0.55065
#
# Static dielectric constant tensor:
#      x y z
#    x 1.946290 0.013900 0.073080 
#    y 0.013900 2.030980 -0.022460 
#    z 0.073080 -0.022460 2.019000 
# 
# From -- ./inp_files/232525.got.cif
#   From: 2010.05.17/outbox.cif.g08.bks.cpg/sg2_117_cif.got.tgz:232525.got - 2010.06.03 11:33:40.
