data_PCOD9093532
_publ_section_title
;
Structure prediction by ZEFSAII (Michael W. Deem and Ramdas Pophale) SiO2 
 PCOD9093532
Probable space group: P -1
;
_chemical_formula_sum "Si O2"
_cell_formula_units_Z 14
_cell_length_a 14.108533
_cell_length_b 14.051543
_cell_length_c 15.875122
_cell_angle_alpha 37.494330
_cell_angle_beta 145.250673
_cell_angle_gamma 159.191934
_cell_volume 632.232825
_symmetry_space_group_name_H-M "P -1"
_symmetry_group_IT_number 2
_symmetry_cell_setting 'triclinic'
loop_
_space_group_symop_operation_xyz
x,y,z
-x,-y,-z
loop_
_atom_site_type_symbol
_atom_site_label
_atom_site_fract_x
_atom_site_fract_y
_atom_site_fract_z
Si Si1 0.143650 0.552849 0.478684
Si Si2 0.965443 0.464908 0.099088
Si Si3 0.682404 0.753646 0.900271
Si Si4 0.404916 0.040865 0.709604
Si Si5 0.218214 0.030603 0.420207
Si Si6 0.107584 0.249449 0.095003
Si Si7 0.688740 0.045725 0.791078
O O1 0.487380 0.783767 0.548418
O O2 0.106965 0.667843 0.303774
O O3 0.000000 0.500000 0.500000
O O4 0.998109 0.275722 0.545325
O O5 0.276365 0.687529 0.213765
O O6 0.781001 0.177726 0.199101
O O7 0.830837 0.529845 0.982121
O O8 0.000000 0.500000 0.000000
O O9 0.666058 0.660541 0.864050
O O10 0.586530 0.856869 0.773409
O O11 0.500000 0.500000 0.000000
O O12 0.000000 0.000000 0.000000
O O13 0.286580 0.086407 0.531470
O O14 0.433328 0.931260 0.734381
O O15 0.075551 0.088313 0.252671
O O16 0.844649 0.074500 0.961010
#
# Coordination Sequence:
#
# PCOD9093532 Si02
#       7
#     2   2   2   2   2   2   2
#     4  11  23  39  57  86 126 172 211 242 289 356
#     4  11  23  43  68  90 114 154 202 250 306 371
#     4  10  20  33  52  83 117 152 192 242 286 330
#     4  10  21  41  62  88 120 155 196 246 302 366
#     4  11  23  38  59  87 123 161 198 253 305 346
#     4  10  22  38  59  89 120 154 202 252 296 351
#     4   9  20  38  61  85 120 166 204 241 291 356
#
# _framework density 22.143742
#
# number of rings (size 3 to 8) (size 9 to 14) (size 15 to 20)
#    0.000    1.714    0.000    5.143    0.000   11.429 
#    0.000    1.429    0.000    0.000    0.000    0.000 
#    0.000    0.000    0.000    0.000    0.000    0.000 
#
# Total GULP energy -78000.036082 kJ/mol
# GULP energy per Si atom -5571.431149 kJ/mol
# Density = 2.209334 g / cm^3
# Si number density = 22.143742 Si / 1000 Ang^3
#
#
#
# Elastic Constant Matrix: (Units=GPa)
#
#
# Indices 1 2 3 4 5 6 
#
# 1 36.0297 -15.0172 8.0923 6.8861 -22.7260 4.0193
# 2 -15.0172 95.1236 19.3030 -15.6194 3.0541 20.0822
# 3 8.0923 19.3030 173.1467 -9.3133 -8.4723 9.1724
# 4 6.8861 -15.6194 -9.3133 18.4067 4.3585 -8.2104
# 5 -22.7260 3.0541 -8.4723 4.3585 29.2487 -9.7827
# 6 4.0193 20.0822 9.1724 -8.2104 -9.7827 24.3479
#
#
#
# Elastic Compliance Matrix: (Units=1/GPa)
#
#
# Indices 1 2 3 4 5 6 
#
# 1 0.083585 0.004935 -0.003371 -0.047266 0.068869 -0.004866
# 2 0.004935 0.015110 -0.001111 0.005708 -0.002973 -0.012129
# 3 -0.003371 -0.001111 0.006199 0.003703 -0.001306 -0.000139
# 4 -0.047266 0.005708 0.003703 0.096625 -0.045264 0.016097
# 5 0.068869 -0.002973 -0.001306 -0.045264 0.099876 0.016441
# 6 -0.004866 -0.012129 -0.000139 0.016097 0.016441 0.063964
#
#
# Mechanical properties :
#
#
# Convention : Reuss Voigt Hill
#
# Bulk Modulus (GPa) = 9.45185 36.56181 23.00683
# Shear Modulus (GPa) = 12.50866 33.86212 23.18539
#
# Velocity S-wave (km/s) = 2.37931 3.91474 3.23931
# Velocity P-wave (km/s) = 3.43887 6.08116 4.93996
#
# Compressibility (1/GPa) = 0.10579939
#
# Stress axis : x y z
#
# Youngs Moduli (GPa) = 11.96387 66.17954 161.30363
#
# Poissons Ratio (x) = -0.32658 0.54382
# Poissons Ratio (y) = -0.05904 0.17923
# Poissons Ratio (z) = 0.04034 0.07353
#
# Static dielectric constant tensor:
#      x y z
#    x 1.926880 0.000830 -0.016090 
#    y 0.000830 1.827960 0.098120 
#    z -0.016090 0.098120 2.217860 
# 
# From -- ./inp_files/533691.got.cif
#   From: 2010.05.17/outbox.cif.g08.bks.cpg/sg2_267_cif.got.tgz:533691.got - 2010.06.03 11:33:40.
