data_PCOD9093376
_publ_section_title
;
Structure prediction by ZEFSAII (Michael W. Deem and Ramdas Pophale) SiO2 
 PCOD9093376
Probable space group: P -1
;
_chemical_formula_sum "Si O2"
_cell_formula_units_Z 16
_cell_length_a 11.348309
_cell_length_b 8.676233
_cell_length_c 9.221387
_cell_angle_alpha 66.292781
_cell_angle_beta 115.203470
_cell_angle_gamma 126.758975
_cell_volume 644.442561
_symmetry_space_group_name_H-M "P -1"
_symmetry_group_IT_number 2
_symmetry_cell_setting 'triclinic'
loop_
_space_group_symop_operation_xyz
x,y,z
-x,-y,-z
loop_
_atom_site_type_symbol
_atom_site_label
_atom_site_fract_x
_atom_site_fract_y
_atom_site_fract_z
Si Si1 0.410526 0.189147 0.627244
Si Si2 0.698870 0.931209 0.055376
Si Si3 0.033299 0.175260 0.173247
Si Si4 0.066103 0.621979 0.720514
Si Si5 0.352124 0.454228 0.776302
Si Si6 0.348969 0.434459 0.287453
Si Si7 0.991577 0.743221 0.345346
Si Si8 0.398816 0.836495 0.799556
O O1 0.324058 0.111239 0.766346
O O2 0.329401 0.275628 0.456798
O O3 0.587548 0.356873 0.679672
O O4 0.403651 0.998152 0.634147
O O5 0.869464 0.096362 0.043245
O O6 0.671997 0.722151 0.065450
O O7 0.557623 0.947154 0.925885
O O8 0.034655 0.969837 0.263238
O O9 0.022028 0.298008 0.259074
O O10 0.200803 0.339202 0.146693
O O11 0.006705 0.392784 0.735839
O O12 0.235885 0.724752 0.838319
O O13 0.080557 0.717718 0.533751
O O14 0.495991 0.509605 0.732850
O O15 0.185231 0.368473 0.654295
O O16 0.393194 0.655617 0.790750
#
# Coordination Sequence:
#
# PCOD9093376 Si02
#       8
#     2   2   2   2   2   2   2   2
#     4  10  21  36  58  84 114 152 188 243 282 354
#     4  10  21  37  62  85 111 152 203 239 279 346
#     4  11  21  35  60  82 117 155 190 245 293 338
#     4  10  20  32  58  89 111 144 193 255 283 333
#     4   9  21  39  61  83 118 155 184 245 294 350
#     4  10  23  38  54  86 119 153 190 227 310 354
#     4   9  20  36  56  88 114 143 204 242 291 338
#     4  11  20  38  61  88 112 150 204 239 285 337
#
# _framework density 24.827659000000001
#
# number of rings (size 3 to 8) (size 9 to 14) (size 15 to 20)
#    0.000    2.000    1.250    1.875    7.000    0.500 
#    2.250    1.250    0.000    0.000    0.000    0.000 
#    0.000    0.000    0.000    0.000    0.000    0.000 
#
# Total GULP energy -89131.347808 kJ/mol
# GULP energy per Si atom -5570.709238 kJ/mol
# Density = 2.477115 g / cm^3
# Si number density = 24.827659 Si / 1000 Ang^3
#
#
#
# Elastic Constant Matrix: (Units=GPa)
#
#
# Indices 1 2 3 4 5 6 
#
# 1 67.9066 69.4357 24.0730 3.5326 15.0384 -6.4042
# 2 69.4357 156.2442 38.0753 15.5480 18.8294 -13.1147
# 3 24.0730 38.0753 53.7784 4.2992 21.3654 19.1149
# 4 3.5326 15.5480 4.2992 22.9526 7.5594 14.4052
# 5 15.0384 18.8294 21.3654 7.5594 29.0301 10.6448
# 6 -6.4042 -13.1147 19.1149 14.4052 10.6448 55.3687
#
#
#
# Elastic Compliance Matrix: (Units=1/GPa)
#
#
# Indices 1 2 3 4 5 6 
#
# 1 0.029399 -0.011931 -0.002712 0.005597 -0.007501 0.001496
# 2 -0.011931 0.015400 -0.008538 -0.013000 0.002913 0.008037
# 3 -0.002712 -0.008538 0.037793 0.015251 -0.019094 -0.015680
# 4 0.005597 -0.013000 0.015251 0.067692 -0.015103 -0.022405
# 5 -0.007501 0.002913 -0.019094 -0.015103 0.054476 -0.000129
# 6 0.001496 0.008037 -0.015680 -0.022405 -0.000129 0.031405
#
#
# Mechanical properties :
#
#
# Convention : Reuss Voigt Hill
#
# Bulk Modulus (GPa) = 27.60074 60.12192 43.86133
# Shear Modulus (GPa) = 16.97200 31.22663 24.09931
#
# Velocity S-wave (km/s) = 2.61740 3.55030 3.11893
# Velocity P-wave (km/s) = 4.50282 6.40894 5.53850
#
# Compressibility (1/GPa) = 0.03623091
#
# Stress axis : x y z
#
# Youngs Moduli (GPa) = 34.01527 64.93345 26.45983
#
# Poissons Ratio (x) = 0.77475 0.07175
# Poissons Ratio (y) = 0.40585 0.22590
# Poissons Ratio (z) = 0.09223 0.55437
#
# Static dielectric constant tensor:
#      x y z
#    x 2.089990 -0.133910 0.000250 
#    y -0.133910 2.125160 0.075000 
#    z 0.000250 0.075000 2.096170 
# 
# From -- ./inp_files/329167.got.cif
#   From: 2010.05.17/outbox.cif.g08.bks.cpg/sg2_165_cif.got.tgz:329167.got - 2010.06.03 11:33:40.
