data_PCOD9093061
_publ_section_title
;
Structure prediction by ZEFSAII (Michael W. Deem and Ramdas Pophale) SiO2 
 PCOD9093061
Probable space group: P -1
;
_chemical_formula_sum "Si O2"
_cell_formula_units_Z 16
_cell_length_a 12.476547
_cell_length_b 9.642299
_cell_length_c 8.188672
_cell_angle_alpha 98.631507
_cell_angle_beta 120.969114
_cell_angle_gamma 121.333431
_cell_volume 592.670367
_symmetry_space_group_name_H-M "P -1"
_symmetry_group_IT_number 2
_symmetry_cell_setting 'triclinic'
loop_
_space_group_symop_operation_xyz
x,y,z
-x,-y,-z
loop_
_atom_site_type_symbol
_atom_site_label
_atom_site_fract_x
_atom_site_fract_y
_atom_site_fract_z
Si Si1 0.796637 0.495187 0.096774
Si Si2 0.360727 0.201103 0.222724
Si Si3 0.376940 0.031542 0.473799
Si Si4 0.634973 0.105738 0.979334
Si Si5 0.997591 0.870452 0.731902
Si Si6 0.367296 0.445964 0.743852
Si Si7 0.842190 0.175898 0.420348
Si Si8 0.015690 0.344633 0.022523
O O1 0.668371 0.264389 0.920386
O O2 0.725365 0.507613 0.208824
O O3 0.000613 0.635221 0.322724
O O4 0.829950 0.591944 0.963592
O O5 0.381144 0.059534 0.138031
O O6 0.503133 0.403578 0.272208
O O7 0.154145 0.072913 0.993863
O O8 0.422053 0.216901 0.459441
O O9 0.320497 0.976627 0.610747
O O10 0.500000 0.000000 0.500000
O O11 0.179293 0.859842 0.212276
O O12 0.807380 0.248269 0.253622
O O13 0.500000 0.000000 0.000000
O O14 0.803393 0.769922 0.505783
O O15 0.954603 0.699396 0.782467
O O16 0.094878 0.912985 0.643026
O O17 0.500000 0.500000 0.000000
O O18 0.000000 0.500000 0.000000
#
# Coordination Sequence:
#
# PCOD9093061 Si02
#       8
#     2   2   2   2   2   2   2   2
#     4  10  20  36  58  81 118 153 193 240 291 352
#     4  10  21  38  56  88 122 149 194 242 297 355
#     4  10  20  31  50  86 123 153 184 226 287 360
#     4  11  18  31  52  84 118 147 186 235 296 356
#     4   9  21  40  59  84 116 154 197 246 294 345
#     4  11  24  42  63  84 112 162 211 247 285 333
#     4   9  19  32  53  80 117 156 185 224 297 364
#     4  10  20  35  56  88 122 154 183 234 303 364
#
# _framework density 26.996455000000001
#
# number of rings (size 3 to 8) (size 9 to 14) (size 15 to 20)
#    0.000    2.000    1.250    3.375    1.750    2.500 
#    0.000    0.625    0.000   12.000    0.000    0.000 
#    0.000    0.000    0.000    0.000    0.000    0.000 
#
# Total GULP energy -89079.051261 kJ/mol
# GULP energy per Si atom -5567.440704 kJ/mol
# Density = 2.693501 g / cm^3
# Si number density = 26.996455 Si / 1000 Ang^3
#
#
#
# Elastic Constant Matrix: (Units=GPa)
#
#
# Indices 1 2 3 4 5 6 
#
# 1 87.1297 49.3991 9.7719 -5.9095 -0.1528 26.7551
# 2 49.3991 151.2495 30.2920 -16.6710 14.0121 47.5534
# 3 9.7719 30.2920 97.0430 -4.8722 10.1047 14.9533
# 4 -5.9095 -16.6710 -4.8722 44.7225 17.6486 -1.8343
# 5 -0.1528 14.0121 10.1047 17.6486 30.8454 5.5779
# 6 26.7551 47.5534 14.9533 -1.8343 5.5779 47.6847
#
#
#
# Elastic Compliance Matrix: (Units=1/GPa)
#
#
# Indices 1 2 3 4 5 6 
#
# 1 0.015115 -0.003691 0.000065 -0.000828 0.003148 -0.005220
# 2 -0.003691 0.012107 -0.000997 0.006459 -0.007335 -0.008583
# 3 0.000065 -0.000997 0.011510 0.002546 -0.004405 -0.002039
# 4 -0.000828 0.006459 0.002546 0.033719 -0.022551 -0.002840
# 5 0.003148 -0.007335 -0.004405 -0.022551 0.050077 0.000205
# 6 -0.005220 -0.008583 -0.002039 -0.002840 0.000205 0.032966
#
#
# Mechanical properties :
#
#
# Convention : Reuss Voigt Hill
#
# Bulk Modulus (GPa) = 33.91447 57.14981 45.53214
# Shear Modulus (GPa) = 28.64210 41.04779 34.84494
#
# Velocity S-wave (km/s) = 3.26077 3.90357 3.59656
# Velocity P-wave (km/s) = 5.17365 6.44457 5.84376
#
# Compressibility (1/GPa) = 0.02948594
#
# Stress axis : x y z
#
# Youngs Moduli (GPa) = 66.15929 82.59652 86.88124
#
# Poissons Ratio (x) = 0.30490 -0.00567
# Poissons Ratio (y) = 0.24423 0.08660
# Poissons Ratio (z) = -0.00432 0.08233
#
# Static dielectric constant tensor:
#      x y z
#    x 2.590730 -0.171270 0.343540 
#    y -0.171270 2.230690 -0.265690 
#    z 0.343540 -0.265690 2.594260 
# 
# From -- ./inp_files/307420.got.cif
#   From: 2010.05.17/outbox.cif.g08.bks.cpg/sg2_154_cif.got.tgz:307420.got - 2010.06.03 11:33:40.
