data_PCOD9093479
_publ_section_title
;
Structure prediction by ZEFSAII (Michael W. Deem and Ramdas Pophale) SiO2 
 PCOD9093479
Probable space group: P -1
;
_chemical_formula_sum "Si O2"
_cell_formula_units_Z 14
_cell_length_a 15.206899
_cell_length_b 10.584597
_cell_length_c 12.981117
_cell_angle_alpha 118.233696
_cell_angle_beta 49.643228
_cell_angle_gamma 157.665147
_cell_volume 544.893210
_symmetry_space_group_name_H-M "P -1"
_symmetry_group_IT_number 2
_symmetry_cell_setting 'triclinic'
loop_
_space_group_symop_operation_xyz
x,y,z
-x,-y,-z
loop_
_atom_site_type_symbol
_atom_site_label
_atom_site_fract_x
_atom_site_fract_y
_atom_site_fract_z
Si Si1 0.169400 0.495561 0.954699
Si Si2 0.920265 0.714484 0.765951
Si Si3 0.445844 0.135465 0.515189
Si Si4 0.461367 0.405776 0.737241
Si Si5 0.409623 0.175805 0.077619
Si Si6 0.742879 0.655455 0.306621
Si Si7 0.780482 0.304568 0.213401
O O1 0.409962 0.720012 0.940109
O O2 0.903223 0.284783 0.120581
O O3 0.080837 0.251800 0.865736
O O4 0.309138 0.756755 0.859262
O O5 0.090458 0.759512 0.636429
O O6 0.101367 0.977849 0.833201
O O7 0.039290 0.963371 0.687418
O O8 0.580266 0.343864 0.905849
O O9 0.562176 0.360409 0.612961
O O10 0.591911 0.394215 0.410212
O O11 0.546646 0.091780 0.392346
O O12 0.509217 0.560648 0.658328
O O13 0.560411 0.622966 0.836062
O O14 0.077369 0.740089 0.171075
#
# Coordination Sequence:
#
# PCOD9093479 Si02
#       7
#     2   2   2   2   2   2   2
#     4   9  19  34  50  68 100 128 162 199 235 276
#     4   8  16  28  51  71  99 128 150 197 252 281
#     4   8  15  29  46  72 101 126 155 193 246 282
#     4   7  15  25  48  69  97 125 149 189 247 281
#     4  11  18  31  54  74  95 125 164 196 238 288
#     4   7  13  27  51  69  89 131 161 183 237 289
#     4  10  20  33  51  73  93 129 167 198 229 282
#
# _framework density 25.693109
#
# number of rings (size 3 to 8) (size 9 to 14) (size 15 to 20)
#    1.714    1.429    0.000    2.571    0.000    0.571 
#    0.000    3.571    0.000   12.857    0.000    0.000 
#    0.000    0.000    0.000    0.000    0.000    0.000 
#
# Total GULP energy -77955.191267 kJ/mol
# GULP energy per Si atom -5568.227948 kJ/mol
# Density = 2.563463 g / cm^3
# Si number density = 25.693109 Si / 1000 Ang^3
#
#
#
# Elastic Constant Matrix: (Units=GPa)
#
#
# Indices 1 2 3 4 5 6 
#
# 1 73.6638 -1.2865 38.3690 -0.5261 -13.4182 3.0903
# 2 -1.2865 57.5653 12.8433 2.3505 -3.0684 0.5371
# 3 38.3690 12.8433 165.8340 8.2690 -44.9168 -11.9801
# 4 -0.5261 2.3505 8.2690 24.4058 -20.5102 -10.4046
# 5 -13.4182 -3.0684 -44.9168 -20.5102 57.2392 2.1626
# 6 3.0903 0.5371 -11.9801 -10.4046 2.1626 23.5036
#
#
#
# Elastic Compliance Matrix: (Units=1/GPa)
#
#
# Indices 1 2 3 4 5 6 
#
# 1 0.015958 0.001251 -0.003722 0.001126 0.001429 -0.003657
# 2 0.001251 0.017978 -0.002177 -0.003721 -0.001664 -0.003179
# 3 -0.003722 -0.002177 0.009764 0.008143 0.009278 0.008267
# 4 0.001126 -0.003721 0.008143 0.084609 0.035325 0.038292
# 5 0.001429 -0.001664 0.009278 0.035325 0.037020 0.016811
# 6 -0.003657 -0.003179 0.008267 0.038292 0.016811 0.062718
#
#
# Mechanical properties :
#
#
# Convention : Reuss Voigt Hill
#
# Bulk Modulus (GPa) = 29.06606 44.10165 36.58386
# Shear Modulus (GPa) = 20.09562 37.50553 28.80058
#
# Velocity S-wave (km/s) = 2.79971 3.82481 3.35168
# Velocity P-wave (km/s) = 4.66782 6.05868 5.40815
#
# Compressibility (1/GPa) = 0.03440439
#
# Stress axis : x y z
#
# Youngs Moduli (GPa) = 62.66603 55.62326 102.41442
#
# Poissons Ratio (x) = -0.06961 0.38123
# Poissons Ratio (y) = -0.07842 0.22293
# Poissons Ratio (z) = 0.23327 0.12108
#
# Static dielectric constant tensor:
#      x y z
#    x 2.124880 0.008420 0.008990 
#    y 0.008420 2.030540 0.041950 
#    z 0.008990 0.041950 2.094500 
# 
# From -- ./inp_files/541284.got.cif
#   From: 2010.05.17/outbox.cif.g08.bks.cpg/sg2_271_cif.got.tgz:541284.got - 2010.06.03 11:33:40.
