data_PCOD9093009
_publ_section_title
;
Structure prediction by ZEFSAII (Michael W. Deem and Ramdas Pophale) SiO2 
 PCOD9093009
Probable space group: P -1
;
_chemical_formula_sum "Si O2"
_cell_formula_units_Z 16
_cell_length_a 21.515925
_cell_length_b 11.033232
_cell_length_c 15.836877
_cell_angle_alpha 131.342360
_cell_angle_beta 155.365651
_cell_angle_gamma 33.525428
_cell_volume 784.554133
_symmetry_space_group_name_H-M "P -1"
_symmetry_group_IT_number 2
_symmetry_cell_setting 'triclinic'
loop_
_space_group_symop_operation_xyz
x,y,z
-x,-y,-z
loop_
_atom_site_type_symbol
_atom_site_label
_atom_site_fract_x
_atom_site_fract_y
_atom_site_fract_z
Si Si1 0.225667 0.061742 0.499814
Si Si2 0.549979 0.585648 0.468767
Si Si3 0.222162 0.650571 0.859673
Si Si4 0.263959 0.256483 0.792737
Si Si5 0.680043 0.545678 0.792766
Si Si6 0.117943 0.083175 0.184434
Si Si7 0.986528 0.228136 0.518688
Si Si8 0.294264 0.665618 0.628410
O O1 0.203441 0.226631 0.613314
O O2 0.180150 0.094834 0.359633
O O3 0.028909 0.096079 0.303630
O O4 0.490138 0.814595 0.718359
O O5 0.678968 0.550980 0.692565
O O6 0.419725 0.540950 0.331762
O O7 0.690025 0.411559 0.482778
O O8 0.351804 0.866893 0.326153
O O9 0.255651 0.453446 0.859967
O O10 0.189908 0.661982 0.724543
O O11 0.451981 0.551722 0.122349
O O12 0.086158 0.323536 0.668288
O O13 0.500000 0.000000 0.000000
O O14 0.933208 0.352164 0.044824
O O15 0.000000 0.000000 0.000000
O O16 0.869460 0.299969 0.496445
O O17 0.188070 0.932964 0.622856
#
# Coordination Sequence:
#
# PCOD9093009 Si02
#       8
#     2   2   2   2   2   2   2   2
#     4  10  20  30  51  78 108 140 175 228 277 319
#     4   9  17  28  46  75 107 142 174 221 274 330
#     4  11  21  36  55  81 113 146 188 227 272 331
#     4  11  22  38  57  81 114 146 191 230 270 324
#     4   9  17  30  47  75 110 138 179 226 275 320
#     4   9  17  29  46  73 105 137 178 220 279 321
#     4  10  22  37  53  81 113 152 185 226 273 333
#     4  11  21  35  56  81 119 148 181 224 283 332
#
# _framework density 20.393747999999999
#
# number of rings (size 3 to 8) (size 9 to 14) (size 15 to 20)
#    0.000    2.000    1.250    5.625    1.750    1.000 
#    0.000    0.000    0.000    0.000    0.000   17.500 
#    0.000    0.000    0.000    0.000    0.000    0.000 
#
# Total GULP energy -89095.609623 kJ/mol
# GULP energy per Si atom -5568.475601 kJ/mol
# Density = 2.034733 g / cm^3
# Si number density = 20.393748 Si / 1000 Ang^3
#
#
#
# Elastic Constant Matrix: (Units=GPa)
#
#
# Indices 1 2 3 4 5 6 
#
# 1 92.4041 41.8448 29.5729 -15.1819 1.3830 -22.8805
# 2 41.8448 67.3134 31.9527 -21.8680 0.2764 -26.9041
# 3 29.5729 31.9527 66.1720 -19.9905 -8.8906 -10.1240
# 4 -15.1819 -21.8680 -19.9905 26.7102 4.7040 4.1902
# 5 1.3830 0.2764 -8.8906 4.7040 19.1582 -5.4544
# 6 -22.8805 -26.9041 -10.1240 4.1902 -5.4544 30.1463
#
#
#
# Elastic Compliance Matrix: (Units=1/GPa)
#
#
# Indices 1 2 3 4 5 6 
#
# 1 0.016118 -0.005812 -0.003359 0.001273 -0.001388 0.005491
# 2 -0.005812 0.036968 -0.006017 0.018860 -0.000760 0.023802
# 3 -0.003359 -0.006017 0.023561 0.009132 0.009128 0.000376
# 4 0.001273 0.018860 0.009132 0.060049 -0.007703 0.011124
# 5 -0.001388 -0.000760 0.009128 -0.007703 0.062331 0.013682
# 6 0.005491 0.023802 0.000376 0.011124 0.013682 0.059637
#
#
# Mechanical properties :
#
#
# Convention : Reuss Voigt Hill
#
# Bulk Modulus (GPa) = 21.61097 48.07003 34.84050
# Shear Modulus (GPa) = 16.42240 23.37089 19.89664
#
# Velocity S-wave (km/s) = 2.84080 3.38891 3.12689
# Velocity P-wave (km/s) = 4.62386 6.23980 5.49159
#
# Compressibility (1/GPa) = 0.04627279
#
# Stress axis : x y z
#
# Youngs Moduli (GPa) = 62.04136 27.05061 42.44258
#
# Poissons Ratio (x) = 0.15721 0.14257
# Poissons Ratio (y) = 0.36055 0.25536
# Poissons Ratio (z) = 0.20840 0.16275
#
# Static dielectric constant tensor:
#      x y z
#    x 1.714090 -0.011570 -0.019930 
#    y -0.011570 1.947060 -0.060310 
#    z -0.019930 -0.060310 1.771890 
# 
# From -- ./inp_files/522340.got.cif
#   From: 2010.05.17/outbox.cif.g08.bks.cpg/sg2_262_cif.got.tgz:522340.got - 2010.06.03 11:33:40.
