data_PCOD9093451
_publ_section_title
;
Structure prediction by ZEFSAII (Michael W. Deem and Ramdas Pophale) SiO2 
 PCOD9093451
Probable space group: P -1
;
_chemical_formula_sum "Si O2"
_cell_formula_units_Z 16
_cell_length_a 10.253438
_cell_length_b 11.727524
_cell_length_c 11.400306
_cell_angle_alpha 140.721260
_cell_angle_beta 115.456414
_cell_angle_gamma 65.473081
_cell_volume 775.435815
_symmetry_space_group_name_H-M "P -1"
_symmetry_group_IT_number 2
_symmetry_cell_setting 'triclinic'
loop_
_space_group_symop_operation_xyz
x,y,z
-x,-y,-z
loop_
_atom_site_type_symbol
_atom_site_label
_atom_site_fract_x
_atom_site_fract_y
_atom_site_fract_z
Si Si1 0.528056 0.546061 0.910767
Si Si2 0.685053 0.702580 0.430319
Si Si3 0.923143 0.226521 0.215034
Si Si4 0.342552 0.138356 0.708133
Si Si5 0.209120 0.972943 0.177283
Si Si6 0.748564 0.203750 0.691224
Si Si7 0.979091 0.461316 0.623375
Si Si8 0.012299 0.324922 0.782321
O O1 0.405791 0.463397 0.722959
O O2 0.675223 0.412559 0.828137
O O3 0.500000 0.500000 0.000000
O O4 0.552387 0.756517 0.087970
O O5 0.628408 0.802468 0.367179
O O6 0.852382 0.622923 0.403940
O O7 0.694876 0.862355 0.654842
O O8 0.015717 0.328622 0.237230
O O9 0.884907 0.371159 0.419404
O O10 0.793355 0.154178 0.037891
O O11 0.038755 0.066408 0.187619
O O12 0.177404 0.228022 0.748993
O O13 0.340945 0.923438 0.523446
O O14 0.244629 0.864600 0.225768
O O15 0.910584 0.191127 0.693004
O O16 0.949107 0.402194 0.694561
O O17 0.000000 0.500000 0.000000
#
# Coordination Sequence:
#
# PCOD9093451 Si02
#       8
#     2   2   2   2   2   2   2   2
#     4  10  20  33  49  75 112 148 176 205 262 332
#     4   8  17  31  47  71 106 135 172 211 259 313
#     4   9  17  31  49  73 108 130 180 217 259 309
#     4   9  19  32  46  74 107 143 173 202 258 326
#     4   9  18  30  49  77 104 135 170 217 265 312
#     4  11  21  34  53  79 120 138 167 221 265 326
#     4   9  18  32  51  77 106 138 169 221 260 313
#     4  11  19  32  54  78 111 146 171 209 279 325
#
# _framework density 20.633559000000002
#
# number of rings (size 3 to 8) (size 9 to 14) (size 15 to 20)
#    0.000    2.500    1.250    1.875    3.500    4.500 
#    0.000    0.000    0.000    0.000    0.000    8.750 
#    0.000    0.250    0.000    0.000    0.000    0.000 
#
# Total GULP energy -89176.770574 kJ/mol
# GULP energy per Si atom -5573.548161 kJ/mol
# Density = 2.058660 g / cm^3
# Si number density = 20.633559 Si / 1000 Ang^3
#
#
#
# Elastic Constant Matrix: (Units=GPa)
#
#
# Indices 1 2 3 4 5 6 
#
# 1 56.2916 1.1747 33.9173 -5.2960 8.5058 -2.6503
# 2 1.1747 41.0000 23.0291 -5.3044 0.0414 -2.9826
# 3 33.9173 23.0291 201.5128 -3.1559 29.3678 -1.4327
# 4 -5.2960 -5.3044 -3.1559 29.7961 -3.2449 -3.4563
# 5 8.5058 0.0414 29.3678 -3.2449 32.0376 1.4935
# 6 -2.6503 -2.9826 -1.4327 -3.4563 1.4935 13.2699
#
#
#
# Elastic Compliance Matrix: (Units=1/GPa)
#
#
# Indices 1 2 3 4 5 6 
#
# 1 0.020706 0.002200 -0.003293 0.004121 -0.002326 0.005609
# 2 0.002200 0.027841 -0.003868 0.006159 0.003199 0.007523
# 3 -0.003293 -0.003868 0.006720 -0.001207 -0.005379 -0.000511
# 4 0.004121 0.006159 -0.001207 0.036927 0.003217 0.011333
# 5 -0.002326 0.003199 -0.005379 0.003217 0.037255 -0.003681
# 6 0.005609 0.007523 -0.000511 0.011333 -0.003681 0.081481
#
#
# Mechanical properties :
#
#
# Convention : Reuss Voigt Hill
#
# Bulk Modulus (GPa) = 22.05349 46.11632 34.08491
# Shear Modulus (GPa) = 21.18931 31.06628 26.12780
#
# Velocity S-wave (km/s) = 3.20806 3.88444 3.56234
# Velocity P-wave (km/s) = 4.94303 6.52052 5.78579
#
# Compressibility (1/GPa) = 0.04534429
#
# Stress axis : x y z
#
# Youngs Moduli (GPa) = 48.29484 35.91856 148.80397
#
# Poissons Ratio (x) = -0.07902 0.49004
# Poissons Ratio (y) = -0.10625 0.57561
# Poissons Ratio (z) = 0.15904 0.13894
#
# Static dielectric constant tensor:
#      x y z
#    x 1.767000 -0.051440 0.015390 
#    y -0.051440 1.775970 0.037180 
#    z 0.015390 0.037180 1.834960 
# 
# From -- ./inp_files/281153.got.cif
#   From: 2010.05.17/outbox.cif.g08.bks.cpg/sg2_141_cif.got.tgz:281153.got - 2010.06.03 11:33:40.
