data_PCOD9093186
_publ_section_title
;
Structure prediction by ZEFSAII (Michael W. Deem and Ramdas Pophale) SiO2 
 PCOD9093186
Probable space group: P -1
;
_chemical_formula_sum "Si O2"
_cell_formula_units_Z 13
_cell_length_a 5.080351
_cell_length_b 15.514896
_cell_length_c 21.304214
_cell_angle_alpha 163.132936
_cell_angle_beta 84.647922
_cell_angle_gamma 94.870979
_cell_volume 485.050647
_symmetry_space_group_name_H-M "P -1"
_symmetry_group_IT_number 2
_symmetry_cell_setting 'triclinic'
loop_
_space_group_symop_operation_xyz
x,y,z
-x,-y,-z
loop_
_atom_site_type_symbol
_atom_site_label
_atom_site_fract_x
_atom_site_fract_y
_atom_site_fract_z
Si Si1 0.712452 0.228502 0.813305
Si Si2 0.800543 0.258189 0.307186
Si Si3 0.630283 0.048710 0.279978
Si Si4 0.041422 0.507019 0.112336
Si Si5 0.500000 0.000000 0.000000
Si Si6 0.982987 0.529957 0.662534
Si Si7 0.826759 0.318535 0.109663
O O1 0.850921 0.203674 0.724770
O O2 0.566128 0.957279 0.661152
O O3 0.500000 0.500000 0.000000
O O4 0.907211 0.337132 0.938899
O O5 0.560398 0.207861 0.326181
O O6 0.000000 0.500000 0.500000
O O7 0.762859 0.329723 0.283274
O O8 0.974385 0.959495 0.099145
O O9 0.878710 0.233770 0.427455
O O10 0.709259 0.708500 0.026882
O O11 0.841543 0.497083 0.168258
O O12 0.239471 0.218325 0.166843
O O13 0.575323 0.183436 0.056981
O O14 0.043166 0.487032 0.703153
#
# Coordination Sequence:
#
# PCOD9093186 Si02
#       7
#     2   2   2   2   1   2   2
#     4   9  18  34  57  80 101 128 173 222 265 311
#     4   8  15  30  50  73 102 134 169 209 249 292
#     4   9  18  33  56  79 103 138 177 215 256 306
#     4   9  19  35  56  79 102 133 173 221 265 303
#     4  10  20  32  50  74 106 146 174 198 252 310
#     4  10  20  34  51  78 112 141 172 214 257 307
#     4  10  20  33  51  76 108 139 171 213 262 314
#
# _framework density 26.801321999999999
#
# number of rings (size 3 to 8) (size 9 to 14) (size 15 to 20)
#    0.000    2.769    0.000    1.846    0.000    6.154 
#    0.000    2.308    0.000   33.231    0.000    0.000 
#    0.000    0.000    0.000    0.000    0.000    0.000 
#
# Total GULP energy -72399.612909 kJ/mol
# GULP energy per Si atom -5569.200993 kJ/mol
# Density = 2.674032 g / cm^3
# Si number density = 26.801322 Si / 1000 Ang^3
#
#
#
# Elastic Constant Matrix: (Units=GPa)
#
#
# Indices 1 2 3 4 5 6 
#
# 1 79.3052 49.7256 3.2626 8.0386 -9.9032 21.2489
# 2 49.7256 338.6556 30.6664 21.3437 22.0010 61.1122
# 3 3.2626 30.6664 63.7952 0.9458 -10.0689 1.5138
# 4 8.0386 21.3437 0.9458 33.0299 6.1170 10.5607
# 5 -9.9032 22.0010 -10.0689 6.1170 34.6881 2.5339
# 6 21.2489 61.1122 1.5138 10.5607 2.5339 59.4486
#
#
#
# Elastic Compliance Matrix: (Units=1/GPa)
#
#
# Indices 1 2 3 4 5 6 
#
# 1 0.015963 -0.002160 0.001460 -0.002778 0.007084 -0.003331
# 2 -0.002160 0.004393 -0.002514 -0.000437 -0.003804 -0.003440
# 3 0.001460 -0.002514 0.017942 -0.001071 0.007300 0.001484
# 4 -0.002778 -0.000437 -0.001071 0.033828 -0.006481 -0.004264
# 5 0.007084 -0.003804 0.007300 -0.006481 0.036468 0.000790
# 6 -0.003331 -0.003440 0.001484 -0.004264 0.000790 0.022234
#
#
# Mechanical properties :
#
#
# Convention : Reuss Voigt Hill
#
# Bulk Modulus (GPa) = 31.37713 72.11835 51.74774
# Shear Modulus (GPa) = 33.81170 51.97341 42.89256
#
# Velocity S-wave (km/s) = 3.55571 4.40842 4.00483
# Velocity P-wave (km/s) = 5.34698 7.27181 6.38237
#
# Compressibility (1/GPa) = 0.03187034
#
# Stress axis : x y z
#
# Youngs Moduli (GPa) = 62.64673 227.62742 55.73646
#
# Poissons Ratio (x) = 0.49172 -0.08140
# Poissons Ratio (y) = 0.13533 0.14010
# Poissons Ratio (z) = -0.09149 0.57218
#
# Static dielectric constant tensor:
#      x y z
#    x 2.152150 0.074200 -0.028080 
#    y 0.074200 2.324680 0.030730 
#    z -0.028080 0.030730 1.991110 
# 
# From -- ./inp_files/30351.got.cif
#   From: 2010.05.17/outbox.cif.g08.bks.cpg/sg2_16_cif.got.tgz:30351.got - 2010.06.03 11:33:40.
