data_PCOD9093272
_publ_section_title
;
Structure prediction by ZEFSAII (Michael W. Deem and Ramdas Pophale) SiO2 
 PCOD9093272
Probable space group: P -1
;
_chemical_formula_sum "Si O2"
_cell_formula_units_Z 16
_cell_length_a 13.986280
_cell_length_b 10.014068
_cell_length_c 13.482867
_cell_angle_alpha 54.965077
_cell_angle_beta 150.882701
_cell_angle_gamma 108.738849
_cell_volume 670.974671
_symmetry_space_group_name_H-M "P -1"
_symmetry_group_IT_number 2
_symmetry_cell_setting 'triclinic'
loop_
_space_group_symop_operation_xyz
x,y,z
-x,-y,-z
loop_
_atom_site_type_symbol
_atom_site_label
_atom_site_fract_x
_atom_site_fract_y
_atom_site_fract_z
Si Si1 0.803807 0.829090 0.771738
Si Si2 0.586659 0.408905 0.263943
Si Si3 0.503661 0.772155 0.927214
Si Si4 0.917327 0.818824 0.236652
Si Si5 0.239622 0.552465 0.301704
Si Si6 0.932348 0.922012 0.634048
Si Si7 0.695559 0.091695 0.738248
Si Si8 0.642317 0.430211 0.821565
O O1 0.559656 0.856374 0.527286
O O2 0.877364 0.863758 0.716086
O O3 0.803072 0.980638 0.782771
O O4 0.981196 0.626121 0.054813
O O5 0.531818 0.283121 0.193203
O O6 0.469040 0.423455 0.255196
O O7 0.851252 0.329031 0.536539
O O8 0.492491 0.614892 0.050435
O O9 0.746512 0.756567 0.155501
O O10 0.300348 0.971350 0.678596
O O11 0.984079 0.926810 0.333073
O O12 0.788163 0.955618 0.972748
O O13 0.264913 0.735069 0.273635
O O14 0.431956 0.397227 0.606760
O O15 0.287972 0.518780 0.243138
O O16 0.144605 0.741085 0.868898
#
# Coordination Sequence:
#
# PCOD9093272 Si02
#       8
#     2   2   2   2   2   2   2   2
#     4  10  20  32  53  88 112 150 192 232 278 335
#     4  10  23  39  62  86 115 146 194 243 286 338
#     4  10  22  41  61  86 111 149 195 245 286 327
#     4  11  20  37  62  83 114 150 190 241 282 338
#     4  10  21  37  55  80 123 153 183 231 283 340
#     4  10  21  38  59  82 119 151 188 234 286 343
#     4  11  20  31  58  86 114 149 194 230 280 342
#     4  10  21  39  59  84 118 159 185 228 293 341
#
# _framework density 23.845907
#
# number of rings (size 3 to 8) (size 9 to 14) (size 15 to 20)
#    0.000    1.750    3.750    1.500    3.500    0.500 
#    0.000   11.250    0.000    0.000    0.000    0.000 
#    0.000    0.000    0.000    0.000    0.000    0.000 
#
# Total GULP energy -89434.032737 kJ/mol
# GULP energy per Si atom -5589.627046 kJ/mol
# Density = 2.379163 g / cm^3
# Si number density = 23.845907 Si / 1000 Ang^3
#
#
#
# Elastic Constant Matrix: (Units=GPa)
#
#
# Indices 1 2 3 4 5 6 
#
# 1 46.3618 20.1097 14.0793 1.0074 15.7440 -7.0373
# 2 20.1097 62.4025 20.7700 3.1810 11.9020 -1.6686
# 3 14.0793 20.7700 133.6435 -10.1130 38.7946 -7.0737
# 4 1.0074 3.1810 -10.1130 37.1787 3.1637 4.8129
# 5 15.7440 11.9020 38.7946 3.1637 37.7077 -1.8776
# 6 -7.0373 -1.6686 -7.0737 4.8129 -1.8776 20.4327
#
#
#
# Elastic Compliance Matrix: (Units=1/GPa)
#
#
# Indices 1 2 3 4 5 6 
#
# 1 0.029626 -0.007763 0.001901 0.000169 -0.011434 0.009137
# 2 -0.007763 0.019429 -0.002287 -0.001843 -0.000458 -0.001487
# 3 0.001901 -0.002287 0.011628 0.004037 -0.012254 0.002417
# 4 0.000169 -0.001843 0.004037 0.029502 -0.006428 -0.006235
# 5 -0.011434 -0.000458 -0.012254 -0.006428 0.044454 -0.002619
# 6 0.009137 -0.001487 0.002417 -0.006235 -0.002619 0.054031
#
#
# Mechanical properties :
#
#
# Convention : Reuss Voigt Hill
#
# Bulk Modulus (GPa) = 22.53019 39.14732 30.83875
# Shear Modulus (GPa) = 22.75159 31.56040 27.15599
#
# Velocity S-wave (km/s) = 3.09222 3.64196 3.37829
# Velocity P-wave (km/s) = 4.71358 5.84274 5.30827
#
# Compressibility (1/GPa) = 0.04438490
#
# Stress axis : x y z
#
# Youngs Moduli (GPa) = 33.75439 51.46822 85.99791
#
# Poissons Ratio (x) = 0.39956 -0.16348
# Poissons Ratio (y) = 0.26205 0.19668
# Poissons Ratio (z) = -0.06417 0.11771
#
# Static dielectric constant tensor:
#      x y z
#    x 1.876050 0.003010 -0.001340 
#    y 0.003010 1.929330 -0.018190 
#    z -0.001340 -0.018190 2.038230 
# 
# From -- ./inp_files/531076.got.cif
#   From: 2010.05.17/outbox.cif.g08.bks.cpg/sg2_266_cif.got.tgz:531076.got - 2010.06.03 11:33:40.
