data_PCOD9093661
_publ_section_title
;
Structure prediction by ZEFSAII (Michael W. Deem and Ramdas Pophale) SiO2 
 PCOD9093661
Probable space group: P -1
;
_chemical_formula_sum "Si O2"
_cell_formula_units_Z 16
_cell_length_a 11.122027
_cell_length_b 8.034959
_cell_length_c 19.445468
_cell_angle_alpha 147.610752
_cell_angle_beta 135.591288
_cell_angle_gamma 59.316294
_cell_volume 631.049728
_symmetry_space_group_name_H-M "P -1"
_symmetry_group_IT_number 2
_symmetry_cell_setting 'triclinic'
loop_
_space_group_symop_operation_xyz
x,y,z
-x,-y,-z
loop_
_atom_site_type_symbol
_atom_site_label
_atom_site_fract_x
_atom_site_fract_y
_atom_site_fract_z
Si Si1 0.576544 0.176420 0.698379
Si Si2 0.521883 0.436876 0.386006
Si Si3 0.737071 0.530469 0.368292
Si Si4 0.152382 0.540020 0.978023
Si Si5 0.182842 0.694708 0.466883
Si Si6 0.890881 0.093176 0.180446
Si Si7 0.952473 0.892714 0.333976
Si Si8 0.797988 0.731228 0.887561
O O1 0.397159 0.299899 0.667496
O O2 0.697957 0.397900 0.767188
O O3 0.542967 0.814147 0.533920
O O4 0.683552 0.258072 0.841667
O O5 0.641725 0.403691 0.356290
O O6 0.614850 0.308868 0.443079
O O7 0.320716 0.257483 0.223471
O O8 0.775669 0.248255 0.239252
O O9 0.923263 0.799114 0.546814
O O10 0.178455 0.355694 0.854669
O O11 0.001283 0.721276 0.961567
O O12 0.076019 0.234763 0.890998
O O13 0.095984 0.727964 0.369994
O O14 0.071073 0.356804 0.332962
O O15 0.144120 0.972859 0.596777
O O16 0.792599 0.004252 0.036434
#
# Coordination Sequence:
#
# PCOD9093661 Si02
#       8
#     2   2   2   2   2   2   2   2
#     4  10  20  33  55  83 111 137 173 224 265 308
#     4  11  20  35  57  80 107 141 179 216 263 316
#     4  10  20  35  56  81 108 139 177 219 264 315
#     4  11  20  35  57  80 107 141 179 216 263 316
#     4  10  21  37  56  79 108 140 176 219 264 313
#     4  10  20  35  56  81 108 139 177 219 264 315
#     4  10  21  37  56  79 108 140 176 219 264 313
#     4  10  20  33  55  83 111 137 173 224 265 308
#
# _framework density 25.354579000000001
#
# number of rings (size 3 to 8) (size 9 to 14) (size 15 to 20)
#    0.000    1.750    0.000    7.500    0.000    7.500 
#    0.000    6.250    0.000    4.500    0.000    0.000 
#    0.000    0.000    0.000    0.000    0.000    0.000 
#
# Total GULP energy -89690.590390 kJ/mol
# GULP energy per Si atom -5605.661899 kJ/mol
# Density = 2.529687 g / cm^3
# Si number density = 25.354579 Si / 1000 Ang^3
#
#
#
# Elastic Constant Matrix: (Units=GPa)
#
#
# Indices 1 2 3 4 5 6 
#
# 1 55.8514 2.5228 27.8414 17.6592 7.0809 -6.2300
# 2 2.5228 130.5384 42.7306 -23.3811 -3.6963 -13.8304
# 3 27.8414 42.7306 164.4346 -24.3999 -21.5747 -10.4422
# 4 17.6592 -23.3811 -24.3999 40.5484 -2.6091 -3.1417
# 5 7.0809 -3.6963 -21.5747 -2.6091 34.0948 0.8308
# 6 -6.2300 -13.8304 -10.4422 -3.1417 0.8308 37.4337
#
#
#
# Elastic Compliance Matrix: (Units=1/GPa)
#
#
# Indices 1 2 3 4 5 6 
#
# 1 0.031874 -0.001584 -0.010155 -0.021834 -0.014898 0.000385
# 2 -0.001584 0.009456 -0.000946 0.005911 0.001124 0.003437
# 3 -0.010155 -0.000946 0.011143 0.011358 0.009883 0.001803
# 4 -0.021834 0.005911 0.011358 0.045831 0.015743 0.005216
# 5 -0.014898 0.001124 0.009883 0.015743 0.039977 0.001127
# 6 0.000385 0.003437 0.001803 0.005216 0.001127 0.028963
#
#
# Mechanical properties :
#
#
# Convention : Reuss Voigt Hill
#
# Bulk Modulus (GPa) = 36.89673 55.22377 46.06025
# Shear Modulus (GPa) = 24.79559 40.93069 32.86314
#
# Velocity S-wave (km/s) = 3.13062 4.02223 3.60410
# Velocity P-wave (km/s) = 5.25848 6.58779 5.96031
#
# Compressibility (1/GPa) = 0.02710268
#
# Stress axis : x y z
#
# Youngs Moduli (GPa) = 31.37383 105.75641 89.73939
#
# Poissons Ratio (x) = 0.16747 0.91133
# Poissons Ratio (y) = 0.04968 0.08491
# Poissons Ratio (z) = 0.31861 0.10007
#
# Static dielectric constant tensor:
#      x y z
#    x 2.018900 0.045420 -0.008600 
#    y 0.045420 2.043420 -0.028210 
#    z -0.008600 -0.028210 1.948860 
# 
# From -- ./inp_files/347708.got.cif
#   From: 2010.05.17/outbox.cif.g08.bks.cpg/sg2_174_cif.got.tgz:347708.got - 2010.06.03 11:33:40.
