data_PCOD9093414
_publ_section_title
;
Structure prediction by ZEFSAII (Michael W. Deem and Ramdas Pophale) SiO2 
 PCOD9093414
Probable space group: P -1
;
_chemical_formula_sum "Si O2"
_cell_formula_units_Z 14
_cell_length_a 9.839614
_cell_length_b 9.973205
_cell_length_c 12.715633
_cell_angle_alpha 105.378907
_cell_angle_beta 145.651600
_cell_angle_gamma 87.280498
_cell_volume 644.220218
_symmetry_space_group_name_H-M "P -1"
_symmetry_group_IT_number 2
_symmetry_cell_setting 'triclinic'
loop_
_space_group_symop_operation_xyz
x,y,z
-x,-y,-z
loop_
_atom_site_type_symbol
_atom_site_label
_atom_site_fract_x
_atom_site_fract_y
_atom_site_fract_z
Si Si1 0.873370 0.105526 0.062418
Si Si2 0.262327 0.605839 0.926968
Si Si3 0.842200 0.312743 0.569080
Si Si4 0.178274 0.951011 0.754209
Si Si5 0.753210 0.811572 0.316434
Si Si6 0.741497 0.361709 0.299544
Si Si7 0.587833 0.934470 0.646458
O O1 0.869013 0.267447 0.121069
O O2 0.794383 0.008678 0.098180
O O3 0.159514 0.110354 0.222644
O O4 0.684457 0.042705 0.831333
O O5 0.044422 0.455430 0.778549
O O6 0.369091 0.604598 0.874840
O O7 0.519149 0.673008 0.170492
O O8 0.031032 0.238434 0.615684
O O9 0.669621 0.352510 0.374659
O O10 0.651273 0.201317 0.499937
O O11 0.243473 0.801187 0.747284
O O12 0.885637 0.904716 0.520554
O O13 0.316170 0.080215 0.788715
O O14 0.000000 0.500000 0.500000
O O15 0.500000 0.000000 0.500000
#
# Coordination Sequence:
#
# PCOD9093414 Si02
#       7
#     2   2   2   2   2   2   2
#     4  10  24  41  64  90 116 163 212 255 307 349
#     4  10  21  36  62  93 126 156 199 249 308 381
#     4  10  21  39  59  88 127 166 194 248 315 361
#     4   9  19  34  57  91 120 160 197 248 302 362
#     4  10  20  32  61  97 129 155 197 247 312 374
#     4   8  17  33  53  85 122 153 188 237 307 368
#     4  11  25  44  65  84 121 161 216 265 295 357
#
# _framework density 21.731698999999999
#
# number of rings (size 3 to 8) (size 9 to 14) (size 15 to 20)
#    0.000    2.286    0.000    1.286   10.000    1.714 
#    0.000    0.714    0.000    0.000    0.000    0.000 
#    0.000    0.000    0.000    0.000    0.000    0.000 
#
# Total GULP energy -78015.386127 kJ/mol
# GULP energy per Si atom -5572.527581 kJ/mol
# Density = 2.168224 g / cm^3
# Si number density = 21.731699 Si / 1000 Ang^3
#
#
#
# Elastic Constant Matrix: (Units=GPa)
#
#
# Indices 1 2 3 4 5 6 
#
# 1 71.0664 39.1789 53.1957 3.3692 -2.0560 17.3562
# 2 39.1789 100.4641 49.6318 18.7428 -0.3806 18.4326
# 3 53.1957 49.6318 165.3261 15.3405 -2.8672 22.4902
# 4 3.3692 18.7428 15.3405 35.0947 3.1263 0.9654
# 5 -2.0560 -0.3806 -2.8672 3.1263 34.4786 -2.8984
# 6 17.3562 18.4326 22.4902 0.9654 -2.8984 41.1623
#
#
#
# Elastic Compliance Matrix: (Units=1/GPa)
#
#
# Indices 1 2 3 4 5 6 
#
# 1 0.021939 -0.005981 -0.005046 0.003384 0.000189 -0.003881
# 2 -0.005981 0.014832 -0.001486 -0.006613 0.000018 -0.003152
# 3 -0.005046 -0.001486 0.008603 -0.002475 0.000470 -0.001816
# 4 0.003384 -0.006613 -0.002475 0.032989 -0.002908 0.001908
# 5 0.000189 0.000018 0.000470 -0.002908 0.029469 0.001798
# 6 -0.003881 -0.003152 -0.001816 0.001908 0.001798 0.028416
#
#
# Mechanical properties :
#
#
# Convention : Reuss Voigt Hill
#
# Bulk Modulus (GPa) = 49.14391 68.98547 59.06469
# Shear Modulus (GPa) = 29.75162 35.13715 32.44438
#
# Velocity S-wave (km/s) = 3.70407 4.02538 3.86807
# Velocity P-wave (km/s) = 6.39973 7.30876 6.86930
#
# Compressibility (1/GPa) = 0.02034840
#
# Stress axis : x y z
#
# Youngs Moduli (GPa) = 45.58087 67.42036 116.23594
#
# Poissons Ratio (x) = 0.40326 0.58656
# Poissons Ratio (y) = 0.27263 0.17267
# Poissons Ratio (z) = 0.23001 0.10015
#
# Static dielectric constant tensor:
#      x y z
#    x 1.825920 -0.020890 -0.013740 
#    y -0.020890 1.850480 -0.075010 
#    z -0.013740 -0.075010 1.898010 
# 
# From -- ./inp_files/390568.got.cif
#   From: 2010.05.17/outbox.cif.g08.bks.cpg/sg2_196_cif.got.tgz:390568.got - 2010.06.03 11:33:40.
