data_PCOD9093823
_publ_section_title
;
Structure prediction by ZEFSAII (Michael W. Deem and Ramdas Pophale) SiO2 
 PCOD9093823
Probable space group: P -1
;
_chemical_formula_sum "Si O2"
_cell_formula_units_Z 16
_cell_length_a 9.379663
_cell_length_b 12.803779
_cell_length_c 10.929785
_cell_angle_alpha 83.832132
_cell_angle_beta 126.655476
_cell_angle_gamma 130.225028
_cell_volume 716.360858
_symmetry_space_group_name_H-M "P -1"
_symmetry_group_IT_number 2
_symmetry_cell_setting 'triclinic'
loop_
_space_group_symop_operation_xyz
x,y,z
-x,-y,-z
loop_
_atom_site_type_symbol
_atom_site_label
_atom_site_fract_x
_atom_site_fract_y
_atom_site_fract_z
Si Si1 0.488365 0.482453 0.145032
Si Si2 0.177576 0.556694 0.738357
Si Si3 0.442278 0.878584 0.737825
Si Si4 0.292884 0.617476 0.077867
Si Si5 0.274868 0.020101 0.713868
Si Si6 0.954497 0.165966 0.869473
Si Si7 0.100351 0.000042 0.363569
Si Si8 0.314046 0.768669 0.426783
O O1 0.724870 0.504155 0.279025
O O2 0.452962 0.577054 0.185825
O O3 0.500000 0.500000 0.000000
O O4 0.220121 0.306052 0.053928
O O5 0.305744 0.713429 0.726451
O O6 0.871147 0.407099 0.611103
O O7 0.262581 0.599628 0.918152
O O8 0.352381 0.859322 0.553520
O O9 0.365389 0.940178 0.778254
O O10 0.752604 0.013554 0.866042
O O11 0.478802 0.794490 0.186835
O O12 0.000000 0.500000 0.000000
O O13 0.114186 0.958453 0.512146
O O14 0.083903 0.979030 0.725540
O O15 0.819122 0.216747 0.747802
O O16 0.008608 0.125485 0.778069
O O17 0.400900 0.148812 0.468594
#
# Coordination Sequence:
#
# PCOD9093823 Si02
#       8
#     2   2   2   2   2   2   2   2
#     4  10  20  37  62  87 111 151 204 242 276 337
#     4  11  24  39  60  86 121 151 191 244 293 341
#     4  11  23  38  58  90 120 151 185 243 305 338
#     4  11  22  38  60  86 115 159 198 233 284 350
#     4  11  21  34  56  87 121 149 191 234 289 346
#     4  11  18  38  64  85 111 147 205 243 277 338
#     4  10  20  33  58  89 109 148 197 245 276 332
#     4  11  19  39  62  85 111 152 200 241 281 337
#
# _framework density 22.335114000000001
#
# number of rings (size 3 to 8) (size 9 to 14) (size 15 to 20)
#    0.000    1.250    5.000    4.125    0.000    1.000 
#    0.000    3.125    0.000    0.000    0.000    0.000 
#    0.000    0.000    0.000    0.000    0.000    0.000 
#
# Total GULP energy -89353.822865 kJ/mol
# GULP energy per Si atom -5584.613929 kJ/mol
# Density = 2.228428 g / cm^3
# Si number density = 22.335114 Si / 1000 Ang^3
#
#
#
# Elastic Constant Matrix: (Units=GPa)
#
#
# Indices 1 2 3 4 5 6 
#
# 1 156.2909 38.9884 6.1860 3.6692 6.4584 -14.1809
# 2 38.9884 88.5457 -3.2315 19.6602 2.8305 -0.1918
# 3 6.1860 -3.2315 31.0312 10.0466 -4.4778 5.6033
# 4 3.6692 19.6602 10.0466 24.1766 5.7318 -0.7425
# 5 6.4584 2.8305 -4.4778 5.7318 19.0460 10.0035
# 6 -14.1809 -0.1918 5.6033 -0.7425 10.0035 27.4492
#
#
#
# Elastic Compliance Matrix: (Units=1/GPa)
#
#
# Indices 1 2 3 4 5 6 
#
# 1 0.010628 -0.007861 -0.013055 0.014905 -0.017879 0.015019
# 2 -0.007861 0.021447 0.019804 -0.030223 0.022059 -0.016811
# 3 -0.013055 0.019804 0.073414 -0.060429 0.060759 -0.045369
# 4 0.014905 -0.030223 -0.060429 0.107634 -0.073094 0.049374
# 5 -0.017879 0.022059 0.060759 -0.073094 0.128487 -0.070288
# 6 0.015019 -0.016811 -0.045369 0.049374 -0.070288 0.080285
#
#
# Mechanical properties :
#
#
# Convention : Reuss Voigt Hill
#
# Bulk Modulus (GPa) = 9.68379 39.97262 24.82821
# Shear Modulus (GPa) = 10.90415 29.72934 20.31674
#
# Velocity S-wave (km/s) = 2.21194 3.65233 3.01928
# Velocity P-wave (km/s) = 3.29676 5.97675 4.82650
#
# Compressibility (1/GPa) = 0.10326535
#
# Stress axis : x y z
#
# Youngs Moduli (GPa) = 94.09309 46.62701 13.62129
#
# Poissons Ratio (x) = 0.36655 0.17782
# Poissons Ratio (y) = 0.73970 -0.26976
# Poissons Ratio (z) = 1.22836 -0.92341
#
# Static dielectric constant tensor:
#      x y z
#    x 1.872130 -0.013820 0.028550 
#    y -0.013820 1.853240 -0.033970 
#    z 0.028550 -0.033970 1.872310 
# 
# From -- ./inp_files/185990.got.cif
#   From: 2010.05.17/outbox.cif.g08.bks.cpg/sg2_93_cif.got.tgz:185990.got - 2010.06.03 11:33:40.
