data_PCOD9093933
_publ_section_title
;
Structure prediction by ZEFSAII (Michael W. Deem and Ramdas Pophale) SiO2 
 PCOD9093933
Probable space group: P -1
;
_chemical_formula_sum "Si O2"
_cell_formula_units_Z 16
_cell_length_a 16.213474
_cell_length_b 8.233171
_cell_length_c 14.090602
_cell_angle_alpha 48.725282
_cell_angle_beta 143.619658
_cell_angle_gamma 114.144695
_cell_volume 806.438233
_symmetry_space_group_name_H-M "P -1"
_symmetry_group_IT_number 2
_symmetry_cell_setting 'triclinic'
loop_
_space_group_symop_operation_xyz
x,y,z
-x,-y,-z
loop_
_atom_site_type_symbol
_atom_site_label
_atom_site_fract_x
_atom_site_fract_y
_atom_site_fract_z
Si Si1 0.210865 0.204709 0.004993
Si Si2 0.346004 0.739844 0.359164
Si Si3 0.128614 0.268619 0.208117
Si Si4 0.999857 0.732788 0.369014
Si Si5 0.905793 0.171619 0.759279
Si Si6 0.333312 0.529376 0.223204
Si Si7 0.811672 0.295088 0.169855
Si Si8 0.882893 0.935820 0.524112
O O1 0.154036 0.162936 0.864257
O O2 0.236527 0.448143 0.937078
O O3 0.340121 0.001473 0.238761
O O4 0.064445 0.189097 0.932001
O O5 0.217119 0.743683 0.310775
O O6 0.316686 0.653338 0.261478
O O7 0.498111 0.584605 0.594471
O O8 0.255678 0.331707 0.243896
O O9 0.084251 0.068809 0.189021
O O10 0.169847 0.185267 0.387853
O O11 0.000000 0.500000 0.000000
O O12 0.000000 0.500000 0.500000
O O13 0.118181 0.677989 0.415410
O O14 0.039159 0.896634 0.416341
O O15 0.259442 0.685928 0.007490
O O16 0.786328 0.102194 0.291421
O O17 0.985605 0.240559 0.338383
#
# Coordination Sequence:
#
# PCOD9093933 Si02
#       8
#     2   2   2   2   2   2   2   2
#     4  10  20  33  62  87 114 148 190 236 288 345
#     4  11  23  41  57  82 114 159 202 244 293 346
#     4  11  20  36  61  89 117 150 189 249 291 346
#     4   9  17  35  56  86 118 148 182 233 291 349
#     4   9  21  34  60  87 117 143 195 239 285 349
#     4  11  25  39  60  80 119 158 201 245 295 343
#     4  11  21  35  57  90 115 156 185 242 292 347
#     4  10  20  34  57  88 123 144 188 238 297 342
#
# _framework density 19.840330000000002
#
# number of rings (size 3 to 8) (size 9 to 14) (size 15 to 20)
#    0.750    1.000    2.500    2.625    1.750    2.000 
#    0.000    0.000    2.750    3.750    0.000    0.000 
#    0.000    0.000    0.000    0.000    0.000    0.000 
#
# Total GULP energy -89105.077260 kJ/mol
# GULP energy per Si atom -5569.067329 kJ/mol
# Density = 1.979517 g / cm^3
# Si number density = 19.840330 Si / 1000 Ang^3
#
#
#
# Elastic Constant Matrix: (Units=GPa)
#
#
# Indices 1 2 3 4 5 6 
#
# 1 79.2729 15.4901 56.3669 -8.8209 -16.9902 -4.3728
# 2 15.4901 40.6806 29.1305 -11.1365 -2.3129 -1.2436
# 3 56.3669 29.1305 129.9041 -12.5858 -28.1842 1.2839
# 4 -8.8209 -11.1365 -12.5858 27.2854 -2.3010 -2.8087
# 5 -16.9902 -2.3129 -28.1842 -2.3010 37.5805 -2.9553
# 6 -4.3728 -1.2436 1.2839 -2.8087 -2.9553 17.2268
#
#
#
# Elastic Compliance Matrix: (Units=1/GPa)
#
#
# Indices 1 2 3 4 5 6 
#
# 1 0.019494 -0.000913 -0.007040 0.003734 0.004236 0.006743
# 2 -0.000913 0.032267 -0.006396 0.010124 -0.002303 0.003830
# 3 -0.007040 -0.006396 0.013862 0.001895 0.006794 -0.001807
# 4 0.003734 0.010124 0.001895 0.044507 0.007247 0.010037
# 5 0.004236 -0.002303 0.006794 0.007247 0.034512 0.007505
# 6 0.006743 0.003830 -0.001807 0.010037 0.007505 0.063096
#
#
# Mechanical properties :
#
#
# Convention : Reuss Voigt Hill
#
# Bulk Modulus (GPa) = 27.08109 50.20362 38.64235
# Shear Modulus (GPa) = 20.10088 26.34320 23.22204
#
# Velocity S-wave (km/s) = 3.18643 3.64780 3.42489
# Velocity P-wave (km/s) = 5.21698 6.56511 5.92948
#
# Compressibility (1/GPa) = 0.03692613
#
# Stress axis : x y z
#
# Youngs Moduli (GPa) = 51.29799 30.99113 72.13737
#
# Poissons Ratio (x) = 0.02828 0.50783
# Poissons Ratio (y) = 0.04682 0.46142
# Poissons Ratio (z) = 0.36113 0.19823
#
# Static dielectric constant tensor:
#      x y z
#    x 1.764880 -0.018330 -0.040550 
#    y -0.018330 1.731750 -0.006280 
#    z -0.040550 -0.006280 1.775280 
# 
# From -- ./inp_files/537254.got.cif
#   From: 2010.05.17/outbox.cif.g08.bks.cpg/sg2_269_cif.got.tgz:537254.got - 2010.06.03 11:33:40.
