data_PCOD9093901
_publ_section_title
;
Structure prediction by ZEFSAII (Michael W. Deem and Ramdas Pophale) SiO2 
 PCOD9093901
Probable space group: P -1
;
_chemical_formula_sum "Si O2"
_cell_formula_units_Z 14
_cell_length_a 11.537939
_cell_length_b 18.489969
_cell_length_c 6.609596
_cell_angle_alpha 133.125501
_cell_angle_beta 120.850348
_cell_angle_gamma 29.204574
_cell_volume 488.015030
_symmetry_space_group_name_H-M "P -1"
_symmetry_group_IT_number 2
_symmetry_cell_setting 'triclinic'
loop_
_space_group_symop_operation_xyz
x,y,z
-x,-y,-z
loop_
_atom_site_type_symbol
_atom_site_label
_atom_site_fract_x
_atom_site_fract_y
_atom_site_fract_z
Si Si1 0.673894 0.416406 0.681923
Si Si2 0.221904 0.755177 0.174386
Si Si3 0.384603 0.294311 0.204395
Si Si4 0.567344 0.816550 0.521208
Si Si5 0.977866 0.399723 0.981813
Si Si6 0.020106 0.294249 0.258685
Si Si7 0.794302 0.070942 0.818401
O O1 0.500000 0.500000 0.500000
O O2 0.502480 0.570405 0.993421
O O3 0.786545 0.259819 0.620676
O O4 0.875695 0.371519 0.705068
O O5 0.178175 0.886719 0.287265
O O6 0.064774 0.767763 0.937986
O O7 0.519047 0.817473 0.717456
O O8 0.580246 0.214717 0.071277
O O9 0.210907 0.321519 0.987276
O O10 0.203351 0.494798 0.484613
O O11 0.760329 0.610205 0.240932
O O12 0.724223 0.821451 0.645995
O O13 0.322957 0.958728 0.439926
O O14 0.051108 0.300626 0.062830
O O15 0.000000 0.000000 0.000000
#
# Coordination Sequence:
#
# PCOD9093901 Si02
#       7
#     2   2   2   2   2   2   2
#     4  10  20  33  60  90 121 149 178 245 323 353
#     4  10  22  37  54  90 125 145 193 250 292 354
#     4   9  20  36  63  85 115 152 196 245 307 350
#     4   9  18  38  60  83 114 149 199 252 296 345
#     4   8  15  35  58  93 116 140 191 255 306 358
#     4   8  17  34  64  91 112 142 188 263 315 337
#     4  12  26  39  54  82 126 173 203 226 273 360
#
# _framework density 28.687640999999999
#
# number of rings (size 3 to 8) (size 9 to 14) (size 15 to 20)
#    0.000    2.571    1.429    1.714    4.000    4.000 
#    0.000    0.714    0.000    7.714    0.000    0.000 
#    0.000    0.000    0.000    0.000    0.000    0.000 
#
# Total GULP energy -78247.587372 kJ/mol
# GULP energy per Si atom -5589.113384 kJ/mol
# Density = 2.862235 g / cm^3
# Si number density = 28.687641 Si / 1000 Ang^3
#
#
#
# Elastic Constant Matrix: (Units=GPa)
#
#
# Indices 1 2 3 4 5 6 
#
# 1 160.3344 47.9099 61.6732 -16.0636 14.6471 -44.5899
# 2 47.9099 135.9676 66.1394 -34.3179 18.1655 -33.7445
# 3 61.6732 66.1394 143.1103 -59.4363 15.6871 -18.7699
# 4 -16.0636 -34.3179 -59.4363 61.9920 -8.3341 14.9994
# 5 14.6471 18.1655 15.6871 -8.3341 51.9329 -20.8145
# 6 -44.5899 -33.7445 -18.7699 14.9994 -20.8145 50.3537
#
#
#
# Elastic Compliance Matrix: (Units=1/GPa)
#
#
# Indices 1 2 3 4 5 6 
#
# 1 0.010145 -0.000195 -0.005066 -0.004274 0.001622 0.008908
# 2 -0.000195 0.010875 -0.003794 0.001014 -0.000331 0.005262
# 3 -0.005066 -0.003794 0.015702 0.012766 -0.002318 -0.005937
# 4 -0.004274 0.001014 0.012766 0.029505 -0.001355 -0.007695
# 5 0.001622 -0.000331 -0.002318 -0.001355 0.023611 0.010514
# 6 0.008908 0.005262 -0.005937 -0.007695 0.010514 0.035700
#
#
# Mechanical properties :
#
#
# Convention : Reuss Voigt Hill
#
# Bulk Modulus (GPa) = 53.73171 87.87302 70.80236
# Shear Modulus (GPa) = 33.36622 50.43503 41.90062
#
# Velocity S-wave (km/s) = 3.41411 4.19749 3.82590
# Velocity P-wave (km/s) = 5.85765 7.36134 6.65212
#
# Compressibility (1/GPa) = 0.01861099
#
# Stress axis : x y z
#
# Youngs Moduli (GPa) = 98.57025 91.95161 63.68607
#
# Poissons Ratio (x) = 0.01791 0.32266
# Poissons Ratio (y) = 0.01920 0.24166
# Poissons Ratio (z) = 0.49940 0.34891
#
# Static dielectric constant tensor:
#      x y z
#    x 2.211450 0.077530 0.022890 
#    y 0.077530 2.476030 0.070370 
#    z 0.022890 0.070370 2.365150 
# 
# From -- ./inp_files/284422.got.cif
#   From: 2010.05.17/outbox.cif.g08.bks.cpg/sg2_143_cif.got.tgz:284422.got - 2010.06.03 11:33:40.
