data_PCOD9093217
_publ_section_title
;
Structure prediction by ZEFSAII (Michael W. Deem and Ramdas Pophale) SiO2 
 PCOD9093217
Probable space group: P -1
;
_chemical_formula_sum "Si O2"
_cell_formula_units_Z 14
_cell_length_a 15.054304
_cell_length_b 19.970480
_cell_length_c 12.825769
_cell_angle_alpha 144.165190
_cell_angle_beta 151.179220
_cell_angle_gamma 26.062707
_cell_volume 811.578885
_symmetry_space_group_name_H-M "P -1"
_symmetry_group_IT_number 2
_symmetry_cell_setting 'triclinic'
loop_
_space_group_symop_operation_xyz
x,y,z
-x,-y,-z
loop_
_atom_site_type_symbol
_atom_site_label
_atom_site_fract_x
_atom_site_fract_y
_atom_site_fract_z
Si Si1 0.929351 0.281983 0.046795
Si Si2 0.958038 0.523633 0.318651
Si Si3 0.613815 0.141481 0.338244
Si Si4 0.646105 0.842663 0.513280
Si Si5 0.951102 0.592981 0.965291
Si Si6 0.475454 0.741295 0.374745
Si Si7 0.983179 0.191451 0.749737
O O1 0.858603 0.444929 0.165387
O O2 0.155200 0.185382 0.237608
O O3 0.016152 0.206795 0.925649
O O4 0.706997 0.290981 0.862775
O O5 0.201063 0.304017 0.590819
O O6 0.967318 0.504969 0.180181
O O7 0.240497 0.415483 0.513653
O O8 0.338947 0.259703 0.160821
O O9 0.596122 0.161626 0.470390
O O10 0.765528 0.189330 0.515316
O O11 0.772187 0.967637 0.245905
O O12 0.474345 0.829507 0.389092
O O13 0.500000 0.000000 0.500000
O O14 0.078921 0.664126 0.187519
O O15 0.000000 0.500000 0.000000
#
# Coordination Sequence:
#
# PCOD9093217 Si02
#       7
#     2   2   2   2   2   2   2
#     4   9  18  35  56  73  95 133 172 201 238 291
#     4   9  20  36  51  73  99 129 170 206 237 288
#     4   9  18  33  53  76 100 129 168 206 238 285
#     4  11  23  34  48  75 106 127 158 210 255 292
#     4  10  20  32  51  76 103 132 160 198 251 298
#     4   9  18  35  56  73  95 133 172 201 238 291
#     4   9  18  33  53  76 100 129 168 206 238 285
#
# _framework density 17.250326000000001
#
# number of rings (size 3 to 8) (size 9 to 14) (size 15 to 20)
#    0.000    2.571    0.000    3.000    0.000    5.714 
#    0.000    0.000    0.000    0.000    0.000    0.000 
#    0.000    0.000    0.000    0.000    0.000    0.000 
#
# Total GULP energy -78096.601616 kJ/mol
# GULP energy per Si atom -5578.328687 kJ/mol
# Density = 1.721106 g / cm^3
# Si number density = 17.250326 Si / 1000 Ang^3
#
#
#
# Elastic Constant Matrix: (Units=GPa)
#
#
# Indices 1 2 3 4 5 6 
#
# 1 119.9939 70.5164 42.4631 9.9360 10.8483 18.2503
# 2 70.5164 108.0732 40.9294 20.3189 -1.5751 13.1160
# 3 42.4631 40.9294 80.2267 14.5415 13.4479 12.6878
# 4 9.9360 20.3189 14.5415 16.1475 -0.4256 -6.6360
# 5 10.8483 -1.5751 13.4479 -0.4256 22.0202 -1.2665
# 6 18.2503 13.1160 12.6878 -6.6360 -1.2665 35.9934
#
#
#
# Elastic Compliance Matrix: (Units=1/GPa)
#
#
# Indices 1 2 3 4 5 6 
#
# 1 0.015715 -0.009663 -0.002136 0.002810 -0.007272 -0.003432
# 2 -0.009663 0.021041 -0.002119 -0.020745 0.006836 -0.005605
# 3 -0.002136 -0.002119 0.022395 -0.020807 -0.013774 -0.010360
# 4 0.002810 -0.020745 -0.020807 0.120270 0.014242 0.036144
# 5 -0.007272 0.006836 -0.013774 0.014242 0.058790 0.010746
# 6 -0.003432 -0.005605 -0.010360 0.036144 0.010746 0.042259
#
#
# Mechanical properties :
#
#
# Convention : Reuss Voigt Hill
#
# Bulk Modulus (GPa) = 31.93395 68.45684 50.19540
# Shear Modulus (GPa) = 15.68662 25.12454 20.40558
#
# Velocity S-wave (km/s) = 3.01882 3.82051 3.44308
# Velocity P-wave (km/s) = 5.54106 7.69625 6.70580
#
# Compressibility (1/GPa) = 0.03131463
#
# Stress axis : x y z
#
# Youngs Moduli (GPa) = 63.63503 47.52735 44.65277
#
# Poissons Ratio (x) = 0.45924 0.09536
# Poissons Ratio (y) = 0.61488 0.09464
# Poissons Ratio (z) = 0.13591 0.10073
#
# Static dielectric constant tensor:
#      x y z
#    x 1.601320 -0.013060 0.009230 
#    y -0.013060 1.543630 0.019750 
#    z 0.009230 0.019750 1.593300 
# 
# From -- ./inp_files/267273.got.cif
#   From: 2010.05.17/outbox.cif.g08.bks.cpg/sg2_134_cif.got.tgz:267273.got - 2010.06.03 11:33:40.
