data_PCOD9093951
_publ_section_title
;
Structure prediction by ZEFSAII (Michael W. Deem and Ramdas Pophale) SiO2 
 PCOD9093951
Probable space group: P -1
;
_chemical_formula_sum "Si O2"
_cell_formula_units_Z 16
_cell_length_a 20.223323
_cell_length_b 12.692821
_cell_length_c 8.709790
_cell_angle_alpha 46.848868
_cell_angle_beta 96.157239
_cell_angle_gamma 135.126553
_cell_volume 782.514836
_symmetry_space_group_name_H-M "P -1"
_symmetry_group_IT_number 2
_symmetry_cell_setting 'triclinic'
loop_
_space_group_symop_operation_xyz
x,y,z
-x,-y,-z
loop_
_atom_site_type_symbol
_atom_site_label
_atom_site_fract_x
_atom_site_fract_y
_atom_site_fract_z
Si Si1 0.224147 0.168074 0.404096
Si Si2 0.214942 0.922559 0.396229
Si Si3 0.314174 0.950997 0.112892
Si Si4 0.420668 0.696405 0.153734
Si Si5 0.904688 0.877358 0.833771
Si Si6 0.031745 0.372513 0.533891
Si Si7 0.323760 0.643491 0.478080
Si Si8 0.985154 0.698615 0.036192
O O1 0.347533 0.481642 0.208979
O O2 0.137823 0.121827 0.331719
O O3 0.269954 0.129691 0.336831
O O4 0.119843 0.911827 0.762309
O O5 0.314431 0.061854 0.144066
O O6 0.088153 0.767625 0.440808
O O7 0.143392 0.640086 0.719484
O O8 0.268665 0.703049 0.406039
O O9 0.182846 0.731663 0.191982
O O10 0.467733 0.204442 0.844475
O O11 0.317591 0.554416 0.400629
O O12 0.512936 0.009417 0.809403
O O13 0.018015 0.187311 0.642854
O O14 0.764719 0.609070 0.168993
O O15 0.955944 0.812399 0.893331
O O16 0.999946 0.305836 0.774096
#
# Coordination Sequence:
#
# PCOD9093951 Si02
#       8
#     2   2   2   2   2   2   2   2
#     4  11  24  34  53  83 122 143 183 222 272 336
#     4  10  21  38  57  84 112 147 177 229 284 330
#     4   9  17  35  59  79 107 146 185 218 274 327
#     4   9  20  36  56  84 106 151 181 231 268 322
#     4  11  21  34  56  89 109 146 181 233 279 320
#     4  10  20  33  63  85 107 140 187 236 274 322
#     4   9  18  36  58  82 106 142 188 229 270 314
#     4  11  19  36  56  79 115 146 185 225 278 323
#
# _framework density 20.446895999999999
#
# number of rings (size 3 to 8) (size 9 to 14) (size 15 to 20)
#    0.750    1.250    2.500    3.375    1.750    1.000 
#    0.000    0.000    0.000   15.000    0.000    0.000 
#    0.000    0.000    0.000    0.000    0.000    0.000 
#
# Total GULP energy -89125.250880 kJ/mol
# GULP energy per Si atom -5570.328180 kJ/mol
# Density = 2.040036 g / cm^3
# Si number density = 20.446896 Si / 1000 Ang^3
#
#
#
# Elastic Constant Matrix: (Units=GPa)
#
#
# Indices 1 2 3 4 5 6 
#
# 1 79.2793 32.3504 3.1697 2.8140 0.4235 -32.0946
# 2 32.3504 119.7736 26.7938 -10.2095 1.6341 -26.8830
# 3 3.1697 26.7938 34.0698 3.8349 -8.7280 -6.1687
# 4 2.8140 -10.2095 3.8349 15.9521 -8.0577 5.2913
# 5 0.4235 1.6341 -8.7280 -8.0577 26.8680 -4.3390
# 6 -32.0946 -26.8830 -6.1687 5.2913 -4.3390 33.7876
#
#
#
# Elastic Compliance Matrix: (Units=1/GPa)
#
#
# Indices 1 2 3 4 5 6 
#
# 1 0.024183 -0.004305 0.007555 -0.015983 0.001353 0.023602
# 2 -0.004305 0.013592 -0.011152 0.010842 -0.000661 0.002906
# 3 0.007555 -0.011152 0.044164 -0.016708 0.011586 0.010471
# 4 -0.015983 0.010842 -0.016708 0.093066 0.018555 -0.021798
# 5 0.001353 -0.000661 0.011586 0.018555 0.047547 0.006075
# 6 0.023602 0.002906 0.010471 -0.021798 0.006075 0.060434
#
#
# Mechanical properties :
#
#
# Convention : Reuss Voigt Hill
#
# Bulk Modulus (GPa) = 15.12074 39.75006 27.43540
# Shear Modulus (GPa) = 15.58427 26.70879 21.14653
#
# Velocity S-wave (km/s) = 2.76376 3.61813 3.21941
# Velocity P-wave (km/s) = 4.19472 6.07761 5.22173
#
# Compressibility (1/GPa) = 0.06613431
#
# Stress axis : x y z
#
# Youngs Moduli (GPa) = 41.35067 73.57154 22.64299
#
# Poissons Ratio (x) = 0.31675 -0.17107
# Poissons Ratio (y) = 0.17803 0.25252
# Poissons Ratio (z) = -0.31241 0.82050
#
# Static dielectric constant tensor:
#      x y z
#    x 1.785150 0.001060 0.000300 
#    y 0.001060 1.738910 -0.027660 
#    z 0.000300 -0.027660 1.742190 
# 
# From -- ./inp_files/345072.got.cif
#   From: 2010.05.17/outbox.cif.g08.bks.cpg/sg2_173_cif.got.tgz:345072.got - 2010.06.03 11:33:40.
