data_PCOD9093651
_publ_section_title
;
Structure prediction by ZEFSAII (Michael W. Deem and Ramdas Pophale) SiO2 
 PCOD9093651
Probable space group: P -1
;
_chemical_formula_sum "Si O2"
_cell_formula_units_Z 16
_cell_length_a 25.225054
_cell_length_b 12.568618
_cell_length_c 8.316628
_cell_angle_alpha 61.209331
_cell_angle_beta 48.387506
_cell_angle_gamma 23.800812
_cell_volume 722.869810
_symmetry_space_group_name_H-M "P -1"
_symmetry_group_IT_number 2
_symmetry_cell_setting 'triclinic'
loop_
_space_group_symop_operation_xyz
x,y,z
-x,-y,-z
loop_
_atom_site_type_symbol
_atom_site_label
_atom_site_fract_x
_atom_site_fract_y
_atom_site_fract_z
Si Si1 0.295008 0.976881 0.753131
Si Si2 0.937721 0.227389 0.401026
Si Si3 0.077476 0.117804 0.895507
Si Si4 0.582597 0.140571 0.725003
Si Si5 0.864135 0.865394 0.750353
Si Si6 0.641265 0.315383 0.602605
Si Si7 0.669613 0.657992 0.877576
Si Si8 0.859101 0.561137 0.751178
O O1 0.323027 0.027838 0.514176
O O2 0.483088 0.649763 0.670204
O O3 0.199726 0.013034 0.831808
O O4 0.188493 0.155401 0.000769
O O5 0.748215 0.538074 0.627837
O O6 0.042957 0.170685 0.316523
O O7 0.000000 0.000000 0.500000
O O8 0.979427 0.178400 0.165100
O O9 0.938440 0.416431 0.868987
O O10 0.199828 0.881359 0.677613
O O11 0.580273 0.285876 0.660790
O O12 0.697244 0.898386 0.806454
O O13 0.395657 0.375248 0.928549
O O14 0.993223 0.621004 0.531826
O O15 0.708014 0.169883 0.748044
O O16 0.803948 0.513820 0.828444
O O17 0.500000 0.000000 0.000000
#
# Coordination Sequence:
#
# PCOD9093651 Si02
#       8
#     2   2   2   2   2   2   2   2
#     4  10  20  33  55  81 114 144 179 232 275 329
#     4  10  21  36  61  84 108 151 191 227 279 335
#     4   9  19  35  55  81 108 141 184 237 269 317
#     4  10  20  34  58  79 105 154 184 217 283 340
#     4   9  20  37  53  80 116 141 177 242 269 316
#     4  10  20  35  56  81 116 144 180 231 280 328
#     4   9  20  39  56  79 115 149 182 233 277 326
#     4   9  19  39  56  78 111 147 189 227 273 326
#
# _framework density 22.133998999999999
#
# number of rings (size 3 to 8) (size 9 to 14) (size 15 to 20)
#    0.000    2.500    0.000    1.875    5.250    5.000 
#    2.250    9.375    0.000    0.000    0.000    0.000 
#    0.000    0.000    0.000    0.000    0.000    0.000 
#
# Total GULP energy -89270.908088 kJ/mol
# GULP energy per Si atom -5579.431756 kJ/mol
# Density = 2.208362 g / cm^3
# Si number density = 22.133999 Si / 1000 Ang^3
#
#
#
# Elastic Constant Matrix: (Units=GPa)
#
#
# Indices 1 2 3 4 5 6 
#
# 1 -23.6173 -9.4500 14.5506 9.1862 -3.3277 7.2818
# 2 -9.4500 59.7931 18.3347 6.3214 0.2943 -9.1275
# 3 14.5506 18.3347 171.3751 -3.7802 2.7144 -3.8764
# 4 9.1862 6.3214 -3.7802 25.7900 -6.4862 0.4089
# 5 -3.3277 0.2943 2.7144 -6.4862 22.5881 -3.2069
# 6 7.2818 -9.1275 -3.8764 0.4089 -3.2069 27.9545
#
#
#
# Elastic Compliance Matrix: (Units=1/GPa)
#
#
# Indices 1 2 3 4 5 6 
#
# 1 -0.030573 -0.006380 0.003706 0.012821 -0.000308 0.006172
# 2 -0.006380 0.017441 -0.001206 -0.002473 -0.000718 0.007143
# 3 0.003706 -0.001206 0.005635 -0.000258 -0.000276 -0.000606
# 4 0.012821 -0.002473 -0.000258 0.037941 0.012376 -0.003318
# 5 -0.000308 -0.000718 -0.000276 0.012376 0.048560 0.005197
# 6 0.006172 0.007143 -0.000606 -0.003318 0.005197 0.037058
#
#
# Mechanical properties :
#
#
# Convention : Reuss Voigt Hill
#
# Bulk Modulus (GPa) = -65.54184 28.26903 -18.63640
# Shear Modulus (GPa) = 42.10983 27.54087 34.82535
#
# Velocity S-wave (km/s) = 4.36649 3.53126 3.97090
# Velocity P-wave (km/s) = 2.06252 5.42456 3.54767
#
# Compressibility (1/GPa) = -0.01525743
#
# Stress axis : x y z
#
# Youngs Moduli (GPa) = -32.70900 57.33556 177.47765
#
# Poissons Ratio (x) = 0.36580 -0.65767
# Poissons Ratio (y) = -0.20868 0.21401
# Poissons Ratio (z) = 0.12121 0.06914
#
# Static dielectric constant tensor:
#      x y z
#    x 1.847300 0.029270 -0.000040 
#    y 0.029270 1.812910 0.000530 
#    z -0.000040 0.000530 1.877550 
# 
# From -- ./inp_files/320042.got.cif
#   From: 2010.05.17/outbox.cif.g08.bks.cpg/sg2_161_cif.got.tgz:320042.got - 2010.06.03 11:33:40.
