data_PCOD9093028
_publ_section_title
;
Structure prediction by ZEFSAII (Michael W. Deem and Ramdas Pophale) SiO2 
 PCOD9093028
Probable space group: P -1
;
_chemical_formula_sum "Si O2"
_cell_formula_units_Z 16
_cell_length_a 20.121912
_cell_length_b 11.584166
_cell_length_c 9.115592
_cell_angle_alpha 101.345855
_cell_angle_beta 62.842378
_cell_angle_gamma 46.214787
_cell_volume 822.618962
_symmetry_space_group_name_H-M "P -1"
_symmetry_group_IT_number 2
_symmetry_cell_setting 'triclinic'
loop_
_space_group_symop_operation_xyz
x,y,z
-x,-y,-z
loop_
_atom_site_type_symbol
_atom_site_label
_atom_site_fract_x
_atom_site_fract_y
_atom_site_fract_z
Si Si1 0.466537 0.729861 0.240387
Si Si2 0.512399 0.536610 0.656301
Si Si3 0.982131 0.352769 0.037501
Si Si4 0.763420 0.003177 0.740350
Si Si5 0.160463 0.833417 0.368675
Si Si6 0.648364 0.878516 0.364305
Si Si7 0.040607 0.482807 0.193912
Si Si8 0.861554 0.122502 0.254877
O O1 0.450895 0.625429 0.311427
O O2 0.365299 0.859829 0.222263
O O3 0.408454 0.920688 0.448107
O O4 0.663738 0.467219 0.940519
O O5 0.500000 0.500000 0.500000
O O6 0.670508 0.400632 0.462465
O O7 0.344016 0.834744 0.962430
O O8 0.782337 0.626362 0.276510
O O9 0.022333 0.372610 0.144621
O O10 0.039785 0.341543 0.829290
O O11 0.078022 0.096519 0.880028
O O12 0.826576 0.045393 0.647536
O O13 0.926672 0.689657 0.491553
O O14 0.142643 0.841981 0.561517
O O15 0.000000 0.000000 0.500000
O O16 0.500000 0.000000 0.500000
O O17 0.766834 0.747159 0.073035
O O18 0.000000 0.000000 0.000000
#
# Coordination Sequence:
#
# PCOD9093028 Si02
#       8
#     2   2   2   2   2   2   2   2
#     4  11  20  39  65  85 117 161 207 255 289 357
#     4  11  24  39  57  89 122 160 207 242 305 365
#     4   9  18  35  57  87 113 150 201 238 299 352
#     4  11  18  40  65  83 112 159 212 256 284 356
#     4  11  23  35  58  92 120 156 202 253 298 349
#     4  10  20  30  56  95 118 142 195 263 300 342
#     4   9  16  33  62  83 108 148 203 246 285 344
#     4  12  24  39  58  86 130 160 186 246 319 365
#
# _framework density 19.450074000000001
#
# number of rings (size 3 to 8) (size 9 to 14) (size 15 to 20)
#    0.750    0.750    5.000    1.500    7.000    0.000 
#    0.000    0.000    0.000    7.500    0.000    0.000 
#    0.000    0.000    0.000    0.000    0.000    0.000 
#
# Total GULP energy -89262.484487 kJ/mol
# GULP energy per Si atom -5578.905280 kJ/mol
# Density = 1.940581 g / cm^3
# Si number density = 19.450074 Si / 1000 Ang^3
#
#
#
# Elastic Constant Matrix: (Units=GPa)
#
#
# Indices 1 2 3 4 5 6 
#
# 1 109.1153 7.1984 67.6410 11.3882 -16.2972 -26.6481
# 2 7.1984 13.6660 23.5009 0.7312 -0.7765 -3.6876
# 3 67.6410 23.5009 186.2479 10.9792 -3.3390 -12.9245
# 4 11.3882 0.7312 10.9792 26.1997 0.9270 1.7797
# 5 -16.2972 -0.7765 -3.3390 0.9270 45.4039 9.2448
# 6 -26.6481 -3.6876 -12.9245 1.7797 9.2448 24.9734
#
#
#
# Elastic Compliance Matrix: (Units=1/GPa)
#
#
# Indices 1 2 3 4 5 6 
#
# 1 0.017004 0.004812 -0.005272 -0.006472 0.002761 0.015566
# 2 0.004812 0.096480 -0.013032 -0.000181 -0.000166 0.012711
# 3 -0.005272 -0.013032 0.008779 -0.000814 -0.000922 -0.002607
# 4 -0.006472 -0.000181 -0.000814 0.042043 -0.001230 -0.009895
# 5 0.002761 -0.000166 -0.000922 -0.001230 0.024285 -0.006458
# 6 0.015566 0.012711 -0.002607 -0.009895 -0.006458 0.060276
#
#
# Mechanical properties :
#
#
# Convention : Reuss Voigt Hill
#
# Bulk Modulus (GPa) = 10.49532 56.18997 33.34264
# Shear Modulus (GPa) = 16.25432 33.36134 24.80783
#
# Velocity S-wave (km/s) = 2.89397 4.14603 3.57524
# Velocity P-wave (km/s) = 4.07118 7.20218 5.85004
#
# Compressibility (1/GPa) = 0.09528055
#
# Stress axis : x y z
#
# Youngs Moduli (GPa) = 58.80833 10.36480 113.91305
#
# Poissons Ratio (x) = -0.04988 0.60050
# Poissons Ratio (y) = -0.28299 1.48449
# Poissons Ratio (z) = 0.31001 0.13507
#
# Static dielectric constant tensor:
#      x y z
#    x 1.664360 0.004120 -0.007520 
#    y 0.004120 1.691920 0.012380 
#    z -0.007520 0.012380 1.723390 
# 
# From -- ./inp_files/333504.got.cif
#   From: 2010.05.17/outbox.cif.g08.bks.cpg/sg2_167_cif.got.tgz:333504.got - 2010.06.03 11:33:40.
