data_PCOD9093696
_publ_section_title
;
Structure prediction by ZEFSAII (Michael W. Deem and Ramdas Pophale) SiO2 
 PCOD9093696
Probable space group: P -1
;
_chemical_formula_sum "Si O2"
_cell_formula_units_Z 12
_cell_length_a 6.523138
_cell_length_b 10.855230
_cell_length_c 9.355991
_cell_angle_alpha 62.368052
_cell_angle_beta 60.829158
_cell_angle_gamma 93.603702
_cell_volume 475.412546
_symmetry_space_group_name_H-M "P -1"
_symmetry_group_IT_number 2
_symmetry_cell_setting 'triclinic'
loop_
_space_group_symop_operation_xyz
x,y,z
-x,-y,-z
loop_
_atom_site_type_symbol
_atom_site_label
_atom_site_fract_x
_atom_site_fract_y
_atom_site_fract_z
Si Si1 0.188202 0.133657 0.272136
Si Si2 0.296677 0.882719 0.936606
Si Si3 0.599581 0.842249 0.102530
Si Si4 0.551694 0.510897 0.681282
Si Si5 0.815324 0.538600 0.926562
Si Si6 0.086552 0.407386 0.717254
O O1 0.130924 0.285787 0.209994
O O2 0.478940 0.150223 0.203728
O O3 0.000000 0.000000 0.500000
O O4 0.185115 0.094115 0.126541
O O5 0.334516 0.056413 0.833113
O O6 0.357656 0.857424 0.095537
O O7 0.022643 0.755028 0.081338
O O8 0.512213 0.664881 0.229909
O O9 0.334104 0.528197 0.642485
O O10 0.820767 0.602262 0.469066
O O11 0.452702 0.530322 0.861321
O O12 0.865733 0.466864 0.800536
O O13 0.000000 0.500000 0.000000
#
# Coordination Sequence:
#
# PCOD9093696 Si02
#       6
#     2   2   2   2   2   2
#     4   9  18  34  55  79 106 145 179 218 276 321
#     4   9  19  34  51  81 106 137 183 226 264 320
#     4   8  18  36  51  72 111 142 171 226 270 315
#     4   9  19  37  54  75 108 147 179 218 276 321
#     4   9  19  36  55  76 110 143 177 227 268 321
#     4  10  20  33  56  81 105 143 184 222 269 323
#
# _framework density 25.241236000000001
#
# number of rings (size 3 to 8) (size 9 to 14) (size 15 to 20)
#    1.000    2.000    0.000    0.000    2.333    2.000 
#    3.000    0.000    0.000    3.000    0.000    0.000 
#    0.000    0.000    0.000    0.000    0.000    0.000 
#
# Total GULP energy -66807.754535 kJ/mol
# GULP energy per Si atom -5567.312878 kJ/mol
# Density = 2.518379 g / cm^3
# Si number density = 25.241236 Si / 1000 Ang^3
#
#
#
# Elastic Constant Matrix: (Units=GPa)
#
#
# Indices 1 2 3 4 5 6 
#
# 1 56.5437 26.4126 43.7299 1.1610 -7.9452 -4.6110
# 2 26.4126 149.6842 61.8138 2.6779 -8.1111 -26.2636
# 3 43.7299 61.8138 220.8753 10.6085 -12.7536 -13.6358
# 4 1.1610 2.6779 10.6085 35.0780 -0.5066 -4.3216
# 5 -7.9452 -8.1111 -12.7536 -0.5066 39.1992 2.2404
# 6 -4.6110 -26.2636 -13.6358 -4.3216 2.2404 32.8376
#
#
#
# Elastic Compliance Matrix: (Units=1/GPa)
#
#
# Indices 1 2 3 4 5 6 
#
# 1 0.021881 -0.002309 -0.003572 0.000526 0.002824 -0.000381
# 2 -0.002309 0.008859 -0.001647 0.000661 0.000487 0.006131
# 3 -0.003572 -0.001647 0.005834 -0.001465 0.000794 0.000357
# 4 0.000526 0.000661 -0.001465 0.029358 -0.000075 0.003863
# 5 0.002824 0.000487 0.000794 -0.000075 0.026481 -0.000701
# 6 -0.000381 0.006131 0.000357 0.003863 -0.000701 0.036007
#
#
# Mechanical properties :
#
#
# Convention : Reuss Voigt Hill
#
# Bulk Modulus (GPa) = 46.47362 76.77954 61.62658
# Shear Modulus (GPa) = 33.18983 41.09942 37.14462
#
# Velocity S-wave (km/s) = 3.63010 4.03955 3.84029
# Velocity P-wave (km/s) = 6.00182 7.22784 6.64317
#
# Compressibility (1/GPa) = 0.02151759
#
# Stress axis : x y z
#
# Youngs Moduli (GPa) = 45.70106 112.88359 171.41691
#
# Poissons Ratio (x) = 0.26069 0.61223
# Poissons Ratio (y) = 0.10554 0.28233
# Poissons Ratio (z) = 0.16323 0.18593
#
# Static dielectric constant tensor:
#      x y z
#    x 2.235560 -0.040210 0.009890 
#    y -0.040210 2.078070 0.000710 
#    z 0.009890 0.000710 1.995540 
# 
# From -- ./inp_files/389658.got.cif
#   From: 2010.05.17/outbox.cif.g08.bks.cpg/sg2_195_cif.got.tgz:389658.got - 2010.06.03 11:33:40.
