data_PCOD9093253
_publ_section_title
;
Structure prediction by ZEFSAII (Michael W. Deem and Ramdas Pophale) SiO2 
 PCOD9093253
Probable space group: P -1
;
_chemical_formula_sum "Si O2"
_cell_formula_units_Z 16
_cell_length_a 17.564348
_cell_length_b 11.656729
_cell_length_c 13.225895
_cell_angle_alpha 105.599202
_cell_angle_beta 132.599024
_cell_angle_gamma 35.410109
_cell_volume 864.704435
_symmetry_space_group_name_H-M "P -1"
_symmetry_group_IT_number 2
_symmetry_cell_setting 'triclinic'
loop_
_space_group_symop_operation_xyz
x,y,z
-x,-y,-z
loop_
_atom_site_type_symbol
_atom_site_label
_atom_site_fract_x
_atom_site_fract_y
_atom_site_fract_z
Si Si1 0.503789 0.617092 0.671196
Si Si2 0.286146 0.233420 0.067675
Si Si3 0.044868 0.291957 0.976926
Si Si4 0.324652 0.288350 0.432852
Si Si5 0.991324 0.149725 0.037089
Si Si6 0.057875 0.418317 0.698581
Si Si7 0.534910 0.315963 0.580598
Si Si8 0.240358 0.111585 0.589853
O O1 0.480625 0.497856 0.629669
O O2 0.559609 0.579750 0.593456
O O3 0.293146 0.917789 0.581262
O O4 0.723683 0.444845 0.887179
O O5 0.062152 0.535490 0.978721
O O6 0.520370 0.062999 0.258097
O O7 0.263309 0.135473 0.090049
O O8 0.237826 0.259418 0.912555
O O9 0.846111 0.514918 0.768725
O O10 0.069177 0.132953 0.998734
O O11 0.158490 0.424591 0.407022
O O12 0.451171 0.284628 0.554778
O O13 0.500000 0.000000 0.500000
O O14 0.189471 0.979657 0.252573
O O15 0.000000 0.000000 0.000000
O O16 0.952198 0.643448 0.602729
O O17 0.164192 0.229101 0.660841
#
# Coordination Sequence:
#
# PCOD9093253 Si02
#       8
#     2   2   2   2   2   2   2   2
#     4  10  20  36  53  79 107 146 177 224 268 326
#     4  10  20  34  54  76 111 139 169 226 273 318
#     4  10  20  32  52  87 108 132 181 218 278 325
#     4  11  21  35  56  83 113 139 172 231 281 319
#     4  10  20  33  51  82 111 136 175 220 266 329
#     4  10  24  35  52  83 104 144 186 222 268 331
#     4  10  21  33  55  81 110 138 179 221 281 317
#     4  11  21  38  54  73 112 146 186 220 267 327
#
# _framework density 18.503433000000001
#
# number of rings (size 3 to 8) (size 9 to 14) (size 15 to 20)
#    0.000    1.750    2.500    1.875    8.750    0.000 
#    0.000    0.625    0.000    0.000    0.000    3.500 
#    0.000    0.000    0.000    0.000    0.000    0.000 
#
# Total GULP energy -89199.691595 kJ/mol
# GULP energy per Si atom -5574.980725 kJ/mol
# Density = 1.846132 g / cm^3
# Si number density = 18.503433 Si / 1000 Ang^3
#
#
#
# Elastic Constant Matrix: (Units=GPa)
#
#
# Indices 1 2 3 4 5 6 
#
# 1 89.7678 38.0928 9.9360 0.5993 -2.7297 17.7530
# 2 38.0928 91.3488 6.3433 -3.2104 -5.0094 13.3669
# 3 9.9360 6.3433 41.3773 3.2731 1.3200 8.7175
# 4 0.5993 -3.2104 3.2731 17.8605 -0.3707 -4.2768
# 5 -2.7297 -5.0094 1.3200 -0.3707 29.4491 -0.9130
# 6 17.7530 13.3669 8.7175 -4.2768 -0.9130 30.8979
#
#
#
# Elastic Compliance Matrix: (Units=1/GPa)
#
#
# Indices 1 2 3 4 5 6 
#
# 1 0.014757 -0.005235 -0.001224 -0.002698 0.000305 -0.006233
# 2 -0.005235 0.013698 -0.000570 0.002206 0.001824 -0.002398
# 3 -0.001224 -0.000570 0.026743 -0.006816 -0.001730 -0.007589
# 4 -0.002698 0.002206 -0.006816 0.060372 0.001529 0.010920
# 5 0.000305 0.001824 -0.001730 0.001529 0.034416 0.000752
# 6 -0.006233 -0.002398 -0.007589 0.010920 0.000752 0.040659
#
#
# Mechanical properties :
#
#
# Convention : Reuss Voigt Hill
#
# Bulk Modulus (GPa) = 24.30792 36.80425 30.55609
# Shear Modulus (GPa) = 22.89222 26.84962 24.87092
#
# Velocity S-wave (km/s) = 3.52118 3.81341 3.67021
# Velocity P-wave (km/s) = 5.44951 6.27082 5.87453
#
# Compressibility (1/GPa) = 0.04113886
#
# Stress axis : x y z
#
# Youngs Moduli (GPa) = 67.76617 73.00360 37.39364
#
# Poissons Ratio (x) = 0.38214 0.04578
# Poissons Ratio (y) = 0.35473 0.02133
# Poissons Ratio (z) = 0.08296 0.04164
#
# Static dielectric constant tensor:
#      x y z
#    x 1.672230 0.046900 0.004590 
#    y 0.046900 1.637530 -0.017490 
#    z 0.004590 -0.017490 1.718350 
# 
# From -- ./inp_files/464501.got.cif
#   From: 2010.05.17/outbox.cif.g08.bks.cpg/sg2_233_cif.got.tgz:464501.got - 2010.06.03 11:33:40.
