data_PCOD9093238
_publ_section_title
;
Structure prediction by ZEFSAII (Michael W. Deem and Ramdas Pophale) SiO2 
 PCOD9093238
Probable space group: P -1
;
_chemical_formula_sum "Si O2"
_cell_formula_units_Z 16
_cell_length_a 14.287725
_cell_length_b 11.956113
_cell_length_c 10.830054
_cell_angle_alpha 24.111958
_cell_angle_beta 117.624542
_cell_angle_gamma 115.776760
_cell_volume 669.282274
_symmetry_space_group_name_H-M "P -1"
_symmetry_group_IT_number 2
_symmetry_cell_setting 'triclinic'
loop_
_space_group_symop_operation_xyz
x,y,z
-x,-y,-z
loop_
_atom_site_type_symbol
_atom_site_label
_atom_site_fract_x
_atom_site_fract_y
_atom_site_fract_z
Si Si1 0.705042 0.045507 0.382638
Si Si2 0.761978 0.783733 0.046980
Si Si3 0.375066 0.726347 0.473450
Si Si4 0.103617 0.352363 0.491997
Si Si5 0.978852 0.869024 0.983844
Si Si6 0.580094 0.575301 0.863957
Si Si7 0.420110 0.741816 0.212584
Si Si8 0.764924 0.498346 0.820864
O O1 0.669604 0.814427 0.697871
O O2 0.726988 0.793450 0.550013
O O3 0.623408 0.289146 0.128014
O O4 0.798338 0.275434 0.170152
O O5 0.676006 0.543973 0.229145
O O6 0.813547 0.752565 0.248507
O O7 0.856738 0.781101 0.009967
O O8 0.693879 0.048167 0.735184
O O9 0.500791 0.724031 0.569448
O O10 0.357036 0.742169 0.300758
O O11 0.048806 0.610419 0.260659
O O12 0.156850 0.437476 0.309614
O O13 0.015725 0.107269 0.672865
O O14 0.000000 0.000000 0.000000
O O15 0.500000 0.500000 0.000000
O O16 0.500000 0.500000 0.500000
O O17 0.334325 0.683502 0.113403
O O18 0.500000 0.000000 0.000000
#
# Coordination Sequence:
#
# PCOD9093238 Si02
#       8
#     2   2   2   2   2   2   2   2
#     4  10  22  38  57  82 109 144 187 239 278 328
#     4  11  21  35  50  78 114 146 195 231 262 323
#     4  12  23  35  53  80 108 147 193 228 279 324
#     4  11  20  34  52  78 112 161 187 219 269 320
#     4  10  20  32  52  73 109 155 196 224 265 313
#     4  11  23  43  62  79 108 145 190 244 298 335
#     4  12  23  33  48  72 112 155 184 218 264 316
#     4  11  21  34  55  80 118 148 191 226 259 345
#
# _framework density 23.906206000000001
#
# number of rings (size 3 to 8) (size 9 to 14) (size 15 to 20)
#    0.000    1.000    1.250    9.375    1.750    0.000 
#    0.000    0.000    0.000    0.000    0.000    0.000 
#    0.000   70.000    0.000    0.000    0.000    0.000 
#
# Total GULP energy -89135.797356 kJ/mol
# GULP energy per Si atom -5570.987335 kJ/mol
# Density = 2.385179 g / cm^3
# Si number density = 23.906206 Si / 1000 Ang^3
#
#
#
# Elastic Constant Matrix: (Units=GPa)
#
#
# Indices 1 2 3 4 5 6 
#
# 1 141.5754 44.1418 77.7266 -16.5598 -21.3896 -27.7431
# 2 44.1418 58.9361 38.5340 -6.7815 9.6388 -21.3249
# 3 77.7266 38.5340 241.9458 -55.0530 -12.5714 -15.9970
# 4 -16.5598 -6.7815 -55.0530 31.6829 -18.2772 3.6145
# 5 -21.3896 9.6388 -12.5714 -18.2772 59.8460 3.3419
# 6 -27.7431 -21.3249 -15.9970 3.6145 3.3419 38.9550
#
#
#
# Elastic Compliance Matrix: (Units=1/GPa)
#
#
# Indices 1 2 3 4 5 6 
#
# 1 0.012840 -0.009253 0.000337 0.010320 0.009164 0.002474
# 2 -0.009253 0.033741 -0.007714 -0.022828 -0.018025 0.012378
# 3 0.000337 -0.007714 0.011522 0.025629 0.011757 -0.002638
# 4 0.010320 -0.022828 0.025629 0.103343 0.044760 -0.008051
# 5 0.009164 -0.018025 0.011757 0.044760 0.039365 -0.006043
# 6 0.002474 0.012378 -0.002638 -0.008051 -0.006043 0.034390
#
#
# Mechanical properties :
#
#
# Convention : Reuss Voigt Hill
#
# Bulk Modulus (GPa) = 40.25416 84.80693 62.53055
# Shear Modulus (GPa) = 18.06736 44.90043 31.48390
#
# Velocity S-wave (km/s) = 2.75209 4.33851 3.63295
# Velocity P-wave (km/s) = 5.19361 7.78773 6.61900
#
# Compressibility (1/GPa) = 0.02484215
#
# Stress axis : x y z
#
# Youngs Moduli (GPa) = 77.88279 29.63736 86.79280
#
# Poissons Ratio (x) = 0.27424 -0.02922
# Poissons Ratio (y) = 0.72066 0.66951
# Poissons Ratio (z) = -0.02622 0.22862
#
# Static dielectric constant tensor:
#      x y z
#    x 1.926800 0.201510 -0.008210 
#    y 0.201510 5.058630 0.484070 
#    z -0.008210 0.484070 1.980460 
# 
# From -- ./inp_files/452099.got.cif
#   From: 2010.05.17/outbox.cif.g08.bks.cpg/sg2_227_cif.got.tgz:452099.got - 2010.06.03 11:33:40.
