data_PCOD9093989
_publ_section_title
;
Structure prediction by ZEFSAII (Michael W. Deem and Ramdas Pophale) SiO2 
 PCOD9093989
Probable space group: P -1
;
_chemical_formula_sum "Si O2"
_cell_formula_units_Z 16
_cell_length_a 11.437304
_cell_length_b 8.071818
_cell_length_c 15.330301
_cell_angle_alpha 106.388347
_cell_angle_beta 54.019993
_cell_angle_gamma 138.305117
_cell_volume 728.873905
_symmetry_space_group_name_H-M "P -1"
_symmetry_group_IT_number 2
_symmetry_cell_setting 'triclinic'
loop_
_space_group_symop_operation_xyz
x,y,z
-x,-y,-z
loop_
_atom_site_type_symbol
_atom_site_label
_atom_site_fract_x
_atom_site_fract_y
_atom_site_fract_z
Si Si1 0.066988 0.386438 0.899404
Si Si2 0.644529 0.383282 0.954805
Si Si3 0.169979 0.659120 0.342029
Si Si4 0.610514 0.478652 0.715372
Si Si5 0.926274 0.442786 0.253080
Si Si6 0.545280 0.106333 0.591924
Si Si7 0.283187 0.161347 0.956653
Si Si8 0.450045 0.189173 0.197741
O O1 0.022174 0.361797 0.811685
O O2 0.321801 0.584243 0.820968
O O3 0.000000 0.500000 0.000000
O O4 0.945416 0.127255 0.966076
O O5 0.698595 0.632829 0.981363
O O6 0.525051 0.216927 0.070621
O O7 0.873937 0.504587 0.850054
O O8 0.459216 0.202100 0.936563
O O9 0.226098 0.504214 0.300993
O O10 0.954652 0.496691 0.353371
O O11 0.246403 0.779139 0.425712
O O12 0.326564 0.921329 0.255260
O O13 0.377723 0.257862 0.833151
O O14 0.671537 0.734042 0.729402
O O15 0.578982 0.343793 0.620107
O O16 0.683961 0.152547 0.298559
O O17 0.500000 0.000000 0.500000
#
# Coordination Sequence:
#
# PCOD9093989 Si02
#       8
#     2   2   2   2   2   2   2   2
#     4  12  22  32  54  85 126 167 200 229 288 350
#     4  10  21  32  54  84 121 161 200 227 282 349
#     4  10  22  41  62  87 126 149 203 250 294 356
#     4   9  21  38  60  84 121 161 196 249 295 345
#     4  12  22  37  63  87 117 165 197 242 302 353
#     4  10  23  44  65  87 114 149 202 262 316 356
#     4  10  20  34  50  85 124 158 195 239 274 350
#     4  11  21  36  58  88 128 165 193 239 286 355
#
# _framework density 21.95167
#
# number of rings (size 3 to 8) (size 9 to 14) (size 15 to 20)
#    0.750    0.750    3.750    2.250    1.750    2.500 
#    0.000    0.625    0.000    0.750    0.000    0.000 
#    0.000    0.000    0.000    0.000    0.000    0.000 
#
# Total GULP energy -89107.981391 kJ/mol
# GULP energy per Si atom -5569.248837 kJ/mol
# Density = 2.190171 g / cm^3
# Si number density = 21.951670 Si / 1000 Ang^3
#
#
#
# Elastic Constant Matrix: (Units=GPa)
#
#
# Indices 1 2 3 4 5 6 
#
# 1 90.6710 16.1478 17.2033 12.7152 12.6016 6.5860
# 2 16.1478 67.1173 5.5852 3.9911 -1.5697 1.0614
# 3 17.2033 5.5852 49.1166 21.4667 12.5033 -2.5260
# 4 12.7152 3.9911 21.4667 30.1081 10.1775 1.5023
# 5 12.6016 -1.5697 12.5033 10.1775 30.0953 1.3523
# 6 6.5860 1.0614 -2.5260 1.5023 1.3523 42.5277
#
#
#
# Elastic Compliance Matrix: (Units=1/GPa)
#
#
# Indices 1 2 3 4 5 6 
#
# 1 0.012946 -0.002851 -0.002498 -0.001932 -0.003793 -0.001893
# 2 -0.002851 0.015804 -0.001040 -0.001101 0.002825 -0.000066
# 3 -0.002498 -0.001040 0.031470 -0.019499 -0.005630 0.003150
# 4 -0.001932 -0.001101 -0.019499 0.050998 -0.008287 -0.002370
# 5 -0.003793 0.002825 -0.005630 -0.008287 0.040141 -0.000801
# 6 -0.001893 -0.000066 0.003150 -0.002370 -0.000801 0.024105
#
#
# Mechanical properties :
#
#
# Convention : Reuss Voigt Hill
#
# Bulk Modulus (GPa) = 21.07739 31.64197 26.35968
# Shear Modulus (GPa) = 24.50306 31.74413 28.12360
#
# Velocity S-wave (km/s) = 3.34462 3.80688 3.58321
# Velocity P-wave (km/s) = 4.95358 5.81109 5.39938
#
# Compressibility (1/GPa) = 0.04744420
#
# Stress axis : x y z
#
# Youngs Moduli (GPa) = 77.24318 63.27392 31.77603
#
# Poissons Ratio (x) = 0.18038 0.07936
# Poissons Ratio (y) = 0.22020 0.03304
# Poissons Ratio (z) = 0.19292 0.06580
#
# Static dielectric constant tensor:
#      x y z
#    x 1.859750 0.033540 0.025340 
#    y 0.033540 1.818760 0.025810 
#    z 0.025340 0.025810 1.882420 
# 
# From -- ./inp_files/274167.got.cif
#   From: 2010.05.17/outbox.cif.g08.bks.cpg/sg2_138_cif.got.tgz:274167.got - 2010.06.03 11:33:40.
