data_PCOD9093953
_publ_section_title
;
Structure prediction by ZEFSAII (Michael W. Deem and Ramdas Pophale) SiO2 
 PCOD9093953
Probable space group: P -1
;
_chemical_formula_sum "Si O2"
_cell_formula_units_Z 14
_cell_length_a 5.484167
_cell_length_b 11.141515
_cell_length_c 21.321109
_cell_angle_alpha 38.180267
_cell_angle_beta 44.614579
_cell_angle_gamma 45.377394
_cell_volume 534.075446
_symmetry_space_group_name_H-M "P -1"
_symmetry_group_IT_number 2
_symmetry_cell_setting 'triclinic'
loop_
_space_group_symop_operation_xyz
x,y,z
-x,-y,-z
loop_
_atom_site_type_symbol
_atom_site_label
_atom_site_fract_x
_atom_site_fract_y
_atom_site_fract_z
Si Si1 0.396286 0.111575 0.538388
Si Si2 0.572198 0.521982 0.879149
Si Si3 0.712073 0.452199 0.318507
Si Si4 0.627895 0.293063 0.832291
Si Si5 0.221483 0.963239 0.753121
Si Si6 0.606748 0.193426 0.681195
Si Si7 0.044681 0.880197 0.975509
O O1 0.641757 0.256557 0.440505
O O2 0.431914 0.944832 0.654502
O O3 0.960839 0.244471 0.568373
O O4 0.500000 0.000000 0.500000
O O5 0.553125 0.430982 0.851215
O O6 0.943459 0.582089 0.776832
O O7 0.608748 0.328243 0.997245
O O8 0.268392 0.736084 0.863099
O O9 0.378449 0.572444 0.283203
O O10 0.695890 0.611308 0.312376
O O11 0.286693 0.208873 0.928300
O O12 0.960244 0.072690 0.864803
O O13 0.456838 0.081883 0.699933
O O14 0.803047 0.057477 0.762697
O O15 0.000000 0.000000 0.000000
#
# Coordination Sequence:
#
# PCOD9093953 Si02
#       7
#     2   2   2   2   2   2   2
#     4  10  22  39  62  86 121 157 206 249 294 351
#     4  10  20  33  63  87 115 156 199 252 294 356
#     4  11  22  36  60  88 118 159 202 243 305 349
#     4   9  18  32  57  89 117 147 196 253 291 355
#     4  10  24  41  59  84 123 157 202 243 299 348
#     4  10  25  42  57  86 124 165 196 250 294 360
#     4   8  16  32  53  90 117 146 191 249 299 343
#
# _framework density 26.213524
#
# number of rings (size 3 to 8) (size 9 to 14) (size 15 to 20)
#    0.857    1.429    0.000    2.143    6.000    4.000 
#    0.000    0.000    0.000    1.714    0.000    0.000 
#    0.000    0.000    0.000    0.000    0.000    0.000 
#
# Total GULP energy -78133.307532 kJ/mol
# GULP energy per Si atom -5580.950538 kJ/mol
# Density = 2.615386 g / cm^3
# Si number density = 26.213524 Si / 1000 Ang^3
#
#
#
# Elastic Constant Matrix: (Units=GPa)
#
#
# Indices 1 2 3 4 5 6 
#
# 1 87.8427 1.3536 -2.8553 -7.1522 2.3243 19.8184
# 2 1.3536 60.4463 -14.5067 -17.7157 -11.0535 3.9301
# 3 -2.8553 -14.5067 85.4657 -10.8458 1.1656 -0.5989
# 4 -7.1522 -17.7157 -10.8458 52.2522 -2.0481 -8.0064
# 5 2.3243 -11.0535 1.1656 -2.0481 30.1560 -6.3815
# 6 19.8184 3.9301 -0.5989 -8.0064 -6.3815 22.2635
#
#
#
# Elastic Compliance Matrix: (Units=1/GPa)
#
#
# Indices 1 2 3 4 5 6 
#
# 1 0.014741 -0.000191 0.000373 -0.000350 -0.004299 -0.014437
# 2 -0.000191 0.021824 0.004741 0.009053 0.008924 0.002258
# 3 0.000373 0.004741 0.013094 0.004658 0.001811 0.001377
# 4 -0.000350 0.009053 0.004658 0.024896 0.006925 0.009777
# 5 -0.004299 0.008924 0.001811 0.006925 0.040643 0.016441
# 6 -0.014437 0.002258 0.001377 0.009777 0.016441 0.065635
#
#
# Mechanical properties :
#
#
# Convention : Reuss Voigt Hill
#
# Bulk Modulus (GPa) = 16.80498 22.41530 19.61014
# Shear Modulus (GPa) = 26.20253 37.58521 31.89387
#
# Velocity S-wave (km/s) = 3.16504 3.79068 3.49190
# Velocity P-wave (km/s) = 4.44763 5.26579 4.87391
#
# Compressibility (1/GPa) = 0.05950617
#
# Stress axis : x y z
#
# Youngs Moduli (GPa) = 67.83577 45.82125 76.37146
#
# Poissons Ratio (x) = 0.00874 -0.02850
# Poissons Ratio (y) = 0.01294 -0.36207
# Poissons Ratio (z) = -0.02531 -0.21724
#
# Static dielectric constant tensor:
#      x y z
#    x 0.490690 -2.702310 -0.958850 
#    y -2.702310 -1.881970 -1.540190 
#    z -0.958850 -1.540190 1.419710 
# 
# From -- ./inp_files/50303.got.cif
#   From: 2010.05.17/outbox.cif.g08.bks.cpg/sg2_26_cif.got.tgz:50303.got - 2010.06.03 11:33:40.
