data_PCOD9093310
_publ_section_title
;
Structure prediction by ZEFSAII (Michael W. Deem and Ramdas Pophale) SiO2 
 PCOD9093310
Probable space group: P -1
;
_chemical_formula_sum "Si O2"
_cell_formula_units_Z 16
_cell_length_a 14.629080
_cell_length_b 23.263554
_cell_length_c 11.563878
_cell_angle_alpha 133.151323
_cell_angle_beta 151.204061
_cell_angle_gamma 30.029627
_cell_volume 901.889962
_symmetry_space_group_name_H-M "P -1"
_symmetry_group_IT_number 2
_symmetry_cell_setting 'triclinic'
loop_
_space_group_symop_operation_xyz
x,y,z
-x,-y,-z
loop_
_atom_site_type_symbol
_atom_site_label
_atom_site_fract_x
_atom_site_fract_y
_atom_site_fract_z
Si Si1 0.748625 0.998648 0.604024
Si Si2 0.049091 0.836794 0.520952
Si Si3 0.886389 0.447304 0.784133
Si Si4 0.558739 0.805300 0.029780
Si Si5 0.120345 0.165941 0.040047
Si Si6 0.784150 0.355250 0.731370
Si Si7 0.144113 0.027583 0.045542
Si Si8 0.249017 0.987639 0.756167
O O1 0.420922 0.104356 0.339561
O O2 0.759882 0.985268 0.735511
O O3 0.934231 0.870941 0.570869
O O4 0.916927 0.026688 0.797463
O O5 0.123000 0.737580 0.392027
O O6 0.333458 0.802791 0.781097
O O7 0.777283 0.966901 0.335755
O O8 0.863481 0.412709 0.837380
O O9 0.563917 0.543731 0.506736
O O10 0.116893 0.329081 0.795313
O O11 0.000000 0.500000 0.000000
O O12 0.421138 0.908221 0.113381
O O13 0.522826 0.858822 0.938028
O O14 0.006770 0.146927 0.993991
O O15 0.933809 0.287526 0.926913
O O16 0.172555 0.082318 0.886626
O O17 0.000000 0.000000 0.500000
#
# Coordination Sequence:
#
# PCOD9093310 Si02
#       8
#     2   2   2   2   2   2   2   2
#     4  10  20  32  55  83 115 144 169 212 270 323
#     4   9  17  31  50  83 110 130 170 211 262 334
#     4  11  22  37  53  74 106 145 179 222 266 310
#     4   9  17  32  55  72 107 144 170 214 265 310
#     4  10  20  34  54  79 112 141 173 221 266 323
#     4  10  23  35  51  82 107 134 185 216 264 322
#     4   9  20  37  52  85 112 138 180 213 264 329
#     4   8  16  28  47  79 110 134 161 206 268 328
#
# _framework density 17.740524000000001
#
# number of rings (size 3 to 8) (size 9 to 14) (size 15 to 20)
#    0.000    2.500    1.250    1.125    5.250    2.000 
#    0.000    0.000    0.000    0.750    0.000    3.500 
#    0.000    0.000    0.000    0.000    0.000    0.000 
#
# Total GULP energy -89106.904611 kJ/mol
# GULP energy per Si atom -5569.181538 kJ/mol
# Density = 1.770015 g / cm^3
# Si number density = 17.740524 Si / 1000 Ang^3
#
#
#
# Elastic Constant Matrix: (Units=GPa)
#
#
# Indices 1 2 3 4 5 6 
#
# 1 97.8232 36.6014 59.0801 -2.7104 -1.1571 12.1974
# 2 36.6014 62.3863 36.8617 -10.2874 -2.1068 4.9206
# 3 59.0801 36.8617 93.5349 -13.5111 -7.6868 4.0403
# 4 -2.7104 -10.2874 -13.5111 21.9169 0.1897 -0.2007
# 5 -1.1571 -2.1068 -7.6868 0.1897 29.1891 2.6177
# 6 12.1974 4.9206 4.0403 -0.2007 2.6177 29.0697
#
#
#
# Elastic Compliance Matrix: (Units=1/GPa)
#
#
# Indices 1 2 3 4 5 6 
#
# 1 0.019477 -0.005731 -0.010992 -0.007091 -0.001993 -0.005544
# 2 -0.005731 0.023324 -0.004422 0.007502 0.000324 -0.000906
# 3 -0.010992 -0.004422 0.021033 0.009511 0.004534 0.002095
# 4 -0.007091 0.007502 0.009511 0.054119 0.002364 0.000545
# 5 -0.001993 0.000324 0.004534 0.002364 0.035655 -0.003043
# 6 -0.005544 -0.000906 0.002095 0.000545 -0.003043 0.036866
#
#
# Mechanical properties :
#
#
# Convention : Reuss Voigt Hill
#
# Bulk Modulus (GPa) = 46.42072 57.64786 52.03429
# Shear Modulus (GPa) = 20.83788 24.11524 22.47656
#
# Velocity S-wave (km/s) = 3.43095 3.69091 3.56330
# Velocity P-wave (km/s) = 6.47445 7.12245 6.80617
#
# Compressibility (1/GPa) = 0.02154211
#
# Stress axis : x y z
#
# Youngs Moduli (GPa) = 51.34272 42.87404 47.54382
#
# Poissons Ratio (x) = 0.24573 0.52262
# Poissons Ratio (y) = 0.29426 0.21026
# Poissons Ratio (z) = 0.56438 0.18961
#
# Static dielectric constant tensor:
#      x y z
#    x 1.658640 0.034850 0.014700 
#    y 0.034850 1.627090 0.009470 
#    z 0.014700 0.009470 1.630660 
# 
# From -- ./inp_files/458083.got.cif
#   From: 2010.05.17/outbox.cif.g08.bks.cpg/sg2_230_cif.got.tgz:458083.got - 2010.06.03 11:33:40.
