data_PCOD9093826
_publ_section_title
;
Structure prediction by ZEFSAII (Michael W. Deem and Ramdas Pophale) SiO2 
 PCOD9093826
Probable space group: P -1
;
_chemical_formula_sum "Si O2"
_cell_formula_units_Z 14
_cell_length_a 9.039728
_cell_length_b 8.416647
_cell_length_c 17.719847
_cell_angle_alpha 45.325278
_cell_angle_beta 140.098255
_cell_angle_gamma 106.220197
_cell_volume 505.280513
_symmetry_space_group_name_H-M "P -1"
_symmetry_group_IT_number 2
_symmetry_cell_setting 'triclinic'
loop_
_space_group_symop_operation_xyz
x,y,z
-x,-y,-z
loop_
_atom_site_type_symbol
_atom_site_label
_atom_site_fract_x
_atom_site_fract_y
_atom_site_fract_z
Si Si1 0.617619 0.174893 0.012106
Si Si2 0.932961 0.219433 0.791865
Si Si3 0.904884 0.162089 0.262228
Si Si4 0.413558 0.943142 0.190573
Si Si5 0.620998 0.454083 0.339287
Si Si6 0.278806 0.169963 0.515399
Si Si7 0.796365 0.682721 0.790916
O O1 0.445298 0.449120 0.805098
O O2 0.630224 0.232503 0.085688
O O3 0.500000 0.000000 0.000000
O O4 0.925053 0.983464 0.156501
O O5 0.747517 0.136975 0.788785
O O6 0.780795 0.531828 0.604739
O O7 0.177929 0.150170 0.970549
O O8 0.993563 0.213855 0.359989
O O9 0.025100 0.284724 0.211150
O O10 0.105222 0.836781 0.444219
O O11 0.622944 0.678618 0.311589
O O12 0.600645 0.986581 0.305472
O O13 0.350158 0.455377 0.256163
O O14 0.528807 0.969341 0.621801
O O15 0.000000 0.500000 0.000000
#
# Coordination Sequence:
#
# PCOD9093826 Si02
#       7
#     2   2   2   2   2   2   2
#     4  11  24  42  63  85 117 164 212 249 284 347
#     4  10  21  36  58  85 122 158 195 245 296 354
#     4  11  22  37  61  89 122 156 199 245 305 359
#     4  10  20  33  58  89 123 151 191 238 309 365
#     4  10  21  39  63  93 120 159 192 245 304 366
#     4  11  22  33  57  88 121 154 185 243 303 366
#     4  11  21  35  60  92 128 153 189 245 310 363
#
# _framework density 27.707380000000001
#
# number of rings (size 3 to 8) (size 9 to 14) (size 15 to 20)
#    0.000    1.429    1.429    5.571    6.000    0.571 
#    0.000    0.714    0.000    6.857    0.000    0.000 
#    0.000    0.000    0.000    0.000    0.000    0.000 
#
# Total GULP energy -78500.142505 kJ/mol
# GULP energy per Si atom -5607.153036 kJ/mol
# Density = 2.764432 g / cm^3
# Si number density = 27.707380 Si / 1000 Ang^3
#
#
#
# Elastic Constant Matrix: (Units=GPa)
#
#
# Indices 1 2 3 4 5 6 
#
# 1 70.1157 18.6014 19.9565 5.9357 8.1520 -5.5241
# 2 18.6014 95.9196 28.2611 37.7533 -4.1628 -3.6708
# 3 19.9565 28.2611 147.0235 24.8163 -31.3939 -0.5390
# 4 5.9357 37.7533 24.8163 68.4360 -6.9036 0.2353
# 5 8.1520 -4.1628 -31.3939 -6.9036 31.3155 7.3848
# 6 -5.5241 -3.6708 -0.5390 0.2353 7.3848 45.9497
#
#
#
# Elastic Compliance Matrix: (Units=1/GPa)
#
#
# Indices 1 2 3 4 5 6 
#
# 1 0.017437 -0.002666 -0.003954 0.000416 -0.009560 0.003371
# 2 -0.002666 0.014146 -0.001243 -0.007172 -0.000466 0.000907
# 3 -0.003954 -0.001243 0.010248 -0.001537 0.011334 -0.002268
# 4 0.000416 -0.007172 -0.001537 0.019282 0.001870 -0.000940
# 5 -0.009560 -0.000466 0.011334 0.001870 0.048213 -0.008812
# 6 0.003371 0.000907 -0.002268 -0.000940 -0.008812 0.023635
#
#
# Mechanical properties :
#
#
# Convention : Reuss Voigt Hill
#
# Bulk Modulus (GPa) = 38.30621 49.63298 43.96959
# Shear Modulus (GPa) = 31.76867 45.55622 38.66245
#
# Velocity S-wave (km/s) = 3.38979 4.05926 3.73954
# Velocity P-wave (km/s) = 5.40150 6.31841 5.87786
#
# Compressibility (1/GPa) = 0.02610543
#
# Stress axis : x y z
#
# Youngs Moduli (GPa) = 57.35042 70.69160 97.57601
#
# Poissons Ratio (x) = 0.18848 0.38577
# Poissons Ratio (y) = 0.15291 0.12128
# Poissons Ratio (z) = 0.22674 0.08787
#
# Static dielectric constant tensor:
#      x y z
#    x 2.211550 0.032560 0.011010 
#    y 0.032560 2.189460 0.055980 
#    z 0.011010 0.055980 2.089770 
# 
# From -- ./inp_files/259740.got.cif
#   From: 2010.05.17/outbox.cif.g08.bks.cpg/sg2_130_cif.got.tgz:259740.got - 2010.06.03 11:33:40.
