data_PCOD9093327
_publ_section_title
;
Structure prediction by ZEFSAII (Michael W. Deem and Ramdas Pophale) SiO2 
 PCOD9093327
Probable space group: P -1
;
_chemical_formula_sum "Si O2"
_cell_formula_units_Z 16
_cell_length_a 11.621893
_cell_length_b 26.128127
_cell_length_c 5.274618
_cell_angle_alpha 108.455164
_cell_angle_beta 101.611881
_cell_angle_gamma 30.313399
_cell_volume 758.119555
_symmetry_space_group_name_H-M "P -1"
_symmetry_group_IT_number 2
_symmetry_cell_setting 'triclinic'
loop_
_space_group_symop_operation_xyz
x,y,z
-x,-y,-z
loop_
_atom_site_type_symbol
_atom_site_label
_atom_site_fract_x
_atom_site_fract_y
_atom_site_fract_z
Si Si1 0.197963 0.244341 0.263840
Si Si2 0.204765 0.121139 0.290789
Si Si3 0.699053 0.435372 0.274519
Si Si4 0.430161 0.620322 0.083848
Si Si5 0.430125 0.095787 0.758229
Si Si6 0.884066 0.088093 0.897044
Si Si7 0.661812 0.084299 0.472749
Si Si8 0.296601 0.730994 0.706239
O O1 0.214743 0.175761 0.256677
O O2 0.421544 0.186472 0.375866
O O3 0.936148 0.363589 0.386287
O O4 0.256694 0.211875 0.944859
O O5 0.275914 0.109501 0.591346
O O6 0.954382 0.196624 0.262637
O O7 0.395570 0.001251 0.118990
O O8 0.500000 0.500000 0.500000
O O9 0.621932 0.508280 0.139162
O O10 0.742840 0.360632 0.036867
O O11 0.364022 0.688398 0.382693
O O12 0.454917 0.641934 0.860432
O O13 0.606360 0.057206 0.593158
O O14 0.725202 0.114984 0.686796
O O15 0.742454 0.190700 0.134218
O O16 0.106311 0.022675 0.743211
O O17 0.000000 0.000000 0.000000
#
# Coordination Sequence:
#
# PCOD9093327 Si02
#       8
#     2   2   2   2   2   2   2   2
#     4  11  20  37  61  89 129 169 213 265 330 397
#     4  10  20  32  55  89 129 168 205 255 323 396
#     4  11  22  43  65  98 138 170 222 271 336 403
#     4  11  24  40  63  98 128 174 217 272 334 390
#     4  10  21  35  55  90 131 166 213 260 327 401
#     4  11  25  43  65  91 132 175 227 272 324 394
#     4  10  23  40  61  94 122 176 219 266 328 382
#     4  12  24  40  66  96 134 172 223 270 334 390
#
# _framework density 21.104849999999999
#
# number of rings (size 3 to 8) (size 9 to 14) (size 15 to 20)
#    0.000    1.250    2.500    3.375    5.250    4.000 
#    0.000    0.000    0.000    1.500    0.000    0.000 
#    0.000    0.000    0.000    0.000    0.000    0.000 
#
# Total GULP energy -89136.358886 kJ/mol
# GULP energy per Si atom -5571.022430 kJ/mol
# Density = 2.105681 g / cm^3
# Si number density = 21.104850 Si / 1000 Ang^3
#
#
#
# Elastic Constant Matrix: (Units=GPa)
#
#
# Indices 1 2 3 4 5 6 
#
# 1 71.9701 24.5022 27.8740 -0.2112 12.1925 -10.7321
# 2 24.5022 97.3603 16.6054 -9.9953 5.3023 -16.0009
# 3 27.8740 16.6054 87.6225 2.7103 17.7217 -6.1478
# 4 -0.2112 -9.9953 2.7103 22.0743 1.7858 4.1796
# 5 12.1925 5.3023 17.7217 1.7858 41.8270 -4.2054
# 6 -10.7321 -16.0009 -6.1478 4.1796 -4.2054 40.7292
#
#
#
# Elastic Compliance Matrix: (Units=1/GPa)
#
#
# Indices 1 2 3 4 5 6 
#
# 1 0.017432 -0.003220 -0.004200 -0.001046 -0.002594 0.002534
# 2 -0.003220 0.012358 -0.001247 0.005093 0.000014 0.003297
# 3 -0.004200 -0.001247 0.013959 -0.002010 -0.004420 0.000260
# 4 -0.001046 0.005093 -0.002010 0.048718 -0.001949 -0.003779
# 5 -0.002594 0.000014 -0.004420 -0.001949 0.026781 0.001620
# 6 0.002534 0.003297 0.000260 -0.003779 0.001620 0.027110
#
#
# Mechanical properties :
#
#
# Convention : Reuss Voigt Hill
#
# Bulk Modulus (GPa) = 37.85725 43.87954 40.86839
# Shear Modulus (GPa) = 28.98591 33.45753 31.22172
#
# Velocity S-wave (km/s) = 3.70999 3.98590 3.85042
# Velocity P-wave (km/s) = 6.02733 6.48225 6.25893
#
# Compressibility (1/GPa) = 0.02641502
#
# Stress axis : x y z
#
# Youngs Moduli (GPa) = 57.36577 80.91859 71.63609
#
# Poissons Ratio (x) = 0.26058 0.30089
# Poissons Ratio (y) = 0.18473 0.08931
# Poissons Ratio (z) = 0.24095 0.10088
#
# Static dielectric constant tensor:
#      x y z
#    x 1.767360 0.011410 -0.069800 
#    y 0.011410 1.818900 -0.047700 
#    z -0.069800 -0.047700 2.082640 
# 
# From -- ./inp_files/85081.got.cif
#   From: 2010.05.17/outbox.cif.g08.bks.cpg/sg2_43_cif.got.tgz:85081.got - 2010.06.03 11:33:40.
