data_PCOD9093741
_publ_section_title
;
Structure prediction by ZEFSAII (Michael W. Deem and Ramdas Pophale) SiO2 
 PCOD9093741
Probable space group: P -1
;
_chemical_formula_sum "Si O2"
_cell_formula_units_Z 16
_cell_length_a 11.887634
_cell_length_b 9.105968
_cell_length_c 24.498015
_cell_angle_alpha 139.980963
_cell_angle_beta 26.706362
_cell_angle_gamma 141.256274
_cell_volume 723.025575
_symmetry_space_group_name_H-M "P -1"
_symmetry_group_IT_number 2
_symmetry_cell_setting 'triclinic'
loop_
_space_group_symop_operation_xyz
x,y,z
-x,-y,-z
loop_
_atom_site_type_symbol
_atom_site_label
_atom_site_fract_x
_atom_site_fract_y
_atom_site_fract_z
Si Si1 0.280601 0.633445 0.595714
Si Si2 0.445363 0.416506 0.844772
Si Si3 0.843017 0.879943 0.833828
Si Si4 0.424700 0.211916 0.957279
Si Si5 0.208696 0.824264 0.299314
Si Si6 0.832690 0.605236 0.144085
Si Si7 0.889689 0.251666 0.096043
Si Si8 0.483458 0.705223 0.643935
O O1 0.449558 0.758761 0.610381
O O2 0.463399 0.550580 0.450340
O O3 0.087920 0.776166 0.700951
O O4 0.080097 0.370449 0.627476
O O5 0.618043 0.698136 0.842654
O O6 0.618600 0.290458 0.768196
O O7 0.354915 0.318075 0.795352
O O8 0.188831 0.381141 0.984053
O O9 0.694727 0.856503 0.950247
O O10 0.972166 0.160057 0.843981
O O11 0.681669 0.164860 0.806840
O O12 0.199632 0.026760 0.963725
O O13 0.500000 0.500000 0.000000
O O14 0.281132 0.091490 0.368768
O O15 0.720414 0.386839 0.172235
O O16 0.000000 0.500000 0.000000
O O17 0.790593 0.286436 0.208426
#
# Coordination Sequence:
#
# PCOD9093741 Si02
#       8
#     2   2   2   2   2   2   2   2
#     4  10  21  37  55  78 111 142 184 221 268 332
#     4  10  20  33  57  82 107 148 174 223 279 319
#     4  11  21  35  57  82 109 145 181 226 270 328
#     4  11  19  33  52  86 115 135 172 225 281 325
#     4  10  21  32  56  82 108 141 176 228 271 332
#     4  10  20  39  51  79 116 143 183 222 268 326
#     4  10  23  36  55  81 116 145 181 227 268 327
#     4  10  22  36  54  79 109 149 177 221 276 318
#
# _framework density 22.12923
#
# number of rings (size 3 to 8) (size 9 to 14) (size 15 to 20)
#    0.000    1.750    5.000    1.125    3.500    3.000 
#    0.000    0.625    0.000    3.000    0.000    0.000 
#    0.000    0.000    0.000    0.000    0.000    0.000 
#
# Total GULP energy -89221.852611 kJ/mol
# GULP energy per Si atom -5576.365788 kJ/mol
# Density = 2.207886 g / cm^3
# Si number density = 22.129230 Si / 1000 Ang^3
#
#
#
# Elastic Constant Matrix: (Units=GPa)
#
#
# Indices 1 2 3 4 5 6 
#
# 1 30.8876 5.8630 9.8284 3.6023 -2.9487 -2.4557
# 2 5.8630 121.0356 16.7134 15.3916 1.4953 9.4791
# 3 9.8284 16.7134 82.9794 14.3454 -0.1344 3.9115
# 4 3.6023 15.3916 14.3454 29.3773 12.2272 -2.1188
# 5 -2.9487 1.4953 -0.1344 12.2272 26.0549 4.8085
# 6 -2.4557 9.4791 3.9115 -2.1188 4.8085 25.7443
#
#
#
# Elastic Compliance Matrix: (Units=1/GPa)
#
#
# Indices 1 2 3 4 5 6 
#
# 1 0.034854 -0.000985 -0.003331 -0.004184 0.005424 0.002836
# 2 -0.000985 0.009495 -0.000494 -0.006245 0.003123 -0.004612
# 3 -0.003331 -0.000494 0.014170 -0.008328 0.004331 -0.003783
# 4 -0.004184 -0.006245 -0.008328 0.054531 -0.028131 0.012908
# 5 0.005424 0.003123 0.004331 -0.028131 0.054586 -0.013801
# 6 0.002836 -0.004612 -0.003783 0.012908 -0.013801 0.045027
#
#
# Mechanical properties :
#
#
# Convention : Reuss Voigt Hill
#
# Bulk Modulus (GPa) = 20.45072 33.30134 26.87603
# Shear Modulus (GPa) = 20.95710 29.73515 25.34613
#
# Velocity S-wave (km/s) = 3.08073 3.66963 3.38800
# Velocity P-wave (km/s) = 4.68146 5.74771 5.24177
#
# Compressibility (1/GPa) = 0.04889805
#
# Stress axis : x y z
#
# Youngs Moduli (GPa) = 28.69135 105.32159 70.57043
#
# Poissons Ratio (x) = 0.10379 0.23510
# Poissons Ratio (y) = 0.02827 0.03483
# Poissons Ratio (z) = 0.09558 0.05198
#
# Static dielectric constant tensor:
#      x y z
#    x 1.893050 0.012220 -0.035250 
#    y 0.012220 1.830760 0.013080 
#    z -0.035250 0.013080 1.862820 
# 
# From -- ./inp_files/451467.got.cif
#   From: 2010.05.17/outbox.cif.g08.bks.cpg/sg2_226_cif.got.tgz:451467.got - 2010.06.03 11:33:40.
