data_PCOD9093927
_publ_section_title
;
Structure prediction by ZEFSAII (Michael W. Deem and Ramdas Pophale) SiO2 
 PCOD9093927
Probable space group: P -1
;
_chemical_formula_sum "Si O2"
_cell_formula_units_Z 14
_cell_length_a 9.855846
_cell_length_b 17.428577
_cell_length_c 14.653561
_cell_angle_alpha 158.539940
_cell_angle_beta 36.862934
_cell_angle_gamma 144.523704
_cell_volume 523.801220
_symmetry_space_group_name_H-M "P -1"
_symmetry_group_IT_number 2
_symmetry_cell_setting 'triclinic'
loop_
_space_group_symop_operation_xyz
x,y,z
-x,-y,-z
loop_
_atom_site_type_symbol
_atom_site_label
_atom_site_fract_x
_atom_site_fract_y
_atom_site_fract_z
Si Si1 0.018393 0.278031 0.587658
Si Si2 0.711953 0.243516 0.041948
Si Si3 0.000811 0.755234 0.743811
Si Si4 0.812521 0.874837 0.366862
Si Si5 0.229312 0.929838 0.990033
Si Si6 0.536923 0.259287 0.761466
Si Si7 0.600839 0.440945 0.686458
O O1 0.229680 0.504212 0.741225
O O2 0.112904 0.103685 0.289004
O O3 0.824750 0.350773 0.713046
O O4 0.878953 0.132602 0.587887
O O5 0.455079 0.073573 0.968123
O O6 0.938758 0.171991 0.811548
O O7 0.703688 0.207475 0.116602
O O8 0.220567 0.686938 0.510642
O O9 0.744481 0.572892 0.668380
O O10 0.048480 0.765136 0.837953
O O11 0.000000 0.000000 0.000000
O O12 0.640048 0.739921 0.226829
O O13 0.647480 0.755287 0.407427
O O14 0.500000 0.000000 0.500000
O O15 0.449932 0.367749 0.014302
#
# Coordination Sequence:
#
# PCOD9093927 Si02
#       7
#     2   2   2   2   2   2   2
#     4  10  20  33  62  95 120 154 194 268 316 353
#     4  10  20  39  64  90 125 153 199 268 302 364
#     4  11  27  41  60  85 128 174 206 248 297 381
#     4  10  21  34  60  96 118 152 201 257 319 356
#     4  10  23  40  59  93 122 162 209 241 312 366
#     4  10  20  33  61  95 123 149 198 263 312 355
#     4  11  23  40  59  90 124 163 205 251 318 360
#
# _framework density 26.727696000000002
#
# number of rings (size 3 to 8) (size 9 to 14) (size 15 to 20)
#    0.000    1.714    1.429    3.429    8.000    1.143 
#    0.000    0.714    0.000    1.714    0.000    0.000 
#    0.000    0.000    0.000    0.000    0.000    0.000 
#
# Total GULP energy -78218.767680 kJ/mol
# GULP energy per Si atom -5587.054834 kJ/mol
# Density = 2.666686 g / cm^3
# Si number density = 26.727696 Si / 1000 Ang^3
#
#
#
# Elastic Constant Matrix: (Units=GPa)
#
#
# Indices 1 2 3 4 5 6 
#
# 1 57.6806 3.8048 13.5848 -0.9933 -1.4378 13.9933
# 2 3.8048 210.7570 43.7955 14.9954 -12.7199 23.0632
# 3 13.5848 43.7955 165.2290 0.1230 -22.3264 -2.7456
# 4 -0.9933 14.9954 0.1230 43.7925 2.9773 -15.9193
# 5 -1.4378 -12.7199 -22.3264 2.9773 30.4647 4.7520
# 6 13.9933 23.0632 -2.7456 -15.9193 4.7520 32.0901
#
#
#
# Elastic Compliance Matrix: (Units=1/GPa)
#
#
# Indices 1 2 3 4 5 6 
#
# 1 0.021137 0.002217 -0.002134 -0.005676 0.003141 -0.014274
# 2 0.002217 0.006723 -0.001605 -0.005937 0.003788 -0.009442
# 3 -0.002134 -0.001605 0.007237 0.001192 0.003995 0.002703
# 4 -0.005676 -0.005937 0.001192 0.034582 -0.009209 0.025363
# 5 0.003141 0.003788 0.003995 -0.009209 0.040618 -0.014334
# 6 -0.014274 -0.009442 0.002703 0.025363 -0.014334 0.059109
#
#
# Mechanical properties :
#
#
# Convention : Reuss Voigt Hill
#
# Bulk Modulus (GPa) = 31.19844 61.78185 46.49014
# Shear Modulus (GPa) = 27.30263 46.10156 36.70210
#
# Velocity S-wave (km/s) = 3.19958 4.15765 3.70967
# Velocity P-wave (km/s) = 5.03465 6.79805 5.98169
#
# Compressibility (1/GPa) = 0.03205289
#
# Stress axis : x y z
#
# Youngs Moduli (GPa) = 47.31127 148.75337 138.18188
#
# Poissons Ratio (x) = -0.32983 0.29490
# Poissons Ratio (y) = -0.10490 0.22175
# Poissons Ratio (z) = 0.10097 0.23871
#
# Static dielectric constant tensor:
#      x y z
#    x 2.159190 -0.057600 0.008540 
#    y -0.057600 2.192080 -0.040670 
#    z 0.008540 -0.040670 2.069850 
# 
# From -- ./inp_files/570775.got.cif
#   From: 2010.05.17/outbox.cif.g08.bks.cpg/sg2_286_cif.got.tgz:570775.got - 2010.06.03 11:33:40.
