data_PCOD9093489
_publ_section_title
;
Structure prediction by ZEFSAII (Michael W. Deem and Ramdas Pophale) SiO2 
 PCOD9093489
Probable space group: P -1
;
_chemical_formula_sum "Si O2"
_cell_formula_units_Z 16
_cell_length_a 14.093075
_cell_length_b 9.039545
_cell_length_c 16.485961
_cell_angle_alpha 36.470443
_cell_angle_beta 34.083255
_cell_angle_gamma 49.945069
_cell_volume 697.996923
_symmetry_space_group_name_H-M "P -1"
_symmetry_group_IT_number 2
_symmetry_cell_setting 'triclinic'
loop_
_space_group_symop_operation_xyz
x,y,z
-x,-y,-z
loop_
_atom_site_type_symbol
_atom_site_label
_atom_site_fract_x
_atom_site_fract_y
_atom_site_fract_z
Si Si1 0.072619 0.739932 0.159801
Si Si2 0.517591 0.593394 0.635810
Si Si3 0.524671 0.543737 0.835759
Si Si4 0.139283 0.734066 0.296426
Si Si5 0.155362 0.753511 0.452763
Si Si6 0.380338 0.312613 0.722169
Si Si7 0.366723 0.119057 0.246652
Si Si8 0.245775 0.063625 0.782236
O O1 0.001593 0.451457 0.334489
O O2 0.913224 0.892072 0.179973
O O3 0.119244 0.833241 0.176139
O O4 0.220342 0.800324 0.962376
O O5 0.471902 0.621860 0.748876
O O6 0.678468 0.415571 0.593922
O O7 0.363570 0.458132 0.753514
O O8 0.590066 0.840188 0.427521
O O9 0.676494 0.366092 0.789370
O O10 0.617484 0.766823 0.724783
O O11 0.402053 0.359203 0.058208
O O12 0.129711 0.871340 0.329335
O O13 0.000000 0.500000 0.500000
O O14 0.204086 0.953791 0.399981
O O15 0.500000 0.500000 0.500000
O O16 0.235463 0.239856 0.792105
O O17 0.481506 0.069293 0.777971
#
# Coordination Sequence:
#
# PCOD9093489 Si02
#       8
#     2   2   2   2   2   2   2   2
#     4   9  16  27  46  71  97 127 167 211 249 289
#     4   8  16  30  48  72  98 126 166 210 252 299
#     4  10  20  33  51  77 107 135 164 208 266 314
#     4   9  17  31  51  74 100 131 170 211 250 299
#     4   8  16  30  48  72  98 126 166 210 252 299
#     4   9  17  31  51  74 100 131 170 211 250 299
#     4  10  20  33  51  77 107 135 164 208 266 314
#     4   9  16  27  46  71  97 127 167 211 249 289
#
# _framework density 22.922737000000001
#
# number of rings (size 3 to 8) (size 9 to 14) (size 15 to 20)
#    0.000    3.000    0.000    2.250    0.000    5.500 
#    0.000    5.000    0.000    0.750    0.000    0.000 
#    0.000    0.000    0.000    0.000    0.000    0.000 
#
# Total GULP energy -89132.670977 kJ/mol
# GULP energy per Si atom -5570.791936 kJ/mol
# Density = 2.287056 g / cm^3
# Si number density = 22.922737 Si / 1000 Ang^3
#
#
#
# Elastic Constant Matrix: (Units=GPa)
#
#
# Indices 1 2 3 4 5 6 
#
# 1 129.4101 34.0128 40.0703 -3.6619 19.2142 51.7250
# 2 34.0128 66.7047 34.7618 -3.9731 13.1253 34.6825
# 3 40.0703 34.7618 92.3882 -1.1485 19.3763 27.3350
# 4 -3.6619 -3.9731 -1.1485 26.1655 2.7452 7.9661
# 5 19.2142 13.1253 19.3763 2.7452 40.4096 1.3472
# 6 51.7250 34.6825 27.3350 7.9661 1.3472 51.0805
#
#
#
# Elastic Compliance Matrix: (Units=1/GPa)
#
#
# Indices 1 2 3 4 5 6 
#
# 1 0.017130 0.005906 -0.000874 0.011076 -0.009651 -0.022361
# 2 0.005906 0.031117 -0.003694 0.014835 -0.011247 -0.027149
# 3 -0.000874 -0.003694 0.015279 0.002094 -0.005688 -0.004960
# 4 0.011076 0.014835 0.002094 0.052765 -0.013664 -0.030278
# 5 -0.009651 -0.011247 -0.005688 -0.013664 0.035923 0.021637
# 6 -0.022361 -0.027149 -0.004960 -0.030278 0.021637 0.067459
#
#
# Mechanical properties :
#
#
# Convention : Reuss Voigt Hill
#
# Bulk Modulus (GPa) = 15.10504 56.24364 35.67434
# Shear Modulus (GPa) = 20.91488 35.50834 28.21161
#
# Velocity S-wave (km/s) = 3.02389 3.94006 3.51198
# Velocity P-wave (km/s) = 4.33540 6.72965 5.66056
#
# Compressibility (1/GPa) = 0.06620308
#
# Stress axis : x y z
#
# Youngs Moduli (GPa) = 58.37766 32.13651 65.44800
#
# Poissons Ratio (x) = -0.18981 0.05719
# Poissons Ratio (y) = -0.34479 0.24177
# Poissons Ratio (z) = 0.05101 0.11871
#
# Static dielectric constant tensor:
#      x y z
#    x 1.879400 0.021030 -0.024380 
#    y 0.021030 1.836110 0.036310 
#    z -0.024380 0.036310 1.892120 
# 
# From -- ./inp_files/270476.got.cif
#   From: 2010.05.17/outbox.cif.g08.bks.cpg/sg2_136_cif.got.tgz:270476.got - 2010.06.03 11:33:40.
