data_PCOD9093791
_publ_section_title
;
Structure prediction by ZEFSAII (Michael W. Deem and Ramdas Pophale) SiO2 
 PCOD9093791
Probable space group: P -1
;
_chemical_formula_sum "Si O2"
_cell_formula_units_Z 16
_cell_length_a 14.878820
_cell_length_b 9.180139
_cell_length_c 11.337935
_cell_angle_alpha 88.852431
_cell_angle_beta 60.557170
_cell_angle_gamma 48.194112
_cell_volume 885.209915
_symmetry_space_group_name_H-M "P -1"
_symmetry_group_IT_number 2
_symmetry_cell_setting 'triclinic'
loop_
_space_group_symop_operation_xyz
x,y,z
-x,-y,-z
loop_
_atom_site_type_symbol
_atom_site_label
_atom_site_fract_x
_atom_site_fract_y
_atom_site_fract_z
Si Si1 0.567207 0.565788 0.525831
Si Si2 0.927566 0.345303 0.906350
Si Si3 0.536324 0.128166 0.991981
Si Si4 0.146925 0.246868 0.104081
Si Si5 0.739123 0.917051 0.236333
Si Si6 0.432446 0.465950 0.214791
Si Si7 0.319394 0.594373 0.035912
Si Si8 0.184880 0.491668 0.755362
O O1 0.500000 0.500000 0.500000
O O2 0.629529 0.451530 0.616368
O O3 0.698697 0.513127 0.370789
O O4 0.421989 0.828836 0.642107
O O5 0.876740 0.552936 0.875903
O O6 0.845736 0.295573 0.897508
O O7 0.115674 0.150555 0.796554
O O8 0.862502 0.421087 0.080891
O O9 0.461792 0.267721 0.160133
O O10 0.445686 0.325731 0.953810
O O11 0.500000 0.000000 0.000000
O O12 0.723179 0.945484 0.884934
O O13 0.977866 0.350736 0.214474
O O14 0.214437 0.146946 0.930419
O O15 0.740592 0.749941 0.286281
O O16 0.330863 0.630155 0.165414
O O17 0.602053 0.364780 0.094181
#
# Coordination Sequence:
#
# PCOD9093791 Si02
#       8
#     2   2   2   2   2   2   2   2
#     4  12  22  36  49  76 110 145 175 204 256 320
#     4   9  16  31  56  83 100 127 174 222 261 304
#     4  10  16  29  57  83  99 124 170 225 256 295
#     4   9  15  32  53  84 101 126 177 223 256 297
#     4   9  18  34  54  74 103 137 175 217 257 300
#     4   9  20  33  49  74 104 140 169 213 250 310
#     4   9  17  32  51  77 101 134 168 215 259 296
#     4   9  20  32  55  76 109 136 165 218 268 306
#
# _framework density 18.074808999999998
#
# number of rings (size 3 to 8) (size 9 to 14) (size 15 to 20)
#    0.750    1.750    2.500    2.625    0.000    0.000 
#    2.250    1.875    0.000   11.250    0.000    0.000 
#    0.000    0.000    0.000    0.000    0.000    0.000 
#
# Total GULP energy -89075.368447 kJ/mol
# GULP energy per Si atom -5567.210528 kJ/mol
# Density = 1.803367 g / cm^3
# Si number density = 18.074809 Si / 1000 Ang^3
#
#
#
# Elastic Constant Matrix: (Units=GPa)
#
#
# Indices 1 2 3 4 5 6 
#
# 1 104.8658 6.5763 21.5885 -14.8281 -17.5178 16.3753
# 2 6.5763 34.0897 10.5369 -5.9402 -8.5978 3.1854
# 3 21.5885 10.5369 57.4985 -14.0797 -15.4785 11.4706
# 4 -14.8281 -5.9402 -14.0797 20.7736 3.5957 -4.1305
# 5 -17.5178 -8.5978 -15.4785 3.5957 26.6764 1.4952
# 6 16.3753 3.1854 11.4706 -4.1305 1.4952 27.0140
#
#
#
# Elastic Compliance Matrix: (Units=1/GPa)
#
#
# Indices 1 2 3 4 5 6 
#
# 1 0.012996 0.001496 0.000438 0.006961 0.008762 -0.007661
# 2 0.001496 0.033680 -0.001482 0.007187 0.010217 -0.003716
# 3 0.000438 -0.001482 0.026574 0.013474 0.013978 -0.010088
# 4 0.006961 0.007187 0.013474 0.062899 0.006313 -0.001521
# 5 0.008762 0.010217 0.013978 0.006313 0.054605 -0.014508
# 6 -0.007661 -0.003716 -0.010088 -0.001521 -0.014508 0.046954
#
#
# Mechanical properties :
#
#
# Convention : Reuss Voigt Hill
#
# Bulk Modulus (GPa) = 13.48553 30.42860 21.95706
# Shear Modulus (GPa) = 19.11876 25.40963 22.26419
#
# Velocity S-wave (km/s) = 3.25585 3.75347 3.51348
# Velocity P-wave (km/s) = 4.64878 5.97127 5.35104
#
# Compressibility (1/GPa) = 0.07415357
#
# Stress axis : x y z
#
# Youngs Moduli (GPa) = 76.94492 29.69097 37.63132
#
# Poissons Ratio (x) = -0.04442 -0.01647
# Poissons Ratio (y) = -0.11513 0.05578
# Poissons Ratio (z) = -0.03368 0.04401
#
# Static dielectric constant tensor:
#      x y z
#    x 1.642370 -0.013360 0.009370 
#    y -0.013360 1.666850 -0.001550 
#    z 0.009370 -0.001550 1.587090 
# 
# From -- ./inp_files/347763.got.cif
#   From: 2010.05.17/outbox.cif.g08.bks.cpg/sg2_174_cif.got.tgz:347763.got - 2010.06.03 11:33:40.
