data_PCOD9093694
_publ_section_title
;
Structure prediction by ZEFSAII (Michael W. Deem and Ramdas Pophale) SiO2 
 PCOD9093694
Probable space group: P -1
;
_chemical_formula_sum "Si O2"
_cell_formula_units_Z 16
_cell_length_a 16.299966
_cell_length_b 9.877213
_cell_length_c 6.127274
_cell_angle_alpha 98.809919
_cell_angle_beta 140.032878
_cell_angle_gamma 74.261354
_cell_volume 607.512338
_symmetry_space_group_name_H-M "P -1"
_symmetry_group_IT_number 2
_symmetry_cell_setting 'triclinic'
loop_
_space_group_symop_operation_xyz
x,y,z
-x,-y,-z
loop_
_atom_site_type_symbol
_atom_site_label
_atom_site_fract_x
_atom_site_fract_y
_atom_site_fract_z
Si Si1 0.702975 0.524319 0.397821
Si Si2 0.169638 0.342881 0.885099
Si Si3 0.828709 0.874658 0.819103
Si Si4 0.114570 0.738899 0.323838
Si Si5 0.358458 0.188102 0.909531
Si Si6 0.479615 0.611578 0.289455
Si Si7 0.595992 0.081713 0.591482
Si Si8 0.112761 0.680927 0.815214
O O1 0.852518 0.433307 0.667719
O O2 0.669372 0.658828 0.213624
O O3 0.622651 0.580977 0.464360
O O4 0.622059 0.416629 0.106263
O O5 0.298481 0.234370 0.032866
O O6 0.161216 0.508200 0.870147
O O7 0.045198 0.304108 0.497683
O O8 0.159125 0.283212 0.092540
O O9 0.734883 0.892976 0.423034
O O10 0.744011 0.992550 0.835883
O O11 0.979823 0.859856 0.071807
O O12 0.141628 0.742021 0.650214
O O13 0.160890 0.744871 0.154312
O O14 0.512594 0.120844 0.207386
O O15 0.500000 0.500000 0.500000
O O16 0.421480 0.768866 0.291508
O O17 0.500000 0.000000 0.500000
#
# Coordination Sequence:
#
# PCOD9093694 Si02
#       8
#     2   2   2   2   2   2   2   2
#     4  11  25  42  73 101 131 185 237 297 356 418
#     4  10  20  33  55  92 142 180 218 285 346 408
#     4  11  24  39  59 102 146 182 229 286 352 427
#     4  11  23  39  66 101 140 187 228 294 355 423
#     4  12  21  39  64 103 137 182 231 286 355 411
#     4  11  26  50  69  99 137 178 242 296 350 421
#     4  12  25  44  71 100 139 189 232 290 352 425
#     4  10  21  34  57  97 147 180 226 282 353 414
#
# _framework density 26.336912999999999
#
# number of rings (size 3 to 8) (size 9 to 14) (size 15 to 20)
#    0.000    1.000    5.000    1.875    3.500    2.000 
#    0.000    0.625    0.000    0.750    0.000    0.000 
#    0.000    0.000    0.000    0.000    0.000    0.000 
#
# Total GULP energy -89067.476451 kJ/mol
# GULP energy per Si atom -5566.717278 kJ/mol
# Density = 2.627697 g / cm^3
# Si number density = 26.336913 Si / 1000 Ang^3
#
#
#
# Elastic Constant Matrix: (Units=GPa)
#
#
# Indices 1 2 3 4 5 6 
#
# 1 84.0071 50.4324 16.7507 -7.6789 -8.7252 -33.5696
# 2 50.4324 150.9846 36.1846 -13.0673 5.0146 -40.4553
# 3 16.7507 36.1846 104.5674 -0.3962 -11.8132 -12.1262
# 4 -7.6789 -13.0673 -0.3962 53.1335 -22.0528 9.4793
# 5 -8.7252 5.0146 -11.8132 -22.0528 45.5370 -5.3319
# 6 -33.5696 -40.4553 -12.1262 9.4793 -5.3319 41.1173
#
#
#
# Elastic Compliance Matrix: (Units=1/GPa)
#
#
# Indices 1 2 3 4 5 6 
#
# 1 0.020262 -0.003125 0.000269 0.002685 0.007220 0.013864
# 2 -0.003125 0.010011 -0.002391 0.000257 -0.001454 0.006345
# 3 0.000269 -0.002391 0.010930 0.000827 0.003713 0.001382
# 4 0.002685 0.000257 0.000827 0.024717 0.012508 -0.001388
# 5 0.007220 -0.001454 0.003713 0.012508 0.031313 0.006736
# 6 0.013864 0.006345 0.001382 -0.001388 0.006736 0.043484
#
#
# Mechanical properties :
#
#
# Convention : Reuss Voigt Hill
#
# Bulk Modulus (GPa) = 32.56356 60.69938 46.63147
# Shear Modulus (GPa) = 30.97009 43.70366 37.33688
#
# Velocity S-wave (km/s) = 3.43289 4.07800 3.76927
# Velocity P-wave (km/s) = 5.30132 6.72835 6.05701
#
# Compressibility (1/GPa) = 0.03070918
#
# Stress axis : x y z
#
# Youngs Moduli (GPa) = 49.35441 99.89278 91.48929
#
# Poissons Ratio (x) = 0.31216 -0.02463
# Poissons Ratio (y) = 0.15423 0.21875
# Poissons Ratio (z) = -0.01329 0.23884
#
# Static dielectric constant tensor:
#      x y z
#    x 2.500550 0.021440 -0.002220 
#    y 0.021440 2.039810 0.060230 
#    z -0.002220 0.060230 2.342080 
# 
# From -- ./inp_files/109806.got.cif
#   From: 2010.05.17/outbox.cif.g08.bks.cpg/sg2_55_cif.got.tgz:109806.got - 2010.06.03 11:33:40.
