data_PCOD9093996
_publ_section_title
;
Structure prediction by ZEFSAII (Michael W. Deem and Ramdas Pophale) SiO2 
 PCOD9093996
Probable space group: P -1
;
_chemical_formula_sum "Si O2"
_cell_formula_units_Z 14
_cell_length_a 6.667117
_cell_length_b 14.089595
_cell_length_c 9.442461
_cell_angle_alpha 131.889219
_cell_angle_beta 94.651217
_cell_angle_gamma 66.840206
_cell_volume 585.362026
_symmetry_space_group_name_H-M "P -1"
_symmetry_group_IT_number 2
_symmetry_cell_setting 'triclinic'
loop_
_space_group_symop_operation_xyz
x,y,z
-x,-y,-z
loop_
_atom_site_type_symbol
_atom_site_label
_atom_site_fract_x
_atom_site_fract_y
_atom_site_fract_z
Si Si1 0.736457 0.106310 0.127497
Si Si2 0.978013 0.279692 0.316570
Si Si3 0.731517 0.809475 0.348588
Si Si4 0.924622 0.463722 0.743442
Si Si5 0.512094 0.360929 0.939612
Si Si6 0.433161 0.027953 0.226733
Si Si7 0.983713 0.283039 0.986626
O O1 0.763212 0.248187 0.301291
O O2 0.638313 0.053707 0.201366
O O3 0.584193 0.104589 0.983326
O O4 0.000000 0.000000 0.000000
O O5 0.935917 0.421820 0.539392
O O6 0.015968 0.270940 0.143273
O O7 0.211029 0.159967 0.276510
O O8 0.625689 0.943230 0.582105
O O9 0.961107 0.684815 0.309994
O O10 0.564747 0.737106 0.255158
O O11 0.811358 0.820677 0.205496
O O12 0.670662 0.568781 0.877119
O O13 0.054743 0.555160 0.882933
O O14 0.763258 0.269105 0.918937
O O15 0.500000 0.500000 0.000000
#
# Coordination Sequence:
#
# PCOD9093996 Si02
#       7
#     2   2   2   2   2   2   2
#     4   9  19  37  59  84 102 131 178 224 272 321
#     4  10  22  34  56  81 110 141 177 222 271 315
#     4  10  20  34  55  78 104 146 184 215 262 315
#     4  10  20  34  51  78 109 148 186 214 255 314
#     4  11  19  31  53  75 110 147 182 218 251 304
#     4   9  20  38  61  78 104 136 178 227 267 319
#     4  11  21  35  50  81 117 143 177 220 262 312
#
# _framework density 23.916824999999999
#
# number of rings (size 3 to 8) (size 9 to 14) (size 15 to 20)
#    0.000    2.000    2.857    1.286    2.000    4.000 
#    0.000    0.714    0.000    8.571    0.000    0.000 
#    0.000    0.000    0.000    0.000    0.000    0.000 
#
# Total GULP energy -78228.355593 kJ/mol
# GULP energy per Si atom -5587.739685 kJ/mol
# Density = 2.386239 g / cm^3
# Si number density = 23.916825 Si / 1000 Ang^3
#
#
#
# Elastic Constant Matrix: (Units=GPa)
#
#
# Indices 1 2 3 4 5 6 
#
# 1 130.6877 8.8707 46.0160 -0.9976 -0.2220 2.4465
# 2 8.8707 37.6954 18.2251 -7.7976 -7.9635 7.3363
# 3 46.0160 18.2251 148.9529 -18.8555 -4.0748 1.3017
# 4 -0.9976 -7.7976 -18.8555 39.8238 4.1591 -6.4346
# 5 -0.2220 -7.9635 -4.0748 4.1591 18.3098 -5.4729
# 6 2.4465 7.3363 1.3017 -6.4346 -5.4729 26.8665
#
#
#
# Elastic Compliance Matrix: (Units=1/GPa)
#
#
# Indices 1 2 3 4 5 6 
#
# 1 0.008693 -0.001012 -0.002747 -0.001329 -0.000909 -0.000886
# 2 -0.001012 0.032185 -0.002916 0.002836 0.011009 -0.005633
# 3 -0.002747 -0.002916 0.008360 0.003544 0.000212 0.001533
# 4 -0.001329 0.002836 0.003544 0.028483 -0.002845 0.005417
# 5 -0.000909 0.011009 0.000212 -0.002845 0.062832 0.009184
# 6 -0.000886 -0.005633 0.001533 0.005417 0.009184 0.041934
#
#
# Mechanical properties :
#
#
# Convention : Reuss Voigt Hill
#
# Bulk Modulus (GPa) = 27.86462 51.50662 39.68562
# Shear Modulus (GPa) = 24.06170 33.28163 28.67166
#
# Velocity S-wave (km/s) = 3.17528 3.73440 3.46614
# Velocity P-wave (km/s) = 5.01190 6.33852 5.71384
#
# Compressibility (1/GPa) = 0.03588781
#
# Stress axis : x y z
#
# Youngs Moduli (GPa) = 115.03982 31.07015 119.61768
#
# Poissons Ratio (x) = 0.03145 0.32859
# Poissons Ratio (y) = 0.11643 0.34880
# Poissons Ratio (z) = 0.31601 0.09060
#
# Static dielectric constant tensor:
#      x y z
#    x 1.920320 0.010930 0.013390 
#    y 0.010930 2.017760 0.001930 
#    z 0.013390 0.001930 1.930550 
# 
# From -- ./inp_files/27193.got.cif
#   From: 2010.05.17/outbox.cif.g08.bks.cpg/sg2_14_cif.got.tgz:27193.got - 2010.06.03 11:33:40.
