data_PCOD9093551
_publ_section_title
;
Structure prediction by ZEFSAII (Michael W. Deem and Ramdas Pophale) SiO2 
 PCOD9093551
Probable space group: P -1
;
_chemical_formula_sum "Si O2"
_cell_formula_units_Z 12
_cell_length_a 11.656494
_cell_length_b 12.798166
_cell_length_c 11.951799
_cell_angle_alpha 28.893817
_cell_angle_beta 36.885785
_cell_angle_gamma 35.492089
_cell_volume 475.533739
_symmetry_space_group_name_H-M "P -1"
_symmetry_group_IT_number 2
_symmetry_cell_setting 'triclinic'
loop_
_space_group_symop_operation_xyz
x,y,z
-x,-y,-z
loop_
_atom_site_type_symbol
_atom_site_label
_atom_site_fract_x
_atom_site_fract_y
_atom_site_fract_z
Si Si1 0.554305 0.501765 0.784105
Si Si2 0.797722 0.188826 0.099514
Si Si3 0.271170 0.872895 0.193039
Si Si4 0.969746 0.802411 0.634629
Si Si5 0.161392 0.246331 0.652750
Si Si6 0.698235 0.713166 0.098009
O O1 0.312777 0.658651 0.849609
O O2 0.620413 0.297396 0.833854
O O3 0.649728 0.696544 0.502506
O O4 0.667240 0.359300 0.940449
O O5 0.776531 0.943850 0.317619
O O6 0.034895 0.155030 0.924993
O O7 0.048586 0.854057 0.404608
O O8 0.457706 0.756801 0.248708
O O9 0.248617 0.137924 0.985758
O O10 0.146613 0.551838 0.760806
O O11 0.000000 0.000000 0.500000
O O12 0.757053 0.793884 0.854634
O O13 0.000000 0.500000 0.500000
#
# Coordination Sequence:
#
# PCOD9093551 Si02
#       6
#     2   2   2   2   2   2
#     4  10  20  33  53  79 104 137 177 213 257 310
#     4   9  19  36  54  75 107 138 170 217 263 303
#     4  10  20  33  53  79 104 137 177 213 257 310
#     4   9  18  35  55  73 100 138 174 213 260 307
#     4   9  18  35  55  73 100 138 174 213 260 307
#     4   9  19  36  54  75 107 138 170 217 263 303
#
# _framework density 25.234801000000001
#
# number of rings (size 3 to 8) (size 9 to 14) (size 15 to 20)
#    0.000    2.667    0.000    1.000    0.000    2.667 
#    0.000   13.333    0.000    0.000    0.000    0.000 
#    0.000    0.000    0.000    0.000    0.000    0.000 
#
# Total GULP energy -66927.069539 kJ/mol
# GULP energy per Si atom -5577.255795 kJ/mol
# Density = 2.517737 g / cm^3
# Si number density = 25.234801 Si / 1000 Ang^3
#
#
#
# Elastic Constant Matrix: (Units=GPa)
#
#
# Indices 1 2 3 4 5 6 
#
# 1 55.3814 30.1177 15.3991 1.9388 -19.4548 16.5165
# 2 30.1177 212.9572 51.3287 -19.0446 -18.2517 28.5696
# 3 15.3991 51.3287 88.6883 -18.9677 -20.0069 16.4739
# 4 1.9388 -19.0446 -18.9677 44.1253 1.6808 1.5208
# 5 -19.4548 -18.2517 -20.0069 1.6808 20.5366 -1.7998
# 6 16.5165 28.5696 16.4739 1.5208 -1.7998 35.4387
#
#
#
# Elastic Compliance Matrix: (Units=1/GPa)
#
#
# Indices 1 2 3 4 5 6 
#
# 1 0.034387 -0.001039 0.005568 -0.000376 0.035710 -0.015948
# 2 -0.001039 0.006120 -0.001762 0.001968 0.002262 -0.003600
# 3 0.005568 -0.001762 0.019287 0.006804 0.021121 -0.009359
# 4 -0.000376 0.001968 0.006804 0.026435 0.005380 -0.005435
# 5 0.035710 0.002262 0.021121 0.005380 0.102627 -0.023304
# 6 -0.015948 -0.003600 -0.009359 -0.005435 -0.023304 0.041953
#
#
# Mechanical properties :
#
#
# Convention : Reuss Voigt Hill
#
# Bulk Modulus (GPa) = 15.30724 61.19087 38.24906
# Shear Modulus (GPa) = 20.23874 37.36554 28.80214
#
# Velocity S-wave (km/s) = 2.83506 3.85218 3.38208
# Velocity P-wave (km/s) = 4.09828 6.63980 5.51737
#
# Compressibility (1/GPa) = 0.06532856
#
# Stress axis : x y z
#
# Youngs Moduli (GPa) = 29.08063 163.39307 51.84969
#
# Poissons Ratio (x) = 0.16975 -0.28870
# Poissons Ratio (y) = 0.03021 0.09135
# Poissons Ratio (z) = -0.16192 0.28786
#
# Static dielectric constant tensor:
#      x y z
#    x 2.018410 0.013860 0.087780 
#    y 0.013860 1.966660 0.105530 
#    z 0.087780 0.105530 2.156520 
# 
# From -- ./inp_files/19478.got.cif
#   From: 2010.05.17/outbox.cif.g08.bks.cpg/sg2_10_cif.got.tgz:19478.got - 2010.06.03 11:33:40.
