data_PCOD9093868
_publ_section_title
;
Structure prediction by ZEFSAII (Michael W. Deem and Ramdas Pophale) SiO2 
 PCOD9093868
Probable space group: P -1
;
_chemical_formula_sum "Si O2"
_cell_formula_units_Z 16
_cell_length_a 9.446641
_cell_length_b 9.798299
_cell_length_c 15.645819
_cell_angle_alpha 89.536431
_cell_angle_beta 39.271458
_cell_angle_gamma 101.503357
_cell_volume 866.920873
_symmetry_space_group_name_H-M "P -1"
_symmetry_group_IT_number 2
_symmetry_cell_setting 'triclinic'
loop_
_space_group_symop_operation_xyz
x,y,z
-x,-y,-z
loop_
_atom_site_type_symbol
_atom_site_label
_atom_site_fract_x
_atom_site_fract_y
_atom_site_fract_z
Si Si1 0.657260 0.875337 0.273396
Si Si2 0.972152 0.574986 0.425118
Si Si3 0.721530 0.788038 0.603513
Si Si4 0.609161 0.378209 0.480069
Si Si5 0.430825 0.846447 0.191386
Si Si6 0.314935 0.818313 0.706562
Si Si7 0.095995 0.090853 0.125580
Si Si8 0.901908 0.959893 0.674897
O O1 0.552845 0.726701 0.372493
O O2 0.557117 0.860768 0.224694
O O3 0.586338 0.006702 0.349707
O O4 0.941431 0.942735 0.150498
O O5 0.782153 0.656151 0.534205
O O6 0.861955 0.460417 0.403728
O O7 0.000000 0.500000 0.500000
O O8 0.218389 0.695659 0.286335
O O9 0.449794 0.777895 0.723490
O O10 0.868124 0.925672 0.476321
O O11 0.826304 0.821115 0.649306
O O12 0.500000 0.500000 0.500000
O O13 0.632194 0.272784 0.394622
O O14 0.303505 0.967012 0.238910
O O15 0.633851 0.863847 0.027091
O O16 0.036929 0.797165 0.842989
O O17 0.062522 0.068642 0.243018
#
# Coordination Sequence:
#
# PCOD9093868 Si02
#       8
#     2   2   2   2   2   2   2   2
#     4  10  22  37  64  87 119 157 200 251 295 355
#     4  11  24  37  62  86 124 160 196 246 306 367
#     4  10  20  35  58  90 120 152 194 255 304 345
#     4  12  23  39  61  92 124 153 200 251 304 355
#     4  11  21  41  57  89 121 161 199 240 305 362
#     4  10  22  37  60  90 117 153 202 247 302 344
#     4  10  23  35  62  88 120 158 201 251 290 355
#     4  10  20  33  59  88 121 149 194 254 301 344
#
# _framework density 18.456126999999999
#
# number of rings (size 3 to 8) (size 9 to 14) (size 15 to 20)
#    0.750    0.750    3.750    1.875    5.250    0.000 
#    0.000    0.625    0.000    1.500    0.000    0.000 
#    0.000    0.000    0.000    0.000    0.000    0.000 
#
# Total GULP energy -89185.771646 kJ/mol
# GULP energy per Si atom -5574.110728 kJ/mol
# Density = 1.841412 g / cm^3
# Si number density = 18.456127 Si / 1000 Ang^3
#
#
#
# Elastic Constant Matrix: (Units=GPa)
#
#
# Indices 1 2 3 4 5 6 
#
# 1 79.1698 21.9348 12.2322 -5.2270 -2.4645 15.2337
# 2 21.9348 62.6355 8.3546 -7.3661 10.1762 6.3142
# 3 12.2322 8.3546 55.1527 -3.1723 -13.7334 -1.6102
# 4 -5.2270 -7.3661 -3.1723 15.6621 3.8859 -2.9397
# 5 -2.4645 10.1762 -13.7334 3.8859 22.1880 8.2713
# 6 15.2337 6.3142 -1.6102 -2.9397 8.2713 25.5563
#
#
#
# Elastic Compliance Matrix: (Units=1/GPa)
#
#
# Indices 1 2 3 4 5 6 
#
# 1 0.016921 -0.006249 -0.001074 -0.001870 0.008754 -0.011658
# 2 -0.006249 0.023141 -0.006024 0.013420 -0.019421 0.005457
# 3 -0.001074 -0.006024 0.023737 -0.003679 0.019090 -0.002977
# 4 -0.001870 0.013420 -0.003679 0.078784 -0.028327 0.015798
# 5 0.008754 -0.019421 0.019090 -0.028327 0.082616 -0.029215
# 6 -0.011658 0.005457 -0.002977 0.015798 -0.029215 0.055815
#
#
# Mechanical properties :
#
#
# Convention : Reuss Voigt Hill
#
# Bulk Modulus (GPa) = 26.95142 31.33347 29.14245
# Shear Modulus (GPa) = 15.62121 22.97703 19.29912
#
# Velocity S-wave (km/s) = 2.91245 3.53222 3.23720
# Velocity P-wave (km/s) = 5.09357 5.80082 5.45866
#
# Compressibility (1/GPa) = 0.03710380
#
# Stress axis : x y z
#
# Youngs Moduli (GPa) = 59.09881 43.21391 42.12782
#
# Poissons Ratio (x) = 0.27005 0.04526
# Poissons Ratio (y) = 0.36932 0.25378
# Poissons Ratio (z) = 0.06349 0.26032
#
# Static dielectric constant tensor:
#      x y z
#    x 1.680130 0.010790 -0.034630 
#    y 0.010790 1.640470 0.016170 
#    z -0.034630 0.016170 1.621200 
# 
# From -- ./inp_files/498024.got.cif
#   From: 2010.05.17/outbox.cif.g08.bks.cpg/sg2_250_cif.got.tgz:498024.got - 2010.06.03 11:33:40.
