data_PCOD9093684
_publ_section_title
;
Structure prediction by ZEFSAII (Michael W. Deem and Ramdas Pophale) SiO2 
 PCOD9093684
Probable space group: P -1
;
_chemical_formula_sum "Si O2"
_cell_formula_units_Z 16
_cell_length_a 9.181133
_cell_length_b 11.881622
_cell_length_c 17.559144
_cell_angle_alpha 53.092680
_cell_angle_beta 145.585570
_cell_angle_gamma 113.591073
_cell_volume 846.207847
_symmetry_space_group_name_H-M "P -1"
_symmetry_group_IT_number 2
_symmetry_cell_setting 'triclinic'
loop_
_space_group_symop_operation_xyz
x,y,z
-x,-y,-z
loop_
_atom_site_type_symbol
_atom_site_label
_atom_site_fract_x
_atom_site_fract_y
_atom_site_fract_z
Si Si1 0.420684 0.542483 0.362859
Si Si2 0.738146 0.178436 0.029338
Si Si3 0.897514 0.902884 0.913334
Si Si4 0.213263 0.599418 0.557270
Si Si5 0.428556 0.878320 0.232295
Si Si6 0.814819 0.621119 0.071462
Si Si7 0.521603 0.535578 0.119872
Si Si8 0.219541 0.118201 0.744966
O O1 0.500000 0.500000 0.500000
O O2 0.590912 0.448053 0.409676
O O3 0.450639 0.708342 0.305268
O O4 0.115311 0.541042 0.220990
O O5 0.992219 0.171322 0.087742
O O6 0.792669 0.031336 0.160249
O O7 0.679056 0.323386 0.993412
O O8 0.460267 0.177998 0.865019
O O9 0.663483 0.044085 0.759084
O O10 0.812404 0.785176 0.979718
O O11 0.170296 0.943473 0.043252
O O12 0.354227 0.557647 0.716089
O O13 0.000000 0.500000 0.500000
O O14 0.047797 0.762376 0.414347
O O15 0.684001 0.910125 0.289023
O O16 0.730590 0.595090 0.132204
O O17 0.622771 0.558833 0.958239
#
# Coordination Sequence:
#
# PCOD9093684 Si02
#       8
#     2   2   2   2   2   2   2   2
#     4  11  23  35  58  89 120 151 188 241 293 341
#     4  10  20  33  58  84 114 157 191 235 287 350
#     4   9  18  33  54  83 112 143 193 236 286 338
#     4  12  21  37  59  90 121 152 194 242 293 339
#     4   9  17  32  51  80 116 146 180 234 286 338
#     4  10  23  39  60  86 112 156 199 237 291 348
#     4  11  22  40  63  82 116 157 200 240 285 353
#     4  10  20  33  55  87 118 150 190 235 290 347
#
# _framework density 18.907885
#
# number of rings (size 3 to 8) (size 9 to 14) (size 15 to 20)
#    0.000    1.750    2.500    3.000    1.750    4.000 
#    0.000    0.000    2.750    3.750    0.000    0.000 
#    0.000    0.000    0.000    0.000    0.000    0.000 
#
# Total GULP energy -89184.750881 kJ/mol
# GULP energy per Si atom -5574.046930 kJ/mol
# Density = 1.886485 g / cm^3
# Si number density = 18.907885 Si / 1000 Ang^3
#
#
#
# Elastic Constant Matrix: (Units=GPa)
#
#
# Indices 1 2 3 4 5 6 
#
# 1 159.5705 34.0051 62.7797 -23.7508 17.6610 -9.2639
# 2 34.0051 58.4178 31.3286 -19.5491 3.7420 -3.1543
# 3 62.7797 31.3286 93.3731 -26.6140 1.2894 -6.6301
# 4 -23.7508 -19.5491 -26.6140 31.9790 -8.7760 6.3189
# 5 17.6610 3.7420 1.2894 -8.7760 33.6148 -7.4166
# 6 -9.2639 -3.1543 -6.6301 6.3189 -7.4166 30.0719
#
#
#
# Elastic Compliance Matrix: (Units=1/GPa)
#
#
# Indices 1 2 3 4 5 6 
#
# 1 0.009415 -0.002306 -0.005569 -0.000361 -0.004482 0.000401
# 2 -0.002306 0.023687 -0.003530 0.010337 0.001215 -0.000876
# 3 -0.005569 -0.003530 0.018647 0.010530 0.005617 0.001198
# 4 -0.000361 0.010337 0.010530 0.049911 0.010659 -0.004564
# 5 -0.004482 0.001215 0.005617 0.010659 0.035997 0.006623
# 6 0.000401 -0.000876 0.001198 -0.004564 0.006623 0.036142
#
#
# Mechanical properties :
#
#
# Convention : Reuss Voigt Hill
#
# Bulk Modulus (GPa) = 34.55478 63.06538 48.81008
# Shear Modulus (GPa) = 24.24176 31.34967 27.79571
#
# Velocity S-wave (km/s) = 3.58452 4.07630 3.83829
# Velocity P-wave (km/s) = 5.95372 7.45529 6.74641
#
# Compressibility (1/GPa) = 0.02893956
#
# Stress axis : x y z
#
# Youngs Moduli (GPa) = 106.21568 42.21664 53.62755
#
# Poissons Ratio (x) = 0.09735 0.29865
# Poissons Ratio (y) = 0.24493 0.18930
# Poissons Ratio (z) = 0.59151 0.14902
#
# Static dielectric constant tensor:
#      x y z
#    x 1.743150 -0.038520 -0.013150 
#    y -0.038520 1.661760 -0.016200 
#    z -0.013150 -0.016200 1.666770 
# 
# From -- ./inp_files/389808.got.cif
#   From: 2010.05.17/outbox.cif.g08.bks.cpg/sg2_195_cif.got.tgz:389808.got - 2010.06.03 11:33:40.
