data_PCOD9093688
_publ_section_title
;
Structure prediction by ZEFSAII (Michael W. Deem and Ramdas Pophale) SiO2 
 PCOD9093688
Probable space group: P -1
;
_chemical_formula_sum "Si O2"
_cell_formula_units_Z 12
_cell_length_a 15.545625
_cell_length_b 11.237753
_cell_length_c 15.487346
_cell_angle_alpha 32.209560
_cell_angle_beta 160.979769
_cell_angle_gamma 146.547535
_cell_volume 460.668810
_symmetry_space_group_name_H-M "P -1"
_symmetry_group_IT_number 2
_symmetry_cell_setting 'triclinic'
loop_
_space_group_symop_operation_xyz
x,y,z
-x,-y,-z
loop_
_atom_site_type_symbol
_atom_site_label
_atom_site_fract_x
_atom_site_fract_y
_atom_site_fract_z
Si Si1 0.902691 0.246151 0.410367
Si Si2 0.334475 0.321398 0.088459
Si Si3 0.348249 0.568437 0.521466
Si Si4 0.120775 0.758311 0.423312
Si Si5 0.579183 0.877188 0.231609
Si Si6 0.738081 0.359268 0.790026
O O1 0.907008 0.128881 0.580193
O O2 0.141502 0.436928 0.477919
O O3 0.850496 0.033158 0.427643
O O4 0.673350 0.406336 0.094602
O O5 0.406416 0.289742 0.277008
O O6 0.576149 0.242371 0.315813
O O7 0.062052 0.197619 0.857885
O O8 0.427482 0.365264 0.668026
O O9 0.232648 0.684798 0.257680
O O10 0.000000 0.500000 0.500000
O O11 0.373727 0.865639 0.123187
O O12 0.500000 0.000000 0.000000
O O13 0.500000 0.500000 0.500000
O O14 0.000000 0.500000 0.000000
#
# Coordination Sequence:
#
# PCOD9093688 Si02
#       6
#     2   2   2   2   2   2
#     4  11  21  35  60  91 120 153 199 253 292 343
#     4  11  20  35  58  88 117 154 200 247 287 348
#     4  11  22  37  63  88 125 157 200 239 304 360
#     4  10  20  33  55  88 117 153 198 249 287 339
#     4  11  22  38  62  92 124 153 197 250 302 352
#     4  10  24  42  58  84 123 164 197 234 293 369
#
# _framework density 26.049083
#
# number of rings (size 3 to 8) (size 9 to 14) (size 15 to 20)
#    0.000    1.333    5.000    3.500    2.333    1.333 
#    0.000    0.000    0.000    2.000    0.000    1.167 
#    0.000    0.000    0.000    0.000    0.000    0.000 
#
# Total GULP energy -66895.175914 kJ/mol
# GULP energy per Si atom -5574.597993 kJ/mol
# Density = 2.598979 g / cm^3
# Si number density = 26.049083 Si / 1000 Ang^3
#
#
#
# Elastic Constant Matrix: (Units=GPa)
#
#
# Indices 1 2 3 4 5 6 
#
# 1 191.7707 28.5847 81.8319 7.5903 -34.2499 -13.8036
# 2 28.5847 6.5485 2.3695 19.2329 -21.7823 16.7835
# 3 81.8319 2.3695 136.7398 35.7884 -16.4188 6.9088
# 4 7.5903 19.2329 35.7884 29.5820 -4.3397 -11.5480
# 5 -34.2499 -21.7823 -16.4188 -4.3397 49.7536 15.5722
# 6 -13.8036 16.7835 6.9088 -11.5480 15.5722 28.8760
#
#
#
# Elastic Compliance Matrix: (Units=1/GPa)
#
#
# Indices 1 2 3 4 5 6 
#
# 1 0.006746 0.004568 -0.002819 -0.001443 0.006471 -0.002822
# 2 0.004568 -0.005690 -0.010330 0.022041 -0.007319 0.020724
# 3 -0.002819 -0.010330 0.009067 -0.002655 -0.004991 0.004117
# 4 -0.001443 0.022041 -0.002655 0.020367 0.013275 -0.011879
# 5 0.006471 -0.007319 -0.004991 0.013275 0.019881 0.003129
# 6 -0.002822 0.020724 0.004117 -0.011879 0.003129 0.013813
#
#
# Mechanical properties :
#
#
# Convention : Reuss Voigt Hill
#
# Bulk Modulus (GPa) = -142.07423 62.29236 -39.89093
# Shear Modulus (GPa) = 63.29122 36.46051 49.87586
#
# Velocity S-wave (km/s) = 4.93454 3.74529 4.38046
# Velocity P-wave (km/s) = 4.71096 6.53210 3.19962
#
# Compressibility (1/GPa) = -0.00703857
#
# Stress axis : x y z
#
# Youngs Moduli (GPa) = 148.22719 -175.74291 110.29055
#
# Poissons Ratio (x) = 0.80283 0.31094
# Poissons Ratio (y) = -0.67713 1.13928
# Poissons Ratio (z) = 0.41790 -1.81539
#
# Static dielectric constant tensor:
#      x y z
#    x 2.418850 0.112890 -0.187950 
#    y 0.112890 2.198500 -0.174930 
#    z -0.187950 -0.174930 2.227600 
# 
# From -- ./inp_files/531679.got.cif
#   From: 2010.05.17/outbox.cif.g08.bks.cpg/sg2_266_cif.got.tgz:531679.got - 2010.06.03 11:33:40.
