data_PCOD9093846
_publ_section_title
;
Structure prediction by ZEFSAII (Michael W. Deem and Ramdas Pophale) SiO2 
 PCOD9093846
Probable space group: P -1
;
_chemical_formula_sum "Si O2"
_cell_formula_units_Z 14
_cell_length_a 15.499180
_cell_length_b 8.375394
_cell_length_c 10.015404
_cell_angle_alpha 60.488125
_cell_angle_beta 34.396180
_cell_angle_gamma 81.996396
_cell_volume 536.479382
_symmetry_space_group_name_H-M "P -1"
_symmetry_group_IT_number 2
_symmetry_cell_setting 'triclinic'
loop_
_space_group_symop_operation_xyz
x,y,z
-x,-y,-z
loop_
_atom_site_type_symbol
_atom_site_label
_atom_site_fract_x
_atom_site_fract_y
_atom_site_fract_z
Si Si1 0.548469 0.062932 0.587292
Si Si2 0.375531 0.646426 0.389950
Si Si3 0.044340 0.118327 0.251089
Si Si4 0.644008 0.507319 0.166831
Si Si5 0.206681 0.897716 0.965936
Si Si6 0.118990 0.260385 0.707189
Si Si7 0.677007 0.761086 0.770688
O O1 0.615049 0.171631 0.601943
O O2 0.559983 0.257543 0.404114
O O3 0.685053 0.025868 0.345184
O O4 0.336448 0.874707 0.914560
O O5 0.497181 0.574751 0.344332
O O6 0.188446 0.430515 0.670179
O O7 0.496089 0.742921 0.060719
O O8 0.178086 0.367978 0.017950
O O9 0.000000 0.000000 0.500000
O O10 0.849156 0.006574 0.478022
O O11 0.159184 0.052878 0.041122
O O12 0.701253 0.601572 0.904840
O O13 0.008068 0.706415 0.245909
O O14 0.295817 0.300391 0.385507
O O15 0.000000 0.000000 0.000000
#
# Coordination Sequence:
#
# PCOD9093846 Si02
#       7
#     2   2   2   2   2   2   2
#     4  11  20  35  56  86 115 147 180 235 286 329
#     4  10  20  33  59  80 114 146 188 226 273 340
#     4   9  15  32  53  79 107 137 185 230 269 320
#     4   9  18  30  59  86 105 141 191 227 273 329
#     4  10  22  35  53  84 117 145 185 231 285 328
#     4  11  22  36  56  83 111 148 192 233 273 331
#     4   8  19  32  55  85 109 140 186 235 275 318
#
# _framework density 26.096060999999999
#
# number of rings (size 3 to 8) (size 9 to 14) (size 15 to 20)
#    0.857    1.429    1.429    1.714    4.000    0.571 
#    0.000    6.429    0.000    0.857    0.000    0.000 
#    0.000    0.000    0.000    0.000    0.000    0.000 
#
# Total GULP energy -78054.322685 kJ/mol
# GULP energy per Si atom -5575.308763 kJ/mol
# Density = 2.603667 g / cm^3
# Si number density = 26.096061 Si / 1000 Ang^3
#
#
#
# Elastic Constant Matrix: (Units=GPa)
#
#
# Indices 1 2 3 4 5 6 
#
# 1 87.7087 58.8273 20.5075 -5.1717 -6.1898 11.3395
# 2 58.8273 120.8630 50.3525 10.3736 -3.7334 46.9195
# 3 20.5075 50.3525 105.9942 9.0293 -9.6095 9.5870
# 4 -5.1717 10.3736 9.0293 47.2391 10.7777 -0.0311
# 5 -6.1898 -3.7334 -9.6095 10.7777 34.9801 -7.5402
# 6 11.3395 46.9195 9.5870 -0.0311 -7.5402 51.1749
#
#
#
# Elastic Compliance Matrix: (Units=1/GPa)
#
#
# Indices 1 2 3 4 5 6 
#
# 1 0.019672 -0.013982 0.001992 0.004141 0.003102 0.008547
# 2 -0.013982 0.026738 -0.008168 -0.004750 -0.004842 -0.020603
# 3 0.001992 -0.008168 0.013004 -0.001536 0.004668 0.005298
# 4 0.004141 -0.004750 -0.001536 0.024603 -0.007199 0.002679
# 5 0.003102 -0.004842 0.004668 -0.007199 0.033813 0.007855
# 6 0.008547 -0.020603 0.005298 0.002679 0.007855 0.036703
#
#
# Mechanical properties :
#
#
# Convention : Reuss Voigt Hill
#
# Bulk Modulus (GPa) = 52.36210 63.77116 58.06663
# Shear Modulus (GPa) = 24.84893 39.00406 31.92649
#
# Velocity S-wave (km/s) = 3.08914 3.87024 3.50154
# Velocity P-wave (km/s) = 5.72996 6.66797 6.21668
#
# Compressibility (1/GPa) = 0.01909778
#
# Stress axis : x y z
#
# Youngs Moduli (GPa) = 50.83419 37.39963 76.89937
#
# Poissons Ratio (x) = 0.52293 -0.15315
# Poissons Ratio (y) = 0.71077 0.62808
# Poissons Ratio (z) = -0.10124 0.30546
#
# Static dielectric constant tensor:
#      x y z
#    x 2.189540 -0.001630 0.014710 
#    y -0.001630 2.034130 0.007740 
#    z 0.014710 0.007740 2.156410 
# 
# From -- ./inp_files/468898.got.cif
#   From: 2010.05.17/outbox.cif.g08.bks.cpg/sg2_235_cif.got.tgz:468898.got - 2010.06.03 11:33:40.
