data_PCOD9093233
_publ_section_title
;
Structure prediction by ZEFSAII (Michael W. Deem and Ramdas Pophale) SiO2 
 PCOD9093233
Probable space group: P -1
;
_chemical_formula_sum "Si O2"
_cell_formula_units_Z 16
_cell_length_a 8.492986
_cell_length_b 29.218051
_cell_length_c 9.652941
_cell_angle_alpha 139.015484
_cell_angle_beta 31.572992
_cell_angle_gamma 139.808753
_cell_volume 770.025066
_symmetry_space_group_name_H-M "P -1"
_symmetry_group_IT_number 2
_symmetry_cell_setting 'triclinic'
loop_
_space_group_symop_operation_xyz
x,y,z
-x,-y,-z
loop_
_atom_site_type_symbol
_atom_site_label
_atom_site_fract_x
_atom_site_fract_y
_atom_site_fract_z
Si Si1 0.897350 0.460267 0.336641
Si Si2 0.736796 0.083114 0.987320
Si Si3 0.653255 0.631171 0.286729
Si Si4 0.360942 0.297173 0.971918
Si Si5 0.019012 0.802593 0.448909
Si Si6 0.118680 0.615004 0.411869
Si Si7 0.724434 0.822889 0.005201
Si Si8 0.202689 0.155102 0.569106
O O1 0.553908 0.398219 0.485738
O O2 0.000000 0.500000 0.500000
O O3 0.917261 0.526940 0.370017
O O4 0.153098 0.422740 0.017838
O O5 0.524691 0.135495 0.288662
O O6 0.028688 0.110989 0.940204
O O7 0.909719 0.096256 0.738439
O O8 0.500000 0.000000 0.000000
O O9 0.402876 0.628777 0.345009
O O10 0.897609 0.714492 0.308250
O O11 0.366353 0.251409 0.001702
O O12 0.104753 0.338291 0.272719
O O13 0.700984 0.355634 0.800389
O O14 0.259031 0.233171 0.783677
O O15 0.887405 0.812679 0.719120
O O16 0.882087 0.838656 0.511460
O O17 0.400210 0.836192 0.243655
#
# Coordination Sequence:
#
# PCOD9093233 Si02
#       8
#     2   2   2   2   2   2   2   2
#     4  10  20  32  51  87 124 157 206 268 316 366
#     4  11  24  47  71  95 129 167 203 247 303 374
#     4  11  21  34  56  86 126 160 202 260 331 353
#     4  11  21  37  62  88 122 161 215 263 307 360
#     4  12  24  40  64  94 133 162 206 264 312 366
#     4  11  19  33  60  87 118 157 219 267 308 358
#     4  11  25  41  62  94 129 164 204 254 317 373
#     4  11  23  40  69  98 124 163 215 252 300 366
#
# _framework density 20.778545000000001
#
# number of rings (size 3 to 8) (size 9 to 14) (size 15 to 20)
#    0.000    1.000    1.250    9.375    1.750    0.000 
#    0.000    3.750    0.000   15.000    0.000    0.000 
#    0.000    0.000    0.000    0.000    0.000    0.000 
#
# Total GULP energy -89517.300419 kJ/mol
# GULP energy per Si atom -5594.831276 kJ/mol
# Density = 2.073125 g / cm^3
# Si number density = 20.778545 Si / 1000 Ang^3
#
#
#
# Elastic Constant Matrix: (Units=GPa)
#
#
# Indices 1 2 3 4 5 6 
#
# 1 61.9276 16.4410 31.5922 -12.1614 9.2924 -4.0933
# 2 16.4410 72.1192 -2.8612 -25.9176 9.2379 1.4282
# 3 31.5922 -2.8612 121.8928 -31.3844 -0.6332 -7.3391
# 4 -12.1614 -25.9176 -31.3844 41.2485 -10.4390 8.9326
# 5 9.2924 9.2379 -0.6332 -10.4390 40.5055 -18.1073
# 6 -4.0933 1.4282 -7.3391 8.9326 -18.1073 22.1155
#
#
#
# Elastic Compliance Matrix: (Units=1/GPa)
#
#
# Indices 1 2 3 4 5 6 
#
# 1 0.020968 -0.005665 -0.006493 -0.003423 -0.004651 -0.000333
# 2 -0.005665 0.022933 0.006153 0.018866 -0.004096 -0.011461
# 3 -0.006493 0.006153 0.013462 0.013021 0.004075 0.000946
# 4 -0.003423 0.018866 0.013021 0.048927 0.002468 -0.015272
# 5 -0.004651 -0.004096 0.004075 0.002468 0.043031 0.034991
# 6 -0.000333 -0.011461 0.000946 -0.015272 0.034991 0.081027
#
#
# Mechanical properties :
#
#
# Convention : Reuss Voigt Hill
#
# Bulk Modulus (GPa) = 22.04968 38.47594 30.26281
# Shear Modulus (GPa) = 19.41923 34.82508 27.12215
#
# Velocity S-wave (km/s) = 3.06041 4.09835 3.61681
# Velocity P-wave (km/s) = 4.80863 6.39943 5.66019
#
# Compressibility (1/GPa) = 0.04535214
#
# Stress axis : x y z
#
# Youngs Moduli (GPa) = 47.69166 43.60496 74.28394
#
# Poissons Ratio (x) = 0.24704 0.48232
# Poissons Ratio (y) = 0.27019 -0.45706
# Poissons Ratio (z) = 0.30966 -0.26830
#
# Static dielectric constant tensor:
#      x y z
#    x 1.736630 -0.008690 0.012780 
#    y -0.008690 1.775050 -0.018470 
#    z 0.012780 -0.018470 1.703570 
# 
# From -- ./inp_files/227995.got.cif
#   From: 2010.05.17/outbox.cif.g08.bks.cpg/sg2_114_cif.got.tgz:227995.got - 2010.06.03 11:33:40.
