data_PCOD9093035
_publ_section_title
;
Structure prediction by ZEFSAII (Michael W. Deem and Ramdas Pophale) SiO2 
 PCOD9093035
Probable space group: P -1
;
_chemical_formula_sum "Si O2"
_cell_formula_units_Z 16
_cell_length_a 10.174098
_cell_length_b 19.013076
_cell_length_c 5.120918
_cell_angle_alpha 108.131787
_cell_angle_beta 81.753248
_cell_angle_gamma 73.202859
_cell_volume 871.085719
_symmetry_space_group_name_H-M "P -1"
_symmetry_group_IT_number 2
_symmetry_cell_setting 'triclinic'
loop_
_space_group_symop_operation_xyz
x,y,z
-x,-y,-z
loop_
_atom_site_type_symbol
_atom_site_label
_atom_site_fract_x
_atom_site_fract_y
_atom_site_fract_z
Si Si1 0.461460 0.172758 0.807370
Si Si2 0.316439 0.677561 0.479291
Si Si3 0.057143 0.072579 0.543042
Si Si4 0.358944 0.900913 0.835380
Si Si5 0.598097 0.495050 0.716022
Si Si6 0.656116 0.954260 0.286231
Si Si7 0.905841 0.153498 0.181108
Si Si8 0.513768 0.667425 0.912489
O O1 0.526789 0.149448 0.472217
O O2 0.342858 0.134129 0.853469
O O3 0.585698 0.130077 0.930877
O O4 0.420408 0.265252 0.980041
O O5 0.290624 0.594259 0.415190
O O6 0.176917 0.754426 0.633986
O O7 0.427372 0.679465 0.678658
O O8 0.395783 0.678587 0.185481
O O9 0.218910 0.045623 0.558251
O O10 0.024378 0.110688 0.311376
O O11 0.000000 0.000000 0.500000
O O12 0.969075 0.136950 0.855529
O O13 0.213207 0.887110 0.808618
O O14 0.338471 0.992204 0.900295
O O15 0.500000 0.500000 0.500000
O O16 0.625297 0.577421 0.795820
O O17 0.500000 0.500000 0.000000
O O18 0.500000 0.000000 0.500000
#
# Coordination Sequence:
#
# PCOD9093035 Si02
#       8
#     2   2   2   2   2   2   2   2
#     4  11  20  34  53  80 106 140 180 215 266 320
#     4  10  18  31  49  77 108 139 174 212 269 318
#     4  12  26  40  56  79 106 141 184 227 268 315
#     4  11  21  35  55  78 104 142 178 218 266 317
#     4   8  16  26  44  73 108 138 165 211 262 316
#     4  10  25  40  57  76 107 142 182 225 269 316
#     4  12  22  36  59  76 108 142 180 219 272 319
#     4  10  16  29  50  77 109 138 173 215 266 313
#
# _framework density 18.367882000000002
#
# number of rings (size 3 to 8) (size 9 to 14) (size 15 to 20)
#    0.000    1.500    3.750    2.250    1.750    2.000 
#    0.000    0.000    0.000    0.000    0.000    1.750 
#    0.000    0.000    0.000    0.000    0.000    0.000 
#
# Total GULP energy -89309.711478 kJ/mol
# GULP energy per Si atom -5581.856967 kJ/mol
# Density = 1.832608 g / cm^3
# Si number density = 18.367882 Si / 1000 Ang^3
#
#
#
# Elastic Constant Matrix: (Units=GPa)
#
#
# Indices 1 2 3 4 5 6 
#
# 1 65.4532 28.9183 -3.7679 16.7229 7.3959 4.7691
# 2 28.9183 118.1513 13.5458 30.8139 5.5834 15.8269
# 3 -3.7679 13.5458 69.0090 4.1412 4.1018 -0.6065
# 4 16.7229 30.8139 4.1412 36.9485 -3.7629 10.5935
# 5 7.3959 5.5834 4.1018 -3.7629 19.6940 3.4411
# 6 4.7691 15.8269 -0.6065 10.5935 3.4411 23.2738
#
#
#
# Elastic Compliance Matrix: (Units=1/GPa)
#
#
# Indices 1 2 3 4 5 6 
#
# 1 0.019775 -0.002867 0.002762 -0.008800 -0.009460 0.003373
# 2 -0.002867 0.012032 -0.001922 -0.007738 -0.002764 -0.003714
# 3 0.002762 -0.001922 0.015497 -0.002764 -0.004792 0.003112
# 4 -0.008800 -0.007738 -0.002764 0.044035 0.017213 -0.015595
# 5 -0.009460 -0.002764 -0.004792 0.017213 0.061718 -0.013267
# 6 0.003373 -0.003714 0.003112 -0.015595 -0.013267 0.053942
#
#
# Mechanical properties :
#
#
# Convention : Reuss Voigt Hill
#
# Bulk Modulus (GPa) = 23.12091 36.66730 29.89410
# Shear Modulus (GPa) = 22.17603 30.24441 26.21022
#
# Velocity S-wave (km/s) = 3.47843 4.06222 3.78161
# Velocity P-wave (km/s) = 5.36168 6.48138 5.94794
#
# Compressibility (1/GPa) = 0.04325090
#
# Stress axis : x y z
#
# Youngs Moduli (GPa) = 50.56890 83.11229 64.52828
#
# Poissons Ratio (x) = 0.23825 -0.17825
# Poissons Ratio (y) = 0.14496 0.12404
# Poissons Ratio (z) = -0.13969 0.15977
#
# Static dielectric constant tensor:
#      x y z
#    x 1.606190 0.019450 0.010200 
#    y 0.019450 1.692220 0.032830 
#    z 0.010200 0.032830 1.669190 
# 
# From -- ./inp_files/48591.got.cif
#   From: 2010.05.17/outbox.cif.g08.bks.cpg/sg2_25_cif.got.tgz:48591.got - 2010.06.03 11:33:40.
