data_PCOD9093968
_publ_section_title
;
Structure prediction by ZEFSAII (Michael W. Deem and Ramdas Pophale) SiO2 
 PCOD9093968
Probable space group: P -1
;
_chemical_formula_sum "Si O2"
_cell_formula_units_Z 16
_cell_length_a 12.546763
_cell_length_b 15.650659
_cell_length_c 10.701408
_cell_angle_alpha 65.716348
_cell_angle_beta 156.640197
_cell_angle_gamma 114.561250
_cell_volume 755.248686
_symmetry_space_group_name_H-M "P -1"
_symmetry_group_IT_number 2
_symmetry_cell_setting 'triclinic'
loop_
_space_group_symop_operation_xyz
x,y,z
-x,-y,-z
loop_
_atom_site_type_symbol
_atom_site_label
_atom_site_fract_x
_atom_site_fract_y
_atom_site_fract_z
Si Si1 0.573527 0.420307 0.224480
Si Si2 0.847348 0.712803 0.703943
Si Si3 0.639478 0.171997 0.903995
Si Si4 0.294171 0.860002 0.709123
Si Si5 0.143072 0.419085 0.438053
Si Si6 0.965876 0.678475 0.354080
Si Si7 0.144345 0.021084 0.777117
Si Si8 0.218676 0.473049 0.149299
O O1 0.657835 0.483923 0.397028
O O2 0.837792 0.381753 0.475643
O O3 0.500000 0.500000 0.000000
O O4 0.326815 0.338376 0.017980
O O5 0.659064 0.797365 0.453160
O O6 0.816814 0.640108 0.829877
O O7 0.773647 0.650837 0.536908
O O8 0.156017 0.750926 0.990767
O O9 0.709362 0.169926 0.129217
O O10 0.709498 0.072280 0.984780
O O11 0.145957 0.776794 0.516228
O O12 0.107205 0.945572 0.438490
O O13 0.609827 0.894940 0.006065
O O14 0.109320 0.362937 0.564354
O O15 0.855700 0.459333 0.081499
O O16 0.000000 0.000000 0.500000
O O17 0.500000 0.500000 0.500000
O O18 0.000000 0.500000 0.000000
#
# Coordination Sequence:
#
# PCOD9093968 Si02
#       8
#     2   2   2   2   2   2   2   2
#     4  10  22  34  50  73 101 133 181 219 243 296
#     4  11  21  32  52  74 100 137 179 200 245 307
#     4  11  20  32  50  72 102 133 170 204 247 307
#     4  11  20  32  52  70 106 134 170 205 252 307
#     4  10  21  37  52  70 108 143 171 214 261 279
#     4  11  22  34  52  77  99 138 182 204 249 307
#     4  10  20  34  47  74 101 136 166 204 254 310
#     4  10  22  35  49  74 100 134 180 216 246 300
#
# _framework density 21.185075000000001
#
# number of rings (size 3 to 8) (size 9 to 14) (size 15 to 20)
#    0.000    1.500    1.250    7.500    3.500    5.000 
#    0.000    0.000    0.000    0.000    0.000    0.000 
#    0.000   20.000    0.000    0.000    0.000    0.000 
#
# Total GULP energy -89238.507358 kJ/mol
# GULP energy per Si atom -5577.406710 kJ/mol
# Density = 2.113686 g / cm^3
# Si number density = 21.185075 Si / 1000 Ang^3
#
#
#
# Elastic Constant Matrix: (Units=GPa)
#
#
# Indices 1 2 3 4 5 6 
#
# 1 26.5415 -5.5545 3.5425 1.3417 12.0753 -2.8834
# 2 -5.5545 59.1078 4.3492 8.4152 -7.5704 -3.4089
# 3 3.5425 4.3492 82.6573 9.0278 24.0695 -2.7004
# 4 1.3417 8.4152 9.0278 52.1511 2.5221 11.1755
# 5 12.0753 -7.5704 24.0695 2.5221 29.0501 1.0478
# 6 -2.8834 -3.4089 -2.7004 11.1755 1.0478 27.7831
#
#
#
# Elastic Compliance Matrix: (Units=1/GPa)
#
#
# Indices 1 2 3 4 5 6 
#
# 1 0.049660 0.001994 0.005586 -0.003110 -0.024774 0.008126
# 2 0.001994 0.018815 -0.002365 -0.003741 0.006230 0.003556
# 3 0.005586 -0.002365 0.017438 -0.002747 -0.017283 0.003741
# 4 -0.003110 -0.003741 -0.002747 0.022454 0.001009 -0.010119
# 5 -0.024774 0.006230 -0.017283 0.001009 0.060800 -0.006185
# 6 0.008126 0.003556 0.003741 -0.010119 -0.006185 0.041940
#
#
# Mechanical properties :
#
#
# Convention : Reuss Voigt Hill
#
# Bulk Modulus (GPa) = 10.37957 19.22014 14.79985
# Shear Modulus (GPa) = 21.47848 32.86149 27.16998
#
# Velocity S-wave (km/s) = 3.18755 3.94275 3.58509
# Velocity P-wave (km/s) = 4.29621 5.46070 4.91308
#
# Compressibility (1/GPa) = 0.09634314
#
# Stress axis : x y z
#
# Youngs Moduli (GPa) = 20.13705 53.14822 57.34556
#
# Poissons Ratio (x) = -0.10598 -0.32033
# Poissons Ratio (y) = -0.04015 0.13562
# Poissons Ratio (z) = -0.11249 0.12569
#
# Static dielectric constant tensor:
#      x y z
#    x 1.808850 0.016990 -0.026130 
#    y 0.016990 1.843100 0.029180 
#    z -0.026130 0.029180 1.824370 
# 
# From -- ./inp_files/454794.got.cif
#   From: 2010.05.17/outbox.cif.g08.bks.cpg/sg2_228_cif.got.tgz:454794.got - 2010.06.03 11:33:40.
