data_PCOD9093251
_publ_section_title
;
Structure prediction by ZEFSAII (Michael W. Deem and Ramdas Pophale) SiO2 
 PCOD9093251
Probable space group: P -1
;
_chemical_formula_sum "Si O2"
_cell_formula_units_Z 12
_cell_length_a 15.354006
_cell_length_b 17.828447
_cell_length_c 15.382490
_cell_angle_alpha 164.089581
_cell_angle_beta 34.972814
_cell_angle_gamma 146.054150
_cell_volume 638.109036
_symmetry_space_group_name_H-M "P -1"
_symmetry_group_IT_number 2
_symmetry_cell_setting 'triclinic'
loop_
_space_group_symop_operation_xyz
x,y,z
-x,-y,-z
loop_
_atom_site_type_symbol
_atom_site_label
_atom_site_fract_x
_atom_site_fract_y
_atom_site_fract_z
Si Si1 0.369492 0.718947 0.121344
Si Si2 0.273388 0.268808 0.121279
Si Si3 0.079141 0.653213 0.191936
Si Si4 0.606779 0.815534 0.249293
Si Si5 0.912718 0.297419 0.268243
Si Si6 0.913064 0.713519 0.065554
O O1 0.267958 0.678192 0.070523
O O2 0.340328 0.001930 0.504496
O O3 0.550755 0.719598 0.975687
O O4 0.270260 0.460924 0.973966
O O5 0.226935 0.563480 0.492920
O O6 0.269038 0.192465 0.936588
O O7 0.155023 0.016416 0.988152
O O8 0.057187 0.965952 0.569174
O O9 0.016443 0.465047 0.119626
O O10 0.000000 0.500000 0.000000
O O11 0.500000 0.000000 0.500000
O O12 0.500000 0.500000 0.000000
O O13 0.000000 0.500000 0.500000
O O14 0.022346 0.300487 0.098983
#
# Coordination Sequence:
#
# PCOD9093251 Si02
#       6
#     2   2   2   2   2   2
#     4   9  23  36  65  88 120 156 215 259 299 342
#     4  11  23  37  59  87 126 165 203 244 294 363
#     4  10  22  40  69  92 116 154 214 270 312 349
#     4  10  20  32  52  85 122 155 194 243 291 343
#     4  12  25  39  58  88 133 171 196 232 308 383
#     4  10  23  39  64  89 125 157 209 249 313 364
#
# _framework density 18.805565000000001
#
# number of rings (size 3 to 8) (size 9 to 14) (size 15 to 20)
#    1.000    0.667    0.000    5.000    9.333    0.000 
#    0.000    0.000    0.000    6.000    0.000    0.000 
#    0.000    0.000    0.000    0.000    0.000    0.000 
#
# Total GULP energy -66911.558742 kJ/mol
# GULP energy per Si atom -5575.963228 kJ/mol
# Density = 1.876276 g / cm^3
# Si number density = 18.805565 Si / 1000 Ang^3
#
#
#
# Elastic Constant Matrix: (Units=GPa)
#
#
# Indices 1 2 3 4 5 6 
#
# 1 93.1877 20.0850 24.1469 10.0290 22.4106 3.3925
# 2 20.0850 105.2583 29.4047 18.2829 8.7782 -18.5619
# 3 24.1469 29.4047 91.6693 29.0062 5.4013 -6.0801
# 4 10.0290 18.2829 29.0062 32.7368 -5.7916 -11.0702
# 5 22.4106 8.7782 5.4013 -5.7916 35.9059 5.5124
# 6 3.3925 -18.5619 -6.0801 -11.0702 5.5124 25.9631
#
#
#
# Elastic Compliance Matrix: (Units=1/GPa)
#
#
# Indices 1 2 3 4 5 6 
#
# 1 0.014103 -0.001316 -0.001441 -0.004979 -0.008540 -0.003431
# 2 -0.001316 0.012557 -0.002101 -0.002572 -0.003626 0.008330
# 3 -0.001441 -0.002101 0.016558 -0.014607 -0.002968 -0.003034
# 4 -0.004979 -0.002572 -0.014607 0.053956 0.012211 0.015804
# 5 -0.008540 -0.003626 -0.002968 0.012211 0.037231 -0.004870
# 6 -0.003431 0.008330 -0.003034 0.015804 -0.004870 0.051982
#
#
# Mechanical properties :
#
#
# Convention : Reuss Voigt Hill
#
# Bulk Modulus (GPa) = 29.85064 48.59874 39.22469
# Shear Modulus (GPa) = 24.12300 33.35307 28.73803
#
# Velocity S-wave (km/s) = 3.58545 4.21595 3.91342
# Velocity P-wave (km/s) = 5.74877 7.04257 6.42830
#
# Compressibility (1/GPa) = 0.03350012
#
# Stress axis : x y z
#
# Youngs Moduli (GPa) = 70.90776 79.63823 60.39336
#
# Poissons Ratio (x) = 0.10484 0.08706
# Poissons Ratio (y) = 0.09334 0.12688
# Poissons Ratio (z) = 0.10221 0.16731
#
# Static dielectric constant tensor:
#      x y z
#    x 1.701480 -0.001720 -0.019500 
#    y -0.001720 1.647620 0.000270 
#    z -0.019500 0.000270 1.670330 
# 
# From -- ./inp_files/455337.got.cif
#   From: 2010.05.17/outbox.cif.g08.bks.cpg/sg2_228_cif.got.tgz:455337.got - 2010.06.03 11:33:40.
