data_PCOD9093160
_publ_section_title
;
Structure prediction by ZEFSAII (Michael W. Deem and Ramdas Pophale) SiO2 
 PCOD9093160
Probable space group: P -1
;
_chemical_formula_sum "Si O2"
_cell_formula_units_Z 16
_cell_length_a 7.248954
_cell_length_b 7.518631
_cell_length_c 14.162441
_cell_angle_alpha 116.359188
_cell_angle_beta 105.027507
_cell_angle_gamma 97.720676
_cell_volume 639.621250
_symmetry_space_group_name_H-M "P -1"
_symmetry_group_IT_number 2
_symmetry_cell_setting 'triclinic'
loop_
_space_group_symop_operation_xyz
x,y,z
-x,-y,-z
loop_
_atom_site_type_symbol
_atom_site_label
_atom_site_fract_x
_atom_site_fract_y
_atom_site_fract_z
Si Si1 0.293737 0.671415 0.783321
Si Si2 0.681002 0.735019 0.417296
Si Si3 0.767299 0.537835 0.564370
Si Si4 0.010200 0.070686 0.159499
Si Si5 0.785847 0.176526 0.372357
Si Si6 0.717033 0.748000 0.932471
Si Si7 0.738572 0.399994 0.729611
Si Si8 0.048651 0.928738 0.336403
O O1 0.253466 0.437044 0.679047
O O2 0.996699 0.665744 0.595065
O O3 0.355836 0.811579 0.729726
O O4 0.481391 0.716797 0.888379
O O5 0.642216 0.613114 0.485580
O O6 0.479393 0.760422 0.352135
O O7 0.826594 0.944540 0.529509
O O8 0.739467 0.294554 0.483559
O O9 0.744426 0.552299 0.676494
O O10 0.099753 0.032517 0.263764
O O11 0.882245 0.241019 0.178559
O O12 0.170568 0.108037 0.105931
O O13 0.834954 0.856896 0.064538
O O14 0.830445 0.957627 0.333599
O O15 0.744869 0.526487 0.855601
O O16 0.907469 0.287853 0.716948
#
# Coordination Sequence:
#
# PCOD9093160 Si02
#       8
#     2   2   2   2   2   2   2   2
#     4   9  17  33  58  81 101 128 173 223 259 299
#     4   9  18  32  50  76 103 135 171 206 259 313
#     4   9  16  29  49  71 100 135 176 215 249 300
#     4  10  21  38  56  76 105 136 174 227 262 296
#     4   8  16  30  48  71 100 137 169 207 261 305
#     4  10  21  35  57  81  97 135 188 216 254 307
#     4  11  20  30  49  78 107 137 174 212 256 317
#     4  10  20  32  48  73 110 144 164 205 271 315
#
# _framework density 25.014802
#
# number of rings (size 3 to 8) (size 9 to 14) (size 15 to 20)
#    0.000    2.500    0.000    4.125    0.000    4.500 
#    0.000    0.000    0.000   12.000    0.000   18.375 
#    0.000    0.000    0.000    0.000    0.000    0.000 
#
# Total GULP energy -89206.662154 kJ/mol
# GULP energy per Si atom -5575.416385 kJ/mol
# Density = 2.495787 g / cm^3
# Si number density = 25.014802 Si / 1000 Ang^3
#
#
#
# Elastic Constant Matrix: (Units=GPa)
#
#
# Indices 1 2 3 4 5 6 
#
# 1 71.6507 3.2775 0.8245 -0.8705 3.4095 -9.6991
# 2 3.2775 101.3363 14.0073 11.5470 0.6465 -27.0554
# 3 0.8245 14.0073 74.1067 14.3994 5.8769 -9.0077
# 4 -0.8705 11.5470 14.3994 25.4294 -0.7404 -7.8677
# 5 3.4095 0.6465 5.8769 -0.7404 27.1655 -1.6103
# 6 -9.6991 -27.0554 -9.0077 -7.8677 -1.6103 33.9152
#
#
#
# Elastic Compliance Matrix: (Units=1/GPa)
#
#
# Indices 1 2 3 4 5 6 
#
# 1 0.014707 0.000690 0.000127 0.001651 -0.001543 0.005100
# 2 0.000690 0.012804 -0.000825 -0.002324 0.000297 0.009667
# 3 0.000127 -0.000825 0.015692 -0.008149 -0.003525 0.001489
# 4 0.001651 -0.002324 -0.008149 0.047511 0.003359 0.007635
# 5 -0.001543 0.000297 -0.003525 0.003359 0.037937 0.001440
# 6 0.005100 0.009667 0.001489 0.007635 0.001440 0.040891
#
#
# Mechanical properties :
#
#
# Convention : Reuss Voigt Hill
#
# Bulk Modulus (GPa) = 23.15402 31.47916 27.31659
# Shear Modulus (GPa) = 27.18082 32.56766 29.87424
#
# Velocity S-wave (km/s) = 3.29992 3.61215 3.45956
# Velocity P-wave (km/s) = 4.87807 5.47799 5.18671
#
# Compressibility (1/GPa) = 0.04318905
#
# Stress axis : x y z
#
# Youngs Moduli (GPa) = 67.99287 78.10215 63.72502
#
# Poissons Ratio (x) = -0.05390 -0.00812
# Poissons Ratio (y) = -0.04692 0.05256
# Poissons Ratio (z) = -0.00866 0.06441
#
# Static dielectric constant tensor:
#      x y z
#    x 2.116100 0.096860 0.073120 
#    y 0.096860 2.127280 0.059650 
#    z 0.073120 0.059650 2.064360 
# 
# From -- ./inp_files/556625.got.cif
#   From: 2010.05.17/outbox.cif.g08.bks.cpg/sg2_279_cif.got.tgz:556625.got - 2010.06.03 11:33:40.
