data_PCOD9093126
_publ_section_title
;
Structure prediction by ZEFSAII (Michael W. Deem and Ramdas Pophale) SiO2 
 PCOD9093126
Probable space group: P -1
;
_chemical_formula_sum "Si O2"
_cell_formula_units_Z 16
_cell_length_a 8.403456
_cell_length_b 23.535163
_cell_length_c 11.005389
_cell_angle_alpha 153.044431
_cell_angle_beta 125.634792
_cell_angle_gamma 49.999506
_cell_volume 755.524455
_symmetry_space_group_name_H-M "P -1"
_symmetry_group_IT_number 2
_symmetry_cell_setting 'triclinic'
loop_
_space_group_symop_operation_xyz
x,y,z
-x,-y,-z
loop_
_atom_site_type_symbol
_atom_site_label
_atom_site_fract_x
_atom_site_fract_y
_atom_site_fract_z
Si Si1 0.665512 0.219439 0.894360
Si Si2 0.048634 0.655847 0.616829
Si Si3 0.242194 0.376704 0.135049
Si Si4 0.042109 0.928617 0.071212
Si Si5 0.316345 0.377012 0.454373
Si Si6 0.173642 0.617561 0.160284
Si Si7 0.744948 0.164580 0.259077
Si Si8 0.530822 0.384801 0.931582
O O1 0.458577 0.278622 0.995173
O O2 0.588908 0.251918 0.784673
O O3 0.806789 0.312083 0.155330
O O4 0.817811 0.085007 0.770049
O O5 0.969080 0.798960 0.791045
O O6 0.869611 0.614615 0.521329
O O7 0.199309 0.530788 0.372053
O O8 0.247976 0.376892 0.284079
O O9 0.046064 0.347577 0.936305
O O10 0.190436 0.906812 0.977806
O O11 0.850480 0.059976 0.212101
O O12 0.500236 0.238373 0.294409
O O13 0.401219 0.497816 0.751031
O O14 0.160675 0.716334 0.453865
O O15 0.285031 0.461996 0.947917
O O16 0.339046 0.642762 0.187149
#
# Coordination Sequence:
#
# PCOD9093126 Si02
#       8
#     2   2   2   2   2   2   2   2
#     4  10  21  35  58  83 113 147 193 232 268 330
#     4  10  20  31  58  86 109 138 190 234 266 328
#     4  12  20  34  57  92 112 147 182 230 295 331
#     4   9  21  40  60  81 108 152 200 229 265 323
#     4  11  18  34  63  83 112 151 186 230 275 338
#     4  10  23  35  56  85 120 147 175 229 298 337
#     4  10  21  41  61  77 115 153 190 230 278 329
#     4  10  20  38  54  86 119 148 177 229 292 339
#
# _framework density 21.177343
#
# number of rings (size 3 to 8) (size 9 to 14) (size 15 to 20)
#    0.750    1.000    3.750    1.500    3.500    1.000 
#    0.000    1.250    0.000    0.000    0.000    0.000 
#    0.000    0.000    0.000    0.000    0.000    0.000 
#
# Total GULP energy -89128.197935 kJ/mol
# GULP energy per Si atom -5570.512371 kJ/mol
# Density = 2.112914 g / cm^3
# Si number density = 21.177343 Si / 1000 Ang^3
#
#
#
# Elastic Constant Matrix: (Units=GPa)
#
#
# Indices 1 2 3 4 5 6 
#
# 1 88.3046 1.1050 -31.3820 -13.2562 24.2688 -32.3804
# 2 1.1050 195.5014 31.4021 27.2814 -16.5355 20.6009
# 3 -31.3820 31.4021 24.5083 9.2453 -15.9435 11.5408
# 4 -13.2562 27.2814 9.2453 41.6012 -7.3481 11.5027
# 5 24.2688 -16.5355 -15.9435 -7.3481 27.4485 -19.3640
# 6 -32.3804 20.6009 11.5408 11.5027 -19.3640 55.5820
#
#
#
# Elastic Compliance Matrix: (Units=1/GPa)
#
#
# Indices 1 2 3 4 5 6 
#
# 1 0.034128 -0.009992 0.051767 0.002889 0.004352 0.013755
# 2 -0.009992 0.009728 -0.023996 -0.003501 -0.003718 -0.005015
# 3 0.051767 -0.023996 0.158424 -0.000893 0.047771 0.022985
# 4 0.002889 -0.003501 -0.000893 0.028246 0.000649 -0.002454
# 5 0.004352 -0.003718 0.047771 0.000649 0.071509 0.018773
# 6 0.013755 -0.005015 0.022985 -0.002454 0.018773 0.030139
#
#
# Mechanical properties :
#
#
# Convention : Reuss Voigt Hill
#
# Bulk Modulus (GPa) = 4.20456 34.50718 19.35587
# Shear Modulus (GPa) = 13.30153 45.40564 29.35358
#
# Velocity S-wave (km/s) = 2.50892 4.63543 3.72705
# Velocity P-wave (km/s) = 3.22220 6.70667 5.26127
#
# Compressibility (1/GPa) = 0.23783698
#
# Stress axis : x y z
#
# Youngs Moduli (GPa) = 29.30141 102.79177 6.31219
#
# Poissons Ratio (x) = 1.02713 -0.32676
# Poissons Ratio (y) = 0.29279 0.15147
# Poissons Ratio (z) = -1.51684 2.46660
#
# Static dielectric constant tensor:
#      x y z
#    x 1.750220 0.033760 0.000430 
#    y 0.033760 1.835190 -0.017560 
#    z 0.000430 -0.017560 1.757700 
# 
# From -- ./inp_files/218658.got.cif
#   From: 2010.05.17/outbox.cif.g08.bks.cpg/sg2_110_cif.got.tgz:218658.got - 2010.06.03 11:33:40.
