data_PCOD9093380
_publ_section_title
;
Structure prediction by ZEFSAII (Michael W. Deem and Ramdas Pophale) SiO2 
 PCOD9093380
Probable space group: P -1
;
_chemical_formula_sum "Si O2"
_cell_formula_units_Z 16
_cell_length_a 14.339096
_cell_length_b 9.244139
_cell_length_c 8.724709
_cell_angle_alpha 71.270963
_cell_angle_beta 89.438303
_cell_angle_gamma 130.022904
_cell_volume 800.554261
_symmetry_space_group_name_H-M "P -1"
_symmetry_group_IT_number 2
_symmetry_cell_setting 'triclinic'
loop_
_space_group_symop_operation_xyz
x,y,z
-x,-y,-z
loop_
_atom_site_type_symbol
_atom_site_label
_atom_site_fract_x
_atom_site_fract_y
_atom_site_fract_z
Si Si1 0.527555 0.295058 0.688956
Si Si2 0.166787 0.263293 0.030370
Si Si3 0.001012 0.209591 0.776631
Si Si4 0.404690 0.337222 0.923532
Si Si5 0.608908 0.103765 0.336973
Si Si6 0.757287 0.397574 0.493914
Si Si7 0.664846 0.307967 0.967877
Si Si8 0.239782 0.853708 0.159355
O O1 0.479426 0.393254 0.742576
O O2 0.651540 0.407373 0.540297
O O3 0.570478 0.243073 0.854314
O O4 0.411897 0.086377 0.670084
O O5 0.231990 0.444230 0.093139
O O6 0.078566 0.253093 0.914584
O O7 0.286286 0.320734 0.919133
O O8 0.082171 0.032870 0.180230
O O9 0.103702 0.373256 0.592717
O O10 0.899875 0.229582 0.802894
O O11 0.500000 0.500000 0.000000
O O12 0.338396 0.104234 0.057714
O O13 0.732266 0.294680 0.362524
O O14 0.500000 0.000000 0.500000
O O15 0.591884 0.200738 0.164005
O O16 0.743828 0.241408 0.664387
O O17 0.737008 0.232287 0.954388
#
# Coordination Sequence:
#
# PCOD9093380 Si02
#       8
#     2   2   2   2   2   2   2   2
#     4  10  21  35  59  91 124 156 199 244 301 373
#     4  10  22  37  64  87 117 167 197 252 303 348
#     4  10  21  43  59  85 125 158 211 244 304 359
#     4  11  21  37  63  90 124 155 205 245 302 367
#     4  10  20  32  58  90 125 154 190 247 308 354
#     4  10  21  38  63  89 126 158 197 256 310 348
#     4  11  19  37  61  93 117 158 209 245 303 355
#     4  10  23  37  66  90 116 163 208 253 294 357
#
# _framework density 19.986151
#
# number of rings (size 3 to 8) (size 9 to 14) (size 15 to 20)
#    0.000    1.750    3.750    0.750    3.500    0.500 
#    0.000    3.125    2.750    0.000    0.000    0.000 
#    0.000    0.000    0.000    0.000    0.000    0.000 
#
# Total GULP energy -89205.472236 kJ/mol
# GULP energy per Si atom -5575.342015 kJ/mol
# Density = 1.994066 g / cm^3
# Si number density = 19.986151 Si / 1000 Ang^3
#
#
#
# Elastic Constant Matrix: (Units=GPa)
#
#
# Indices 1 2 3 4 5 6 
#
# 1 89.4565 42.2913 10.2591 -0.6910 -22.6548 2.0368
# 2 42.2913 122.6731 34.2059 3.8444 -23.5503 -7.2899
# 3 10.2591 34.2059 63.1730 2.6719 -14.2753 1.7665
# 4 -0.6910 3.8444 2.6719 32.4024 3.3510 -3.4804
# 5 -22.6548 -23.5503 -14.2753 3.3510 29.0616 -0.0641
# 6 2.0368 -7.2899 1.7665 -3.4804 -0.0641 23.8777
#
#
#
# Elastic Compliance Matrix: (Units=1/GPa)
#
#
# Indices 1 2 3 4 5 6 
#
# 1 0.015440 -0.004175 0.002059 -0.000654 0.009734 -0.002813
# 2 -0.004175 0.012078 -0.004981 -0.001090 0.004221 0.004265
# 3 0.002059 -0.004981 0.020122 -0.002195 0.007698 -0.003484
# 4 -0.000654 -0.001090 -0.002195 0.032289 -0.006184 0.004575
# 5 0.009734 0.004221 0.007698 -0.006184 0.049911 -0.000879
# 6 -0.002813 0.004265 -0.003484 0.004575 -0.000879 0.044344
#
#
# Mechanical properties :
#
#
# Convention : Reuss Voigt Hill
#
# Bulk Modulus (GPa) = 29.89889 49.86835 39.88362
# Shear Modulus (GPa) = 25.05917 29.63808 27.34862
#
# Velocity S-wave (km/s) = 3.54478 3.85506 3.70317
# Velocity P-wave (km/s) = 5.63438 6.69485 6.18737
#
# Compressibility (1/GPa) = 0.03344606
#
# Stress axis : x y z
#
# Youngs Moduli (GPa) = 64.76502 82.79521 49.69669
#
# Poissons Ratio (x) = 0.34569 -0.10233
# Poissons Ratio (y) = 0.27041 0.24754
# Poissons Ratio (z) = -0.13336 0.41241
#
# Static dielectric constant tensor:
#      x y z
#    x 1.724070 -0.015520 -0.010500 
#    y -0.015520 1.745150 -0.008400 
#    z -0.010500 -0.008400 1.739440 
# 
# From -- ./inp_files/175318.got.cif
#   From: 2010.05.17/outbox.cif.g08.bks.cpg/sg2_88_cif.got.tgz:175318.got - 2010.06.03 11:33:40.
