data_PCOD9093072
_publ_section_title
;
Structure prediction by ZEFSAII (Michael W. Deem and Ramdas Pophale) SiO2 
 PCOD9093072
Probable space group: P -1
;
_chemical_formula_sum "Si O2"
_cell_formula_units_Z 15
_cell_length_a 14.831495
_cell_length_b 5.882228
_cell_length_c 15.113539
_cell_angle_alpha 72.340070
_cell_angle_beta 153.986762
_cell_angle_gamma 115.455843
_cell_volume 510.570654
_symmetry_space_group_name_H-M "P -1"
_symmetry_group_IT_number 2
_symmetry_cell_setting 'triclinic'
loop_
_space_group_symop_operation_xyz
x,y,z
-x,-y,-z
loop_
_atom_site_type_symbol
_atom_site_label
_atom_site_fract_x
_atom_site_fract_y
_atom_site_fract_z
Si Si1 0.690105 0.028701 0.821047
Si Si2 0.938005 0.587744 0.595110
Si Si3 0.000000 0.000000 0.000000
Si Si4 0.554359 0.758915 0.922939
Si Si5 0.537578 0.476648 0.379991
Si Si6 0.755009 0.910201 0.625522
Si Si7 0.435849 0.729534 0.093644
Si Si8 0.981042 0.126853 0.610312
O O1 0.651368 0.911143 0.898246
O O2 0.686180 0.781135 0.782262
O O3 0.932505 0.199382 0.987414
O O4 0.486143 0.073662 0.596116
O O5 0.732113 0.445793 0.495346
O O6 0.918209 0.381023 0.524567
O O7 0.922028 0.866394 0.531341
O O8 0.178858 0.649792 0.846022
O O9 0.890555 0.081024 0.803903
O O10 0.472385 0.462059 0.855012
O O11 0.453688 0.958351 0.853799
O O12 0.756101 0.773945 0.161650
O O13 0.664963 0.602302 0.565163
O O14 0.454557 0.657559 0.221762
O O15 0.884969 0.013496 0.635738
#
# Coordination Sequence:
#
# PCOD9093072 Si02
#       8
#     2   2   1   2   2   2   2   2
#     4  11  21  36  48  57  70  79  96 104 118 128
#     4   9  17  27  45  67  74  85  93 109 118 129
#     4  12  26  38  46  56  68  84  90 110 116 130
#     4   9  16  30  47  59  74  83  94 104 119 127
#     4  10  20  31  52  60  68  82  98 104 118 130
#     4  11  21  36  48  57  70  79  96 104 118 128
#     4   9  17  27  45  67  74  85  93 109 118 129
#     4   9  16  30  47  59  74  83  94 104 119 127
#
# _framework density 29.378895
#
# number of rings (size 3 to 8) (size 9 to 14) (size 15 to 20)
#    0.000    2.133    4.000    0.400    0.000    0.533 
#    0.000    1.333    0.000    0.000    0.000    0.000 
#    0.000    0.000    0.000    0.000    0.000    0.000 
#
# Total GULP energy -83505.334800 kJ/mol
# GULP energy per Si atom -5567.022320 kJ/mol
# Density = 2.931203 g / cm^3
# Si number density = 29.378895 Si / 1000 Ang^3
#
#
#
# Elastic Constant Matrix: (Units=GPa)
#
#
# Indices 1 2 3 4 5 6 
#
# 1 230.6870 -48.4507 41.4229 10.0596 4.6527 -35.1675
# 2 -48.4507 308.0303 46.3298 -17.9036 -20.9441 -21.9772
# 3 41.4229 46.3298 127.1406 10.7543 39.1995 -23.8093
# 4 10.0596 -17.9036 10.7543 69.4445 -17.6637 -4.9849
# 5 4.6527 -20.9441 39.1995 -17.6637 -64.7276 -37.4272
# 6 -35.1675 -21.9772 -23.8093 -4.9849 -37.4272 53.6678
#
#
#
# Elastic Compliance Matrix: (Units=1/GPa)
#
#
# Indices 1 2 3 4 5 6 
#
# 1 0.005105 0.000967 -0.001074 -0.000591 -0.001633 0.002071
# 2 0.000967 0.003459 -0.000957 0.000431 -0.001931 0.000319
# 3 -0.001074 -0.000957 0.008593 -0.000365 0.002840 0.004663
# 4 -0.000591 0.000431 -0.000365 0.013706 -0.003324 -0.001417
# 5 -0.001633 -0.001931 0.002840 -0.003324 -0.008401 -0.006769
# 6 0.002071 0.000319 0.004663 -0.001417 -0.006769 0.017337
#
#
# Mechanical properties :
#
#
# Convention : Reuss Voigt Hill
#
# Bulk Modulus (GPa) = 66.54092 82.71799 74.62945
# Shear Modulus (GPa) = 106.52587 53.44733 79.98660
#
# Velocity S-wave (km/s) = 6.02810 4.26989 5.22350
# Velocity P-wave (km/s) = 8.43499 7.24748 7.86368
#
# Compressibility (1/GPa) = 0.01502835
#
# Stress axis : x y z
#
# Youngs Moduli (GPa) = 195.87372 289.10353 116.38015
#
# Poissons Ratio (x) = -0.27957 0.12504
# Poissons Ratio (y) = -0.18942 0.11136
# Poissons Ratio (z) = 0.21045 0.27662
#
# Static dielectric constant tensor:
#      x y z
#    x 4.199250 0.606370 3.233410 
#    y 0.606370 2.833320 1.183180 
#    z 3.233410 1.183180 7.853690 
# 
# From -- ./inp_files/120289.got.cif
#   From: 2010.05.17/outbox.cif.g08.bks.cpg/sg2_61_cif.got.tgz:120289.got - 2010.06.03 11:33:40.
