data_PCOD9093616
_publ_section_title
;
Structure prediction by ZEFSAII (Michael W. Deem and Ramdas Pophale) SiO2 
 PCOD9093616
Probable space group: P -1
;
_chemical_formula_sum "Si O2"
_cell_formula_units_Z 12
_cell_length_a 7.601526
_cell_length_b 12.829276
_cell_length_c 7.835299
_cell_angle_alpha 61.169538
_cell_angle_beta 75.504710
_cell_angle_gamma 46.062125
_cell_volume 477.708651
_symmetry_space_group_name_H-M "P -1"
_symmetry_group_IT_number 2
_symmetry_cell_setting 'triclinic'
loop_
_space_group_symop_operation_xyz
x,y,z
-x,-y,-z
loop_
_atom_site_type_symbol
_atom_site_label
_atom_site_fract_x
_atom_site_fract_y
_atom_site_fract_z
Si Si1 0.722499 0.968662 0.628192
Si Si2 0.915773 0.434873 0.796649
Si Si3 0.788387 0.287639 0.446963
Si Si4 0.669209 0.593149 0.365148
Si Si5 0.573723 0.774400 0.774721
Si Si6 0.158281 0.796002 0.876405
O O1 0.651754 0.864710 0.768430
O O2 0.923059 0.869898 0.502679
O O3 0.884000 0.952008 0.754889
O O4 0.508415 0.140907 0.462391
O O5 0.794961 0.513560 0.580682
O O6 0.783754 0.583074 0.844845
O O7 0.202919 0.345736 0.785344
O O8 0.868614 0.317798 0.936708
O O9 0.752286 0.443810 0.351173
O O10 0.619118 0.297179 0.617162
O O11 0.712233 0.288517 0.271952
O O12 0.341360 0.813253 0.891551
#
# Coordination Sequence:
#
# PCOD9093616 Si02
#       6
#     2   2   2   2   2   2
#     4   9  21  36  58  85 110 147 191 230 271 330
#     4  11  20  35  57  90 109 144 187 236 280 325
#     4   9  19  36  54  84 108 152 185 225 276 331
#     4  10  20  33  54  83 121 146 175 230 291 337
#     4  11  19  35  59  86 112 144 189 234 274 327
#     4  10  21  36  58  90 108 142 196 233 270 319
#
# _framework density 25.119914999999999
#
# number of rings (size 3 to 8) (size 9 to 14) (size 15 to 20)
#    1.000    1.000    3.333    1.000    0.000    2.667 
#    3.000    0.000    0.000   10.000    4.333    0.000 
#    0.000    0.000    0.000    0.000    0.000    0.000 
#
# Total GULP energy -67031.202627 kJ/mol
# GULP energy per Si atom -5585.933552 kJ/mol
# Density = 2.506274 g / cm^3
# Si number density = 25.119915 Si / 1000 Ang^3
#
#
#
# Elastic Constant Matrix: (Units=GPa)
#
#
# Indices 1 2 3 4 5 6 
#
# 1 145.0373 7.9129 35.3383 -5.4361 -52.5696 -0.9475
# 2 7.9129 35.4702 11.7010 -16.8270 -1.0291 6.2695
# 3 35.3383 11.7010 101.5341 -18.3060 -32.5752 -3.6222
# 4 -5.4361 -16.8270 -18.3060 15.5175 7.2168 -2.4404
# 5 -52.5696 -1.0291 -32.5752 7.2168 51.8973 -4.0729
# 6 -0.9475 6.2695 -3.6222 -2.4404 -4.0729 31.4062
#
#
#
# Elastic Compliance Matrix: (Units=1/GPa)
#
#
# Indices 1 2 3 4 5 6 
#
# 1 0.011841 -0.007486 -0.000940 -0.010693 0.012946 0.002591
# 2 -0.007486 0.069118 0.004245 0.083271 -0.015843 -0.009118
# 3 -0.000940 0.004245 0.015443 0.020083 0.006290 0.003281
# 4 -0.010693 0.083271 0.020083 0.184649 -0.022503 -0.003200
# 5 0.012946 -0.015843 0.006290 -0.022503 0.039748 0.007685
# 6 0.002591 -0.009118 0.003281 -0.003200 0.007685 0.034866
#
#
# Mechanical properties :
#
#
# Convention : Reuss Voigt Hill
#
# Bulk Modulus (GPa) = 11.35865 43.54956 27.45411
# Shear Modulus (GPa) = 12.71056 34.90349 23.80703
#
# Velocity S-wave (km/s) = 2.25187 3.73161 3.08187
# Velocity P-wave (km/s) = 3.36048 5.99507 4.85972
#
# Compressibility (1/GPa) = 0.08803860
#
# Stress axis : x y z
#
# Youngs Moduli (GPa) = 84.45420 14.46803 64.75529
#
# Poissons Ratio (x) = 0.10831 0.06089
# Poissons Ratio (y) = 0.63224 -0.27490
# Poissons Ratio (z) = 0.07942 -0.06142
#
# Static dielectric constant tensor:
#      x y z
#    x 2.100220 -0.017570 0.036930 
#    y -0.017570 1.952870 -0.002650 
#    z 0.036930 -0.002650 1.986720 
# 
# From -- ./inp_files/159941.got.cif
#   From: 2010.05.17/outbox.cif.g08.bks.cpg/sg2_80_cif.got.tgz:159941.got - 2010.06.03 11:33:40.
