data_PCOD9093394
_publ_section_title
;
Structure prediction by ZEFSAII (Michael W. Deem and Ramdas Pophale) SiO2 
 PCOD9093394
Probable space group: P -1
;
_chemical_formula_sum "Si O2"
_cell_formula_units_Z 12
_cell_length_a 9.140803
_cell_length_b 17.438163
_cell_length_c 12.042144
_cell_angle_alpha 37.082101
_cell_angle_beta 143.487854
_cell_angle_gamma 114.081623
_cell_volume 523.374306
_symmetry_space_group_name_H-M "P -1"
_symmetry_group_IT_number 2
_symmetry_cell_setting 'triclinic'
loop_
_space_group_symop_operation_xyz
x,y,z
-x,-y,-z
loop_
_atom_site_type_symbol
_atom_site_label
_atom_site_fract_x
_atom_site_fract_y
_atom_site_fract_z
Si Si1 0.964371 0.832948 0.792467
Si Si2 0.025845 0.303320 0.837256
Si Si3 0.022512 0.093508 0.529993
Si Si4 0.736382 0.981935 0.847033
Si Si5 0.224323 0.211745 0.695732
Si Si6 0.237945 0.498587 0.781432
O O1 0.085631 0.817297 0.759181
O O2 0.638516 0.859037 0.554670
O O3 0.150733 0.695849 0.162041
O O4 0.857029 0.014814 0.548250
O O5 0.273133 0.335929 0.975756
O O6 0.819406 0.426879 0.464107
O O7 0.198947 0.121762 0.102486
O O8 0.016377 0.212694 0.472632
O O9 0.400678 0.918438 0.960359
O O10 0.795905 0.873243 0.113969
O O11 0.000000 0.000000 0.000000
O O12 0.071827 0.387976 0.453819
O O13 0.500000 0.500000 0.000000
#
# Coordination Sequence:
#
# PCOD9093394 Si02
#       6
#     2   2   2   2   2   2
#     4  10  20  34  59  87 119 150 195 241 301 345
#     4  10  22  38  57  89 118 154 199 240 296 352
#     4   9  19  37  59  86 116 156 189 248 286 347
#     4  10  20  32  59  93 117 148 190 255 307 342
#     4   9  19  37  57  82 116 153 201 234 293 348
#     4  10  23  40  60  84 119 161 195 244 295 348
#
# _framework density 22.928141
#
# number of rings (size 3 to 8) (size 9 to 14) (size 15 to 20)
#    0.000    2.333    0.000    1.500    7.000    0.000 
#    3.000    1.667    0.000    0.000    0.000    0.000 
#    0.000    0.000    0.000    0.000    0.000    0.000 
#
# Total GULP energy -66839.677923 kJ/mol
# GULP energy per Si atom -5569.973160 kJ/mol
# Density = 2.287596 g / cm^3
# Si number density = 22.928141 Si / 1000 Ang^3
#
#
#
# Elastic Constant Matrix: (Units=GPa)
#
#
# Indices 1 2 3 4 5 6 
#
# 1 90.4191 33.4937 34.4420 10.1752 -36.3980 -0.8246
# 2 33.4937 130.1123 29.2320 20.5295 -10.2922 -0.7974
# 3 34.4420 29.2320 32.0037 12.4425 -15.7881 1.1097
# 4 10.1752 20.5295 12.4425 30.0261 -4.8727 6.2185
# 5 -36.3980 -10.2922 -15.7881 -4.8727 49.2499 8.9952
# 6 -0.8246 -0.7974 1.1097 6.2185 8.9952 38.4082
#
#
#
# Elastic Compliance Matrix: (Units=1/GPa)
#
#
# Indices 1 2 3 4 5 6 
#
# 1 0.023015 -0.001235 -0.019285 0.003315 0.011291 -0.002155
# 2 -0.001235 0.010156 -0.007294 -0.004103 -0.001805 0.001482
# 3 -0.019285 -0.007294 0.066738 -0.015221 0.004301 -0.001037
# 4 0.003315 -0.004103 -0.015221 0.043131 0.002276 -0.007090
# 5 0.011291 -0.001805 0.004301 0.002276 0.031266 -0.007610
# 6 -0.002155 0.001482 -0.001037 -0.007090 -0.007610 0.028981
#
#
# Mechanical properties :
#
#
# Convention : Reuss Voigt Hill
#
# Bulk Modulus (GPa) = 22.58293 49.65227 36.11760
# Shear Modulus (GPa) = 18.26978 33.89467 26.08222
#
# Velocity S-wave (km/s) = 2.82588 3.84904 3.37644
# Velocity P-wave (km/s) = 4.52971 6.43864 5.56661
#
# Compressibility (1/GPa) = 0.04428123
#
# Stress axis : x y z
#
# Youngs Moduli (GPa) = 43.44908 98.46421 14.98392
#
# Poissons Ratio (x) = 0.12162 0.28896
# Poissons Ratio (y) = 0.05367 0.10929
# Poissons Ratio (z) = 0.83791 0.71821
#
# Static dielectric constant tensor:
#      x y z
#    x 1.894310 0.007020 0.072780 
#    y 0.007020 1.407730 -0.312810 
#    z 0.072780 -0.312810 1.844410 
# 
# From -- ./inp_files/171633.got.cif
#   From: 2010.05.17/outbox.cif.g08.bks.cpg/sg2_86_cif.got.tgz:171633.got - 2010.06.03 11:33:40.
