data_PCOD9093236
_publ_section_title
;
Structure prediction by ZEFSAII (Michael W. Deem and Ramdas Pophale) SiO2 
 PCOD9093236
Probable space group: P -1
;
_chemical_formula_sum "Si O2"
_cell_formula_units_Z 16
_cell_length_a 11.871034
_cell_length_b 19.317440
_cell_length_c 13.675769
_cell_angle_alpha 49.533323
_cell_angle_beta 158.982851
_cell_angle_gamma 131.108337
_cell_volume 840.220045
_symmetry_space_group_name_H-M "P -1"
_symmetry_group_IT_number 2
_symmetry_cell_setting 'triclinic'
loop_
_space_group_symop_operation_xyz
x,y,z
-x,-y,-z
loop_
_atom_site_type_symbol
_atom_site_label
_atom_site_fract_x
_atom_site_fract_y
_atom_site_fract_z
Si Si1 0.866679 0.405498 0.863744
Si Si2 0.829487 0.148786 0.559078
Si Si3 0.483842 0.473845 0.657337
Si Si4 0.464083 0.848018 0.463073
Si Si5 0.482722 0.606285 0.869598
Si Si6 0.261694 0.033059 0.096440
Si Si7 0.808202 0.653716 0.287210
Si Si8 0.986601 0.736282 0.029120
O O1 0.610760 0.409628 0.738029
O O2 0.794103 0.480198 0.656635
O O3 0.854435 0.308214 0.890645
O O4 0.217697 0.443343 0.156162
O O5 0.673462 0.150878 0.539173
O O6 0.531843 0.117633 0.275200
O O7 0.056487 0.248124 0.642137
O O8 0.050211 0.070692 0.808945
O O9 0.377698 0.417613 0.720232
O O10 0.236782 0.771572 0.284588
O O11 0.433370 0.946005 0.300461
O O12 0.806076 0.818734 0.776273
O O13 0.124659 0.616345 0.545228
O O14 0.500000 0.500000 0.000000
O O15 0.595728 0.659617 0.013771
O O16 0.717708 0.654677 0.931570
O O17 0.000000 0.000000 0.000000
#
# Coordination Sequence:
#
# PCOD9093236 Si02
#       8
#     2   2   2   2   2   2   2   2
#     4  10  22  38  58  75 104 139 185 227 255 297
#     4  11  19  34  49  77 107 140 174 214 255 320
#     4  10  21  40  56  77 101 140 187 225 256 296
#     4  11  20  33  50  76 109 138 173 214 255 323
#     4  12  23  34  49  75 114 144 170 204 266 327
#     4  10  20  32  52  72 105 146 173 206 264 310
#     4  12  22  35  54  78 107 141 176 217 261 310
#     4  12  20  34  51  79 107 140 173 214 263 309
#
# _framework density 19.042629999999999
#
# number of rings (size 3 to 8) (size 9 to 14) (size 15 to 20)
#    0.000    1.000    2.500    7.875    0.000    0.000 
#    0.000    0.000    0.000    0.000    0.000    5.250 
#    0.000    0.000    0.000    0.000    0.000    0.000 
#
# Total GULP energy -89408.160915 kJ/mol
# GULP energy per Si atom -5588.010057 kJ/mol
# Density = 1.899929 g / cm^3
# Si number density = 19.042630 Si / 1000 Ang^3
#
#
#
# Elastic Constant Matrix: (Units=GPa)
#
#
# Indices 1 2 3 4 5 6 
#
# 1 30.7981 -4.7537 11.1011 -1.0976 1.2279 -18.6684
# 2 -4.7537 52.4776 -1.7633 -0.4911 5.0157 -9.6973
# 3 11.1011 -1.7633 67.6654 4.2863 -14.5960 -9.4382
# 4 -1.0976 -0.4911 4.2863 26.8106 -0.2244 0.0489
# 5 1.2279 5.0157 -14.5960 -0.2244 11.4631 -1.4307
# 6 -18.6684 -9.6973 -9.4382 0.0489 -1.4307 20.6392
#
#
#
# Elastic Compliance Matrix: (Units=1/GPa)
#
#
# Indices 1 2 3 4 5 6 
#
# 1 0.102366 0.029867 -0.006155 0.005376 -0.018974 0.102482
# 2 0.029867 0.030335 -0.001636 0.001854 -0.013580 0.039574
# 3 -0.006155 -0.001636 0.024021 -0.003861 0.032751 0.006929
# 4 0.005376 0.001854 -0.003861 0.038121 -0.005117 0.003523
# 5 -0.018974 -0.013580 0.032751 -0.005117 0.136929 0.000938
# 6 0.102482 0.039574 0.006929 0.003523 0.000938 0.162967
#
#
# Mechanical properties :
#
#
# Convention : Reuss Voigt Hill
#
# Bulk Modulus (GPa) = 4.97823 17.78991 11.38407
# Shear Modulus (GPa) = 9.66102 21.53973 15.60037
#
# Velocity S-wave (km/s) = 2.25486 3.36688 2.86533
# Velocity P-wave (km/s) = 3.06580 4.94742 4.11558
#
# Compressibility (1/GPa) = 0.20087467
#
# Stress axis : x y z
#
# Youngs Moduli (GPa) = 9.76887 32.96575 41.62978
#
# Poissons Ratio (x) = -0.98460 0.25621
# Poissons Ratio (y) = -0.29177 0.06812
# Poissons Ratio (z) = 0.06012 0.05395
#
# Static dielectric constant tensor:
#      x y z
#    x 1.631210 -0.022600 -0.009430 
#    y -0.022600 1.705710 -0.018340 
#    z -0.009430 -0.018340 1.662130 
# 
# From -- ./inp_files/80567.got.cif
#   From: 2010.05.17/outbox.cif.g08.bks.cpg/sg2_41_cif.got.tgz:80567.got - 2010.06.03 11:33:40.
