data_PCOD9093415
_publ_section_title
;
Structure prediction by ZEFSAII (Michael W. Deem and Ramdas Pophale) SiO2 
 PCOD9093415
Probable space group: P -1
;
_chemical_formula_sum "Si O2"
_cell_formula_units_Z 14
_cell_length_a 9.718673
_cell_length_b 8.565695
_cell_length_c 7.549825
_cell_angle_alpha 122.121027
_cell_angle_beta 85.821770
_cell_angle_gamma 100.678207
_cell_volume 522.828672
_symmetry_space_group_name_H-M "P -1"
_symmetry_group_IT_number 2
_symmetry_cell_setting 'triclinic'
loop_
_space_group_symop_operation_xyz
x,y,z
-x,-y,-z
loop_
_atom_site_type_symbol
_atom_site_label
_atom_site_fract_x
_atom_site_fract_y
_atom_site_fract_z
Si Si1 0.484610 0.358994 0.645055
Si Si2 0.154068 0.334147 0.017326
Si Si3 0.799088 0.871098 0.471208
Si Si4 0.842278 0.264360 0.118948
Si Si5 0.373613 0.680739 0.058501
Si Si6 0.773970 0.519407 0.559007
Si Si7 0.907303 0.191483 0.447028
O O1 0.343706 0.242571 0.504796
O O2 0.457271 0.553775 0.851247
O O3 0.616916 0.407381 0.534606
O O4 0.527492 0.244618 0.742183
O O5 0.205204 0.308857 0.200158
O O6 0.985663 0.301579 0.019992
O O7 0.187788 0.204813 0.775554
O O8 0.247357 0.529964 0.063765
O O9 0.936145 0.842211 0.550112
O O10 0.812727 0.087280 0.549222
O O11 0.704263 0.187210 0.973761
O O12 0.810927 0.463496 0.322079
O O13 0.863929 0.144245 0.218693
O O14 0.885376 0.405181 0.576633
#
# Coordination Sequence:
#
# PCOD9093415 Si02
#       7
#     2   2   2   2   2   2   2
#     4   9  19  35  57  81 112 147 186 226 283 330
#     4  10  20  32  62  83 108 149 185 230 275 326
#     4  10  21  40  60  80 114 149 190 226 278 336
#     4  10  21  34  56  84 122 140 186 234 277 323
#     4   9  19  34  55  88 111 144 186 233 276 333
#     4   9  21  36  55  90 111 142 189 228 283 326
#     4   9  23  39  55  87 111 149 188 230 278 327
#
# _framework density 26.777412999999999
#
# number of rings (size 3 to 8) (size 9 to 14) (size 15 to 20)
#    0.857    1.714    0.000    1.714    8.000    1.714 
#    0.000    5.000    0.000    0.000    0.000    0.000 
#    0.000    0.000    0.000    0.000    0.000    0.000 
#
# Total GULP energy -78145.968021 kJ/mol
# GULP energy per Si atom -5581.854859 kJ/mol
# Density = 2.671647 g / cm^3
# Si number density = 26.777413 Si / 1000 Ang^3
#
#
#
# Elastic Constant Matrix: (Units=GPa)
#
#
# Indices 1 2 3 4 5 6 
#
# 1 152.1434 10.0640 16.5386 -15.2602 3.9207 17.5846
# 2 10.0640 50.7829 2.4439 -13.5291 -6.8548 5.3162
# 3 16.5386 2.4439 108.6475 -16.9558 -0.2348 -3.2403
# 4 -15.2602 -13.5291 -16.9558 27.4523 3.4282 -0.1610
# 5 3.9207 -6.8548 -0.2348 3.4282 45.1693 -22.5099
# 6 17.5846 5.3162 -3.2403 -0.1610 -22.5099 34.0846
#
#
#
# Elastic Compliance Matrix: (Units=1/GPa)
#
#
# Indices 1 2 3 4 5 6 
#
# 1 0.008083 -0.000254 -0.000759 0.004446 -0.004718 -0.007298
# 2 -0.000254 0.023311 0.001314 0.011958 0.001494 -0.002336
# 3 -0.000759 0.001314 0.010363 0.006558 0.000627 0.001617
# 4 0.004446 0.011958 0.006558 0.049534 -0.005875 -0.007182
# 5 -0.004718 0.001494 0.000627 -0.005875 0.036276 0.026190
# 6 -0.007298 -0.002336 0.001617 -0.007182 0.026190 0.050884
#
#
# Mechanical properties :
#
#
# Convention : Reuss Voigt Hill
#
# Bulk Modulus (GPa) = 23.60723 41.07410 32.34066
# Shear Modulus (GPa) = 26.04607 40.17640 33.11123
#
# Velocity S-wave (km/s) = 3.12218 3.87768 3.52026
# Velocity P-wave (km/s) = 4.67253 5.95155 5.35040
#
# Compressibility (1/GPa) = 0.04235991
#
# Stress axis : x y z
#
# Youngs Moduli (GPa) = 123.71695 42.89840 96.49722
#
# Poissons Ratio (x) = 0.01089 0.07321
# Poissons Ratio (y) = 0.03141 -0.12681
# Poissons Ratio (z) = 0.09386 -0.05637
#
# Static dielectric constant tensor:
#      x y z
#    x 2.101000 -0.094980 0.025680 
#    y -0.094980 2.360280 0.015500 
#    z 0.025680 0.015500 2.257770 
# 
# From -- ./inp_files/172936.got.cif
#   From: 2010.05.17/outbox.cif.g08.bks.cpg/sg2_87_cif.got.tgz:172936.got - 2010.06.03 11:33:40.
