data_PCOD9093929
_publ_section_title
;
Structure prediction by ZEFSAII (Michael W. Deem and Ramdas Pophale) SiO2 
 PCOD9093929
Probable space group: P -1
;
_chemical_formula_sum "Si O2"
_cell_formula_units_Z 16
_cell_length_a 10.753835
_cell_length_b 11.290066
_cell_length_c 18.059852
_cell_angle_alpha 54.177455
_cell_angle_beta 153.066971
_cell_angle_gamma 138.892089
_cell_volume 624.854808
_symmetry_space_group_name_H-M "P -1"
_symmetry_group_IT_number 2
_symmetry_cell_setting 'triclinic'
loop_
_space_group_symop_operation_xyz
x,y,z
-x,-y,-z
loop_
_atom_site_type_symbol
_atom_site_label
_atom_site_fract_x
_atom_site_fract_y
_atom_site_fract_z
Si Si1 0.481594 0.573613 0.621579
Si Si2 0.419195 0.855793 0.573474
Si Si3 0.247730 0.822554 0.248229
Si Si4 0.895206 0.843019 0.620185
Si Si5 0.612268 0.953272 0.896649
Si Si6 0.758477 0.441183 0.224028
Si Si7 0.413782 0.420460 0.782487
Si Si8 0.286099 0.071546 0.879944
O O1 0.502952 0.728737 0.625965
O O2 0.727762 0.658118 0.649151
O O3 0.086266 0.451884 0.423496
O O4 0.598055 0.497041 0.772877
O O5 0.998331 0.706384 0.414541
O O6 0.500000 0.000000 0.500000
O O7 0.612467 0.992572 0.696296
O O8 0.579675 0.820371 0.419842
O O9 0.943623 0.627079 0.201359
O O10 0.191931 0.875468 0.119256
O O11 0.233003 0.902529 0.732829
O O12 0.026899 0.994530 0.700394
O O13 0.511414 0.760160 0.883229
O O14 0.818468 0.994073 0.067360
O O15 0.578815 0.458412 0.192733
O O16 0.492937 0.292198 0.908068
O O17 0.500000 0.000000 0.000000
#
# Coordination Sequence:
#
# PCOD9093929 Si02
#       8
#     2   2   2   2   2   2   2   2
#     4  10  20  33  62 100 113 156 202 255 307 348
#     4  11  16  33  62  91 126 146 199 256 295 357
#     4  11  20  37  66  92 117 165 195 253 315 346
#     4  10  21  41  62  86 118 162 210 242 296 368
#     4  11  24  42  56  88 133 158 200 253 301 362
#     4  10  22  37  60  96 127 147 198 257 307 364
#     4  11  19  37  63  88 121 156 203 252 302 357
#     4  10  23  43  61  83 119 166 207 245 293 368
#
# _framework density 25.605948000000001
#
# number of rings (size 3 to 8) (size 9 to 14) (size 15 to 20)
#    0.000    1.500    5.000    3.375    0.000    2.500 
#    6.750    1.875    0.000    0.000    0.000    0.000 
#    0.000    0.000    0.000    0.000    0.000    0.000 
#
# Total GULP energy -89450.811548 kJ/mol
# GULP energy per Si atom -5590.675722 kJ/mol
# Density = 2.554767 g / cm^3
# Si number density = 25.605948 Si / 1000 Ang^3
#
#
#
# Elastic Constant Matrix: (Units=GPa)
#
#
# Indices 1 2 3 4 5 6 
#
# 1 102.3472 31.6321 30.3590 -4.9021 -7.7011 15.8786
# 2 31.6321 52.5151 46.2531 4.6220 -18.6457 14.8576
# 3 30.3590 46.2531 72.6136 -8.1466 -14.5204 13.0738
# 4 -4.9021 4.6220 -8.1466 39.6102 11.1377 -14.2390
# 5 -7.7011 -18.6457 -14.5204 11.1377 53.9338 -10.2032
# 6 15.8786 14.8576 13.0738 -14.2390 -10.2032 31.6081
#
#
#
# Elastic Compliance Matrix: (Units=1/GPa)
#
#
# Indices 1 2 3 4 5 6 
#
# 1 0.012463 -0.007586 -0.000080 0.002075 -0.001725 -0.002284
# 2 -0.007586 0.072936 -0.039490 -0.030069 0.015414 -0.022710
# 3 -0.000080 -0.039490 0.038247 0.017098 -0.005233 0.008795
# 4 0.002075 -0.030069 0.017098 0.043415 -0.010248 0.022269
# 5 -0.001725 0.015414 -0.005233 -0.010248 0.024134 -0.001040
# 6 -0.002284 -0.022710 0.008795 0.022269 -0.001040 0.049518
#
#
# Mechanical properties :
#
#
# Convention : Reuss Voigt Hill
#
# Bulk Modulus (GPa) = 34.08750 49.32937 41.70844
# Shear Modulus (GPa) = 14.50110 32.97921 23.74015
#
# Velocity S-wave (km/s) = 2.38232 3.59270 3.04819
# Velocity P-wave (km/s) = 4.57258 6.04290 5.35841
#
# Compressibility (1/GPa) = 0.02933626
#
# Stress axis : x y z
#
# Youngs Moduli (GPa) = 80.23953 13.71059 26.14593
#
# Poissons Ratio (x) = 0.10400 0.00208
# Poissons Ratio (y) = 0.60866 1.03249
# Poissons Ratio (z) = 0.00638 0.54143
#
# Static dielectric constant tensor:
#      x y z
#    x 2.019850 0.096400 0.026680 
#    y 0.096400 2.255570 0.033830 
#    z 0.026680 0.033830 2.090160 
# 
# From -- ./inp_files/418370.got.cif
#   From: 2010.05.17/outbox.cif.g08.bks.cpg/sg2_210_cif.got.tgz:418370.got - 2010.06.03 11:33:40.
