data_PCOD9093457
_publ_section_title
;
Structure prediction by ZEFSAII (Michael W. Deem and Ramdas Pophale) SiO2 
 PCOD9093457
Probable space group: P -1
;
_chemical_formula_sum "Si O2"
_cell_formula_units_Z 16
_cell_length_a 12.082156
_cell_length_b 11.770457
_cell_length_c 14.901273
_cell_angle_alpha 70.288190
_cell_angle_beta 109.676876
_cell_angle_gamma 154.982260
_cell_volume 841.096042
_symmetry_space_group_name_H-M "P -1"
_symmetry_group_IT_number 2
_symmetry_cell_setting 'triclinic'
loop_
_space_group_symop_operation_xyz
x,y,z
-x,-y,-z
loop_
_atom_site_type_symbol
_atom_site_label
_atom_site_fract_x
_atom_site_fract_y
_atom_site_fract_z
Si Si1 0.039884 0.181155 0.467191
Si Si2 0.466007 0.271581 0.655110
Si Si3 0.720179 0.648210 0.328640
Si Si4 0.993636 0.190291 0.087639
Si Si5 0.364626 0.989797 0.846584
Si Si6 0.233086 0.639574 0.978596
Si Si7 0.715542 0.801122 0.973213
Si Si8 0.220490 0.147191 0.215673
O O1 0.265099 0.434501 0.393769
O O2 0.153923 0.305078 0.564770
O O3 0.000000 0.000000 0.500000
O O4 0.754400 0.964673 0.416569
O O5 0.348135 0.277325 0.677756
O O6 0.494524 0.182430 0.750615
O O7 0.449839 0.346741 0.297628
O O8 0.939954 0.852618 0.257080
O O9 0.179823 0.252536 0.153036
O O10 0.895722 0.174913 0.151405
O O11 0.132243 0.411554 0.998883
O O12 0.743605 0.909021 0.039652
O O13 0.312225 0.798319 0.875166
O O14 0.544146 0.161305 0.938252
O O15 0.000000 0.500000 0.000000
O O16 0.701522 0.844822 0.858619
O O17 0.500000 0.500000 0.000000
O O18 0.000000 0.000000 0.000000
#
# Coordination Sequence:
#
# PCOD9093457 Si02
#       8
#     2   2   2   2   2   2   2   2
#     4  10  21  33  45  72  98 133 168 215 245 299
#     4  11  20  31  51  69 102 133 173 200 251 305
#     4  11  19  32  48  68 100 131 173 203 251 291
#     4  10  20  33  50  70 105 141 171 209 256 285
#     4  10  20  33  51  75  99 141 174 205 249 310
#     4   9  20  33  50  73 100 133 173 214 248 298
#     4  10  22  34  47  74 104 133 179 215 241 294
#     4  11  20  31  51  72  98 140 175 201 239 303
#
# _framework density 19.022796
#
# number of rings (size 3 to 8) (size 9 to 14) (size 15 to 20)
#    0.000    1.750    1.250    6.000    7.000    0.000 
#    0.000    0.000    0.000    0.000    0.000    0.000 
#    0.000    6.000    0.000    0.000    0.000    0.000 
#
# Total GULP energy -89199.266442 kJ/mol
# GULP energy per Si atom -5574.954153 kJ/mol
# Density = 1.897950 g / cm^3
# Si number density = 19.022796 Si / 1000 Ang^3
#
#
#
# Elastic Constant Matrix: (Units=GPa)
#
#
# Indices 1 2 3 4 5 6 
#
# 1 18.5110 10.0108 11.2739 -4.0009 7.0113 1.0527
# 2 10.0108 107.5426 22.9123 -10.8403 9.8182 -4.1078
# 3 11.2739 22.9123 87.3863 -14.9280 13.3600 -10.2798
# 4 -4.0009 -10.8403 -14.9280 49.9223 -4.8166 1.7664
# 5 7.0113 9.8182 13.3600 -4.8166 21.7676 -3.6779
# 6 1.0527 -4.1078 -10.2798 1.7664 -3.6779 21.9457
#
#
#
# Elastic Compliance Matrix: (Units=1/GPa)
#
#
# Indices 1 2 3 4 5 6 
#
# 1 0.067142 -0.003600 -0.005908 0.001470 -0.017698 -0.009746
# 2 -0.003600 0.010326 -0.001606 0.001240 -0.002085 0.000904
# 3 -0.005908 -0.001606 0.014508 0.002861 -0.004670 0.005766
# 4 0.001470 0.001240 0.002861 0.021461 0.001978 0.000106
# 5 -0.017698 -0.002085 -0.004670 0.001978 0.057185 0.007696
# 6 -0.009746 0.000904 0.005766 0.000106 0.007696 0.050186
#
#
# Mechanical properties :
#
#
# Convention : Reuss Voigt Hill
#
# Bulk Modulus (GPa) = 14.33722 33.53710 23.93716
# Shear Modulus (GPa) = 18.77693 30.00996 24.39345
#
# Velocity S-wave (km/s) = 3.14518 3.97618 3.58484
# Velocity P-wave (km/s) = 4.55443 6.22481 5.45395
#
# Compressibility (1/GPa) = 0.06974851
#
# Stress axis : x y z
#
# Youngs Moduli (GPa) = 14.89372 96.84482 68.92897
#
# Poissons Ratio (x) = 0.34861 0.40723
# Poissons Ratio (y) = 0.05361 0.11070
# Poissons Ratio (z) = 0.08799 0.15553
#
# Static dielectric constant tensor:
#      x y z
#    x 1.731330 0.001820 -0.018860 
#    y 0.001820 1.733160 -0.006650 
#    z -0.018860 -0.006650 1.721050 
# 
# From -- ./inp_files/533749.got.cif
#   From: 2010.05.17/outbox.cif.g08.bks.cpg/sg2_267_cif.got.tgz:533749.got - 2010.06.03 11:33:40.
