data_PCOD9093392
_publ_section_title
;
Structure prediction by ZEFSAII (Michael W. Deem and Ramdas Pophale) SiO2 
 PCOD9093392
Probable space group: P -1
;
_chemical_formula_sum "Si O2"
_cell_formula_units_Z 14
_cell_length_a 14.547901
_cell_length_b 20.405543
_cell_length_c 12.885863
_cell_angle_alpha 148.908369
_cell_angle_beta 20.394874
_cell_angle_gamma 149.316028
_cell_volume 652.533135
_symmetry_space_group_name_H-M "P -1"
_symmetry_group_IT_number 2
_symmetry_cell_setting 'triclinic'
loop_
_space_group_symop_operation_xyz
x,y,z
-x,-y,-z
loop_
_atom_site_type_symbol
_atom_site_label
_atom_site_fract_x
_atom_site_fract_y
_atom_site_fract_z
Si Si1 0.835741 0.675903 0.114550
Si Si2 0.120145 0.842077 0.235601
Si Si3 0.485784 0.559574 0.714126
Si Si4 0.084906 0.728335 0.337889
Si Si5 0.137288 0.019264 0.768396
Si Si6 0.404481 0.115076 0.351743
Si Si7 0.736235 0.144346 0.232785
O O1 0.702923 0.540191 0.133877
O O2 0.614575 0.743880 0.398292
O O3 0.952269 0.776250 0.224078
O O4 0.069576 0.711744 0.825128
O O5 0.046055 0.748420 0.284441
O O6 0.129598 0.989616 0.458308
O O7 0.434689 0.859386 0.891711
O O8 0.500000 0.500000 0.500000
O O9 0.791109 0.615578 0.518805
O O10 0.344730 0.675660 0.008033
O O11 0.128500 0.871259 0.539098
O O12 0.458130 0.119116 0.562909
O O13 0.944564 0.078746 0.979645
O O14 0.000000 0.000000 0.000000
O O15 0.584257 0.071170 0.189722
#
# Coordination Sequence:
#
# PCOD9093392 Si02
#       7
#     2   2   2   2   2   2   2
#     4  11  22  37  62  92 139 175 215 250 319 397
#     4  10  20  32  59  89 134 168 213 259 316 384
#     4  12  26  40  63  95 143 189 212 246 307 403
#     4  12  25  42  63  94 136 175 226 259 323 384
#     4  12  26  47  73  98 124 162 223 295 346 375
#     4  10  20  34  59  96 129 168 211 262 327 391
#     4  11  22  41  69  97 124 164 212 279 344 379
#
# _framework density 21.454848999999999
#
# number of rings (size 3 to 8) (size 9 to 14) (size 15 to 20)
#    0.000    0.857    4.286    3.000    4.000    1.143 
#    0.000    0.000    0.000    5.143    0.000    0.000 
#    0.000    0.000    0.000    0.000    0.000    0.000 
#
# Total GULP energy -77956.790346 kJ/mol
# GULP energy per Si atom -5568.342168 kJ/mol
# Density = 2.140602 g / cm^3
# Si number density = 21.454849 Si / 1000 Ang^3
#
#
#
# Elastic Constant Matrix: (Units=GPa)
#
#
# Indices 1 2 3 4 5 6 
#
# 1 44.9306 11.5767 26.3586 2.2935 0.6038 -21.1423
# 2 11.5767 96.2790 26.0974 -23.9264 13.4740 -25.5659
# 3 26.3586 26.0974 101.4966 -17.9479 -2.0890 -18.0301
# 4 2.2935 -23.9264 -17.9479 32.3874 -14.4255 1.6467
# 5 0.6038 13.4740 -2.0890 -14.4255 32.3665 -10.9444
# 6 -21.1423 -25.5659 -18.0301 1.6467 -10.9444 28.1379
#
#
#
# Elastic Compliance Matrix: (Units=1/GPa)
#
#
# Indices 1 2 3 4 5 6 
#
# 1 0.040238 0.004294 -0.005519 -0.000811 0.008183 0.033830
# 2 0.004294 0.018567 0.001102 0.016010 0.007040 0.022604
# 3 -0.005519 0.001102 0.015380 0.013714 0.010071 0.009824
# 4 -0.000811 0.016010 0.013714 0.063614 0.033407 0.031996
# 5 0.008183 0.007040 0.010071 0.033407 0.056553 0.039040
# 6 0.033830 0.022604 0.009824 0.031996 0.039040 0.101104
#
#
# Mechanical properties :
#
#
# Convention : Reuss Voigt Hill
#
# Bulk Modulus (GPa) = 13.52462 41.19685 27.36073
# Shear Modulus (GPa) = 15.60802 30.48991 23.04897
#
# Velocity S-wave (km/s) = 2.70011 3.77386 3.28121
# Velocity P-wave (km/s) = 4.00478 6.18326 5.20917
#
# Compressibility (1/GPa) = 0.07393925
#
# Stress axis : x y z
#
# Youngs Moduli (GPa) = 24.85202 53.85900 65.01896
#
# Poissons Ratio (x) = -0.23128 0.35886
# Poissons Ratio (y) = -0.10672 -0.07166
# Poissons Ratio (z) = 0.13717 -0.05936
#
# Static dielectric constant tensor:
#      x y z
#    x 1.817180 -0.011160 -0.078450 
#    y -0.011160 1.869800 -0.034410 
#    z -0.078450 -0.034410 1.941720 
# 
# From -- ./inp_files/539109.got.cif
#   From: 2010.05.17/outbox.cif.g08.bks.cpg/sg2_270_cif.got.tgz:539109.got - 2010.06.03 11:33:40.
