data_PCOD9093187
_publ_section_title
;
Structure prediction by ZEFSAII (Michael W. Deem and Ramdas Pophale) SiO2 
 PCOD9093187
Probable space group: P -1
;
_chemical_formula_sum "Si O2"
_cell_formula_units_Z 15
_cell_length_a 11.999643
_cell_length_b 15.878265
_cell_length_c 5.071010
_cell_angle_alpha 50.121859
_cell_angle_beta 61.319046
_cell_angle_gamma 61.369258
_cell_volume 629.048743
_symmetry_space_group_name_H-M "P -1"
_symmetry_group_IT_number 2
_symmetry_cell_setting 'triclinic'
loop_
_space_group_symop_operation_xyz
x,y,z
-x,-y,-z
loop_
_atom_site_type_symbol
_atom_site_label
_atom_site_fract_x
_atom_site_fract_y
_atom_site_fract_z
Si Si1 0.930400 0.256858 0.903681
Si Si2 0.534500 0.623216 0.421446
Si Si3 0.403951 0.128079 0.534578
Si Si4 0.071437 0.148414 0.441979
Si Si5 0.635005 0.366438 0.888039
Si Si6 0.757093 0.691940 0.311854
Si Si7 0.000000 0.500000 0.500000
Si Si8 0.666209 0.997383 0.632983
O O1 0.781923 0.291731 0.898274
O O2 0.970483 0.376102 0.674924
O O3 0.020021 0.184483 0.718462
O O4 0.954833 0.180318 0.295167
O O5 0.623956 0.495107 0.542275
O O6 0.456833 0.668715 0.156110
O O7 0.631716 0.692153 0.279795
O O8 0.430229 0.623059 0.771464
O O9 0.303615 0.247502 0.472565
O O10 0.383802 0.081293 0.365979
O O11 0.556180 0.113514 0.472797
O O12 0.355368 0.044813 0.965666
O O13 0.177567 0.026277 0.547458
O O14 0.157027 0.234566 0.076404
O O15 0.846657 0.566521 0.505587
#
# Coordination Sequence:
#
# PCOD9093187 Si02
#       8
#     2   2   2   2   2   2   1   2
#     4  11  21  36  50  79 103 142 169 210 255 319
#     4  10  21  36  55  69 102 136 185 217 245 289
#     4   9  18  29  52  68 110 131 176 197 258 305
#     4  10  21  32  54  77 112 129 172 204 270 314
#     4  10  21  38  52  72  96 144 181 217 243 294
#     4  10  20  35  50  84 103 144 164 217 256 315
#     4  10  20  32  50  74 112 130 160 206 262 308
#     4   9  16  32  46  77 100 143 158 212 248 318
#
# _framework density 23.845528000000002
#
# number of rings (size 3 to 8) (size 9 to 14) (size 15 to 20)
#    0.000    2.133    1.333    3.200    0.000    6.400 
#    2.400    0.000    0.000    0.000    0.000    5.600 
#    0.000    0.000    0.000    0.000    0.000    0.000 
#
# Total GULP energy -83538.365064 kJ/mol
# GULP energy per Si atom -5569.224338 kJ/mol
# Density = 2.379125 g / cm^3
# Si number density = 23.845528 Si / 1000 Ang^3
#
#
#
# Elastic Constant Matrix: (Units=GPa)
#
#
# Indices 1 2 3 4 5 6 
#
# 1 95.3582 31.0227 -5.8230 -0.7056 16.7289 -29.5028
# 2 31.0227 98.0117 33.6940 6.8050 22.5216 -31.4363
# 3 -5.8230 33.6940 43.1427 -1.0083 18.7136 7.1848
# 4 -0.7056 6.8050 -1.0083 24.2658 -0.2078 6.9984
# 5 16.7289 22.5216 18.7136 -0.2078 29.5448 0.9134
# 6 -29.5028 -31.4363 7.1848 6.9984 0.9134 39.2933
#
#
#
# Elastic Compliance Matrix: (Units=1/GPa)
#
#
# Indices 1 2 3 4 5 6 
#
# 1 0.017258 -0.000377 0.006622 -0.002776 -0.014078 0.012267
# 2 -0.000377 0.039911 -0.034692 -0.025036 -0.009732 0.042676
# 3 0.006622 -0.034692 0.065791 0.023641 -0.017617 -0.038613
# 4 -0.002776 -0.025036 0.023641 0.059948 0.007257 -0.037283
# 5 -0.014078 -0.009732 -0.017617 0.007257 0.060998 -0.017846
# 6 0.012267 0.042676 -0.038613 -0.037283 -0.017846 0.082919
#
#
# Mechanical properties :
#
#
# Convention : Reuss Voigt Hill
#
# Bulk Modulus (GPa) = 15.13593 39.36667 27.25130
# Shear Modulus (GPa) = 12.32320 30.46205 21.39262
#
# Velocity S-wave (km/s) = 2.27577 3.57805 2.99847
# Velocity P-wave (km/s) = 3.64236 5.79783 4.84157
#
# Compressibility (1/GPa) = 0.06606797
#
# Stress axis : x y z
#
# Youngs Moduli (GPa) = 57.94265 25.05594 15.19970
#
# Poissons Ratio (x) = 0.00944 -0.10066
# Poissons Ratio (y) = 0.02184 0.52730
# Poissons Ratio (z) = -0.38372 0.86923
#
# Static dielectric constant tensor:
#      x y z
#    x 1.948270 -0.012600 -0.020510 
#    y -0.012600 1.960240 -0.033960 
#    z -0.020510 -0.033960 1.892250 
# 
# From -- ./inp_files/80174.got.cif
#   From: 2010.05.17/outbox.cif.g08.bks.cpg/sg2_41_cif.got.tgz:80174.got - 2010.06.03 11:33:40.
