data_PCOD9093542
_publ_section_title
;
Structure prediction by ZEFSAII (Michael W. Deem and Ramdas Pophale) SiO2 
 PCOD9093542
Probable space group: P -1
;
_chemical_formula_sum "Si O2"
_cell_formula_units_Z 12
_cell_length_a 6.866119
_cell_length_b 15.753996
_cell_length_c 29.927193
_cell_angle_alpha 14.701573
_cell_angle_beta 141.331322
_cell_angle_gamma 141.344536
_cell_volume 506.526498
_symmetry_space_group_name_H-M "P -1"
_symmetry_group_IT_number 2
_symmetry_cell_setting 'triclinic'
loop_
_space_group_symop_operation_xyz
x,y,z
-x,-y,-z
loop_
_atom_site_type_symbol
_atom_site_label
_atom_site_fract_x
_atom_site_fract_y
_atom_site_fract_z
Si Si1 0.661309 0.506070 0.477165
Si Si2 0.793225 0.512872 0.013739
Si Si3 0.402568 0.865135 0.915382
Si Si4 0.827294 0.400781 0.258461
Si Si5 0.820118 0.089701 0.588483
Si Si6 0.115452 0.110996 0.537962
O O1 0.500000 0.500000 0.500000
O O2 0.473665 0.172072 0.590203
O O3 0.030810 0.613130 0.501602
O O4 0.562694 0.802787 0.277510
O O5 0.668907 0.440176 0.978375
O O6 0.500000 0.500000 0.000000
O O7 0.962758 0.197216 0.218181
O O8 0.079089 0.828415 0.904770
O O9 0.691785 0.750904 0.051921
O O10 0.064864 0.366439 0.358718
O O11 0.530459 0.101577 0.368729
O O12 0.960283 0.264905 0.305467
O O13 0.889676 0.182472 0.501951
#
# Coordination Sequence:
#
# PCOD9093542 Si02
#       6
#     2   2   2   2   2   2
#     4   9  19  35  53  77 106 136 170 215 264 303
#     4   9  16  29  52  77 101 132 170 214 256 300
#     4   9  18  32  50  76 104 132 173 212 252 307
#     4  10  20  33  53  76 101 138 175 210 252 306
#     4   9  18  33  52  74 101 134 173 214 254 300
#     4  10  20  34  51  75 106 137 171 209 257 308
#
# _framework density 23.690763
#
# number of rings (size 3 to 8) (size 9 to 14) (size 15 to 20)
#    0.000    2.667    0.000    2.500    0.000    1.333 
#    0.000    6.667    0.000    0.000    0.000   26.833 
#    0.000    0.000    0.000    0.000    0.000    2.833 
#
# Total GULP energy -66956.792490 kJ/mol
# GULP energy per Si atom -5579.732708 kJ/mol
# Density = 2.363684 g / cm^3
# Si number density = 23.690763 Si / 1000 Ang^3
#
#
#
# Elastic Constant Matrix: (Units=GPa)
#
#
# Indices 1 2 3 4 5 6 
#
# 1 98.1742 26.4135 25.4821 9.3646 -7.6346 4.9220
# 2 26.4135 113.8371 7.2790 7.4918 -4.3876 -7.6737
# 3 25.4821 7.2790 104.0068 7.0107 -11.0267 -1.8078
# 4 9.3646 7.4918 7.0107 31.5359 4.2684 -3.1957
# 5 -7.6346 -4.3876 -11.0267 4.2684 30.2306 5.2375
# 6 4.9220 -7.6737 -1.8078 -3.1957 5.2375 27.3927
#
#
#
# Elastic Compliance Matrix: (Units=1/GPa)
#
#
# Indices 1 2 3 4 5 6 
#
# 1 0.012259 -0.002633 -0.002345 -0.003315 0.003030 -0.004061
# 2 -0.002633 0.009690 0.000157 -0.001320 0.000473 0.002953
# 3 -0.002345 0.000157 0.010712 -0.002188 0.003607 0.000227
# 4 -0.003315 -0.001320 -0.002188 0.035119 -0.007767 0.005664
# 5 0.003030 0.000473 0.003607 -0.007767 0.037763 -0.008300
# 6 -0.004061 0.002953 0.000227 0.005664 -0.008300 0.040326
#
#
# Mechanical properties :
#
#
# Convention : Reuss Voigt Hill
#
# Bulk Modulus (GPa) = 43.44271 48.26304 45.85288
# Shear Modulus (GPa) = 30.64039 34.95472 32.79755
#
# Velocity S-wave (km/s) = 3.60022 3.84534 3.72479
# Velocity P-wave (km/s) = 5.97154 6.33497 6.15594
#
# Compressibility (1/GPa) = 0.02301882
#
# Stress axis : x y z
#
# Youngs Moduli (GPa) = 81.57579 103.20354 93.35205
#
# Poissons Ratio (x) = 0.27176 0.21891
# Poissons Ratio (y) = 0.21481 -0.01470
# Poissons Ratio (z) = 0.19130 -0.01625
#
# Static dielectric constant tensor:
#      x y z
#    x 1.968990 0.004490 -0.021720 
#    y 0.004490 1.964780 -0.034820 
#    z -0.021720 -0.034820 1.927350 
# 
# From -- ./inp_files/71421.got.cif
#   From: 2010.05.17/outbox.cif.g08.bks.cpg/sg2_36_cif.got.tgz:71421.got - 2010.06.03 11:33:40.
