data_PCOD9093821
_publ_section_title
;
Structure prediction by ZEFSAII (Michael W. Deem and Ramdas Pophale) SiO2 
 PCOD9093821
Probable space group: P -1
;
_chemical_formula_sum "Si O2"
_cell_formula_units_Z 16
_cell_length_a 24.904903
_cell_length_b 20.529069
_cell_length_c 7.558105
_cell_angle_alpha 134.559692
_cell_angle_beta 125.952486
_cell_angle_gamma 17.472902
_cell_volume 763.312186
_symmetry_space_group_name_H-M "P -1"
_symmetry_group_IT_number 2
_symmetry_cell_setting 'triclinic'
loop_
_space_group_symop_operation_xyz
x,y,z
-x,-y,-z
loop_
_atom_site_type_symbol
_atom_site_label
_atom_site_fract_x
_atom_site_fract_y
_atom_site_fract_z
Si Si1 0.647232 0.182929 0.799077
Si Si2 0.886201 0.930061 0.467984
Si Si3 0.287513 0.079704 0.363953
Si Si4 0.170430 0.743955 0.472072
Si Si5 0.362973 0.614286 0.341196
Si Si6 0.055127 0.561431 0.850854
Si Si7 0.280996 0.438369 0.917865
Si Si8 0.965837 0.913179 0.941783
O O1 0.694050 0.143758 0.611380
O O2 0.677413 0.039779 0.641481
O O3 0.804455 0.046269 0.939548
O O4 0.444392 0.476303 0.047386
O O5 0.998081 0.843036 0.668134
O O6 0.821235 0.085224 0.488637
O O7 0.989242 0.708197 0.168074
O O8 0.138792 0.220967 0.211442
O O9 0.176124 0.314455 0.659611
O O10 0.492226 0.845789 0.228505
O O11 0.345908 0.553363 0.327134
O O12 0.220147 0.572921 0.235348
O O13 0.000000 0.000000 0.500000
O O14 0.128073 0.865029 0.786749
O O15 0.500000 0.500000 0.500000
O O16 0.193532 0.449844 0.790997
O O17 0.155696 0.649547 0.922584
#
# Coordination Sequence:
#
# PCOD9093821 Si02
#       8
#     2   2   2   2   2   2   2   2
#     4  10  20  37  58  91 124 164 196 256 311 368
#     4  10  22  38  62  90 133 164 199 260 321 370
#     4  11  23  41  69  90 119 167 220 259 309 362
#     4  10  20  33  58  88 119 169 203 244 310 369
#     4  12  19  34  62  88 123 161 208 249 304 380
#     4  11  23  42  64  94 123 163 214 269 304 363
#     4  11  21  41  64  92 124 163 218 258 306 369
#     4   9  20  38  59  87 130 164 194 254 317 369
#
# _framework density 20.961279999999999
#
# number of rings (size 3 to 8) (size 9 to 14) (size 15 to 20)
#    0.750    0.750    3.750    3.000    0.000    0.500 
#    0.000    7.500    2.750    0.000    0.000    0.000 
#    0.000    0.000    0.000    0.000    0.000    0.000 
#
# Total GULP energy -89127.485917 kJ/mol
# GULP energy per Si atom -5570.467870 kJ/mol
# Density = 2.091357 g / cm^3
# Si number density = 20.961280 Si / 1000 Ang^3
#
#
#
# Elastic Constant Matrix: (Units=GPa)
#
#
# Indices 1 2 3 4 5 6 
#
# 1 78.6461 16.7950 37.4875 2.9205 12.4978 -11.7842
# 2 16.7950 56.5440 29.3170 3.2448 4.6724 -12.4245
# 3 37.4875 29.3170 153.8544 -0.7219 11.2736 6.4182
# 4 2.9205 3.2448 -0.7219 31.6154 -0.5880 -1.5549
# 5 12.4978 4.6724 11.2736 -0.5880 37.2254 -0.0324
# 6 -11.7842 -12.4245 6.4182 -1.5549 -0.0324 29.7212
#
#
#
# Elastic Compliance Matrix: (Units=1/GPa)
#
#
# Indices 1 2 3 4 5 6 
#
# 1 0.016500 -0.000987 -0.003812 -0.001251 -0.004275 0.006883
# 2 -0.000987 0.022655 -0.004412 -0.001868 -0.001197 0.009933
# 3 -0.003812 -0.004412 0.008543 0.000732 -0.000746 -0.005163
# 4 -0.001251 -0.001868 0.000732 0.031983 0.000938 0.000239
# 5 -0.004275 -0.001197 -0.000746 0.000938 0.028688 -0.001954
# 6 0.006883 0.009933 -0.005163 0.000239 -0.001954 0.041652
#
#
# Mechanical properties :
#
#
# Convention : Reuss Voigt Hill
#
# Bulk Modulus (GPa) = 34.15811 50.69372 42.42591
# Shear Modulus (GPa) = 28.05813 33.40872 30.73343
#
# Velocity S-wave (km/s) = 3.66262 3.99661 3.83325
# Velocity P-wave (km/s) = 5.84957 6.74790 6.31473
#
# Compressibility (1/GPa) = 0.02927563
#
# Stress axis : x y z
#
# Youngs Moduli (GPa) = 60.60571 44.14111 117.06010
#
# Poissons Ratio (x) = 0.04357 0.44623
# Poissons Ratio (y) = 0.05983 0.51644
# Poissons Ratio (z) = 0.23103 0.19474
#
# Static dielectric constant tensor:
#      x y z
#    x 2.004130 -0.063860 -0.065700 
#    y -0.063860 1.920150 -0.045190 
#    z -0.065700 -0.045190 1.795660 
# 
# From -- ./inp_files/355205.got.cif
#   From: 2010.05.17/outbox.cif.g08.bks.cpg/sg2_178_cif.got.tgz:355205.got - 2010.06.03 11:33:40.
