data_PCOD9093815
_publ_section_title
;
Structure prediction by ZEFSAII (Michael W. Deem and Ramdas Pophale) SiO2 
 PCOD9093815
Probable space group: P -1
;
_chemical_formula_sum "Si O2"
_cell_formula_units_Z 16
_cell_length_a 9.404157
_cell_length_b 24.629066
_cell_length_c 11.468041
_cell_angle_alpha 33.427261
_cell_angle_beta 54.021542
_cell_angle_gamma 31.886535
_cell_volume 702.747507
_symmetry_space_group_name_H-M "P -1"
_symmetry_group_IT_number 2
_symmetry_cell_setting 'triclinic'
loop_
_space_group_symop_operation_xyz
x,y,z
-x,-y,-z
loop_
_atom_site_type_symbol
_atom_site_label
_atom_site_fract_x
_atom_site_fract_y
_atom_site_fract_z
Si Si1 0.045707 0.804866 0.815124
Si Si2 0.199864 0.650879 0.799343
Si Si3 0.675051 0.536867 0.394855
Si Si4 0.981601 0.063882 0.729576
Si Si5 0.300038 0.186619 0.783886
Si Si6 0.572308 0.511382 0.247184
Si Si7 0.732146 0.098879 0.578748
Si Si8 0.501824 0.812710 0.086228
O O1 0.973003 0.766125 0.810511
O O2 0.243140 0.810212 0.664842
O O3 0.256517 0.660266 0.067747
O O4 0.775259 0.985629 0.678270
O O5 0.181996 0.765570 0.542987
O O6 0.203433 0.582836 0.802731
O O7 0.500000 0.500000 0.000000
O O8 0.609028 0.571173 0.227716
O O9 0.427402 0.590949 0.494299
O O10 0.698300 0.634694 0.262128
O O11 0.967768 0.338966 0.625341
O O12 0.997533 0.985437 0.749722
O O13 0.759682 0.113266 0.838187
O O14 0.300234 0.945670 0.840802
O O15 0.448083 0.208227 0.598727
O O16 0.318762 0.200590 0.887492
O O17 0.500000 0.000000 0.000000
#
# Coordination Sequence:
#
# PCOD9093815 Si02
#       8
#     2   2   2   2   2   2   2   2
#     4   9  17  33  57  83 107 147 189 239 277 339
#     4   9  17  30  52  86 112 141 181 237 276 330
#     4  11  22  36  57  86 120 152 186 243 289 351
#     4   9  17  31  56  82 113 142 186 237 280 334
#     4  11  24  37  54  82 120 156 191 238 296 345
#     4  10  20  33  58  87 114 139 199 229 295 333
#     4   9  18  34  56  83 109 145 195 233 286 337
#     4  10  20  34  55  81 116 155 185 227 291 346
#
# _framework density 22.767779000000001
#
# number of rings (size 3 to 8) (size 9 to 14) (size 15 to 20)
#    0.000    2.250    1.250    1.875    1.750    2.000 
#    0.000    0.625    0.000    0.750    0.000    0.000 
#    0.000    0.000    0.000    0.000    0.000    0.000 
#
# Total GULP energy -89083.025375 kJ/mol
# GULP energy per Si atom -5567.689086 kJ/mol
# Density = 2.271596 g / cm^3
# Si number density = 22.767779 Si / 1000 Ang^3
#
#
#
# Elastic Constant Matrix: (Units=GPa)
#
#
# Indices 1 2 3 4 5 6 
#
# 1 82.0392 35.0615 21.5664 -2.2610 17.6633 38.2702
# 2 35.0615 87.1108 19.2960 16.5256 14.7555 35.3103
# 3 21.5664 19.2960 84.2282 3.8366 12.9735 10.4921
# 4 -2.2610 16.5256 3.8366 34.2470 8.3935 -0.6832
# 5 17.6633 14.7555 12.9735 8.3935 30.0613 3.4079
# 6 38.2702 35.3103 10.4921 -0.6832 3.4079 50.8628
#
#
#
# Elastic Compliance Matrix: (Units=1/GPa)
#
#
# Indices 1 2 3 4 5 6 
#
# 1 0.023046 -0.001854 -0.002100 0.005173 -0.011494 -0.014780
# 2 -0.001854 0.019699 -0.001532 -0.008672 -0.004159 -0.011802
# 3 -0.002100 -0.001532 0.013325 0.000041 -0.003793 0.000150
# 4 0.005173 -0.008672 0.000041 0.036048 -0.009231 0.003222
# 5 -0.011494 -0.004159 -0.003793 -0.009231 0.045236 0.009163
# 6 -0.014780 -0.011802 0.000150 0.003222 0.009163 0.038374
#
#
# Mechanical properties :
#
#
# Convention : Reuss Voigt Hill
#
# Bulk Modulus (GPa) = 22.17458 45.02510 33.59984
# Shear Modulus (GPa) = 24.78532 34.86452 29.82492
#
# Velocity S-wave (km/s) = 3.30299 3.91744 3.62327
# Velocity P-wave (km/s) = 4.93021 6.34669 5.68276
#
# Compressibility (1/GPa) = 0.04509668
#
# Stress axis : x y z
#
# Youngs Moduli (GPa) = 43.39216 50.76368 75.04705
#
# Poissons Ratio (x) = 0.09411 0.15762
# Poissons Ratio (y) = 0.08045 0.11500
# Poissons Ratio (z) = 0.09113 0.07779
#
# Static dielectric constant tensor:
#      x y z
#    x 1.913990 0.058820 -0.010950 
#    y 0.058820 1.937370 0.018660 
#    z -0.010950 0.018660 1.856610 
# 
# From -- ./inp_files/406601.got.cif
#   From: 2010.05.17/outbox.cif.g08.bks.cpg/sg2_204_cif.got.tgz:406601.got - 2010.06.03 11:33:40.
