data_PCOD9093979
_publ_section_title
;
Structure prediction by ZEFSAII (Michael W. Deem and Ramdas Pophale) SiO2 
 PCOD9093979
Probable space group: P -1
;
_chemical_formula_sum "Si O2"
_cell_formula_units_Z 14
_cell_length_a 5.494144
_cell_length_b 9.920484
_cell_length_c 17.102711
_cell_angle_alpha 117.165718
_cell_angle_beta 124.641782
_cell_angle_gamma 97.110874
_cell_volume 581.277719
_symmetry_space_group_name_H-M "P -1"
_symmetry_group_IT_number 2
_symmetry_cell_setting 'triclinic'
loop_
_space_group_symop_operation_xyz
x,y,z
-x,-y,-z
loop_
_atom_site_type_symbol
_atom_site_label
_atom_site_fract_x
_atom_site_fract_y
_atom_site_fract_z
Si Si1 0.343575 0.122617 0.501723
Si Si2 0.862221 0.614198 0.961182
Si Si3 0.741198 0.360453 0.099428
Si Si4 0.642896 0.031064 0.291348
Si Si5 0.942473 0.303497 0.292182
Si Si6 0.372113 0.702633 0.245918
Si Si7 0.664546 0.342645 0.474256
O O1 0.350940 0.183138 0.607171
O O2 0.569423 0.294845 0.535496
O O3 0.983899 0.021768 0.363720
O O4 0.500000 0.000000 0.500000
O O5 0.656239 0.690568 0.987295
O O6 0.000488 0.428663 0.816434
O O7 0.142736 0.720297 0.971991
O O8 0.000000 0.500000 0.000000
O O9 0.826303 0.315705 0.187824
O O10 0.452286 0.557964 0.188665
O O11 0.686887 0.182198 0.399553
O O12 0.673639 0.117090 0.235723
O O13 0.352433 0.835416 0.215095
O O14 0.327567 0.331484 0.370869
O O15 0.998855 0.460077 0.404353
#
# Coordination Sequence:
#
# PCOD9093979 Si02
#       7
#     2   2   2   2   2   2   2
#     4  11  21  33  51  84 126 161 208 239 290 350
#     4  10  23  42  68  95 114 145 203 266 313 356
#     4  10  23  38  68  87 119 151 203 246 310 361
#     4  11  23  32  54  81 126 164 195 247 285 354
#     4  10  22  35  52  82 119 164 202 238 289 355
#     4  10  23  34  60  88 115 163 199 251 300 354
#     4  10  20  34  49  76 122 164 205 238 280 342
#
# _framework density 24.084872000000001
#
# number of rings (size 3 to 8) (size 9 to 14) (size 15 to 20)
#    0.857    0.857    2.857    1.286    6.000    0.000 
#    0.000    0.000    0.000    1.714    0.000    0.000 
#    0.000    0.000    0.000    0.000    0.000    0.000 
#
# Total GULP energy -78065.804698 kJ/mol
# GULP energy per Si atom -5576.128907 kJ/mol
# Density = 2.403005 g / cm^3
# Si number density = 24.084872 Si / 1000 Ang^3
#
#
#
# Elastic Constant Matrix: (Units=GPa)
#
#
# Indices 1 2 3 4 5 6 
#
# 1 99.6174 41.5109 17.4155 -19.4791 6.1368 15.4055
# 2 41.5109 124.6572 18.6816 -19.9490 4.8744 25.7665
# 3 17.4155 18.6816 38.9585 -26.3217 13.6692 12.0455
# 4 -19.4791 -19.9490 -26.3217 47.1099 3.3216 -8.2176
# 5 6.1368 4.8744 13.6692 3.3216 26.4383 -10.2414
# 6 15.4055 25.7665 12.0455 -8.2176 -10.2414 40.9446
#
#
#
# Elastic Compliance Matrix: (Units=1/GPa)
#
#
# Indices 1 2 3 4 5 6 
#
# 1 0.012789 -0.002639 0.002828 0.005416 -0.006363 -0.004487
# 2 -0.002639 0.011047 0.004764 0.005360 -0.007745 -0.008222
# 3 0.002828 0.004764 0.101171 0.057916 -0.077198 -0.041511
# 4 0.005416 0.005360 0.057916 0.057491 -0.048320 -0.022997
# 5 -0.006363 -0.007745 -0.077198 -0.048320 0.104715 0.046473
# 6 -0.004487 -0.008222 -0.041511 -0.022997 0.046473 0.050506
#
#
# Mechanical properties :
#
#
# Convention : Reuss Voigt Hill
#
# Bulk Modulus (GPa) = 7.41231 46.49433 26.95332
# Shear Modulus (GPa) = 13.41257 35.27359 24.34308
#
# Velocity S-wave (km/s) = 2.36241 3.83110 3.18263
# Velocity P-wave (km/s) = 3.24431 6.23827 4.97200
#
# Compressibility (1/GPa) = 0.13491076
#
# Stress axis : x y z
#
# Youngs Moduli (GPa) = 78.19314 90.52137 9.88430
#
# Poissons Ratio (x) = 0.23893 -0.02795
# Poissons Ratio (y) = 0.20639 -0.04709
# Poissons Ratio (z) = -0.22112 -0.43121
#
# Static dielectric constant tensor:
#      x y z
#    x 2.006800 0.060830 0.013840 
#    y 0.060830 1.966630 0.077310 
#    z 0.013840 0.077310 2.146220 
# 
# From -- ./inp_files/366857.got.cif
#   From: 2010.05.17/outbox.cif.g08.bks.cpg/sg2_184_cif.got.tgz:366857.got - 2010.06.03 11:33:40.
