data_PCOD9093710
_publ_section_title
;
Structure prediction by ZEFSAII (Michael W. Deem and Ramdas Pophale) SiO2 
 PCOD9093710
Probable space group: P -1
;
_chemical_formula_sum "Si O2"
_cell_formula_units_Z 16
_cell_length_a 12.766630
_cell_length_b 16.236748
_cell_length_c 12.711132
_cell_angle_alpha 22.403035
_cell_angle_beta 59.937318
_cell_angle_gamma 48.358911
_cell_volume 688.453412
_symmetry_space_group_name_H-M "P -1"
_symmetry_group_IT_number 2
_symmetry_cell_setting 'triclinic'
loop_
_space_group_symop_operation_xyz
x,y,z
-x,-y,-z
loop_
_atom_site_type_symbol
_atom_site_label
_atom_site_fract_x
_atom_site_fract_y
_atom_site_fract_z
Si Si1 0.826151 0.702849 0.144576
Si Si2 0.357004 0.149245 0.251435
Si Si3 0.011903 0.855589 0.772521
Si Si4 0.817019 0.382377 0.351138
Si Si5 0.426997 0.704943 0.390792
Si Si6 0.619444 0.159546 0.202573
Si Si7 0.839345 0.629984 0.590925
Si Si8 0.409060 0.327456 0.453804
O O1 0.797519 0.516684 0.314576
O O2 0.984341 0.513728 0.351806
O O3 0.878722 0.819189 0.889979
O O4 0.686959 0.970190 0.957682
O O5 0.464286 0.205254 0.191746
O O6 0.334556 0.976338 0.545656
O O7 0.455050 0.962243 0.322730
O O8 0.203892 0.423022 0.961493
O O9 0.970233 0.077612 0.621003
O O10 0.000000 0.000000 0.500000
O O11 0.153834 0.558223 0.094606
O O12 0.679279 0.364811 0.422971
O O13 0.500000 0.500000 0.500000
O O14 0.551390 0.656867 0.465882
O O15 0.748267 0.933007 0.324397
O O16 0.598209 0.436261 0.881153
O O17 0.746020 0.628795 0.544483
#
# Coordination Sequence:
#
# PCOD9093710 Si02
#       8
#     2   2   2   2   2   2   2   2
#     4   9  22  40  57  86 119 151 201 244 293 359
#     4  10  20  34  54  90 120 160 199 234 287 360
#     4   9  20  35  56  89 125 164 200 232 285 356
#     4  11  20  38  63  82 124 158 197 251 293 343
#     4  11  24  43  66  88 110 153 209 263 311 349
#     4  10  20  33  56  84 128 163 191 229 293 353
#     4   9  22  36  55  87 123 156 197 229 289 358
#     4  11  21  39  58  85 123 157 197 250 291 354
#
# _framework density 23.240497000000001
#
# number of rings (size 3 to 8) (size 9 to 14) (size 15 to 20)
#    0.750    1.250    2.500    1.125    1.750    2.000 
#    0.000    0.625    0.000    1.500    0.000    0.000 
#    0.000    0.000    0.000    0.000    0.000    0.000 
#
# Total GULP energy -89340.544462 kJ/mol
# GULP energy per Si atom -5583.784029 kJ/mol
# Density = 2.318760 g / cm^3
# Si number density = 23.240497 Si / 1000 Ang^3
#
#
#
# Elastic Constant Matrix: (Units=GPa)
#
#
# Indices 1 2 3 4 5 6 
#
# 1 108.0326 18.1109 14.1393 -6.7999 8.7859 22.2133
# 2 18.1109 46.0064 -5.5802 -9.8078 -2.0235 12.4207
# 3 14.1393 -5.5802 59.5227 -12.3619 -6.3101 -6.5384
# 4 -6.7999 -9.8078 -12.3619 34.7624 1.0521 -5.3072
# 5 8.7859 -2.0235 -6.3101 1.0521 24.3119 -5.8090
# 6 22.2133 12.4207 -6.5384 -5.3072 -5.8090 24.8083
#
#
#
# Elastic Compliance Matrix: (Units=1/GPa)
#
#
# Indices 1 2 3 4 5 6 
#
# 1 0.015153 -0.003387 -0.007688 -0.003010 -0.011756 -0.017295
# 2 -0.003387 0.027253 0.004367 0.007390 0.002567 -0.007279
# 3 -0.007688 0.004367 0.024394 0.010516 0.012938 0.016406
# 4 -0.003010 0.007390 0.010516 0.035460 0.005437 0.010626
# 5 -0.011756 0.002567 0.012938 0.005437 0.055100 0.026716
# 6 -0.017295 -0.007279 0.016406 0.010626 0.026716 0.072292
#
#
# Mechanical properties :
#
#
# Convention : Reuss Voigt Hill
#
# Bulk Modulus (GPa) = 18.73273 29.65575 24.19424
# Shear Modulus (GPa) = 19.16704 29.23599 24.20152
#
# Velocity S-wave (km/s) = 2.87492 3.55064 3.23050
# Velocity P-wave (km/s) = 4.37014 5.44036 4.93435
#
# Compressibility (1/GPa) = 0.05338251
#
# Stress axis : x y z
#
# Youngs Moduli (GPa) = 65.99183 36.69367 40.99382
#
# Poissons Ratio (x) = 0.12429 0.31518
# Poissons Ratio (y) = 0.22353 -0.17902
# Poissons Ratio (z) = 0.50738 -0.16024
#
# Static dielectric constant tensor:
#      x y z
#    x 1.850260 -0.013810 0.009010 
#    y -0.013810 1.924680 0.026890 
#    z 0.009010 0.026890 1.884060 
# 
# From -- ./inp_files/523408.got.cif
#   From: 2010.05.17/outbox.cif.g08.bks.cpg/sg2_262_cif.got.tgz:523408.got - 2010.06.03 11:33:40.
