data_PCOD9093401
_publ_section_title
;
Structure prediction by ZEFSAII (Michael W. Deem and Ramdas Pophale) SiO2 
 PCOD9093401
Probable space group: P -1
;
_chemical_formula_sum "Si O2"
_cell_formula_units_Z 16
_cell_length_a 9.078193
_cell_length_b 18.788405
_cell_length_c 10.690980
_cell_angle_alpha 135.704517
_cell_angle_beta 122.236171
_cell_angle_gamma 31.599321
_cell_volume 652.628451
_symmetry_space_group_name_H-M "P -1"
_symmetry_group_IT_number 2
_symmetry_cell_setting 'triclinic'
loop_
_space_group_symop_operation_xyz
x,y,z
-x,-y,-z
loop_
_atom_site_type_symbol
_atom_site_label
_atom_site_fract_x
_atom_site_fract_y
_atom_site_fract_z
Si Si1 0.384506 0.102060 0.757637
Si Si2 0.621658 0.192562 0.212437
Si Si3 0.230372 0.501684 0.238416
Si Si4 0.074123 0.328131 0.157530
Si Si5 0.619158 0.707233 0.177366
Si Si6 0.458367 0.636774 0.199086
Si Si7 0.253574 0.091817 0.111072
Si Si8 0.087757 0.786270 0.461447
O O1 0.468569 0.165060 0.800843
O O2 0.223150 0.106104 0.591081
O O3 0.637209 0.927384 0.726951
O O4 0.184090 0.232527 0.950529
O O5 0.473116 0.333812 0.219302
O O6 0.330738 0.283262 0.261140
O O7 0.846248 0.150853 0.341292
O O8 0.779016 0.013857 0.021522
O O9 0.235275 0.620274 0.385781
O O10 0.901296 0.621343 0.265830
O O11 0.271861 0.440228 0.039562
O O12 0.011055 0.270448 0.160563
O O13 0.773763 0.520141 0.242129
O O14 0.385032 0.761358 0.225714
O O15 0.240883 0.737124 0.338741
O O16 0.500000 0.500000 0.000000
O O17 0.500000 0.000000 0.000000
#
# Coordination Sequence:
#
# PCOD9093401 Si02
#       8
#     2   2   2   2   2   2   2   2
#     4   9  16  33  54  75  96 129 184 205 248 291
#     4  10  18  33  50  78 108 128 171 215 256 299
#     4  10  16  30  50  74 104 132 172 209 253 297
#     4  10  18  35  53  76 101 139 176 207 248 303
#     4  10  16  29  53  73  97 138 172 210 240 304
#     4  12  20  31  51  78 112 131 166 207 257 318
#     4   8  17  32  56  76  94 136 179 219 234 292
#     4  11  22  28  50  85 110 132 153 217 273 298
#
# _framework density 24.516248000000001
#
# number of rings (size 3 to 8) (size 9 to 14) (size 15 to 20)
#    0.000    2.250    6.250    1.125    0.000    0.500 
#    0.000    5.625    0.000    3.000    0.000    7.875 
#    0.000    0.000    0.000    0.000    0.000    0.000 
#
# Total GULP energy -89275.889320 kJ/mol
# GULP energy per Si atom -5579.743083 kJ/mol
# Density = 2.446045 g / cm^3
# Si number density = 24.516248 Si / 1000 Ang^3
#
#
#
# Elastic Constant Matrix: (Units=GPa)
#
#
# Indices 1 2 3 4 5 6 
#
# 1 115.9361 53.0200 28.8272 -2.8343 13.3951 30.8879
# 2 53.0200 109.9635 38.2294 -22.9545 7.2945 40.7658
# 3 28.8272 38.2294 83.6345 -22.6899 26.8429 -2.9085
# 4 -2.8343 -22.9545 -22.6899 20.2871 -12.0409 -0.9025
# 5 13.3951 7.2945 26.8429 -12.0409 25.5879 0.2628
# 6 30.8879 40.7658 -2.9085 -0.9025 0.2628 43.9130
#
#
#
# Elastic Compliance Matrix: (Units=1/GPa)
#
#
# Indices 1 2 3 4 5 6 
#
# 1 0.014288 -0.006696 -0.003013 -0.014631 -0.009251 -0.004279
# 2 -0.006696 0.029976 -0.009998 0.033498 0.021450 -0.023220
# 3 -0.003013 -0.009998 0.026216 0.006114 -0.020335 0.013385
# 4 -0.014631 0.033498 0.006114 0.119827 0.048271 -0.018227
# 5 -0.009251 0.021450 -0.020335 0.048271 0.082002 -0.014251
# 6 -0.004279 -0.023220 0.013385 -0.018227 -0.014251 0.047936
#
#
# Mechanical properties :
#
#
# Convention : Reuss Voigt Hill
#
# Bulk Modulus (GPa) = 32.18958 61.07636 46.63297
# Shear Modulus (GPa) = 13.51295 30.58808 22.05051
#
# Velocity S-wave (km/s) = 2.35028 3.53606 3.00229
# Velocity P-wave (km/s) = 4.53028 6.45278 5.57503
#
# Compressibility (1/GPa) = 0.03106595
#
# Stress axis : x y z
#
# Youngs Moduli (GPa) = 69.98909 33.35981 38.14408
#
# Poissons Ratio (x) = 0.22337 0.11494
# Poissons Ratio (y) = 0.46862 0.38138
# Poissons Ratio (z) = 0.21090 0.33354
#
# Static dielectric constant tensor:
#      x y z
#    x 2.023960 0.001240 -0.010900 
#    y 0.001240 2.044400 0.034710 
#    z -0.010900 0.034710 1.966350 
# 
# From -- ./inp_files/402237.got.cif
#   From: 2010.05.17/outbox.cif.g08.bks.cpg/sg2_202_cif.got.tgz:402237.got - 2010.06.03 11:33:40.
