data_PCOD9093300
_publ_section_title
;
Structure prediction by ZEFSAII (Michael W. Deem and Ramdas Pophale) SiO2 
 PCOD9093300
Probable space group: P -1
;
_chemical_formula_sum "Si O2"
_cell_formula_units_Z 14
_cell_length_a 16.999605
_cell_length_b 5.273021
_cell_length_c 9.884916
_cell_angle_alpha 88.273025
_cell_angle_beta 50.569957
_cell_angle_gamma 71.792428
_cell_volume 632.800584
_symmetry_space_group_name_H-M "P -1"
_symmetry_group_IT_number 2
_symmetry_cell_setting 'triclinic'
loop_
_space_group_symop_operation_xyz
x,y,z
-x,-y,-z
loop_
_atom_site_type_symbol
_atom_site_label
_atom_site_fract_x
_atom_site_fract_y
_atom_site_fract_z
Si Si1 0.940752 0.206601 0.407204
Si Si2 0.239351 0.825289 0.736715
Si Si3 0.852699 0.877367 0.673234
Si Si4 0.267176 0.183700 0.946019
Si Si5 0.058241 0.719442 0.080817
Si Si6 0.427476 0.316397 0.606494
Si Si7 0.835537 0.706356 0.385330
O O1 0.847555 0.396610 0.403829
O O2 0.034894 0.298113 0.365646
O O3 0.876823 0.147143 0.604577
O O4 0.014575 0.943383 0.244103
O O5 0.116896 0.837522 0.902221
O O6 0.319293 0.507244 0.636550
O O7 0.273928 0.945795 0.834572
O O8 0.245718 0.034252 0.610837
O O9 0.837329 0.783809 0.540859
O O10 0.754007 0.905499 0.880552
O O11 0.158799 0.445995 0.020567
O O12 0.369105 0.279505 0.810663
O O13 0.950354 0.650292 0.181046
O O14 0.500000 0.500000 0.500000
O O15 0.500000 0.000000 0.500000
#
# Coordination Sequence:
#
# PCOD9093300 Si02
#       7
#     2   2   2   2   2   2   2
#     4  10  20  32  55  78 133 180 215 239 286 356
#     4  11  23  38  62  94 121 164 208 262 319 377
#     4  10  21  35  53  86 122 178 211 245 291 361
#     4  11  22  38  66  89 123 159 220 256 310 375
#     4  10  20  34  54  87 129 172 213 248 298 360
#     4  11  24  47  72  97 117 154 207 280 334 380
#     4  11  22  35  54  87 137 172 203 249 302 365
#
# _framework density 22.123874000000001
#
# number of rings (size 3 to 8) (size 9 to 14) (size 15 to 20)
#    0.000    1.429    4.286    0.857    4.000    6.857 
#    0.000    0.000    0.000    1.714    0.000    0.000 
#    0.000    0.000    0.000    0.000    0.000    0.000 
#
# Total GULP energy -77938.679069 kJ/mol
# GULP energy per Si atom -5567.048505 kJ/mol
# Density = 2.207352 g / cm^3
# Si number density = 22.123874 Si / 1000 Ang^3
#
#
#
# Elastic Constant Matrix: (Units=GPa)
#
#
# Indices 1 2 3 4 5 6 
#
# 1 31.9027 14.1706 37.2868 -8.0617 -5.1994 0.0617
# 2 14.1706 150.3266 61.4410 -3.8787 -2.4941 -17.5190
# 3 37.2868 61.4410 143.1910 -36.5822 -5.3316 -6.5982
# 4 -8.0617 -3.8787 -36.5822 51.3086 6.5925 -4.0971
# 5 -5.1994 -2.4941 -5.3316 6.5925 45.0836 -5.5675
# 6 0.0617 -17.5190 -6.5982 -4.0971 -5.5675 35.3223
#
#
#
# Elastic Compliance Matrix: (Units=1/GPa)
#
#
# Indices 1 2 3 4 5 6 
#
# 1 0.046115 0.000717 -0.012904 -0.002556 0.003983 -0.001804
# 2 0.000717 0.008680 -0.004263 -0.002101 0.000784 0.003388
# 3 -0.012904 -0.004263 0.014253 0.008055 -0.001051 0.001340
# 4 -0.002556 -0.002101 0.008055 0.025267 -0.002788 0.002959
# 5 0.003983 0.000784 -0.001051 -0.002788 0.023406 0.003552
# 6 -0.001804 0.003388 0.001340 0.002959 0.003552 0.031147
#
#
# Mechanical properties :
#
#
# Convention : Reuss Voigt Hill
#
# Bulk Modulus (GPa) = 27.66283 61.24632 44.45458
# Shear Modulus (GPa) = 25.79746 40.51103 33.15425
#
# Velocity S-wave (km/s) = 3.41845 4.28378 3.87534
# Velocity P-wave (km/s) = 5.30206 7.22573 6.33731
#
# Compressibility (1/GPa) = 0.03614959
#
# Stress axis : x y z
#
# Youngs Moduli (GPa) = 21.68486 115.20133 70.15965
#
# Poissons Ratio (x) = -0.08258 0.90532
# Poissons Ratio (y) = -0.01554 0.29907
# Poissons Ratio (z) = 0.27982 0.49106
#
# Static dielectric constant tensor:
#      x y z
#    x 1.975940 0.082840 0.015340 
#    y 0.082840 2.040420 0.002760 
#    z 0.015340 0.002760 1.809530 
# 
# From -- ./inp_files/340307.got.cif
#   From: 2010.05.17/outbox.cif.g08.bks.cpg/sg2_171_cif.got.tgz:340307.got - 2010.06.03 11:33:40.
