data_PCOD9093956
_publ_section_title
;
Structure prediction by ZEFSAII (Michael W. Deem and Ramdas Pophale) SiO2 
 PCOD9093956
Probable space group: P -1
;
_chemical_formula_sum "Si O2"
_cell_formula_units_Z 14
_cell_length_a 9.010621
_cell_length_b 7.038061
_cell_length_c 12.733198
_cell_angle_alpha 104.970978
_cell_angle_beta 82.074460
_cell_angle_gamma 54.304401
_cell_volume 589.112710
_symmetry_space_group_name_H-M "P -1"
_symmetry_group_IT_number 2
_symmetry_cell_setting 'triclinic'
loop_
_space_group_symop_operation_xyz
x,y,z
-x,-y,-z
loop_
_atom_site_type_symbol
_atom_site_label
_atom_site_fract_x
_atom_site_fract_y
_atom_site_fract_z
Si Si1 0.727377 0.556084 0.684922
Si Si2 0.974568 0.360136 0.331218
Si Si3 0.546780 0.689724 0.502698
Si Si4 0.403629 0.366322 0.870464
Si Si5 0.021314 0.199248 0.074137
Si Si6 0.724540 0.086252 0.618936
Si Si7 0.556797 0.193055 0.059297
O O1 0.927058 0.509623 0.669274
O O2 0.607326 0.717549 0.614642
O O3 0.755035 0.296716 0.641225
O O4 0.593760 0.720678 0.821145
O O5 0.035110 0.185431 0.197251
O O6 0.742514 0.544918 0.393446
O O7 0.076062 0.179540 0.397964
O O8 0.500000 0.500000 0.500000
O O9 0.363326 0.915923 0.483004
O O10 0.559077 0.185915 0.738391
O O11 0.410448 0.598832 0.907751
O O12 0.176045 0.512028 0.889852
O O13 0.472263 0.232034 0.957249
O O14 0.230521 0.088361 0.993650
O O15 0.000000 0.000000 0.000000
#
# Coordination Sequence:
#
# PCOD9093956 Si02
#       7
#     2   2   2   2   2   2   2
#     4  10  24  41  63  97 132 163 211 268 307 378
#     4  12  23  42  68  94 126 170 211 262 323 365
#     4  10  23  44  68  93 126 169 215 260 314 379
#     4   9  16  34  60  88 118 167 205 252 307 369
#     4  10  20  33  63  91 120 167 208 251 311 378
#     4  10  21  42  68  90 126 170 213 257 317 375
#     4   9  18  35  58  87 126 161 202 254 317 363
#
# _framework density 23.764554
#
# number of rings (size 3 to 8) (size 9 to 14) (size 15 to 20)
#    0.000    2.000    2.857    0.429    4.000    3.429 
#    0.000    6.429    0.000    0.000    0.000    0.000 
#    0.000    0.000    0.000    0.000    0.000    0.000 
#
# Total GULP energy -78335.895596 kJ/mol
# GULP energy per Si atom -5595.421114 kJ/mol
# Density = 2.371046 g / cm^3
# Si number density = 23.764554 Si / 1000 Ang^3
#
#
#
# Elastic Constant Matrix: (Units=GPa)
#
#
# Indices 1 2 3 4 5 6 
#
# 1 138.9019 34.4231 47.5367 10.7077 -10.3842 -2.0426
# 2 34.4231 58.6345 9.4930 4.1568 -1.5715 -13.9700
# 3 47.5367 9.4930 110.7825 -5.6831 -4.0506 2.7944
# 4 10.7077 4.1568 -5.6831 24.8696 -8.4417 12.2078
# 5 -10.3842 -1.5715 -4.0506 -8.4417 33.6442 -1.2862
# 6 -2.0426 -13.9700 2.7944 12.2078 -1.2862 35.0537
#
#
#
# Elastic Compliance Matrix: (Units=1/GPa)
#
#
# Indices 1 2 3 4 5 6 
#
# 1 0.010290 -0.004881 -0.004187 -0.004385 0.001365 0.000565
# 2 -0.004881 0.023471 -0.000747 -0.008666 -0.002213 0.012066
# 3 -0.004187 -0.000747 0.011401 0.006965 0.001647 -0.003815
# 4 -0.004385 -0.008666 0.006965 0.062296 0.013738 -0.025456
# 5 0.001365 -0.002213 0.001647 0.013738 0.033515 -0.004488
# 6 0.000565 0.012066 -0.003815 -0.025456 -0.004488 0.042374
#
#
# Mechanical properties :
#
#
# Convention : Reuss Voigt Hill
#
# Bulk Modulus (GPa) = 39.16414 54.58051 46.87233
# Shear Modulus (GPa) = 23.64215 33.17125 28.40670
#
# Velocity S-wave (km/s) = 3.15754 3.74013 3.46112
# Velocity P-wave (km/s) = 5.45979 6.45511 5.97820
#
# Compressibility (1/GPa) = 0.02553356
#
# Stress axis : x y z
#
# Youngs Moduli (GPa) = 97.17971 42.60556 87.71264
#
# Poissons Ratio (x) = 0.20796 0.36721
# Poissons Ratio (y) = 0.47435 0.06549
# Poissons Ratio (z) = 0.40685 0.03181
#
# Static dielectric constant tensor:
#      x y z
#    x 1.919880 0.027170 0.014000 
#    y 0.027170 1.902760 -0.014690 
#    z 0.014000 -0.014690 1.870290 
# 
# From -- ./inp_files/258051.got.cif
#   From: 2010.05.17/outbox.cif.g08.bks.cpg/sg2_130_cif.got.tgz:258051.got - 2010.06.03 11:33:40.
