data_PCOD9093142
_publ_section_title
;
Structure prediction by ZEFSAII (Michael W. Deem and Ramdas Pophale) SiO2 
 PCOD9093142
Probable space group: P -1
;
_chemical_formula_sum "Si O2"
_cell_formula_units_Z 14
_cell_length_a 17.085821
_cell_length_b 18.305629
_cell_length_c 5.743940
_cell_angle_alpha 101.397321
_cell_angle_beta 81.877760
_cell_angle_gamma 24.904804
_cell_volume 467.357924
_symmetry_space_group_name_H-M "P -1"
_symmetry_group_IT_number 2
_symmetry_cell_setting 'triclinic'
loop_
_space_group_symop_operation_xyz
x,y,z
-x,-y,-z
loop_
_atom_site_type_symbol
_atom_site_label
_atom_site_fract_x
_atom_site_fract_y
_atom_site_fract_z
Si Si1 0.237257 0.421722 0.338761
Si Si2 0.745713 0.451171 0.820008
Si Si3 0.722957 0.330915 0.989968
Si Si4 0.318019 0.913694 0.673778
Si Si5 0.773708 0.708777 0.436139
Si Si6 0.669553 0.958718 0.501536
Si Si7 0.701885 0.209158 0.158301
O O1 0.080363 0.640197 0.445880
O O2 0.470030 0.242489 0.317747
O O3 0.134308 0.439055 0.517616
O O4 0.409468 0.235121 0.923224
O O5 0.518001 0.625453 0.836451
O O6 0.897895 0.238897 0.729560
O O7 0.537211 0.676164 0.247275
O O8 0.876310 0.118422 0.902718
O O9 0.512108 0.559333 0.415491
O O10 0.500000 0.500000 0.000000
O O11 0.157531 0.129738 0.750543
O O12 0.144479 0.003470 0.928022
O O13 0.462381 0.965726 0.618335
O O14 0.761661 0.808658 0.544953
O O15 0.000000 0.500000 0.000000
#
# Coordination Sequence:
#
# PCOD9093142 Si02
#       7
#     2   2   2   2   2   2   2
#     4   9  16  28  44  60  83 115 145 178 222 264
#     4   8  13  21  34  53  78 112 146 176 216 260
#     4   8  12  17  27  48  79 112 145 179 213 252
#     4   8  14  24  39  57  79 111 145 176 216 261
#     4  10  20  32  47  67  88 112 146 184 221 265
#     4   9  18  32  47  64  88 116 145 180 222 265
#     4   8  12  18  30  50  78 112 144 177 216 253
#
# _framework density 29.955627
#
# number of rings (size 3 to 8) (size 9 to 14) (size 15 to 20)
#    0.000    3.429    0.000    0.429    0.000    0.571 
#    0.000    0.000    0.000    0.000    0.000    0.000 
#    0.000    1.143    0.000  490.714    0.000 1240.857 
#
# Total GULP energy -78379.905386 kJ/mol
# GULP energy per Si atom -5598.564670 kJ/mol
# Density = 2.988745 g / cm^3
# Si number density = 29.955627 Si / 1000 Ang^3
#
#
#
# Elastic Constant Matrix: (Units=GPa)
#
#
# Indices 1 2 3 4 5 6 
#
# 1 297.2621 89.0478 47.1744 -27.2180 -29.1118 87.4485
# 2 89.0478 238.0416 24.8873 -38.1754 -28.3739 85.8861
# 3 47.1744 24.8873 93.1534 -2.1128 0.4911 -2.6450
# 4 -27.2180 -38.1754 -2.1128 47.3222 6.5279 -20.0698
# 5 -29.1118 -28.3739 0.4911 6.5279 55.8566 -37.2524
# 6 87.4485 85.8861 -2.6450 -20.0698 -37.2524 93.8146
#
#
#
# Elastic Compliance Matrix: (Units=1/GPa)
#
#
# Indices 1 2 3 4 5 6 
#
# 1 0.005356 0.000355 -0.002936 0.001014 -0.000786 -0.005496
# 2 0.000355 0.007050 -0.002173 0.003148 -0.000951 -0.006551
# 3 -0.002936 -0.002173 0.012931 -0.000747 0.000854 0.005270
# 4 0.001014 0.003148 -0.000747 0.024852 0.000284 0.001582
# 5 -0.000786 -0.000951 0.000854 0.000284 0.024614 0.011463
# 6 -0.005496 -0.006551 0.005270 0.001582 0.011463 0.026819
#
#
# Mechanical properties :
#
#
# Convention : Reuss Voigt Hill
#
# Bulk Modulus (GPa) = 63.17549 105.63068 84.40308
# Shear Modulus (GPa) = 42.95269 70.55518 56.75393
#
# Velocity S-wave (km/s) = 3.79076 4.85843 4.35742
# Velocity P-wave (km/s) = 6.34786 8.17383 7.31802
#
# Compressibility (1/GPa) = 0.01582892
#
# Stress axis : x y z
#
# Youngs Moduli (GPa) = 186.69702 141.83571 77.33511
#
# Poissons Ratio (x) = -0.05037 0.22708
# Poissons Ratio (y) = -0.06630 0.16805
# Poissons Ratio (z) = 0.54820 0.30822
#
# Static dielectric constant tensor:
#      x y z
#    x 2.429890 0.000420 -0.002420 
#    y 0.000420 2.516010 -0.092160 
#    z -0.002420 -0.092160 2.170880 
# 
# From -- ./inp_files/10191.got.cif
#   From: 2010.05.17/outbox.cif.g08.bks.cpg/sg2_6_cif.got.tgz:10191.got - 2010.06.03 11:33:40.
