data_PCOD9093384
_publ_section_title
;
Structure prediction by ZEFSAII (Michael W. Deem and Ramdas Pophale) SiO2 
 PCOD9093384
Probable space group: P -1
;
_chemical_formula_sum "Si O2"
_cell_formula_units_Z 16
_cell_length_a 17.772676
_cell_length_b 14.386714
_cell_length_c 11.204518
_cell_angle_alpha 46.837093
_cell_angle_beta 131.880158
_cell_angle_gamma 158.579583
_cell_volume 758.067701
_symmetry_space_group_name_H-M "P -1"
_symmetry_group_IT_number 2
_symmetry_cell_setting 'triclinic'
loop_
_space_group_symop_operation_xyz
x,y,z
-x,-y,-z
loop_
_atom_site_type_symbol
_atom_site_label
_atom_site_fract_x
_atom_site_fract_y
_atom_site_fract_z
Si Si1 0.380343 0.314328 0.332666
Si Si2 0.856838 0.107092 0.135914
Si Si3 0.768705 0.779423 0.482325
Si Si4 0.746440 0.152689 0.170097
Si Si5 0.308818 0.615991 0.104872
Si Si6 0.866531 0.214082 0.485112
Si Si7 0.316511 0.742316 0.615347
Si Si8 0.534114 0.338683 0.010267
O O1 0.602322 0.524333 0.445432
O O2 0.274322 0.261331 0.386043
O O3 0.403044 0.443069 0.135805
O O4 0.257570 0.054271 0.387446
O O5 0.823683 0.208169 0.069905
O O6 0.093626 0.328192 0.180034
O O7 0.748477 0.899970 0.302845
O O8 0.717468 0.941030 0.016722
O O9 0.000000 0.000000 0.500000
O O10 0.885718 0.241008 0.338847
O O11 0.507079 0.845014 0.198937
O O12 0.747839 0.303085 0.060133
O O13 0.381638 0.627003 0.054231
O O14 0.739245 0.200371 0.404594
O O15 0.095154 0.472026 0.555645
O O16 0.500000 0.000000 0.500000
O O17 0.388264 0.682645 0.795516
#
# Coordination Sequence:
#
# PCOD9093384 Si02
#       8
#     2   2   2   2   2   2   2   2
#     4  10  22  40  61  90 131 159 198 251 299 374
#     4  10  20  32  58  92 125 159 195 243 299 371
#     4  10  20  34  57  94 130 166 194 230 305 375
#     4  10  20  35  55  91 123 157 199 242 311 365
#     4  10  20  34  57  90 128 159 190 246 304 372
#     4  11  24  44  65  90 122 163 206 264 308 352
#     4  11  27  46  66  87 115 163 220 267 307 353
#     4  10  22  41  61  88 122 162 202 248 307 359
#
# _framework density 21.106293000000001
#
# number of rings (size 3 to 8) (size 9 to 14) (size 15 to 20)
#    0.000    1.750    2.500    1.125    5.250    2.500 
#    0.000    0.625    0.000    0.000    0.000    0.000 
#    0.000    0.000    0.000    0.000    0.000    0.000 
#
# Total GULP energy -89104.602780 kJ/mol
# GULP energy per Si atom -5569.037674 kJ/mol
# Density = 2.105825 g / cm^3
# Si number density = 21.106293 Si / 1000 Ang^3
#
#
#
# Elastic Constant Matrix: (Units=GPa)
#
#
# Indices 1 2 3 4 5 6 
#
# 1 30.7456 33.3251 4.7164 4.2897 8.3996 1.0584
# 2 33.3251 127.4519 45.4875 -16.2131 -0.4897 -6.7018
# 3 4.7164 45.4875 121.8826 -6.2935 12.4958 -8.8755
# 4 4.2897 -16.2131 -6.2935 17.4522 -5.9365 1.6635
# 5 8.3996 -0.4897 12.4958 -5.9365 25.1676 -6.1972
# 6 1.0584 -6.7018 -8.8755 1.6635 -6.1972 35.9935
#
#
#
# Elastic Compliance Matrix: (Units=1/GPa)
#
#
# Indices 1 2 3 4 5 6 
#
# 1 0.116165 -0.048595 0.015162 -0.091440 -0.073015 -0.017071
# 2 -0.048595 0.030893 -0.010162 0.048185 0.035332 0.008532
# 3 0.015162 -0.010162 0.012130 -0.013716 -0.014828 -0.001266
# 4 -0.091440 0.048185 -0.013716 0.143992 0.075845 0.014682
# 5 -0.073015 0.035332 -0.014828 0.075845 0.094431 0.017823
# 6 -0.017071 0.008532 -0.001266 0.014682 0.017823 0.031951
#
#
# Mechanical properties :
#
#
# Convention : Reuss Voigt Hill
#
# Bulk Modulus (GPa) = 13.88938 49.68202 31.78570
# Shear Modulus (GPa) = 9.24639 28.82605 19.03622
#
# Velocity S-wave (km/s) = 2.09532 3.69962 3.00646
# Velocity P-wave (km/s) = 3.52829 6.46836 5.21001
#
# Compressibility (1/GPa) = 0.07199745
#
# Stress axis : x y z
#
# Youngs Moduli (GPa) = 8.60847 32.36962 82.43867
#
# Poissons Ratio (x) = 1.57301 -1.24994
# Poissons Ratio (y) = 0.41833 0.83775
# Poissons Ratio (z) = -0.13052 0.32894
#
# Static dielectric constant tensor:
#      x y z
#    x 1.779250 -0.030500 0.014030 
#    y -0.030500 1.823300 -0.038770 
#    z 0.014030 -0.038770 1.832840 
# 
# From -- ./inp_files/466059.got.cif
#   From: 2010.05.17/outbox.cif.g08.bks.cpg/sg2_234_cif.got.tgz:466059.got - 2010.06.03 11:33:40.
