data_PCOD9093464
_publ_section_title
;
Structure prediction by ZEFSAII (Michael W. Deem and Ramdas Pophale) SiO2 
 PCOD9093464
Probable space group: P -1
;
_chemical_formula_sum "Si O2"
_cell_formula_units_Z 14
_cell_length_a 7.454486
_cell_length_b 20.923088
_cell_length_c 7.388761
_cell_angle_alpha 72.061995
_cell_angle_beta 103.041124
_cell_angle_gamma 147.462053
_cell_volume 588.411398
_symmetry_space_group_name_H-M "P -1"
_symmetry_group_IT_number 2
_symmetry_cell_setting 'triclinic'
loop_
_space_group_symop_operation_xyz
x,y,z
-x,-y,-z
loop_
_atom_site_type_symbol
_atom_site_label
_atom_site_fract_x
_atom_site_fract_y
_atom_site_fract_z
Si Si1 0.019495 0.219647 0.039712
Si Si2 0.770506 0.111641 0.704437
Si Si3 0.275644 0.174561 0.353080
Si Si4 0.768713 0.466068 0.831329
Si Si5 0.270349 0.400482 0.192207
Si Si6 0.521735 0.353586 0.506709
Si Si7 0.668655 0.948270 0.643302
O O1 0.050261 0.158500 0.204224
O O2 0.995132 0.270997 0.139211
O O3 0.389810 0.342807 0.928828
O O4 0.775895 0.141453 0.881995
O O5 0.563479 0.094033 0.533707
O O6 0.150785 0.229837 0.615304
O O7 0.648804 0.997310 0.755495
O O8 0.546977 0.303267 0.405253
O O9 0.387379 0.148269 0.271847
O O10 0.048623 0.072659 0.546865
O O11 0.768191 0.431168 0.665002
O O12 0.840947 0.567812 0.751902
O O13 0.000000 0.500000 0.000000
O O14 0.485948 0.414774 0.348792
O O15 0.500000 0.500000 0.000000
#
# Coordination Sequence:
#
# PCOD9093464 Si02
#       7
#     2   2   2   2   2   2   2
#     4   9  19  34  49  69  98 128 159 198 239 285
#     4   9  18  32  50  72  97 127 161 194 237 287
#     4   9  18  33  50  71  99 126 157 198 242 281
#     4  10  20  33  50  74  98 124 164 204 240 283
#     4   9  18  34  51  69  95 129 163 195 240 290
#     4   9  18  34  52  69  98 132 159 197 242 285
#     4   9  18  32  50  72  96 126 160 194 237 288
#
# _framework density 23.792876
#
# number of rings (size 3 to 8) (size 9 to 14) (size 15 to 20)
#    0.000    2.857    0.000    0.429    0.000    3.429 
#    0.000    6.429    0.000    0.000    0.000    0.000 
#    0.000    0.000    0.000    0.000    0.000    0.000 
#
# Total GULP energy -78242.160770 kJ/mol
# GULP energy per Si atom -5588.725769 kJ/mol
# Density = 2.373872 g / cm^3
# Si number density = 23.792876 Si / 1000 Ang^3
#
#
#
# Elastic Constant Matrix: (Units=GPa)
#
#
# Indices 1 2 3 4 5 6 
#
# 1 100.1056 31.9523 27.8418 4.9545 2.0259 -30.7055
# 2 31.9523 105.3696 52.6449 10.1483 23.3145 -24.9797
# 3 27.8418 52.6449 117.4533 29.9440 -4.0853 -26.4213
# 4 4.9545 10.1483 29.9440 45.3931 3.0192 1.0765
# 5 2.0259 23.3145 -4.0853 3.0192 24.3009 -8.8548
# 6 -30.7055 -24.9797 -26.4213 1.0765 -8.8548 48.3917
#
#
#
# Elastic Compliance Matrix: (Units=1/GPa)
#
#
# Indices 1 2 3 4 5 6 
#
# 1 0.013406 -0.003761 0.001062 -0.001913 0.005921 0.008271
# 2 -0.003761 0.019556 -0.010071 0.004141 -0.021305 -0.001781
# 3 0.001062 -0.010071 0.018233 -0.011249 0.017257 0.008838
# 4 -0.001913 0.004141 -0.011249 0.029749 -0.012368 -0.008143
# 5 0.005921 -0.021305 0.017257 -0.012368 0.071176 0.015480
# 6 0.008271 -0.001781 0.008838 -0.008143 0.015480 0.032832
#
#
# Mechanical properties :
#
#
# Convention : Reuss Voigt Hill
#
# Bulk Modulus (GPa) = 38.98002 60.86740 49.92371
# Shear Modulus (GPa) = 22.82654 37.64979 30.23817
#
# Velocity S-wave (km/s) = 3.10076 3.98225 3.56882
# Velocity P-wave (km/s) = 5.40724 6.83975 6.16524
#
# Compressibility (1/GPa) = 0.02565417
#
# Stress axis : x y z
#
# Youngs Moduli (GPa) = 74.59163 51.13632 54.84682
#
# Poissons Ratio (x) = 0.19232 -0.05825
# Poissons Ratio (y) = 0.28054 0.55237
# Poissons Ratio (z) = -0.07922 0.51500
#
# Static dielectric constant tensor:
#      x y z
#    x 1.962360 0.055040 -0.068130 
#    y 0.055040 1.995200 -0.010160 
#    z -0.068130 -0.010160 1.834410 
# 
# From -- ./inp_files/219521.got.cif
#   From: 2010.05.17/outbox.cif.g08.bks.cpg/sg2_110_cif.got.tgz:219521.got - 2010.06.03 11:33:40.
