data_PCOD9093121
_publ_section_title
;
Structure prediction by ZEFSAII (Michael W. Deem and Ramdas Pophale) SiO2 
 PCOD9093121
Probable space group: P -1
;
_chemical_formula_sum "Si O2"
_cell_formula_units_Z 12
_cell_length_a 5.024258
_cell_length_b 13.377954
_cell_length_c 12.057332
_cell_angle_alpha 104.130287
_cell_angle_beta 125.485640
_cell_angle_gamma 100.421235
_cell_volume 584.088600
_symmetry_space_group_name_H-M "P -1"
_symmetry_group_IT_number 2
_symmetry_cell_setting 'triclinic'
loop_
_space_group_symop_operation_xyz
x,y,z
-x,-y,-z
loop_
_atom_site_type_symbol
_atom_site_label
_atom_site_fract_x
_atom_site_fract_y
_atom_site_fract_z
Si Si1 0.262096 0.442630 0.317485
Si Si2 0.388884 0.006182 0.631120
Si Si3 0.334381 0.689728 0.714549
Si Si4 0.422991 0.049252 0.106487
Si Si5 0.285102 0.335751 0.616011
Si Si6 0.282054 0.804035 0.397101
O O1 0.500000 0.500000 0.500000
O O2 0.956012 0.334217 0.461064
O O3 0.400124 0.539740 0.284354
O O4 0.862742 0.394747 0.255066
O O5 0.689997 0.120440 0.684374
O O6 0.415889 0.994014 0.763940
O O7 0.424454 0.898899 0.553304
O O8 0.000000 0.000000 0.500000
O O9 0.436863 0.816036 0.813733
O O10 0.645607 0.659656 0.730834
O O11 0.547440 0.744009 0.421767
O O12 0.500000 0.000000 0.000000
O O13 0.000000 0.000000 0.000000
O O14 0.101991 0.284523 0.675327
#
# Coordination Sequence:
#
# PCOD9093121 Si02
#       6
#     2   2   2   2   2   2
#     4  10  20  31  56  86 121 160 201 249 325 374
#     4  11  24  41  63  89 127 169 209 259 318 358
#     4  11  20  37  54  81 131 165 194 258 311 368
#     4  12  28  41  63  93 130 173 214 246 311 381
#     4  11  19  33  56  93 119 154 201 256 320 366
#     4  11  21  33  61  85 123 154 199 253 318 357
#
# _framework density 20.544827000000002
#
# number of rings (size 3 to 8) (size 9 to 14) (size 15 to 20)
#    0.000    1.000    3.333    6.000    7.000    0.000 
#    0.000    0.000    0.000    0.000    0.000   23.333 
#    0.000    0.000    0.000    0.000    0.000    0.000 
#
# Total GULP energy -67033.973205 kJ/mol
# GULP energy per Si atom -5586.164434 kJ/mol
# Density = 2.049807 g / cm^3
# Si number density = 20.544827 Si / 1000 Ang^3
#
#
#
# Elastic Constant Matrix: (Units=GPa)
#
#
# Indices 1 2 3 4 5 6 
#
# 1 117.3798 16.3682 25.6871 -13.1139 -24.8765 1.3959
# 2 16.3682 118.7194 28.6819 -17.6024 -14.0200 24.9483
# 3 25.6871 28.6819 71.8118 -10.1967 -18.2631 -2.6879
# 4 -13.1139 -17.6024 -10.1967 18.1186 3.3553 -4.2271
# 5 -24.8765 -14.0200 -18.2631 3.3553 31.8695 2.8559
# 6 1.3959 24.9483 -2.6879 -4.2271 2.8559 46.6871
#
#
#
# Elastic Compliance Matrix: (Units=1/GPa)
#
#
# Indices 1 2 3 4 5 6 
#
# 1 0.011049 0.000830 -0.001488 0.006398 0.007529 -0.000741
# 2 0.000830 0.012057 -0.003186 0.008390 0.003791 -0.006123
# 3 -0.001488 -0.003186 0.018449 0.005554 0.007167 0.002874
# 4 0.006398 0.008390 0.005554 0.070728 0.004261 0.001788
# 5 0.007529 0.003791 0.007167 0.004261 0.042947 -0.004080
# 6 -0.000741 -0.006123 0.002874 0.001788 -0.004080 0.025290
#
#
# Mechanical properties :
#
#
# Convention : Reuss Voigt Hill
#
# Bulk Modulus (GPa) = 29.52796 49.93171 39.72984
# Shear Modulus (GPa) = 25.06300 35.14662 30.10481
#
# Velocity S-wave (km/s) = 3.49652 4.14058 3.83211
# Velocity P-wave (km/s) = 5.54117 6.87137 6.24181
#
# Compressibility (1/GPa) = 0.03386620
#
# Stress axis : x y z
#
# Youngs Moduli (GPa) = 90.50911 82.93836 54.20394
#
# Poissons Ratio (x) = -0.06881 0.08064
# Poissons Ratio (y) = -0.07509 0.17270
# Poissons Ratio (z) = 0.13466 0.26424
#
# Static dielectric constant tensor:
#      x y z
#    x 1.771520 -0.004870 0.011180 
#    y -0.004870 1.844470 -0.033190 
#    z 0.011180 -0.033190 1.701830 
# 
# From -- ./inp_files/132365.got.cif
#   From: 2010.05.17/outbox.cif.g08.bks.cpg/sg2_67_cif.got.tgz:132365.got - 2010.06.03 11:33:40.
