data_PCOD9093938
_publ_section_title
;
Structure prediction by ZEFSAII (Michael W. Deem and Ramdas Pophale) SiO2 
 PCOD9093938
Probable space group: P -1
;
_chemical_formula_sum "Si O2"
_cell_formula_units_Z 16
_cell_length_a 14.780899
_cell_length_b 15.577586
_cell_length_c 9.537067
_cell_angle_alpha 92.227422
_cell_angle_beta 53.335902
_cell_angle_gamma 138.089307
_cell_volume 769.078023
_symmetry_space_group_name_H-M "P -1"
_symmetry_group_IT_number 2
_symmetry_cell_setting 'triclinic'
loop_
_space_group_symop_operation_xyz
x,y,z
-x,-y,-z
loop_
_atom_site_type_symbol
_atom_site_label
_atom_site_fract_x
_atom_site_fract_y
_atom_site_fract_z
Si Si1 0.247629 0.211541 0.711418
Si Si2 0.071721 0.315648 0.169957
Si Si3 0.101480 0.662743 0.455836
Si Si4 0.497422 0.117790 0.396257
Si Si5 0.255224 0.552311 0.764220
Si Si6 0.062170 0.342264 0.651281
Si Si7 0.544412 0.526585 0.690150
Si Si8 0.409798 0.013214 0.782275
O O1 0.447067 0.272331 0.499341
O O2 0.378900 0.363755 0.714032
O O3 0.259670 0.274786 0.560306
O O4 0.000000 0.000000 0.000000
O O5 0.058640 0.387275 0.291325
O O6 0.792199 0.076240 0.413954
O O7 0.103029 0.379903 0.990584
O O8 0.323343 0.428994 0.968800
O O9 0.370651 0.831071 0.294735
O O10 0.000000 0.500000 0.500000
O O11 0.094393 0.714481 0.325083
O O12 0.596682 0.091787 0.261263
O O13 0.723386 0.341222 0.173623
O O14 0.468791 0.102180 0.590121
O O15 0.170338 0.481975 0.677741
O O16 0.286996 0.433448 0.393061
O O17 0.859200 0.145498 0.911777
#
# Coordination Sequence:
#
# PCOD9093938 Si02
#       8
#     2   2   2   2   2   2   2   2
#     4   9  17  30  55  89 120 150 187 234 292 346
#     4  10  21  41  61  89 121 151 197 243 293 356
#     4  11  25  42  60  84 116 162 204 245 296 346
#     4  10  20  36  61  91 117 153 196 247 291 344
#     4  10  20  33  62  90 116 154 189 242 296 342
#     4  11  22  39  60  89 121 158 197 241 297 349
#     4   9  20  35  57  87 120 153 189 239 292 352
#     4  10  22  38  58  86 118 155 202 243 294 346
#
# _framework density 20.804131999999999
#
# number of rings (size 3 to 8) (size 9 to 14) (size 15 to 20)
#    0.000    2.000    1.250    2.625    3.500    1.000 
#    0.000    0.000    0.000    0.750    0.000    0.000 
#    0.000    0.000    0.000    0.000    0.000    0.000 
#
# Total GULP energy -89193.363995 kJ/mol
# GULP energy per Si atom -5574.585250 kJ/mol
# Density = 2.075678 g / cm^3
# Si number density = 20.804132 Si / 1000 Ang^3
#
#
#
# Elastic Constant Matrix: (Units=GPa)
#
#
# Indices 1 2 3 4 5 6 
#
# 1 44.4868 33.7408 10.6997 -2.9359 -4.7821 6.6703
# 2 33.7408 88.7612 14.6731 3.9783 -12.2422 -6.9478
# 3 10.6997 14.6731 64.7065 -3.4709 -19.4548 -0.4287
# 4 -2.9359 3.9783 -3.4709 27.3369 -2.0803 4.4545
# 5 -4.7821 -12.2422 -19.4548 -2.0803 30.7615 4.1776
# 6 6.6703 -6.9478 -0.4287 4.4545 4.1776 22.7954
#
#
#
# Elastic Compliance Matrix: (Units=1/GPa)
#
#
# Indices 1 2 3 4 5 6 
#
# 1 0.038597 -0.015994 -0.001912 0.009331 0.001543 -0.018311
# 2 -0.015994 0.019038 -0.001226 -0.006299 0.002360 0.011258
# 3 -0.001912 -0.001226 0.019982 0.003861 0.012450 -0.002474
# 4 0.009331 -0.006299 0.003861 0.041709 0.006086 -0.013843
# 5 0.001543 0.002360 0.012450 0.006086 0.043139 -0.008594
# 6 -0.018311 0.011258 -0.002474 -0.013843 -0.008594 0.056892
#
#
# Mechanical properties :
#
#
# Convention : Reuss Voigt Hill
#
# Bulk Modulus (GPa) = 25.41172 35.13131 30.27151
# Shear Modulus (GPa) = 18.46800 25.43482 21.95141
#
# Velocity S-wave (km/s) = 2.98268 3.50034 3.25183
# Velocity P-wave (km/s) = 4.90949 5.76714 5.35551
#
# Compressibility (1/GPa) = 0.03935192
#
# Stress axis : x y z
#
# Youngs Moduli (GPa) = 25.90904 52.52711 50.04393
#
# Poissons Ratio (x) = 0.84013 0.09568
# Poissons Ratio (y) = 0.41440 0.06136
# Poissons Ratio (z) = 0.04954 0.06440
#
# Static dielectric constant tensor:
#      x y z
#    x 1.818730 -0.035270 0.006150 
#    y -0.035270 1.773680 -0.018630 
#    z 0.006150 -0.018630 1.787880 
# 
# From -- ./inp_files/239752.got.cif
#   From: 2010.05.17/outbox.cif.g08.bks.cpg/sg2_120_cif.got.tgz:239752.got - 2010.06.03 11:33:40.
