data_PCOD9093913
_publ_section_title
;
Structure prediction by ZEFSAII (Michael W. Deem and Ramdas Pophale) SiO2 
 PCOD9093913
Probable space group: P -1
;
_chemical_formula_sum "Si O2"
_cell_formula_units_Z 12
_cell_length_a 14.655737
_cell_length_b 8.264267
_cell_length_c 5.202533
_cell_angle_alpha 64.141456
_cell_angle_beta 74.655726
_cell_angle_gamma 100.723210
_cell_volume 512.761192
_symmetry_space_group_name_H-M "P -1"
_symmetry_group_IT_number 2
_symmetry_cell_setting 'triclinic'
loop_
_space_group_symop_operation_xyz
x,y,z
-x,-y,-z
loop_
_atom_site_type_symbol
_atom_site_label
_atom_site_fract_x
_atom_site_fract_y
_atom_site_fract_z
Si Si1 0.943021 0.631446 0.186071
Si Si2 0.535721 0.867385 0.262099
Si Si3 0.342411 0.801755 0.666801
Si Si4 0.267953 0.051816 0.171197
Si Si5 0.845183 0.277750 0.850793
Si Si6 0.903402 0.821990 0.597802
O O1 0.896225 0.418234 0.481533
O O2 0.921933 0.759175 0.343541
O O3 0.063939 0.693942 0.039568
O O4 0.899052 0.664434 0.927117
O O5 0.429582 0.726564 0.551236
O O6 0.596708 0.009829 0.342092
O O7 0.622114 0.807423 0.101398
O O8 0.500000 0.000000 0.000000
O O9 0.292034 0.882383 0.420495
O O10 0.250801 0.677770 0.997999
O O11 0.200161 0.136713 0.331621
O O12 0.198630 0.940712 0.063139
O O13 0.000000 0.000000 0.500000
#
# Coordination Sequence:
#
# PCOD9093913 Si02
#       6
#     2   2   2   2   2   2
#     4  11  26  39  58  86 123 156 195 238 288 347
#     4   8  16  31  52  90 109 142 187 251 280 335
#     4   9  17  32  58  84 113 143 196 241 288 332
#     4  10  20  33  61  84 116 150 197 240 288 341
#     4  10  22  37  58  84 114 158 195 238 285 343
#     4  12  24  40  58  86 120 156 194 240 293 340
#
# _framework density 23.402705999999998
#
# number of rings (size 3 to 8) (size 9 to 14) (size 15 to 20)
#    0.000    2.000    1.667    1.500    7.000    1.333 
#    0.000    0.000    0.000    2.000    0.000    0.000 
#    0.000    0.000    0.000    0.000    0.000    0.000 
#
# Total GULP energy -67037.573004 kJ/mol
# GULP energy per Si atom -5586.464417 kJ/mol
# Density = 2.334944 g / cm^3
# Si number density = 23.402706 Si / 1000 Ang^3
#
#
#
# Elastic Constant Matrix: (Units=GPa)
#
#
# Indices 1 2 3 4 5 6 
#
# 1 129.9428 31.2588 45.6616 8.9628 -45.6104 -5.6639
# 2 31.2588 69.3758 12.9912 20.7602 -17.7620 -8.2584
# 3 45.6616 12.9912 79.4455 19.8411 -27.0495 -4.7179
# 4 8.9628 20.7602 19.8411 20.8357 -14.2516 -4.0078
# 5 -45.6104 -17.7620 -27.0495 -14.2516 57.0566 20.0211
# 6 -5.6639 -8.2584 -4.7179 -4.0078 20.0211 29.7865
#
#
#
# Elastic Compliance Matrix: (Units=1/GPa)
#
#
# Indices 1 2 3 4 5 6 
#
# 1 0.015168 -0.007679 -0.007504 0.015456 0.012381 -0.006675
# 2 -0.007679 0.025123 0.006555 -0.030108 -0.004718 0.005664
# 3 -0.007504 0.006555 0.021927 -0.023881 0.000320 0.000435
# 4 0.015456 -0.030108 -0.023881 0.107133 0.021708 -0.009367
# 5 0.012381 -0.004718 0.000320 0.021708 0.039415 -0.022475
# 6 -0.006675 0.005664 0.000435 -0.009367 -0.022475 0.047789
#
#
# Mechanical properties :
#
#
# Convention : Reuss Voigt Hill
#
# Bulk Modulus (GPa) = 22.24108 50.95416 36.59762
# Shear Modulus (GPa) = 17.31316 34.12592 25.71954
#
# Velocity S-wave (km/s) = 2.72286 3.82279 3.31871
# Velocity P-wave (km/s) = 4.40563 6.42689 5.50974
#
# Compressibility (1/GPa) = 0.04496185
#
# Stress axis : x y z
#
# Youngs Moduli (GPa) = 65.92700 39.80456 45.60597
#
# Poissons Ratio (x) = 0.30567 0.34221
# Poissons Ratio (y) = 0.50628 -0.29894
# Poissons Ratio (z) = 0.49468 -0.26091
#
# Static dielectric constant tensor:
#      x y z
#    x 1.929740 -0.008700 -0.013270 
#    y -0.008700 1.928030 0.044420 
#    z -0.013270 0.044420 1.973700 
# 
# From -- ./inp_files/24551.got.cif
#   From: 2010.05.17/outbox.cif.g08.bks.cpg/sg2_13_cif.got.tgz:24551.got - 2010.06.03 11:33:40.
