data_PCOD9093058
_publ_section_title
;
Structure prediction by ZEFSAII (Michael W. Deem and Ramdas Pophale) SiO2 
 PCOD9093058
Probable space group: P -1
;
_chemical_formula_sum "Si O2"
_cell_formula_units_Z 14
_cell_length_a 11.741407
_cell_length_b 10.307082
_cell_length_c 14.382261
_cell_angle_alpha 77.232152
_cell_angle_beta 29.263743
_cell_angle_gamma 98.209606
_cell_volume 589.377873
_symmetry_space_group_name_H-M "P -1"
_symmetry_group_IT_number 2
_symmetry_cell_setting 'triclinic'
loop_
_space_group_symop_operation_xyz
x,y,z
-x,-y,-z
loop_
_atom_site_type_symbol
_atom_site_label
_atom_site_fract_x
_atom_site_fract_y
_atom_site_fract_z
Si Si1 0.028243 0.269209 0.414539
Si Si2 0.338832 0.789482 0.149706
Si Si3 0.741256 0.208793 0.341124
Si Si4 0.088868 0.098284 0.158870
Si Si5 0.345823 0.740779 0.796424
Si Si6 0.377595 0.029672 0.808611
Si Si7 0.652375 0.380725 0.995389
O O1 0.263202 0.244307 0.279746
O O2 0.962566 0.324549 0.546673
O O3 0.672896 0.094261 0.653551
O O4 0.191314 0.428792 0.195938
O O5 0.614748 0.806371 0.996438
O O6 0.242764 0.700305 0.130970
O O7 0.500000 0.000000 0.000000
O O8 0.760594 0.318236 0.225404
O O9 0.555075 0.176442 0.572852
O O10 0.500000 0.000000 0.500000
O O11 0.952530 0.763193 0.857934
O O12 0.163906 0.040707 0.022725
O O13 0.744861 0.912708 0.478166
O O14 0.262978 0.606392 0.959538
O O15 0.217271 0.833395 0.910206
#
# Coordination Sequence:
#
# PCOD9093058 Si02
#       7
#     2   2   2   2   2   2   2
#     4  10  22  35  53  76 101 141 169 199 261 307
#     4  11  21  34  56  80 101 131 172 213 252 299
#     4   8  17  30  48  75 100 128 166 208 253 292
#     4   9  17  30  51  75  99 126 164 210 253 291
#     4  10  20  31  50  77 100 130 170 209 248 296
#     4   9  17  33  53  73  98 130 170 211 248 292
#     4  11  21  36  51  73 111 136 164 210 251 305
#
# _framework density 23.75386
#
# number of rings (size 3 to 8) (size 9 to 14) (size 15 to 20)
#    0.000    2.571    0.000    4.714    0.000    6.857 
#    0.000    0.714    0.000    3.429    0.000    0.000 
#    0.000    1.143    0.000    0.000    0.000    0.000 
#
# Total GULP energy -78220.883512 kJ/mol
# GULP energy per Si atom -5587.205965 kJ/mol
# Density = 2.369980 g / cm^3
# Si number density = 23.753860 Si / 1000 Ang^3
#
#
#
# Elastic Constant Matrix: (Units=GPa)
#
#
# Indices 1 2 3 4 5 6 
#
# 1 150.8768 25.4691 43.9042 12.7776 44.5562 -2.0883
# 2 25.4691 56.6988 25.6796 21.6788 18.4570 3.7270
# 3 43.9042 25.6796 82.3081 25.5761 30.5765 -4.9414
# 4 12.7776 21.6788 25.5761 38.1567 5.3552 15.6278
# 5 44.5562 18.4570 30.5765 5.3552 41.0455 -1.8272
# 6 -2.0883 3.7270 -4.9414 15.6278 -1.8272 36.0095
#
#
#
# Elastic Compliance Matrix: (Units=1/GPa)
#
#
# Indices 1 2 3 4 5 6 
#
# 1 0.009986 -0.000412 -0.001298 -0.001078 -0.009529 0.000428
# 2 -0.000412 0.026316 0.000528 -0.015225 -0.009640 0.003443
# 3 -0.001298 0.000528 0.024246 -0.018448 -0.014017 0.010492
# 4 -0.001078 -0.015225 -0.018448 0.055753 0.013393 -0.024535
# 5 -0.009529 -0.009640 -0.014017 0.013393 0.047519 -0.004879
# 6 0.000428 0.003443 0.010492 -0.024535 -0.004879 0.039279
#
#
# Mechanical properties :
#
#
# Convention : Reuss Voigt Hill
#
# Bulk Modulus (GPa) = 17.18651 53.33215 35.25933
# Shear Modulus (GPa) = 22.23623 36.03106 29.13364
#
# Velocity S-wave (km/s) = 3.06291 3.89890 3.50591
# Velocity P-wave (km/s) = 4.44517 6.53983 5.59146
#
# Compressibility (1/GPa) = 0.05818516
#
# Stress axis : x y z
#
# Youngs Moduli (GPa) = 100.13690 37.99984 41.24338
#
# Poissons Ratio (x) = 0.01566 0.05352
# Poissons Ratio (y) = 0.04127 -0.02178
# Poissons Ratio (z) = 0.12995 -0.02007
#
# Static dielectric constant tensor:
#      x y z
#    x 1.962350 0.014390 0.013200 
#    y 0.014390 1.962540 -0.060770 
#    z 0.013200 -0.060770 1.942260 
# 
# From -- ./inp_files/301058.got.cif
#   From: 2010.05.17/outbox.cif.g08.bks.cpg/sg2_151_cif.got.tgz:301058.got - 2010.06.03 11:33:40.
