data_PCOD9093452
_publ_section_title
;
Structure prediction by ZEFSAII (Michael W. Deem and Ramdas Pophale) SiO2 
 PCOD9093452
Probable space group: P -1
;
_chemical_formula_sum "Si O2"
_cell_formula_units_Z 16
_cell_length_a 15.808713
_cell_length_b 5.769465
_cell_length_c 14.417945
_cell_angle_alpha 83.287065
_cell_angle_beta 37.402863
_cell_angle_gamma 96.656749
_cell_volume 744.267998
_symmetry_space_group_name_H-M "P -1"
_symmetry_group_IT_number 2
_symmetry_cell_setting 'triclinic'
loop_
_space_group_symop_operation_xyz
x,y,z
-x,-y,-z
loop_
_atom_site_type_symbol
_atom_site_label
_atom_site_fract_x
_atom_site_fract_y
_atom_site_fract_z
Si Si1 0.445139 0.000537 0.444267
Si Si2 0.439053 0.659164 0.306502
Si Si3 0.059064 0.741270 0.549455
Si Si4 0.192321 0.139095 0.575997
Si Si5 0.912180 0.256584 0.808108
Si Si6 0.463885 0.102530 0.122985
Si Si7 0.796374 0.947796 0.751465
Si Si8 0.343100 0.600842 0.900495
O O1 0.420788 0.746378 0.422141
O O2 0.500000 0.000000 0.500000
O O3 0.293007 0.059036 0.565722
O O4 0.569146 0.202502 0.263687
O O5 0.308608 0.394487 0.420432
O O6 0.600240 0.628246 0.158924
O O7 0.424273 0.867267 0.239221
O O8 0.146143 0.805084 0.374638
O O9 0.013434 0.468280 0.641138
O O10 0.145972 0.934960 0.544270
O O11 0.911178 0.804894 0.658582
O O12 0.037945 0.160456 0.746153
O O13 0.799828 0.046488 0.848862
O O14 0.821032 0.384534 0.946051
O O15 0.586382 0.311770 0.063591
O O16 0.342057 0.208768 0.183087
O O17 0.500000 0.000000 0.000000
#
# Coordination Sequence:
#
# PCOD9093452 Si02
#       8
#     2   2   2   2   2   2   2   2
#     4  10  22  43  69  90 111 144 192 246 300 362
#     4  10  22  39  62  83 120 153 192 247 293 344
#     4  10  21  34  54  77 117 158 203 241 277 335
#     4  10  21  39  61  86 113 154 199 235 293 350
#     4  11  21  35  56  82 120 159 190 244 292 338
#     4  11  21  35  53  82 122 159 200 238 279 336
#     4  10  20  33  49  78 113 160 212 236 273 333
#     4  10  23  38  57  92 121 154 196 240 302 350
#
# _framework density 21.497636
#
# number of rings (size 3 to 8) (size 9 to 14) (size 15 to 20)
#    0.000    1.750    1.250    4.125    1.750    6.500 
#    0.000    0.625    0.000    3.750    0.000    0.000 
#    0.000    0.000    0.000    0.000    0.000    0.000 
#
# Total GULP energy -89235.777905 kJ/mol
# GULP energy per Si atom -5577.236119 kJ/mol
# Density = 2.144871 g / cm^3
# Si number density = 21.497636 Si / 1000 Ang^3
#
#
#
# Elastic Constant Matrix: (Units=GPa)
#
#
# Indices 1 2 3 4 5 6 
#
# 1 158.3425 31.9109 48.7777 22.6386 -6.1983 -11.7720
# 2 31.9109 47.3780 12.5448 12.1596 -6.9350 -1.8893
# 3 48.7777 12.5448 73.0398 23.3837 -11.6411 -13.7102
# 4 22.6386 12.1596 23.3837 40.1852 -12.4148 -14.0314
# 5 -6.1983 -6.9350 -11.6411 -12.4148 28.9705 12.3319
# 6 -11.7720 -1.8893 -13.7102 -14.0314 12.3319 27.2777
#
#
#
# Elastic Compliance Matrix: (Units=1/GPa)
#
#
# Indices 1 2 3 4 5 6 
#
# 1 0.008954 -0.004771 -0.004941 -0.000857 -0.002276 0.001639
# 2 -0.004771 0.026250 0.000330 -0.005707 0.005240 -0.005379
# 3 -0.004941 0.000330 0.020254 -0.007152 0.002757 0.003145
# 4 -0.000857 -0.005707 -0.007152 0.037447 0.006539 0.011947
# 5 -0.002276 0.005240 0.002757 0.006539 0.046358 -0.016828
# 6 0.001639 -0.005379 0.003145 0.011947 -0.016828 0.052329
#
#
# Mechanical properties :
#
#
# Convention : Reuss Voigt Hill
#
# Bulk Modulus (GPa) = 27.25274 51.69191 39.47233
# Shear Modulus (GPa) = 22.46299 31.65515 27.05907
#
# Velocity S-wave (km/s) = 3.23601 3.84147 3.55166
# Velocity P-wave (km/s) = 5.16400 6.61615 5.93466
#
# Compressibility (1/GPa) = 0.03669355
#
# Stress axis : x y z
#
# Youngs Moduli (GPa) = 111.67847 38.09541 49.37306
#
# Poissons Ratio (x) = 0.18174 0.24398
# Poissons Ratio (y) = 0.53278 -0.01629
# Poissons Ratio (z) = 0.55186 -0.01257
#
# Static dielectric constant tensor:
#      x y z
#    x 1.768500 -0.033670 -0.122910 
#    y -0.033670 1.891230 0.057800 
#    z -0.122910 0.057800 1.971400 
# 
# From -- ./inp_files/90786.got.cif
#   From: 2010.05.17/outbox.cif.g08.bks.cpg/sg2_46_cif.got.tgz:90786.got - 2010.06.03 11:33:40.
