data_PCOD9093373
_publ_section_title
;
Structure prediction by ZEFSAII (Michael W. Deem and Ramdas Pophale) SiO2 
 PCOD9093373
Probable space group: P -1
;
_chemical_formula_sum "Si O2"
_cell_formula_units_Z 12
_cell_length_a 11.236039
_cell_length_b 6.723690
_cell_length_c 16.198340
_cell_angle_alpha 81.544240
_cell_angle_beta 142.850631
_cell_angle_gamma 124.361887
_cell_volume 484.585143
_symmetry_space_group_name_H-M "P -1"
_symmetry_group_IT_number 2
_symmetry_cell_setting 'triclinic'
loop_
_space_group_symop_operation_xyz
x,y,z
-x,-y,-z
loop_
_atom_site_type_symbol
_atom_site_label
_atom_site_fract_x
_atom_site_fract_y
_atom_site_fract_z
Si Si1 0.349349 0.734481 0.091204
Si Si2 0.884017 0.063172 0.749814
Si Si3 0.877048 0.676284 0.862786
Si Si4 0.210653 0.613674 0.400964
Si Si5 0.166053 0.073798 0.750981
Si Si6 0.286878 0.988901 0.567679
O O1 0.139801 0.424733 0.047722
O O2 0.501856 0.725033 0.104112
O O3 0.615882 0.996661 0.287075
O O4 0.159962 0.788972 0.969453
O O5 0.893889 0.925020 0.842278
O O6 0.536267 0.781093 0.548852
O O7 0.100231 0.131249 0.797432
O O8 0.908889 0.322552 0.738589
O O9 0.566418 0.347808 0.676827
O O10 0.251468 0.777401 0.497550
O O11 0.998783 0.265298 0.317525
O O12 0.008338 0.102332 0.596403
#
# Coordination Sequence:
#
# PCOD9093373 Si02
#       6
#     2   2   2   2   2   2
#     4   9  20  37  60  79 111 152 179 225 278 324
#     4  10  21  34  59  83 110 148 181 227 273 326
#     4   9  19  39  58  79 109 152 188 211 278 338
#     4  10  20  32  58  89 109 138 187 231 270 322
#     4  11  20  35  60  86 112 138 183 236 275 316
#     4   9  19  35  60  83 104 146 184 226 269 321
#
# _framework density 24.763449000000001
#
# number of rings (size 3 to 8) (size 9 to 14) (size 15 to 20)
#    1.000    1.333    1.667    1.000    4.667    1.333 
#    0.000    3.333    7.333    3.000    0.000    0.000 
#    0.000    0.000    0.000    0.000    0.000    0.000 
#
# Total GULP energy -67012.195226 kJ/mol
# GULP energy per Si atom -5584.349602 kJ/mol
# Density = 2.470709 g / cm^3
# Si number density = 24.763449 Si / 1000 Ang^3
#
#
#
# Elastic Constant Matrix: (Units=GPa)
#
#
# Indices 1 2 3 4 5 6 
#
# 1 60.7315 36.7482 13.4803 10.7833 26.0915 0.4312
# 2 36.7482 54.0084 11.1661 -21.4828 -7.0804 -24.1814
# 3 13.4803 11.1661 110.3742 -13.6813 29.9287 1.2085
# 4 10.7833 -21.4828 -13.6813 29.0013 -1.2851 -6.0654
# 5 26.0915 -7.0804 29.9287 -1.2851 43.0812 10.5940
# 6 0.4312 -24.1814 1.2085 -6.0654 10.5940 25.6170
#
#
#
# Elastic Compliance Matrix: (Units=1/GPa)
#
#
# Indices 1 2 3 4 5 6 
#
# 1 -0.001943 0.023865 0.001198 0.025003 -0.002201 0.029334
# 2 0.023865 -0.020982 -0.000776 -0.029941 -0.012860 -0.021942
# 3 0.001198 -0.000776 0.012400 0.005246 -0.010339 0.004180
# 4 0.025003 -0.029941 0.005246 0.000220 -0.018479 -0.021237
# 5 -0.002201 -0.012860 -0.010339 -0.018479 0.036730 -0.031180
# 6 0.029334 -0.021942 0.004180 -0.021237 -0.031180 0.025500
#
#
# Mechanical properties :
#
#
# Convention : Reuss Voigt Hill
#
# Bulk Modulus (GPa) = 26.28139 38.65591 32.46865
# Shear Modulus (GPa) = 311.83784 30.45452 171.14618
#
# Velocity S-wave (km/s) = 11.23388 3.51068 8.32241
# Velocity P-wave (km/s) = 13.37545 5.66367 10.27083
#
# Compressibility (1/GPa) = 0.03804974
#
# Stress axis : x y z
#
# Youngs Moduli (GPa) = -514.69520 -47.66018 80.64377
#
# Poissons Ratio (x) = 1.13742 -0.09660
# Poissons Ratio (y) = 12.28336 0.06258
# Poissons Ratio (z) = 0.61650 -0.03698
#
# Static dielectric constant tensor:
#      x y z
#    x 2.029570 0.015210 -0.072390 
#    y 0.015210 1.897920 0.019490 
#    z -0.072390 0.019490 1.949560 
# 
# From -- ./inp_files/65031.got.cif
#   From: 2010.05.17/outbox.cif.g08.bks.cpg/sg2_33_cif.got.tgz:65031.got - 2010.06.03 11:33:40.
