data_PCOD9093215
_publ_section_title
;
Structure prediction by ZEFSAII (Michael W. Deem and Ramdas Pophale) SiO2 
 PCOD9093215
Probable space group: P -1
;
_chemical_formula_sum "Si O2"
_cell_formula_units_Z 16
_cell_length_a 9.601946
_cell_length_b 8.808844
_cell_length_c 11.106791
_cell_angle_alpha 92.547974
_cell_angle_beta 122.239162
_cell_angle_gamma 61.205369
_cell_volume 667.123488
_symmetry_space_group_name_H-M "P -1"
_symmetry_group_IT_number 2
_symmetry_cell_setting 'triclinic'
loop_
_space_group_symop_operation_xyz
x,y,z
-x,-y,-z
loop_
_atom_site_type_symbol
_atom_site_label
_atom_site_fract_x
_atom_site_fract_y
_atom_site_fract_z
Si Si1 0.220586 0.230425 0.000744
Si Si2 0.540138 0.658042 0.259223
Si Si3 0.060068 0.406095 0.192958
Si Si4 0.683777 0.850092 0.497308
Si Si5 0.394306 0.470212 0.341012
Si Si6 0.622106 0.115659 0.285272
Si Si7 0.160482 0.933450 0.967911
Si Si8 0.296210 0.645353 0.840941
O O1 0.157719 0.416977 0.910248
O O2 0.146999 0.107661 0.907896
O O3 0.122272 0.298964 0.091086
O O4 0.451614 0.122556 0.128426
O O5 0.618268 0.724638 0.402954
O O6 0.407176 0.586414 0.245487
O O7 0.714085 0.491518 0.259364
O O8 0.382448 0.829276 0.116428
O O9 0.137730 0.270164 0.335045
O O10 0.183732 0.502752 0.263610
O O11 0.500000 0.000000 0.500000
O O12 0.734034 0.934513 0.410169
O O13 0.500000 0.500000 0.500000
O O14 0.519611 0.264550 0.348487
O O15 0.706457 0.203496 0.241062
O O16 0.154526 0.781449 0.883254
O O17 0.000000 0.000000 0.000000
O O18 0.500000 0.500000 0.000000
#
# Coordination Sequence:
#
# PCOD9093215 Si02
#       8
#     2   2   2   2   2   2   2   2
#     4  10  20  36  55  94 126 163 207 262 323 368
#     4  10  19  34  57  92 125 161 214 259 315 378
#     4  10  20  31  54  88 134 161 206 266 321 366
#     4  12  18  34  58  97 124 163 217 262 304 370
#     4  10  16  29  51  85 123 164 205 253 303 365
#     4  10  20  35  60  90 127 160 215 260 308 383
#     4  11  21  38  63  90 124 161 217 266 324 378
#     4   9  22  40  60  95 125 166 210 270 323 379
#
# _framework density 23.983566
#
# number of rings (size 3 to 8) (size 9 to 14) (size 15 to 20)
#    0.000    1.750    5.000    0.750    0.000    3.500 
#    0.000    0.000    0.000    1.500    0.000    0.000 
#    0.000    0.000    0.000    0.000    0.000    0.000 
#
# Total GULP energy -89286.807689 kJ/mol
# GULP energy per Si atom -5580.425481 kJ/mol
# Density = 2.392898 g / cm^3
# Si number density = 23.983566 Si / 1000 Ang^3
#
#
#
# Elastic Constant Matrix: (Units=GPa)
#
#
# Indices 1 2 3 4 5 6 
#
# 1 70.8661 29.6565 19.5109 -2.4297 -16.5989 -3.6759
# 2 29.6565 135.3808 50.2795 13.5019 -3.7020 -11.3020
# 3 19.5109 50.2795 108.2657 -5.5219 -8.7518 1.3575
# 4 -2.4297 13.5019 -5.5219 63.7894 19.1992 -13.8839
# 5 -16.5989 -3.7020 -8.7518 19.1992 28.9521 0.6006
# 6 -3.6759 -11.3020 1.3575 -13.8839 0.6006 33.4301
#
#
#
# Elastic Compliance Matrix: (Units=1/GPa)
#
#
# Indices 1 2 3 4 5 6 
#
# 1 0.018228 -0.003092 -0.001055 -0.002111 0.011138 -0.000075
# 2 -0.003092 0.010030 -0.004275 -0.001908 -0.000568 0.002442
# 3 -0.001055 -0.004275 0.011624 0.000986 0.001743 -0.001655
# 4 -0.002111 -0.001908 0.000986 0.023034 -0.016617 0.008947
# 5 0.011138 -0.000568 0.001743 -0.016617 0.052541 -0.006883
# 6 -0.000075 0.002442 -0.001655 0.008947 -0.006883 0.034637
#
#
# Mechanical properties :
#
#
# Convention : Reuss Voigt Hill
#
# Bulk Modulus (GPa) = 43.40703 57.04517 50.22610
# Shear Modulus (GPa) = 28.63376 39.57204 34.10290
#
# Velocity S-wave (km/s) = 3.45902 4.06638 3.77494
# Velocity P-wave (km/s) = 5.83875 6.77378 6.32357
#
# Compressibility (1/GPa) = 0.02303774
#
# Stress axis : x y z
#
# Youngs Moduli (GPa) = 54.85992 99.69826 86.03025
#
# Poissons Ratio (x) = 0.30830 0.09078
# Poissons Ratio (y) = 0.16965 0.36775
# Poissons Ratio (z) = 0.05789 0.42618
#
# Static dielectric constant tensor:
#      x y z
#    x 2.091630 0.024700 -0.003410 
#    y 0.024700 1.952070 -0.044200 
#    z -0.003410 -0.044200 1.938530 
# 
# From -- ./inp_files/419563.got.cif
#   From: 2010.05.17/outbox.cif.g08.bks.cpg/sg2_210_cif.got.tgz:419563.got - 2010.06.03 11:33:40.
