data_PCOD9093205
_publ_section_title
;
Structure prediction by ZEFSAII (Michael W. Deem and Ramdas Pophale) SiO2 
 PCOD9093205
Probable space group: P -1
;
_chemical_formula_sum "Si O2"
_cell_formula_units_Z 16
_cell_length_a 15.067574
_cell_length_b 12.093441
_cell_length_c 7.543489
_cell_angle_alpha 89.414573
_cell_angle_beta 115.344574
_cell_angle_gamma 136.735480
_cell_volume 743.737604
_symmetry_space_group_name_H-M "P -1"
_symmetry_group_IT_number 2
_symmetry_cell_setting 'triclinic'
loop_
_space_group_symop_operation_xyz
x,y,z
-x,-y,-z
loop_
_atom_site_type_symbol
_atom_site_label
_atom_site_fract_x
_atom_site_fract_y
_atom_site_fract_z
Si Si1 0.985887 0.101871 0.877223
Si Si2 0.160126 0.105264 0.799560
Si Si3 0.503308 0.549051 0.799367
Si Si4 0.334623 0.615726 0.545117
Si Si5 0.667846 0.805888 0.408917
Si Si6 0.365003 0.963428 0.179903
Si Si7 0.493430 0.849902 0.338500
Si Si8 0.013159 0.750564 0.807944
O O1 0.087479 0.159095 0.788664
O O2 0.797246 0.947924 0.668529
O O3 0.037231 0.250778 0.038532
O O4 0.000000 0.000000 0.000000
O O5 0.226942 0.153220 0.658618
O O6 0.044048 0.895510 0.733853
O O7 0.317152 0.236477 0.061550
O O8 0.376214 0.529986 0.645960
O O9 0.464933 0.406634 0.653210
O O10 0.500000 0.500000 0.000000
O O11 0.377120 0.674686 0.373251
O O12 0.139308 0.454203 0.400084
O O13 0.474557 0.821246 0.747872
O O14 0.581042 0.842042 0.285525
O O15 0.400279 0.867343 0.170622
O O16 0.377869 0.984365 0.407633
O O17 0.189117 0.848229 0.966840
#
# Coordination Sequence:
#
# PCOD9093205 Si02
#       8
#     2   2   2   2   2   2   2   2
#     4  10  20  32  50  84 115 150 194 232 284 354
#     4  10  21  35  54  83 122 157 189 237 293 353
#     4  10  21  35  56  84 120 156 192 234 292 357
#     4  10  20  36  63  88 116 153 194 247 295 347
#     4  11  21  37  56  82 122 159 192 236 299 349
#     4   9  19  40  60  88 114 150 201 250 286 337
#     4   9  20  38  60  86 114 155 198 246 291 340
#     4  11  20  37  62  88 118 151 198 243 295 345
#
# _framework density 21.512962999999999
#
# number of rings (size 3 to 8) (size 9 to 14) (size 15 to 20)
#    0.750    1.250    2.500    1.875    3.500    2.000 
#    0.000    0.625    0.000    0.750    0.000    0.000 
#    0.000    0.000    0.000    0.000    0.000    0.000 
#
# Total GULP energy -89084.267222 kJ/mol
# GULP energy per Si atom -5567.766701 kJ/mol
# Density = 2.146400 g / cm^3
# Si number density = 21.512963 Si / 1000 Ang^3
#
#
#
# Elastic Constant Matrix: (Units=GPa)
#
#
# Indices 1 2 3 4 5 6 
#
# 1 84.5250 43.1015 32.4719 -4.5562 20.6789 -18.3163
# 2 43.1015 71.6129 33.8503 4.8031 13.7291 -5.6068
# 3 32.4719 33.8503 78.9247 23.0130 35.1325 -3.0194
# 4 -4.5562 4.8031 23.0130 23.2407 7.8449 11.2727
# 5 20.6789 13.7291 35.1325 7.8449 31.4734 -7.8866
# 6 -18.3163 -5.6068 -3.0194 11.2727 -7.8866 28.9088
#
#
#
# Elastic Compliance Matrix: (Units=1/GPa)
#
#
# Indices 1 2 3 4 5 6 
#
# 1 0.022166 -0.010071 -0.005198 0.010562 -0.005517 0.005924
# 2 -0.010071 0.022698 -0.008090 0.000273 0.005307 -0.001482
# 3 -0.005198 -0.008090 0.040972 -0.031448 -0.030082 0.003473
# 4 0.010562 0.000273 -0.031448 0.094235 -0.004062 -0.034394
# 5 -0.005517 0.005307 -0.030082 -0.004062 0.071558 0.015498
# 6 0.005924 -0.001482 0.003473 -0.034394 0.015498 0.056060
#
#
# Mechanical properties :
#
#
# Convention : Reuss Voigt Hill
#
# Bulk Modulus (GPa) = 25.56396 50.43445 37.99920
# Shear Modulus (GPa) = 13.60746 25.10052 19.35399
#
# Velocity S-wave (km/s) = 2.51773 3.41950 3.00266
# Velocity P-wave (km/s) = 4.51229 6.25182 5.45188
#
# Compressibility (1/GPa) = 0.03911757
#
# Stress axis : x y z
#
# Youngs Moduli (GPa) = 45.11448 44.05746 24.40696
#
# Poissons Ratio (x) = 0.44370 0.12686
# Poissons Ratio (y) = 0.45435 0.19746
# Poissons Ratio (z) = 0.23450 0.35643
#
# Static dielectric constant tensor:
#      x y z
#    x 1.843710 0.068350 -0.037550 
#    y 0.068350 1.843650 0.015390 
#    z -0.037550 0.015390 1.884130 
# 
# From -- ./inp_files/303321.got.cif
#   From: 2010.05.17/outbox.cif.g08.bks.cpg/sg2_152_cif.got.tgz:303321.got - 2010.06.03 11:33:40.
