data_PCOD9093270
_publ_section_title
;
Structure prediction by ZEFSAII (Michael W. Deem and Ramdas Pophale) SiO2 
 PCOD9093270
Probable space group: P -1
;
_chemical_formula_sum "Si O2"
_cell_formula_units_Z 16
_cell_length_a 18.498743
_cell_length_b 6.500548
_cell_length_c 15.117202
_cell_angle_alpha 69.387006
_cell_angle_beta 39.036498
_cell_angle_gamma 49.559891
_cell_volume 826.544821
_symmetry_space_group_name_H-M "P -1"
_symmetry_group_IT_number 2
_symmetry_cell_setting 'triclinic'
loop_
_space_group_symop_operation_xyz
x,y,z
-x,-y,-z
loop_
_atom_site_type_symbol
_atom_site_label
_atom_site_fract_x
_atom_site_fract_y
_atom_site_fract_z
Si Si1 0.832058 0.346403 0.963345
Si Si2 0.378221 0.011620 0.000244
Si Si3 0.901712 0.586368 0.994231
Si Si4 0.147227 0.750037 0.343822
Si Si5 0.710075 0.328705 0.601022
Si Si6 0.691031 0.878921 0.750676
Si Si7 0.994869 0.877776 0.742387
Si Si8 0.378093 0.806350 0.845549
O O1 0.895733 0.351117 0.995076
O O2 0.747633 0.659217 0.956439
O O3 0.708494 0.305992 0.085178
O O4 0.962046 0.097552 0.815536
O O5 0.536439 0.945810 0.863563
O O6 0.385436 0.825126 0.942885
O O7 0.337163 0.997938 0.141493
O O8 0.965221 0.679404 0.845745
O O9 0.000000 0.500000 0.000000
O O10 0.730945 0.866782 0.131383
O O11 0.269935 0.633911 0.320280
O O12 0.177502 0.462549 0.327253
O O13 0.000000 0.000000 0.500000
O O14 0.125348 0.921372 0.250834
O O15 0.842813 0.282057 0.428565
O O16 0.546788 0.598193 0.684737
O O17 0.722261 0.048455 0.632667
#
# Coordination Sequence:
#
# PCOD9093270 Si02
#       8
#     2   2   2   2   2   2   2   2
#     4  10  20  39  62  85 115 150 203 252 308 356
#     4  10  20  32  53  87 117 162 208 246 281 349
#     4  10  24  44  68  89 112 151 206 263 316 373
#     4  10  22  36  52  84 133 174 200 232 286 363
#     4  11  23  36  58  92 133 165 202 242 296 361
#     4  11  21  32  56  83 125 167 211 237 292 339
#     4  10  23  39  59  87 126 165 201 248 306 355
#     4  10  21  38  62  90 120 157 204 260 302 353
#
# _framework density 19.357693000000001
#
# number of rings (size 3 to 8) (size 9 to 14) (size 15 to 20)
#    0.000    1.750    3.750    0.000    5.250    6.500 
#    0.000    0.625    0.000    1.500    0.000    0.000 
#    0.000    0.000    0.000    0.000    0.000    0.000 
#
# Total GULP energy -89187.239920 kJ/mol
# GULP energy per Si atom -5574.202495 kJ/mol
# Density = 1.931363 g / cm^3
# Si number density = 19.357693 Si / 1000 Ang^3
#
#
#
# Elastic Constant Matrix: (Units=GPa)
#
#
# Indices 1 2 3 4 5 6 
#
# 1 139.9762 26.6649 28.8398 13.9392 -1.2211 7.0212
# 2 26.6649 54.8982 35.4380 12.2403 -2.1922 5.5797
# 3 28.8398 35.4380 67.9919 19.0263 -12.9659 5.5965
# 4 13.9392 12.2403 19.0263 23.5166 -2.6427 -2.8910
# 5 -1.2211 -2.1922 -12.9659 -2.6427 14.6113 2.7117
# 6 7.0212 5.5797 5.5965 -2.8910 2.7117 28.3292
#
#
#
# Elastic Compliance Matrix: (Units=1/GPa)
#
#
# Indices 1 2 3 4 5 6 
#
# 1 0.008247 -0.002183 -0.001779 -0.002646 -0.001437 -0.001395
# 2 -0.002183 0.029666 -0.015410 -0.002964 -0.009638 -0.001637
# 3 -0.001779 -0.015410 0.033464 -0.016001 0.025682 -0.007226
# 4 -0.002646 -0.002964 -0.016001 0.059240 -0.006199 0.011039
# 5 -0.001437 -0.009638 0.025682 -0.006199 0.090796 -0.012143
# 6 -0.001395 -0.001637 -0.007226 0.011039 -0.012143 0.039684
#
#
# Mechanical properties :
#
#
# Convention : Reuss Voigt Hill
#
# Bulk Modulus (GPa) = 30.64417 49.41687 40.03052
# Shear Modulus (GPa) = 16.09168 24.75300 20.42234
#
# Velocity S-wave (km/s) = 2.88632 3.57979 3.25160
# Velocity P-wave (km/s) = 5.19352 6.53225 5.90097
#
# Compressibility (1/GPa) = 0.03263263
#
# Stress axis : x y z
#
# Youngs Moduli (GPa) = 121.24984 33.70899 29.88286
#
# Poissons Ratio (x) = 0.07359 0.05317
# Poissons Ratio (y) = 0.26469 0.46049
# Poissons Ratio (z) = 0.21574 0.51945
#
# Static dielectric constant tensor:
#      x y z
#    x 1.736160 0.020360 -0.006820 
#    y 0.020360 1.707580 0.014990 
#    z -0.006820 0.014990 1.684000 
# 
# From -- ./inp_files/77305.got.cif
#   From: 2010.05.17/outbox.cif.g08.bks.cpg/sg2_39_cif.got.tgz:77305.got - 2010.06.03 11:33:40.
