data_PCOD9093990
_publ_section_title
;
Structure prediction by ZEFSAII (Michael W. Deem and Ramdas Pophale) SiO2 
 PCOD9093990
Probable space group: P -1
;
_chemical_formula_sum "Si O2"
_cell_formula_units_Z 16
_cell_length_a 11.517879
_cell_length_b 15.581858
_cell_length_c 13.858795
_cell_angle_alpha 132.537127
_cell_angle_beta 30.270630
_cell_angle_gamma 142.341893
_cell_volume 765.757127
_symmetry_space_group_name_H-M "P -1"
_symmetry_group_IT_number 2
_symmetry_cell_setting 'triclinic'
loop_
_space_group_symop_operation_xyz
x,y,z
-x,-y,-z
loop_
_atom_site_type_symbol
_atom_site_label
_atom_site_fract_x
_atom_site_fract_y
_atom_site_fract_z
Si Si1 0.832886 0.991009 0.974815
Si Si2 0.765588 0.346494 0.658575
Si Si3 0.584987 0.188077 0.007813
Si Si4 0.322749 0.055748 0.298204
Si Si5 0.355480 0.039405 0.712214
Si Si6 0.763599 0.427816 0.922895
Si Si7 0.122198 0.747673 0.851965
Si Si8 0.818330 0.626580 0.773188
O O1 0.954647 0.147523 0.969415
O O2 0.697113 0.884938 0.905725
O O3 0.627610 0.974673 0.196114
O O4 0.036974 0.957717 0.851221
O O5 0.476803 0.202267 0.739365
O O6 0.735897 0.470611 0.740859
O O7 0.980264 0.334396 0.431993
O O8 0.854600 0.372245 0.725591
O O9 0.687120 0.087556 0.824255
O O10 0.487774 0.154716 0.162117
O O11 0.754727 0.346201 0.963489
O O12 0.541050 0.160286 0.304672
O O13 0.000000 0.000000 0.500000
O O14 0.500000 0.000000 0.500000
O O15 0.457159 0.383943 0.071892
O O16 0.965593 0.597107 0.903489
O O17 0.999453 0.714275 0.804639
#
# Coordination Sequence:
#
# PCOD9093990 Si02
#       8
#     2   2   2   2   2   2   2   2
#     4  10  21  36  53  86 122 154 204 250 296 361
#     4  10  20  34  50  86 130 168 199 234 296 373
#     4  10  23  41  65  90 118 162 206 257 317 361
#     4  10  24  47  66  86 119 161 211 266 311 359
#     4  11  21  30  53  85 124 163 205 241 291 363
#     4  11  21  39  64  92 129 159 198 254 309 374
#     4  10  21  40  65  89 122 169 208 246 309 367
#     4  10  21  35  59  90 131 166 196 242 313 372
#
# _framework density 20.894354
#
# number of rings (size 3 to 8) (size 9 to 14) (size 15 to 20)
#    0.000    1.750    1.250    3.750    3.500    4.500 
#    0.000    9.375    0.000    0.000    0.000    0.000 
#    0.000    0.000    0.000    0.000    0.000    0.000 
#
# Total GULP energy -89073.922052 kJ/mol
# GULP energy per Si atom -5567.120128 kJ/mol
# Density = 2.084680 g / cm^3
# Si number density = 20.894354 Si / 1000 Ang^3
#
#
#
# Elastic Constant Matrix: (Units=GPa)
#
#
# Indices 1 2 3 4 5 6 
#
# 1 64.6471 22.5729 36.1056 -11.6188 -6.9708 -1.2128
# 2 22.5729 116.7254 28.1757 -7.7306 -8.0701 -2.5800
# 3 36.1056 28.1757 80.1127 -10.7944 -1.8545 -8.7331
# 4 -11.6188 -7.7306 -10.7944 18.0997 4.4901 4.0380
# 5 -6.9708 -8.0701 -1.8545 4.4901 26.2755 -5.7922
# 6 -1.2128 -2.5800 -8.7331 4.0380 -5.7922 32.0283
#
#
#
# Elastic Compliance Matrix: (Units=1/GPa)
#
#
# Indices 1 2 3 4 5 6 
#
# 1 0.022672 -0.001567 -0.008696 0.008435 0.003002 -0.002159
# 2 -0.001567 0.009702 -0.002480 0.001017 0.002288 0.000332
# 3 -0.008696 -0.002480 0.018141 0.003768 -0.001628 0.003648
# 4 0.008435 0.001017 0.003768 0.068063 -0.010823 -0.009110
# 5 0.003002 0.002288 -0.001628 -0.010823 0.043286 0.009047
# 6 -0.002159 0.000332 0.003648 -0.009110 0.009047 0.034947
#
#
# Mechanical properties :
#
#
# Convention : Reuss Voigt Hill
#
# Bulk Modulus (GPa) = 39.95281 48.35484 44.15382
# Shear Modulus (GPa) = 21.67886 26.92277 24.30082
#
# Velocity S-wave (km/s) = 3.22459 3.59349 3.41403
# Velocity P-wave (km/s) = 5.74690 6.35691 6.05959
#
# Compressibility (1/GPa) = 0.02502953
#
# Stress axis : x y z
#
# Youngs Moduli (GPa) = 44.10780 103.07598 55.12255
#
# Poissons Ratio (x) = 0.16149 0.47935
# Poissons Ratio (y) = 0.06911 0.13669
# Poissons Ratio (z) = 0.38357 0.25560
#
# Static dielectric constant tensor:
#      x y z
#    x 1.878590 -0.027810 -0.007450 
#    y -0.027810 1.842240 -0.055670 
#    z -0.007450 -0.055670 1.812190 
# 
# From -- ./inp_files/521649.got.cif
#   From: 2010.05.17/outbox.cif.g08.bks.cpg/sg2_261_cif.got.tgz:521649.got - 2010.06.03 11:33:40.
