data_PCOD9093381
_publ_section_title
;
Structure prediction by ZEFSAII (Michael W. Deem and Ramdas Pophale) SiO2 
 PCOD9093381
Probable space group: P -1
;
_chemical_formula_sum "Si O2"
_cell_formula_units_Z 15
_cell_length_a 18.916592
_cell_length_b 12.029287
_cell_length_c 22.173665
_cell_angle_alpha 38.125825
_cell_angle_beta 19.222902
_cell_angle_gamma 29.890757
_cell_volume 812.007316
_symmetry_space_group_name_H-M "P -1"
_symmetry_group_IT_number 2
_symmetry_cell_setting 'triclinic'
loop_
_space_group_symop_operation_xyz
x,y,z
-x,-y,-z
loop_
_atom_site_type_symbol
_atom_site_label
_atom_site_fract_x
_atom_site_fract_y
_atom_site_fract_z
Si Si1 0.737419 0.910817 0.962205
Si Si2 0.720793 0.522919 0.337574
Si Si3 0.793693 0.509536 0.421498
Si Si4 0.924065 0.113142 0.946807
Si Si5 0.910780 0.783060 0.014179
Si Si6 0.508270 0.663609 0.221845
Si Si7 0.500000 0.000000 0.500000
Si Si8 0.381240 0.384293 0.989488
O O1 0.850579 0.853965 0.963045
O O2 0.517480 0.863352 0.152419
O O3 0.986951 0.722542 0.799309
O O4 0.612088 0.161707 0.934840
O O5 0.500000 0.500000 0.500000
O O6 0.674555 0.594185 0.413876
O O7 0.740871 0.695818 0.209410
O O8 0.741890 0.331896 0.559278
O O9 0.627060 0.729809 0.504111
O O10 0.104065 0.412272 0.208621
O O11 0.192011 0.073620 0.723219
O O12 0.689037 0.381224 0.029925
O O13 0.847549 0.986112 0.020163
O O14 0.000000 0.000000 0.000000
O O15 0.223097 0.567061 0.866864
O O16 0.546763 0.644217 0.127070
#
# Coordination Sequence:
#
# PCOD9093381 Si02
#       8
#     2   2   2   2   2   2   1   2
#     4  11  24  39  57  89 132 154 197 252 304 362
#     4  11  22  38  63  91 119 161 209 244 301 361
#     4  11  20  36  62  90 115 159 203 247 301 348
#     4  11  20  39  65  87 116 157 205 248 296 358
#     4  11  20  39  63  87 120 159 201 256 290 354
#     4  11  20  39  63  86 120 158 205 246 296 358
#     4  10  20  32  58  92 116 140 206 254 282 346
#     4  11  23  40  59  91 124 160 195 251 306 354
#
# _framework density 18.472740000000002
#
# number of rings (size 3 to 8) (size 9 to 14) (size 15 to 20)
#    0.000    1.067    5.333    4.400    0.000    1.067 
#    2.400    0.000    0.000    0.800    0.000    0.000 
#    0.000    0.000    0.000    0.000    0.000    0.000 
#
# Total GULP energy -83530.701737 kJ/mol
# GULP energy per Si atom -5568.713449 kJ/mol
# Density = 1.843070 g / cm^3
# Si number density = 18.472740 Si / 1000 Ang^3
#
#
#
# Elastic Constant Matrix: (Units=GPa)
#
#
# Indices 1 2 3 4 5 6 
#
# 1 54.6407 37.2384 0.5399 1.0436 7.0554 -2.1458
# 2 37.2384 114.3534 -2.1579 -2.8970 -2.2679 -5.8301
# 3 0.5399 -2.1579 43.3777 -17.9041 -5.2518 -6.0498
# 4 1.0436 -2.8970 -17.9041 15.2447 7.5415 -5.7371
# 5 7.0554 -2.2679 -5.2518 7.5415 20.8604 -9.7781
# 6 -2.1458 -5.8301 -6.0498 -5.7371 -9.7781 29.3296
#
#
#
# Elastic Compliance Matrix: (Units=1/GPa)
#
#
# Indices 1 2 3 4 5 6 
#
# 1 0.026201 -0.009425 -0.006351 -0.007713 -0.011850 -0.006726
# 2 -0.009425 0.012745 0.007305 0.011646 0.005737 0.007541
# 3 -0.006351 0.007305 0.065492 0.089964 0.002311 0.032865
# 4 -0.007713 0.011646 0.089964 0.205201 -0.022906 0.052810
# 5 -0.011850 0.005737 0.002311 -0.022906 0.070738 0.019853
# 6 -0.006726 0.007541 0.032865 0.052810 0.019853 0.058830
#
#
# Mechanical properties :
#
#
# Convention : Reuss Voigt Hill
#
# Bulk Modulus (GPa) = 11.42943 31.51253 21.47098
# Shear Modulus (GPa) = 10.30259 24.87039 17.58649
#
# Velocity S-wave (km/s) = 2.36417 3.67322 3.08884
# Velocity P-wave (km/s) = 3.69500 5.92334 4.93655
#
# Compressibility (1/GPa) = 0.08749346
#
# Stress axis : x y z
#
# Youngs Moduli (GPa) = 38.16666 78.46061 15.26915
#
# Poissons Ratio (x) = 0.73952 0.09698
# Poissons Ratio (y) = 0.35973 -0.11154
# Poissons Ratio (z) = 0.24241 -0.57312
#
# Static dielectric constant tensor:
#      x y z
#    x 1.634250 0.016320 0.004430 
#    y 0.016320 1.641890 -0.011740 
#    z 0.004430 -0.011740 1.649570 
# 
# From -- ./inp_files/180842.got.cif
#   From: 2010.05.17/outbox.cif.g08.bks.cpg/sg2_91_cif.got.tgz:180842.got - 2010.06.03 11:33:40.
