data_PCOD9093872
_publ_section_title
;
Structure prediction by ZEFSAII (Michael W. Deem and Ramdas Pophale) SiO2 
 PCOD9093872
Probable space group: P -1
;
_chemical_formula_sum "Si O2"
_cell_formula_units_Z 16
_cell_length_a 8.190872
_cell_length_b 11.787543
_cell_length_c 16.596034
_cell_angle_alpha 32.549421
_cell_angle_beta 48.610423
_cell_angle_gamma 50.809304
_cell_volume 635.644428
_symmetry_space_group_name_H-M "P -1"
_symmetry_group_IT_number 2
_symmetry_cell_setting 'triclinic'
loop_
_space_group_symop_operation_xyz
x,y,z
-x,-y,-z
loop_
_atom_site_type_symbol
_atom_site_label
_atom_site_fract_x
_atom_site_fract_y
_atom_site_fract_z
Si Si1 0.299082 0.688864 0.073709
Si Si2 0.225535 0.273531 0.584700
Si Si3 0.717948 0.815416 0.559411
Si Si4 0.397266 0.828507 0.785203
Si Si5 0.227467 0.577152 0.865438
Si Si6 0.656877 0.634937 0.201328
Si Si7 0.115188 0.544050 0.609145
Si Si8 0.793820 0.071398 0.885224
O O1 0.551212 0.581523 0.080491
O O2 0.087657 0.582027 0.228871
O O3 0.248117 0.897316 0.023495
O O4 0.318925 0.721290 0.953176
O O5 0.263191 0.318164 0.451714
O O6 0.207703 0.461575 0.541270
O O7 0.009220 0.163448 0.733566
O O8 0.411541 0.067898 0.664892
O O9 0.630481 0.743746 0.717032
O O10 0.982472 0.791280 0.502831
O O11 0.500000 0.000000 0.500000
O O12 0.231614 0.790861 0.788324
O O13 0.274062 0.565099 0.762399
O O14 0.000000 0.500000 0.000000
O O15 0.412637 0.774147 0.182643
O O16 0.708223 0.537232 0.331144
O O17 0.798295 0.819915 0.021138
#
# Coordination Sequence:
#
# PCOD9093872 Si02
#       8
#     2   2   2   2   2   2   2   2
#     4  10  20  33  59  90 112 149 189 245 293 331
#     4  10  21  38  63  84 109 158 198 241 284 332
#     4  10  23  39  60  84 115 153 196 249 288 330
#     4  11  21  37  59  88 121 147 196 240 287 352
#     4  11  21  31  51  85 123 156 174 225 299 359
#     4  10  21  34  57  91 121 153 184 234 303 345
#     4  11  20  38  63  89 112 147 203 247 279 348
#     4   9  19  38  57  88 127 148 186 239 292 352
#
# _framework density 25.171308
#
# number of rings (size 3 to 8) (size 9 to 14) (size 15 to 20)
#    0.000    1.750    1.250    3.750    1.750    2.000 
#    0.000    0.625    0.000    1.500    0.000    0.000 
#    0.000    0.000    0.000    0.000    0.000    0.000 
#
# Total GULP energy -89105.713634 kJ/mol
# GULP energy per Si atom -5569.107102 kJ/mol
# Density = 2.511402 g / cm^3
# Si number density = 25.171308 Si / 1000 Ang^3
#
#
#
# Elastic Constant Matrix: (Units=GPa)
#
#
# Indices 1 2 3 4 5 6 
#
# 1 81.9701 41.9699 28.3798 10.8694 5.3493 -11.2320
# 2 41.9699 149.0041 39.3879 28.0705 20.8481 1.6703
# 3 28.3798 39.3879 118.0113 32.0892 17.9130 6.9484
# 4 10.8694 28.0705 32.0892 45.1187 0.8343 8.0438
# 5 5.3493 20.8481 17.9130 0.8343 47.5090 4.9586
# 6 -11.2320 1.6703 6.9484 8.0438 4.9586 29.2634
#
#
#
# Elastic Compliance Matrix: (Units=1/GPa)
#
#
# Indices 1 2 3 4 5 6 
#
# 1 0.016223 -0.003756 -0.002876 -0.000835 0.000156 0.007327
# 2 -0.003756 0.009190 -0.000449 -0.004418 -0.003355 -0.000077
# 3 -0.002876 -0.000449 0.011912 -0.007200 -0.003709 -0.001299
# 4 -0.000835 -0.004418 -0.007200 0.031546 0.005016 -0.007880
# 5 0.000156 -0.003355 -0.003709 0.005016 0.024269 -0.004359
# 6 0.007327 -0.000077 -0.001299 -0.007880 -0.004359 0.040202
#
#
# Mechanical properties :
#
#
# Convention : Reuss Voigt Hill
#
# Bulk Modulus (GPa) = 43.16959 63.16230 53.16594
# Shear Modulus (GPa) = 32.21112 40.32808 36.26960
#
# Velocity S-wave (km/s) = 3.58114 4.00702 3.80005
# Velocity P-wave (km/s) = 5.85550 6.82318 6.35778
#
# Compressibility (1/GPa) = 0.02316446
#
# Stress axis : x y z
#
# Youngs Moduli (GPa) = 61.64130 108.80881 83.94603
#
# Poissons Ratio (x) = 0.40867 0.24140
# Poissons Ratio (y) = 0.23152 0.03770
# Poissons Ratio (z) = 0.17726 0.04887
#
# Static dielectric constant tensor:
#      x y z
#    x 2.051760 0.011210 -0.009050 
#    y 0.011210 2.132830 -0.162260 
#    z -0.009050 -0.162260 2.147930 
# 
# From -- ./inp_files/357066.got.cif
#   From: 2010.05.17/outbox.cif.g08.bks.cpg/sg2_179_cif.got.tgz:357066.got - 2010.06.03 11:33:40.
