data_PCOD9093334
_publ_section_title
;
Structure prediction by ZEFSAII (Michael W. Deem and Ramdas Pophale) SiO2 
 PCOD9093334
Probable space group: P -1
;
_chemical_formula_sum "Si O2"
_cell_formula_units_Z 14
_cell_length_a 11.777491
_cell_length_b 8.191488
_cell_length_c 14.292786
_cell_angle_alpha 141.652425
_cell_angle_beta 139.405953
_cell_angle_gamma 35.508096
_cell_volume 468.084358
_symmetry_space_group_name_H-M "P -1"
_symmetry_group_IT_number 2
_symmetry_cell_setting 'triclinic'
loop_
_space_group_symop_operation_xyz
x,y,z
-x,-y,-z
loop_
_atom_site_type_symbol
_atom_site_label
_atom_site_fract_x
_atom_site_fract_y
_atom_site_fract_z
Si Si1 0.107487 0.766367 0.731310
Si Si2 0.783058 0.740060 0.149922
Si Si3 0.725624 0.236872 0.982126
Si Si4 0.132167 0.173867 0.564414
Si Si5 0.367697 0.247262 0.338549
Si Si6 0.690332 0.652263 0.862266
Si Si7 0.535772 0.658627 0.372858
O O1 0.139177 0.923196 0.911565
O O2 0.058196 0.525047 0.640869
O O3 0.330135 0.547584 0.722209
O O4 0.968641 0.921096 0.622188
O O5 0.799973 0.428218 0.058247
O O6 0.898487 0.807296 0.334297
O O7 0.541178 0.027002 0.134769
O O8 0.820489 0.701248 0.044567
O O9 0.500000 0.500000 0.000000
O O10 0.705278 0.991954 0.798651
O O11 0.381858 0.956983 0.609428
O O12 0.267676 0.393498 0.242179
O O13 0.336826 0.462218 0.503701
O O14 0.654549 0.383413 0.755083
O O15 0.500000 0.000000 0.500000
#
# Coordination Sequence:
#
# PCOD9093334 Si02
#       7
#     2   2   2   2   2   2   2
#     4  10  20  33  60  83 114 141 190 227 284 320
#     4   9  18  32  56  85 111 139 194 229 272 318
#     4  11  16  34  59  84 108 145 190 231 262 334
#     4   9  18  35  56  84 113 143 181 239 271 334
#     4  11  21  36  59  85 118 141 189 229 282 323
#     4  10  20  32  56  83 114 147 184 235 272 322
#     4  12  22  35  55  87 114 147 184 234 277 335
#
# _framework density 29.909137000000001
#
# number of rings (size 3 to 8) (size 9 to 14) (size 15 to 20)
#    0.000    1.714    5.714    2.143    2.000    0.000 
#    0.000    2.857    3.143    4.286    0.000    0.000 
#    0.000    0.000    0.000    0.000    0.000    0.000 
#
# Total GULP energy -78517.827430 kJ/mol
# GULP energy per Si atom -5608.416245 kJ/mol
# Density = 2.984106 g / cm^3
# Si number density = 29.909137 Si / 1000 Ang^3
#
#
#
# Elastic Constant Matrix: (Units=GPa)
#
#
# Indices 1 2 3 4 5 6 
#
# 1 81.3863 44.7612 34.3866 -5.3846 -36.2663 12.2888
# 2 44.7612 119.9587 66.2412 -23.9937 -5.5743 21.0844
# 3 34.3866 66.2412 249.8982 -53.0405 -34.0526 19.9083
# 4 -5.3846 -23.9937 -53.0405 77.7174 17.8150 -1.8088
# 5 -36.2663 -5.5743 -34.0526 17.8150 64.1655 -6.6306
# 6 12.2888 21.0844 19.9083 -1.8088 -6.6306 54.0650
#
#
#
# Elastic Compliance Matrix: (Units=1/GPa)
#
#
# Indices 1 2 3 4 5 6 
#
# 1 0.022676 -0.008680 0.000152 -0.004046 0.013232 -0.000338
# 2 -0.008680 0.013825 -0.002336 0.003425 -0.006227 -0.003207
# 3 0.000152 -0.002336 0.005478 0.002551 0.001998 -0.000810
# 4 -0.004046 0.003425 0.002551 0.016587 -0.005392 -0.001462
# 5 0.013232 -0.006227 0.001998 -0.005392 0.025245 0.001601
# 6 -0.000338 -0.003207 -0.000810 -0.001462 0.001601 0.020270
#
#
# Mechanical properties :
#
#
# Convention : Reuss Voigt Hill
#
# Bulk Modulus (GPa) = 49.38328 82.44681 65.91504
# Shear Modulus (GPa) = 37.71858 59.57985 48.64922
#
# Velocity S-wave (km/s) = 3.55506 4.46806 4.03745
# Velocity P-wave (km/s) = 5.77912 7.36503 6.61974
#
# Compressibility (1/GPa) = 0.02024977
#
# Stress axis : x y z
#
# Youngs Moduli (GPa) = 44.09875 72.33476 182.53728
#
# Poissons Ratio (x) = 0.62789 -0.02769
# Poissons Ratio (y) = 0.38279 0.42644
# Poissons Ratio (z) = -0.00669 0.16899
#
# Static dielectric constant tensor:
#      x y z
#    x 2.331170 -0.010330 0.029000 
#    y -0.010330 2.459860 -0.021760 
#    z 0.029000 -0.021760 2.220590 
# 
# From -- ./inp_files/397491.got.cif
#   From: 2010.05.17/outbox.cif.g08.bks.cpg/sg2_199_cif.got.tgz:397491.got - 2010.06.03 11:33:40.
