data_PCOD9093070
_publ_section_title
;
Structure prediction by ZEFSAII (Michael W. Deem and Ramdas Pophale) SiO2 
 PCOD9093070
Probable space group: P -1
;
_chemical_formula_sum "Si O2"
_cell_formula_units_Z 16
_cell_length_a 8.087722
_cell_length_b 7.786910
_cell_length_c 10.813609
_cell_angle_alpha 94.390137
_cell_angle_beta 119.024081
_cell_angle_gamma 82.755724
_cell_volume 590.651434
_symmetry_space_group_name_H-M "P -1"
_symmetry_group_IT_number 2
_symmetry_cell_setting 'triclinic'
loop_
_space_group_symop_operation_xyz
x,y,z
-x,-y,-z
loop_
_atom_site_type_symbol
_atom_site_label
_atom_site_fract_x
_atom_site_fract_y
_atom_site_fract_z
Si Si1 0.310202 0.881153 0.783519
Si Si2 0.631280 0.647524 0.014635
Si Si3 0.581634 0.657794 0.380324
Si Si4 0.653479 0.251345 0.454315
Si Si5 0.009408 0.667092 0.274137
Si Si6 0.960793 0.084833 0.121804
Si Si7 0.925428 0.720526 0.631042
Si Si8 0.232569 0.642589 0.102191
O O1 0.491553 0.805861 0.923012
O O2 0.377748 0.894166 0.667664
O O3 0.143732 0.752549 0.689036
O O4 0.179795 0.001440 0.839438
O O5 0.744068 0.560324 0.931584
O O6 0.500000 0.500000 0.000000
O O7 0.784619 0.668520 0.177024
O O8 0.604112 0.447078 0.390397
O O9 0.479511 0.737037 0.472167
O O10 0.788626 0.724545 0.464226
O O11 0.436016 0.700723 0.218711
O O12 0.869928 0.224343 0.583831
O O13 0.080966 0.470053 0.328367
O O14 0.097905 0.690318 0.171702
O O15 0.846475 0.264457 0.044831
O O16 0.129021 0.138716 0.272483
O O17 0.000000 0.000000 0.000000
#
# Coordination Sequence:
#
# PCOD9093070 Si02
#       8
#     2   2   2   2   2   2   2   2
#     4  10  20  32  50  78 104 143 165 212 263 299
#     4  12  18  30  47  84 111 132 165 214 267 308
#     4   9  18  30  51  79 109 137 164 206 267 321
#     4   9  18  31  48  79 115 138 158 205 267 328
#     4  10  20  31  51  83 113 134 165 204 275 323
#     4  10  22  39  53  71 104 144 185 213 254 303
#     4   9  19  33  49  80 101 145 167 206 266 307
#     4  11  20  33  54  80 107 140 166 217 261 313
#
# _framework density 27.088735
#
# number of rings (size 3 to 8) (size 9 to 14) (size 15 to 20)
#    0.750    1.250    5.000    1.125    0.000    3.000 
#    0.000    0.625    0.000    6.000    0.000    0.000 
#    0.000    0.000    0.000    0.000    0.000    0.000 
#
# Total GULP energy -89359.515560 kJ/mol
# GULP energy per Si atom -5584.969723 kJ/mol
# Density = 2.702708 g / cm^3
# Si number density = 27.088735 Si / 1000 Ang^3
#
#
#
# Elastic Constant Matrix: (Units=GPa)
#
#
# Indices 1 2 3 4 5 6 
#
# 1 64.5642 16.4825 33.2044 -1.4781 12.9446 -21.8137
# 2 16.4825 62.5714 24.0081 16.0575 -2.0331 -10.8282
# 3 33.2044 24.0081 176.6162 9.3546 31.5975 -15.6921
# 4 -1.4781 16.0575 9.3546 37.7752 -18.9643 -12.8635
# 5 12.9446 -2.0331 31.5975 -18.9643 54.2891 5.2242
# 6 -21.8137 -10.8282 -15.6921 -12.8635 5.2242 40.6472
#
#
#
# Elastic Compliance Matrix: (Units=1/GPa)
#
#
# Indices 1 2 3 4 5 6 
#
# 1 0.022884 -0.004638 -0.002263 0.005959 -0.003434 0.012499
# 2 -0.004638 0.019844 -0.001348 -0.008582 -0.000326 -0.000397
# 3 -0.002263 -0.001348 0.007477 -0.003723 -0.005241 0.000809
# 4 0.005959 -0.008582 -0.003723 0.042077 0.014066 0.010983
# 5 -0.003434 -0.000326 -0.005241 0.014066 0.027483 -0.003034
# 6 0.012499 -0.000397 0.000809 0.010983 -0.003034 0.035382
#
#
# Mechanical properties :
#
#
# Convention : Reuss Voigt Hill
#
# Bulk Modulus (GPa) = 29.66610 50.12686 39.89648
# Shear Modulus (GPa) = 27.34041 41.87942 34.60991
#
# Velocity S-wave (km/s) = 3.18038 3.93620 3.57830
# Velocity P-wave (km/s) = 4.94587 6.26123 5.64202
#
# Compressibility (1/GPa) = 0.03370851
#
# Stress axis : x y z
#
# Youngs Moduli (GPa) = 43.69858 50.39404 133.73712
#
# Poissons Ratio (x) = 0.23372 0.30258
# Poissons Ratio (y) = 0.20267 0.18026
# Poissons Ratio (z) = 0.09887 0.06793
#
# Static dielectric constant tensor:
#      x y z
#    x 2.180270 -0.062170 -0.019460 
#    y -0.062170 2.228980 0.033280 
#    z -0.019460 0.033280 2.070940 
# 
# From -- ./inp_files/317053.got.cif
#   From: 2010.05.17/outbox.cif.g08.bks.cpg/sg2_159_cif.got.tgz:317053.got - 2010.06.03 11:33:40.
