data_PCOD9093806
_publ_section_title
;
Structure prediction by ZEFSAII (Michael W. Deem and Ramdas Pophale) SiO2 
 PCOD9093806
Probable space group: P -1
;
_chemical_formula_sum "Si O2"
_cell_formula_units_Z 16
_cell_length_a 11.023251
_cell_length_b 20.273148
_cell_length_c 7.982739
_cell_angle_alpha 149.884705
_cell_angle_beta 123.608722
_cell_angle_gamma 53.339390
_cell_volume 714.976034
_symmetry_space_group_name_H-M "P -1"
_symmetry_group_IT_number 2
_symmetry_cell_setting 'triclinic'
loop_
_space_group_symop_operation_xyz
x,y,z
-x,-y,-z
loop_
_atom_site_type_symbol
_atom_site_label
_atom_site_fract_x
_atom_site_fract_y
_atom_site_fract_z
Si Si1 0.807497 0.510954 0.689237
Si Si2 0.916298 0.379712 0.169328
Si Si3 0.651978 0.800967 0.581805
Si Si4 0.587942 0.797044 0.124862
Si Si5 0.670133 0.098526 0.351445
Si Si6 0.012744 0.913461 0.490898
Si Si7 0.846015 0.499338 0.058429
Si Si8 0.712062 0.045127 0.659102
O O1 0.834562 0.391531 0.311333
O O2 0.969321 0.546917 0.913579
O O3 0.680613 0.642841 0.814345
O O4 0.776088 0.473094 0.770817
O O5 0.807749 0.422364 0.020296
O O6 0.000000 0.500000 0.500000
O O7 0.023854 0.228680 0.890714
O O8 0.619956 0.807310 0.371609
O O9 0.786027 0.662423 0.404664
O O10 0.500854 0.803961 0.579551
O O11 0.680983 0.943431 0.965987
O O12 0.405287 0.843261 0.072348
O O13 0.651535 0.910559 0.332776
O O14 0.808742 0.129864 0.430387
O O15 0.695586 0.094933 0.563706
O O16 0.892911 0.996990 0.717476
O O17 0.000000 0.000000 0.500000
#
# Coordination Sequence:
#
# PCOD9093806 Si02
#       8
#     2   2   2   2   2   2   2   2
#     4   9  18  30  50  84 111 140 186 241 274 331
#     4  10  20  33  58  85 107 151 195 229 281 344
#     4   9  18  33  54  82 106 147 188 229 286 338
#     4   9  17  31  51  81 112 139 191 233 276 328
#     4   9  19  33  54  78 112 145 186 233 282 341
#     4  10  21  35  57  84 116 146 185 237 287 336
#     4   9  18  31  53  82 109 143 189 238 274 332
#     4   9  17  30  53  76 107 149 178 230 276 334
#
# _framework density 22.378371999999999
#
# number of rings (size 3 to 8) (size 9 to 14) (size 15 to 20)
#    0.000    2.750    0.000    1.500    8.750    0.000 
#    0.000    1.250    5.500   12.000    0.000    0.000 
#    0.000    0.000    0.000    0.000    0.000    0.000 
#
# Total GULP energy -89141.260619 kJ/mol
# GULP energy per Si atom -5571.328789 kJ/mol
# Density = 2.232744 g / cm^3
# Si number density = 22.378372 Si / 1000 Ang^3
#
#
#
# Elastic Constant Matrix: (Units=GPa)
#
#
# Indices 1 2 3 4 5 6 
#
# 1 116.4041 11.5912 22.3907 14.2552 -19.6046 -29.5893
# 2 11.5912 56.5844 25.7672 15.5051 -8.4065 5.9073
# 3 22.3907 25.7672 46.9640 21.0698 -17.8246 -8.9236
# 4 14.2552 15.5051 21.0698 29.8200 -3.8204 -12.6922
# 5 -19.6046 -8.4065 -17.8246 -3.8204 29.5985 9.0872
# 6 -29.5893 5.9073 -8.9236 -12.6922 9.0872 22.2943
#
#
#
# Elastic Compliance Matrix: (Units=1/GPa)
#
#
# Indices 1 2 3 4 5 6 
#
# 1 0.015568 -0.007741 -0.002807 0.010281 -0.000772 0.027758
# 2 -0.007741 0.035970 -0.009368 -0.024831 0.008932 -0.041331
# 3 -0.002807 -0.009368 0.047233 -0.027276 0.022573 -0.007067
# 4 0.010281 -0.024831 -0.027276 0.087085 -0.026869 0.069837
# 5 -0.000772 0.008932 0.022573 -0.026869 0.055895 -0.032436
# 6 0.027758 -0.041331 -0.007067 0.069837 -0.032436 0.142798
#
#
# Mechanical properties :
#
#
# Convention : Reuss Voigt Hill
#
# Bulk Modulus (GPa) = 16.96654 37.71675 27.34164
# Shear Modulus (GPa) = 11.26057 27.02280 19.14168
#
# Velocity S-wave (km/s) = 2.24562 3.47874 2.92784
# Velocity P-wave (km/s) = 3.78443 5.74684 4.86560
#
# Compressibility (1/GPa) = 0.05893955
#
# Stress axis : x y z
#
# Youngs Moduli (GPa) = 64.23328 27.80060 21.17181
#
# Poissons Ratio (x) = 0.21520 0.05942
# Poissons Ratio (y) = 0.49722 0.19834
# Poissons Ratio (z) = 0.18029 0.26044
#
# Static dielectric constant tensor:
#      x y z
#    x 1.930430 -0.025780 -0.021520 
#    y -0.025780 1.913260 -0.029870 
#    z -0.021520 -0.029870 1.826570 
# 
# From -- ./inp_files/282554.got.cif
#   From: 2010.05.17/outbox.cif.g08.bks.cpg/sg2_142_cif.got.tgz:282554.got - 2010.06.03 11:33:40.
