data_PCOD9093600
_publ_section_title
;
Structure prediction by ZEFSAII (Michael W. Deem and Ramdas Pophale) SiO2 
 PCOD9093600
Probable space group: P -1
;
_chemical_formula_sum "Si O2"
_cell_formula_units_Z 12
_cell_length_a 15.181720
_cell_length_b 10.284957
_cell_length_c 19.783807
_cell_angle_alpha 159.451268
_cell_angle_beta 23.463097
_cell_angle_gamma 153.398339
_cell_volume 417.809126
_symmetry_space_group_name_H-M "P -1"
_symmetry_group_IT_number 2
_symmetry_cell_setting 'triclinic'
loop_
_space_group_symop_operation_xyz
x,y,z
-x,-y,-z
loop_
_atom_site_type_symbol
_atom_site_label
_atom_site_fract_x
_atom_site_fract_y
_atom_site_fract_z
Si Si1 0.063185 0.505198 0.555715
Si Si2 0.460081 0.441979 0.804902
Si Si3 0.571905 0.273678 0.778130
Si Si4 0.856480 0.553085 0.386539
Si Si5 0.381166 0.675361 0.834790
Si Si6 0.159947 0.336475 0.693535
O O1 0.314081 0.687211 0.441111
O O2 0.172768 0.477457 0.304658
O O3 0.040784 0.613541 0.702372
O O4 0.045606 0.046366 0.341443
O O5 0.399709 0.220862 0.810534
O O6 0.313952 0.458164 0.848192
O O7 0.530722 0.878576 0.993966
O O8 0.636792 0.888095 0.569489
O O9 0.500000 0.500000 0.000000
O O10 0.606218 0.562721 0.593404
O O11 0.865348 0.435818 0.245257
O O12 0.000000 0.000000 0.500000
O O13 0.207946 0.562792 0.839637
#
# Coordination Sequence:
#
# PCOD9093600 Si02
#       6
#     2   2   2   2   2   2
#     4   8  19  34  55  78 103 142 172 214 258 309
#     4  10  20  35  55  76 108 140 177 208 261 318
#     4  10  20  34  56  77 102 141 177 213 261 313
#     4   9  16  32  53  78 105 136 173 213 255 309
#     4  10  20  33  54  81 104 141 174 215 259 307
#     4   9  19  32  55  81 105 135 174 218 261 299
#
# _framework density 28.721250000000001
#
# number of rings (size 3 to 8) (size 9 to 14) (size 15 to 20)
#    1.000    1.667    0.000    2.000    0.000    1.333 
#    0.000    0.000    0.000    5.000    0.000    0.000 
#    0.000    0.000    0.000    0.000    0.000    0.000 
#
# Total GULP energy -67122.332933 kJ/mol
# GULP energy per Si atom -5593.527744 kJ/mol
# Density = 2.865588 g / cm^3
# Si number density = 28.721250 Si / 1000 Ang^3
#
#
#
# Elastic Constant Matrix: (Units=GPa)
#
#
# Indices 1 2 3 4 5 6 
#
# 1 230.3995 25.6717 34.4618 14.8275 59.7372 8.1865
# 2 25.6717 68.2690 31.7441 18.9107 12.8281 6.6799
# 3 34.4618 31.7441 114.4827 17.8141 13.4122 -4.4769
# 4 14.8275 18.9107 17.8141 57.0681 0.6167 2.3395
# 5 59.7372 12.8281 13.4122 0.6167 54.7431 4.4580
# 6 8.1865 6.6799 -4.4769 2.3395 4.4580 53.8961
#
#
#
# Elastic Compliance Matrix: (Units=1/GPa)
#
#
# Indices 1 2 3 4 5 6 
#
# 1 0.006290 -0.000383 -0.000859 -0.001152 -0.006518 -0.000390
# 2 -0.000383 0.018734 -0.004112 -0.004706 -0.002734 -0.002175
# 3 -0.000859 -0.004112 0.010569 -0.001773 -0.000803 0.001661
# 4 -0.001152 -0.004706 -0.001773 0.019926 0.002608 -0.000470
# 5 -0.006518 -0.002734 -0.000803 0.002608 0.026272 -0.001024
# 6 -0.000390 -0.002175 0.001661 -0.000470 -0.001024 0.019126
#
#
# Mechanical properties :
#
#
# Convention : Reuss Voigt Hill
#
# Bulk Modulus (GPa) = 40.18682 66.32295 53.25488
# Shear Modulus (GPa) = 41.69460 54.55971 48.12715
#
# Velocity S-wave (km/s) = 3.81425 4.36320 4.09793
# Velocity P-wave (km/s) = 5.78104 6.96602 6.40101
#
# Compressibility (1/GPa) = 0.02488378
#
# Stress axis : x y z
#
# Youngs Moduli (GPa) = 158.99284 53.37844 94.61939
#
# Poissons Ratio (x) = 0.02046 0.08130
# Poissons Ratio (y) = 0.06095 0.38904
# Poissons Ratio (z) = 0.13662 0.21948
#
# Static dielectric constant tensor:
#      x y z
#    x 2.219050 -0.004910 0.023330 
#    y -0.004910 2.470220 0.032670 
#    z 0.023330 0.032670 2.181260 
# 
# From -- ./inp_files/158977.got.cif
#   From: 2010.05.17/outbox.cif.g08.bks.cpg/sg2_80_cif.got.tgz:158977.got - 2010.06.03 11:33:40.
