data_PCOD9093007
_publ_section_title
;
Structure prediction by ZEFSAII (Michael W. Deem and Ramdas Pophale) SiO2 
 PCOD9093007
Probable space group: P -1
;
_chemical_formula_sum "Si O2"
_cell_formula_units_Z 16
_cell_length_a 19.964859
_cell_length_b 9.096157
_cell_length_c 20.618020
_cell_angle_alpha 137.254508
_cell_angle_beta 20.344770
_cell_angle_gamma 139.742441
_cell_volume 838.278410
_symmetry_space_group_name_H-M "P -1"
_symmetry_group_IT_number 2
_symmetry_cell_setting 'triclinic'
loop_
_space_group_symop_operation_xyz
x,y,z
-x,-y,-z
loop_
_atom_site_type_symbol
_atom_site_label
_atom_site_fract_x
_atom_site_fract_y
_atom_site_fract_z
Si Si1 0.883958 0.289967 0.358323
Si Si2 0.076943 0.225953 0.545660
Si Si3 0.819791 0.498838 0.212002
Si Si4 0.891290 0.343720 0.878044
Si Si5 0.873016 0.826204 0.003134
Si Si6 0.529475 0.711244 0.706749
Si Si7 0.398296 0.142897 0.456826
Si Si8 0.487174 0.765430 0.403060
O O1 0.956934 0.560122 0.395807
O O2 0.744101 0.317303 0.434353
O O3 0.033717 0.161600 0.149668
O O4 0.729870 0.112495 0.488428
O O5 0.305498 0.249554 0.372362
O O6 0.949552 0.209495 0.722627
O O7 0.000000 0.000000 0.500000
O O8 0.635531 0.259607 0.299299
O O9 0.715462 0.691500 0.354185
O O10 0.929922 0.571194 0.204275
O O11 0.000000 0.500000 0.000000
O O12 0.866693 0.573828 0.946336
O O13 0.671788 0.226635 0.071579
O O14 0.642819 0.819433 0.219325
O O15 0.000000 0.000000 0.000000
O O16 0.610313 0.830688 0.604413
O O17 0.468643 0.435234 0.661524
O O18 0.500000 0.000000 0.500000
#
# Coordination Sequence:
#
# PCOD9093007 Si02
#       8
#     2   2   2   2   2   2   2   2
#     4  10  23  36  52  86 116 146 192 244 293 345
#     4  10  22  44  67  82 107 150 204 260 301 333
#     4  11  23  34  55  85 126 169 189 216 279 355
#     4  10  21  38  58  86 113 156 199 235 278 351
#     4  10  20  30  51  77 113 151 191 227 279 338
#     4  10  21  40  57  85 114 152 200 237 289 350
#     4  11  24  34  55  87 127 158 190 227 286 360
#     4  10  20  31  53  75 111 153 191 232 277 340
#
# _framework density 19.086738
#
# number of rings (size 3 to 8) (size 9 to 14) (size 15 to 20)
#    0.000    1.750    3.750    0.000    7.000    0.500 
#    0.000    0.625    0.000    0.750    0.000    0.000 
#    0.000    0.000    0.000    0.000    0.000    0.000 
#
# Total GULP energy -89083.974709 kJ/mol
# GULP energy per Si atom -5567.748419 kJ/mol
# Density = 1.904330 g / cm^3
# Si number density = 19.086738 Si / 1000 Ang^3
#
#
#
# Elastic Constant Matrix: (Units=GPa)
#
#
# Indices 1 2 3 4 5 6 
#
# 1 64.9113 35.2335 25.8080 -1.6356 11.2133 2.9437
# 2 35.2335 105.1219 41.7253 0.9955 24.5863 -1.4615
# 3 25.8080 41.7253 136.7998 -13.3780 9.2686 1.2078
# 4 -1.6356 0.9955 -13.3780 25.5561 0.4111 10.2856
# 5 11.2133 24.5863 9.2686 0.4111 26.1405 -3.3059
# 6 2.9437 -1.4615 1.2078 10.2856 -3.3059 29.8893
#
#
#
# Elastic Compliance Matrix: (Units=1/GPa)
#
#
# Indices 1 2 3 4 5 6 
#
# 1 0.019670 -0.005195 -0.001683 0.001903 -0.003383 -0.003152
# 2 -0.005195 0.015038 -0.003183 -0.002898 -0.010590 0.001202
# 3 -0.001683 -0.003183 0.009177 0.005758 0.000076 -0.002334
# 4 0.001903 -0.002898 0.005758 0.049679 -0.003192 -0.018010
# 5 -0.003383 -0.010590 0.000076 -0.003192 0.050511 0.006497
# 6 -0.003152 0.001202 -0.002334 -0.018010 0.006497 0.040837
#
#
# Mechanical properties :
#
#
# Convention : Reuss Voigt Hill
#
# Bulk Modulus (GPa) = 42.08364 56.92962 49.50663
# Shear Modulus (GPa) = 23.47905 29.92159 26.70032
#
# Velocity S-wave (km/s) = 3.51112 3.96367 3.74424
# Velocity P-wave (km/s) = 6.20756 7.13016 6.68479
#
# Compressibility (1/GPa) = 0.02376221
#
# Stress axis : x y z
#
# Youngs Moduli (GPa) = 50.83840 66.49610 108.96865
#
# Poissons Ratio (x) = 0.34547 0.18340
# Poissons Ratio (y) = 0.26412 0.34688
# Poissons Ratio (z) = 0.08556 0.21168
#
# Static dielectric constant tensor:
#      x y z
#    x 1.714860 0.004760 0.001920 
#    y 0.004760 2.156080 0.152700 
#    z 0.001920 0.152700 1.777530 
# 
# From -- ./inp_files/272259.got.cif
#   From: 2010.05.17/outbox.cif.g08.bks.cpg/sg2_137_cif.got.tgz:272259.got - 2010.06.03 11:33:40.
