data_PCOD9093014
_publ_section_title
;
Structure prediction by ZEFSAII (Michael W. Deem and Ramdas Pophale) SiO2 
 PCOD9093014
Probable space group: P -1
;
_chemical_formula_sum "Si O2"
_cell_formula_units_Z 14
_cell_length_a 9.738914
_cell_length_b 6.593013
_cell_length_c 13.800407
_cell_angle_alpha 140.681212
_cell_angle_beta 56.628421
_cell_angle_gamma 113.189881
_cell_volume 468.048021
_symmetry_space_group_name_H-M "P -1"
_symmetry_group_IT_number 2
_symmetry_cell_setting 'triclinic'
loop_
_space_group_symop_operation_xyz
x,y,z
-x,-y,-z
loop_
_atom_site_type_symbol
_atom_site_label
_atom_site_fract_x
_atom_site_fract_y
_atom_site_fract_z
Si Si1 0.466095 0.597607 0.303317
Si Si2 0.213887 0.487204 0.101681
Si Si3 0.230462 0.210628 0.663418
Si Si4 0.419940 0.962795 0.753290
Si Si5 0.924740 0.965033 0.146796
Si Si6 0.793160 0.891153 0.785142
Si Si7 0.791788 0.860359 0.567169
O O1 0.626557 0.538336 0.287859
O O2 0.538458 0.788641 0.256957
O O3 0.370645 0.289567 0.203065
O O4 0.333528 0.864491 0.496595
O O5 0.245658 0.738941 0.093523
O O6 0.203655 0.749616 0.286596
O O7 0.361353 0.214002 0.952708
O O8 0.067869 0.282044 0.037428
O O9 0.115648 0.211690 0.801479
O O10 0.149387 0.226787 0.595122
O O11 0.246836 0.833756 0.735950
O O12 0.598538 0.784088 0.626542
O O13 0.086271 0.133834 0.179038
O O14 0.870858 0.757153 0.601646
#
# Coordination Sequence:
#
# PCOD9093014 Si02
#       7
#     2   2   2   2   2   2   2
#     4   9  18  33  52  75  99 131 172 203 243 294
#     4   8  18  31  52  78  98 132 161 208 240 304
#     4   9  18  35  52  69  98 142 165 196 246 310
#     4   8  16  33  54  69  98 137 165 189 243 310
#     4   9  18  33  53  74 100 134 168 194 249 304
#     4  10  20  30  52  81 102 123 165 219 243 280
#     4   9  18  31  53  77  99 129 167 207 246 288
#
# _framework density 29.911462
#
# number of rings (size 3 to 8) (size 9 to 14) (size 15 to 20)
#    1.714    1.429    0.000    1.714    0.000    2.286 
#    0.000    0.000    0.000   10.286    0.000    0.000 
#    0.000    0.000    0.000    0.000    0.000    0.000 
#
# Total GULP energy -78264.771405 kJ/mol
# GULP energy per Si atom -5590.340815 kJ/mol
# Density = 2.984338 g / cm^3
# Si number density = 29.911462 Si / 1000 Ang^3
#
#
#
# Elastic Constant Matrix: (Units=GPa)
#
#
# Indices 1 2 3 4 5 6 
#
# 1 180.3338 11.7566 62.8076 2.8860 21.0668 2.5994
# 2 11.7566 81.2605 51.1372 15.0659 5.2000 18.2394
# 3 62.8076 51.1372 161.1247 -13.0472 34.5244 5.2732
# 4 2.8860 15.0659 -13.0472 55.6739 -11.2145 13.6923
# 5 21.0668 5.2000 34.5244 -11.2145 57.8845 -3.9963
# 6 2.5994 18.2394 5.2732 13.6923 -3.9963 54.1617
#
#
#
# Elastic Compliance Matrix: (Units=1/GPa)
#
#
# Indices 1 2 3 4 5 6 
#
# 1 0.006614 0.001222 -0.002843 -0.001531 -0.001128 -0.000148
# 2 0.001222 0.018240 -0.006692 -0.005436 0.000570 -0.004133
# 3 -0.002843 -0.006692 0.010574 0.003599 -0.003962 0.000158
# 4 -0.001531 -0.005436 0.003599 0.021859 0.002874 -0.003760
# 5 -0.001128 0.000570 -0.003962 0.002874 0.020627 0.001043
# 6 -0.000148 -0.004133 0.000158 -0.003760 0.001043 0.020874
#
#
# Mechanical properties :
#
#
# Convention : Reuss Voigt Hill
#
# Bulk Modulus (GPa) = 53.19043 74.90242 64.04642
# Shear Modulus (GPa) = 41.09005 53.34520 47.21762
#
# Velocity S-wave (km/s) = 3.71040 4.22766 3.97744
# Velocity P-wave (km/s) = 6.01476 6.99475 6.52318
#
# Compressibility (1/GPa) = 0.01880037
#
# Stress axis : x y z
#
# Youngs Moduli (GPa) = 151.18639 54.82499 94.57162
#
# Poissons Ratio (x) = -0.06698 0.26891
# Poissons Ratio (y) = -0.18470 0.63288
# Poissons Ratio (z) = 0.42989 0.36690
#
# Static dielectric constant tensor:
#      x y z
#    x 2.369260 -0.000380 0.048450 
#    y -0.000380 2.370620 -0.005210 
#    z 0.048450 -0.005210 2.309160 
# 
# From -- ./inp_files/416831.got.cif
#   From: 2010.05.17/outbox.cif.g08.bks.cpg/sg2_209_cif.got.tgz:416831.got - 2010.06.03 11:33:40.
