data_PCOD9093393
_publ_section_title
;
Structure prediction by ZEFSAII (Michael W. Deem and Ramdas Pophale) SiO2 
 PCOD9093393
Probable space group: P -1
;
_chemical_formula_sum "Si O2"
_cell_formula_units_Z 16
_cell_length_a 13.080538
_cell_length_b 12.811034
_cell_length_c 8.455780
_cell_angle_alpha 126.301661
_cell_angle_beta 83.258757
_cell_angle_gamma 139.227051
_cell_volume 579.862777
_symmetry_space_group_name_H-M "P -1"
_symmetry_group_IT_number 2
_symmetry_cell_setting 'triclinic'
loop_
_space_group_symop_operation_xyz
x,y,z
-x,-y,-z
loop_
_atom_site_type_symbol
_atom_site_label
_atom_site_fract_x
_atom_site_fract_y
_atom_site_fract_z
Si Si1 0.213974 0.785016 0.268822
Si Si2 0.770981 0.769940 0.765509
Si Si3 0.792889 0.340299 0.522928
Si Si4 0.742760 0.525492 0.943994
Si Si5 0.441495 0.814947 0.074992
Si Si6 0.722744 0.793525 0.111162
Si Si7 0.873471 0.615713 0.504634
Si Si8 0.201258 0.053603 0.417446
O O1 0.186821 0.750884 0.431385
O O2 0.375165 0.858274 0.243126
O O3 0.269136 0.978792 0.351298
O O4 0.000000 0.500000 0.000000
O O5 0.727464 0.571937 0.561002
O O6 0.766373 0.838787 0.658499
O O7 0.654788 0.733520 0.883038
O O8 0.000000 0.000000 0.000000
O O9 0.750059 0.415359 0.719885
O O10 0.930892 0.568826 0.581355
O O11 0.636687 0.092698 0.216955
O O12 0.563870 0.312236 0.914616
O O13 0.727130 0.642232 0.963186
O O14 0.956857 0.772337 0.217152
O O15 0.262850 0.597022 0.793049
O O16 0.694411 0.769916 0.288658
O O17 0.930951 0.100498 0.341950
#
# Coordination Sequence:
#
# PCOD9093393 Si02
#       8
#     2   2   2   2   2   2   2   2
#     4  11  22  38  58  87 124 164 201 253 306 359
#     4  10  20  32  59  92 120 153 196 269 309 348
#     4  11  23  39  60  87 126 165 205 241 305 386
#     4  11  17  35  59  88 120 146 205 258 300 348
#     4  11  23  38  61  89 121 171 202 244 305 379
#     4  11  20  34  61  97 120 151 202 272 307 343
#     4  11  19  37  61  90 119 152 214 256 303 354
#     4  12  20  36  58  92 127 150 198 255 320 356
#
# _framework density 27.592735000000001
#
# number of rings (size 3 to 8) (size 9 to 14) (size 15 to 20)
#    0.000    1.000    7.500    3.750    0.000    0.000 
#    2.250    1.250    0.000    7.500    0.000    0.000 
#    0.000    0.000    0.000    0.000    0.000    0.000 
#
# Total GULP energy -89190.843245 kJ/mol
# GULP energy per Si atom -5574.427703 kJ/mol
# Density = 2.752993 g / cm^3
# Si number density = 27.592735 Si / 1000 Ang^3
#
#
#
# Elastic Constant Matrix: (Units=GPa)
#
#
# Indices 1 2 3 4 5 6 
#
# 1 6.1689 42.7744 56.2990 4.7513 -0.0509 -7.3238
# 2 42.7744 186.7080 24.0681 -19.7176 -3.1617 -26.1975
# 3 56.2990 24.0681 63.3767 -26.1642 -2.7851 -1.7761
# 4 4.7513 -19.7176 -26.1642 53.1990 -1.7166 -3.1402
# 5 -0.0509 -3.1617 -2.7851 -1.7166 35.8269 -0.8003
# 6 -7.3238 -26.1975 -1.7761 -3.1402 -0.8003 45.9560
#
#
#
# Elastic Compliance Matrix: (Units=1/GPa)
#
#
# Indices 1 2 3 4 5 6 
#
# 1 -0.014831 0.002454 0.016693 0.010534 0.002008 0.000435
# 2 0.002454 0.005857 -0.004260 0.000076 0.000273 0.003575
# 3 0.016693 -0.004260 0.001617 -0.002278 -0.000333 0.000133
# 4 0.010534 0.000076 -0.002278 0.016954 0.000720 0.002805
# 5 0.002008 0.000273 -0.000333 0.000720 0.027970 0.000999
# 6 0.000435 0.003575 0.000133 0.002805 0.000999 0.024082
#
#
# Mechanical properties :
#
#
# Convention : Reuss Voigt Hill
#
# Bulk Modulus (GPa) = 44.61329 55.83738 50.22534
# Shear Modulus (GPa) = 127.07308 35.87054 81.47181
#
# Velocity S-wave (km/s) = 6.79361 3.60946 5.43973
# Velocity P-wave (km/s) = 8.81709 6.13605 7.59579
#
# Compressibility (1/GPa) = 0.02241484
#
# Stress axis : x y z
#
# Youngs Moduli (GPa) = -67.42440 170.72442 618.46861
#
# Poissons Ratio (x) = -0.41888 -10.32389
# Poissons Ratio (y) = 0.16543 2.63481
# Poissons Ratio (z) = 1.12549 0.72732
#
# Static dielectric constant tensor:
#      x y z
#    x 2.430050 0.155490 0.067950 
#    y 0.155490 2.324820 -0.017180 
#    z 0.067950 -0.017180 2.193850 
# 
# From -- ./inp_files/333626.got.cif
#   From: 2010.05.17/outbox.cif.g08.bks.cpg/sg2_167_cif.got.tgz:333626.got - 2010.06.03 11:33:40.
