data_PCOD9093909
_publ_section_title
;
Structure prediction by ZEFSAII (Michael W. Deem and Ramdas Pophale) SiO2 
 PCOD9093909
Probable space group: P -1
;
_chemical_formula_sum "Si O2"
_cell_formula_units_Z 15
_cell_length_a 15.348364
_cell_length_b 7.731064
_cell_length_c 9.436761
_cell_angle_alpha 69.598013
_cell_angle_beta 91.660520
_cell_angle_gamma 45.547767
_cell_volume 683.920523
_symmetry_space_group_name_H-M "P -1"
_symmetry_group_IT_number 2
_symmetry_cell_setting 'triclinic'
loop_
_space_group_symop_operation_xyz
x,y,z
-x,-y,-z
loop_
_atom_site_type_symbol
_atom_site_label
_atom_site_fract_x
_atom_site_fract_y
_atom_site_fract_z
Si Si1 0.727096 0.198309 0.887667
Si Si2 0.009014 0.301006 0.382233
Si Si3 0.000000 0.000000 0.000000
Si Si4 0.491123 0.143308 0.319367
Si Si5 0.712516 0.912816 0.188696
Si Si6 0.912272 0.089897 0.267497
Si Si7 0.864044 0.691415 0.851077
Si Si8 0.696881 0.675153 0.985499
O O1 0.865273 0.087056 0.935944
O O2 0.609011 0.526616 0.750289
O O3 0.752279 0.001014 0.826643
O O4 0.697074 0.135745 0.049585
O O5 0.867695 0.624596 0.309730
O O6 0.970152 0.184591 0.316392
O O7 0.102970 0.292755 0.306870
O O8 0.078222 0.097628 0.576584
O O9 0.001422 0.916035 0.184883
O O10 0.423346 0.148824 0.179259
O O11 0.500000 0.000000 0.500000
O O12 0.626902 0.004956 0.297057
O O13 0.674783 0.836368 0.076186
O O14 0.761370 0.385455 0.131801
O O15 0.818555 0.557271 0.923237
O O16 0.000000 0.500000 0.000000
#
# Coordination Sequence:
#
# PCOD9093909 Si02
#       8
#     2   2   1   2   2   2   2   2
#     4  11  23  39  68  90 129 166 205 259 320 378
#     4  10  20  35  62  97 124 151 208 254 311 373
#     4  12  20  36  64  94 124 162 200 250 348 366
#     4  12  27  44  62  89 127 172 219 266 301 364
#     4  10  23  43  63  86 126 177 209 247 306 386
#     4  10  20  33  60  95 122 156 196 263 309 377
#     4  11  18  40  67  98 125 161 200 262 329 379
#     4  10  21  42  67  89 120 172 215 250 319 382
#
# _framework density 21.932373999999999
#
# number of rings (size 3 to 8) (size 9 to 14) (size 15 to 20)
#    0.000    1.333    6.667    0.800    1.867    1.067 
#    2.400    3.333    0.000    0.000    0.000    0.000 
#    0.000    0.000    0.000    0.000    0.000    0.000 
#
# Total GULP energy -83577.104428 kJ/mol
# GULP energy per Si atom -5571.806962 kJ/mol
# Density = 2.188246 g / cm^3
# Si number density = 21.932374 Si / 1000 Ang^3
#
#
#
# Elastic Constant Matrix: (Units=GPa)
#
#
# Indices 1 2 3 4 5 6 
#
# 1 50.0695 23.6242 51.8080 1.5657 -17.3887 -14.7067
# 2 23.6242 82.3013 66.7683 -5.0810 -18.5313 -10.2567
# 3 51.8080 66.7683 196.5086 -11.0804 -52.8359 -12.5581
# 4 1.5657 -5.0810 -11.0804 31.2245 0.0708 -10.2025
# 5 -17.3887 -18.5313 -52.8359 0.0708 36.2129 14.3250
# 6 -14.7067 -10.2567 -12.5581 -10.2025 14.3250 39.0250
#
#
#
# Elastic Compliance Matrix: (Units=1/GPa)
#
#
# Indices 1 2 3 4 5 6 
#
# 1 0.030651 -0.002306 -0.006740 -0.001634 0.000474 0.008175
# 2 -0.002306 0.017334 -0.005275 0.002021 -0.001091 0.002918
# 3 -0.006740 -0.005275 0.012140 0.002331 0.013500 -0.004366
# 4 -0.001634 0.002021 0.002331 0.036683 -0.000560 0.010461
# 5 0.000474 -0.001091 0.013500 -0.000560 0.053069 -0.015391
# 6 0.008175 0.002918 -0.004366 0.010461 -0.015391 0.036452
#
#
# Mechanical properties :
#
#
# Convention : Reuss Voigt Hill
#
# Bulk Modulus (GPa) = 31.76160 68.14230 49.95195
# Shear Modulus (GPa) = 22.17639 33.73774 27.95706
#
# Velocity S-wave (km/s) = 3.18327 3.92632 3.57416
# Velocity P-wave (km/s) = 5.29377 7.18967 6.31330
#
# Compressibility (1/GPa) = 0.03148456
#
# Stress axis : x y z
#
# Youngs Moduli (GPa) = 32.62565 57.68896 82.37229
#
# Poissons Ratio (x) = 0.13302 0.55516
# Poissons Ratio (y) = 0.07523 0.43449
# Poissons Ratio (z) = 0.21988 0.30429
#
# Static dielectric constant tensor:
#      x y z
#    x 1.851640 0.031240 0.034020 
#    y 0.031240 2.215040 -0.019650 
#    z 0.034020 -0.019650 1.783530 
# 
# From -- ./inp_files/328565.got.cif
#   From: 2010.05.17/outbox.cif.g08.bks.cpg/sg2_165_cif.got.tgz:328565.got - 2010.06.03 11:33:40.
