data_PCOD9093896
_publ_section_title
;
Structure prediction by ZEFSAII (Michael W. Deem and Ramdas Pophale) SiO2 
 PCOD9093896
Probable space group: P -1
;
_chemical_formula_sum "Si O2"
_cell_formula_units_Z 16
_cell_length_a 13.238458
_cell_length_b 5.692236
_cell_length_c 16.831191
_cell_angle_alpha 93.722263
_cell_angle_beta 144.950283
_cell_angle_gamma 96.003584
_cell_volume 698.777793
_symmetry_space_group_name_H-M "P -1"
_symmetry_group_IT_number 2
_symmetry_cell_setting 'triclinic'
loop_
_space_group_symop_operation_xyz
x,y,z
-x,-y,-z
loop_
_atom_site_type_symbol
_atom_site_label
_atom_site_fract_x
_atom_site_fract_y
_atom_site_fract_z
Si Si1 0.758573 0.617352 0.631474
Si Si2 0.903359 0.338380 0.831682
Si Si3 0.353490 0.127888 0.292355
Si Si4 0.149184 0.881887 0.831837
Si Si5 0.709760 0.577046 0.109365
Si Si6 0.992663 0.938461 0.401724
Si Si7 0.384708 0.160571 0.596101
Si Si8 0.282030 0.463498 0.136377
O O1 0.668818 0.636944 0.489583
O O2 0.809348 0.375741 0.689440
O O3 0.960968 0.810819 0.758973
O O4 0.638210 0.697775 0.623428
O O5 0.838217 0.071867 0.820591
O O6 0.821189 0.489261 0.847370
O O7 0.120143 0.424743 0.969519
O O8 0.509729 0.990097 0.392481
O O9 0.349642 0.235690 0.204343
O O10 0.249667 0.670385 0.902490
O O11 0.255961 0.170830 0.915842
O O12 0.084623 0.875199 0.697678
O O13 0.856495 0.682351 0.277952
O O14 0.500000 0.500000 0.000000
O O15 0.202153 0.984029 0.510007
O O16 0.000000 0.000000 0.500000
O O17 0.541030 0.312067 0.759629
#
# Coordination Sequence:
#
# PCOD9093896 Si02
#       8
#     2   2   2   2   2   2   2   2
#     4  10  21  36  57  92 126 165 209 259 320 385
#     4   9  19  34  56  77 120 164 212 252 312 376
#     4  10  20  33  60  87 123 166 215 258 320 381
#     4   9  22  39  68  96 135 167 215 271 334 389
#     4  10  21  43  70  94 129 171 215 278 334 390
#     4   9  22  42  66  94 128 172 218 275 337 396
#     4  10  21  38  58  89 123 164 211 267 322 386
#     4   9  19  36  52  80 116 165 206 261 309 380
#
# _framework density 22.897120999999999
#
# number of rings (size 3 to 8) (size 9 to 14) (size 15 to 20)
#    0.750    1.750    0.000    1.125    1.750    9.000 
#    2.250    0.000    0.000    0.000    0.000    0.000 
#    0.000    0.000    0.000    0.000    0.000    0.000 
#
# Total GULP energy -89166.123225 kJ/mol
# GULP energy per Si atom -5572.882702 kJ/mol
# Density = 2.284501 g / cm^3
# Si number density = 22.897121 Si / 1000 Ang^3
#
#
#
# Elastic Constant Matrix: (Units=GPa)
#
#
# Indices 1 2 3 4 5 6 
#
# 1 74.3515 25.0309 25.6294 -2.3899 15.9092 4.6179
# 2 25.0309 100.3552 35.8327 4.1518 10.0781 -8.6477
# 3 25.6294 35.8327 130.6924 13.5218 26.5756 -1.9113
# 4 -2.3899 4.1518 13.5218 32.2200 10.7318 5.1016
# 5 15.9092 10.0781 26.5756 10.7318 31.3190 0.3145
# 6 4.6179 -8.6477 -1.9113 5.1016 0.3145 21.8591
#
#
#
# Elastic Compliance Matrix: (Units=1/GPa)
#
#
# Indices 1 2 3 4 5 6 
#
# 1 0.017726 -0.003896 -0.001402 0.006366 -0.008675 -0.006770
# 2 -0.003896 0.012342 -0.002474 -0.002031 0.000743 0.005953
# 3 -0.001402 -0.002474 0.010127 -0.002025 -0.006399 0.000768
# 4 0.006366 -0.002031 -0.002025 0.039116 -0.014152 -0.011251
# 5 -0.008675 0.000743 -0.006399 -0.014152 0.046333 0.004203
# 6 -0.006770 0.005953 0.000768 -0.011251 0.004203 0.052165
#
#
# Mechanical properties :
#
#
# Convention : Reuss Voigt Hill
#
# Bulk Modulus (GPa) = 40.56611 53.15392 46.86001
# Shear Modulus (GPa) = 24.80543 31.67338 28.23940
#
# Velocity S-wave (km/s) = 3.29499 3.72330 3.51567
# Velocity P-wave (km/s) = 5.67724 6.46131 6.08193
#
# Compressibility (1/GPa) = 0.02465112
#
# Stress axis : x y z
#
# Youngs Moduli (GPa) = 56.41525 81.02364 98.75062
#
# Poissons Ratio (x) = 0.31570 0.13840
# Poissons Ratio (y) = 0.21981 0.24428
# Poissons Ratio (z) = 0.07907 0.20043
#
# Static dielectric constant tensor:
#      x y z
#    x 1.830520 -0.016910 -0.011040 
#    y -0.016910 1.940360 0.035490 
#    z -0.011040 0.035490 1.878450 
# 
# From -- ./inp_files/596716.got.cif
#   From: 2010.05.17/outbox.cif.g08.bks.cpg/sg2_299_cif.got.tgz:596716.got - 2010.06.03 11:33:40.
