data_PCOD9093678
_publ_section_title
;
Structure prediction by ZEFSAII (Michael W. Deem and Ramdas Pophale) SiO2 
 PCOD9093678
Probable space group: P -1
;
_chemical_formula_sum "Si O2"
_cell_formula_units_Z 14
_cell_length_a 15.744396
_cell_length_b 11.774727
_cell_length_c 12.422253
_cell_angle_alpha 31.350624
_cell_angle_beta 35.275443
_cell_angle_gamma 51.842426
_cell_volume 667.361871
_symmetry_space_group_name_H-M "P -1"
_symmetry_group_IT_number 2
_symmetry_cell_setting 'triclinic'
loop_
_space_group_symop_operation_xyz
x,y,z
-x,-y,-z
loop_
_atom_site_type_symbol
_atom_site_label
_atom_site_fract_x
_atom_site_fract_y
_atom_site_fract_z
Si Si1 0.048617 0.778104 0.509484
Si Si2 0.380624 0.347764 0.023561
Si Si3 0.114582 0.734005 0.234331
Si Si4 0.636964 0.458897 0.822054
Si Si5 0.219021 0.681607 0.841519
Si Si6 0.836306 0.883001 0.361488
Si Si7 0.805450 0.058162 0.558426
O O1 0.123069 0.761224 0.332097
O O2 0.959062 0.975567 0.441527
O O3 0.161374 0.822585 0.457810
O O4 0.922202 0.539391 0.841733
O O5 0.253390 0.245600 0.333103
O O6 0.329771 0.171515 0.121701
O O7 0.548297 0.365985 0.880172
O O8 0.357115 0.586536 0.817141
O O9 0.283036 0.707933 0.061520
O O10 0.000000 0.500000 0.500000
O O11 0.016262 0.904099 0.164031
O O12 0.757789 0.705498 0.494044
O O13 0.500000 0.500000 0.000000
O O14 0.191285 0.870144 0.800594
O O15 0.231205 0.790940 0.622299
#
# Coordination Sequence:
#
# PCOD9093678 Si02
#       7
#     2   2   2   2   2   2   2
#     4  10  18  32  53  81 106 135 168 218 263 296
#     4   9  17  32  52  76 105 139 170 209 256 305
#     4  10  18  34  56  75 106 135 171 221 257 301
#     4   9  19  33  55  72 103 145 173 208 260 309
#     4  10  16  29  55  78 109 132 172 212 259 304
#     4   9  17  33  52  78 104 132 175 215 252 306
#     4   9  18  31  54  80 106 133 175 212 254 311
#
# _framework density 20.978121999999999
#
# number of rings (size 3 to 8) (size 9 to 14) (size 15 to 20)
#    0.000    2.571    4.286    0.429    0.000    0.571 
#    0.000    3.571    9.429    0.857    0.000    0.000 
#    0.000    0.000    0.000    0.000    0.000    0.000 
#
# Total GULP energy -77961.718241 kJ/mol
# GULP energy per Si atom -5568.694160 kJ/mol
# Density = 2.093037 g / cm^3
# Si number density = 20.978122 Si / 1000 Ang^3
#
#
#
# Elastic Constant Matrix: (Units=GPa)
#
#
# Indices 1 2 3 4 5 6 
#
# 1 145.4190 42.1200 19.6879 -2.2570 -13.0802 -19.3498
# 2 42.1200 65.4839 22.6563 -9.4863 1.5420 -15.8063
# 3 19.6879 22.6563 38.6043 -11.7804 4.2153 -15.9352
# 4 -2.2570 -9.4863 -11.7804 23.5159 -5.5108 3.5791
# 5 -13.0802 1.5420 4.2153 -5.5108 31.8215 -4.4874
# 6 -19.3498 -15.8063 -15.9352 3.5791 -4.4874 47.7949
#
#
#
# Elastic Compliance Matrix: (Units=1/GPa)
#
#
# Indices 1 2 3 4 5 6 
#
# 1 0.009237 -0.005159 -0.001765 -0.001364 0.004320 0.001953
# 2 -0.005159 0.022619 -0.008463 0.003793 -0.001131 0.002180
# 3 -0.001765 -0.008463 0.039991 0.014714 -0.001860 0.008543
# 4 -0.001364 0.003793 0.014714 0.052520 0.006727 0.002307
# 5 0.004320 -0.001131 -0.001860 0.006727 0.035168 0.003553
# 6 0.001953 0.002180 0.008543 0.002307 0.003553 0.025444
#
#
# Mechanical properties :
#
#
# Convention : Reuss Voigt Hill
#
# Bulk Modulus (GPa) = 24.34670 46.49285 35.41977
# Shear Modulus (GPa) = 21.79180 31.62934 26.71057
#
# Velocity S-wave (km/s) = 3.22652 3.88716 3.57215
# Velocity P-wave (km/s) = 5.05089 6.50825 5.82533
#
# Compressibility (1/GPa) = 0.04107333
#
# Stress axis : x y z
#
# Youngs Moduli (GPa) = 108.25960 44.20969 25.00578
#
# Poissons Ratio (x) = 0.22806 0.04414
# Poissons Ratio (y) = 0.55847 0.21163
# Poissons Ratio (z) = 0.19108 0.37416
#
# Static dielectric constant tensor:
#      x y z
#    x 1.839010 0.012020 0.057530 
#    y 0.012020 1.814000 -0.003350 
#    z 0.057530 -0.003350 1.839230 
# 
# From -- ./inp_files/440247.got.cif
#   From: 2010.05.17/outbox.cif.g08.bks.cpg/sg2_221_cif.got.tgz:440247.got - 2010.06.03 11:33:40.
