data_PCOD9093598
_publ_section_title
;
Structure prediction by ZEFSAII (Michael W. Deem and Ramdas Pophale) SiO2 
 PCOD9093598
Probable space group: P -1
;
_chemical_formula_sum "Si O2"
_cell_formula_units_Z 16
_cell_length_a 5.498464
_cell_length_b 20.645794
_cell_length_c 8.655972
_cell_angle_alpha 135.688096
_cell_angle_beta 88.682252
_cell_angle_gamma 95.259645
_cell_volume 682.255056
_symmetry_space_group_name_H-M "P -1"
_symmetry_group_IT_number 2
_symmetry_cell_setting 'triclinic'
loop_
_space_group_symop_operation_xyz
x,y,z
-x,-y,-z
loop_
_atom_site_type_symbol
_atom_site_label
_atom_site_fract_x
_atom_site_fract_y
_atom_site_fract_z
Si Si1 0.201725 0.183734 0.589353
Si Si2 0.189700 0.345080 0.609347
Si Si3 0.262546 0.450605 0.266856
Si Si4 0.235990 0.786130 0.752384
Si Si5 0.241277 0.993599 0.087310
Si Si6 0.483477 0.646507 0.660904
Si Si7 0.774912 0.446591 0.067124
Si Si8 0.704289 0.235919 0.648107
O O1 0.211777 0.266856 0.602389
O O2 0.234685 0.081445 0.350813
O O3 0.460056 0.215055 0.717965
O O4 0.924562 0.191685 0.656149
O O5 0.431047 0.356263 0.522096
O O6 0.172933 0.451813 0.840258
O O7 0.984168 0.295326 0.413109
O O8 0.297082 0.552796 0.520813
O O9 0.299026 0.372072 0.259339
O O10 0.504470 0.445963 0.147744
O O11 0.004940 0.441133 0.169141
O O12 0.383465 0.745207 0.821211
O O13 0.322430 0.801321 0.593897
O O14 0.194882 0.889791 0.979419
O O15 0.500000 0.000000 0.000000
O O16 0.000000 0.000000 0.000000
O O17 0.759353 0.347266 0.813807
#
# Coordination Sequence:
#
# PCOD9093598 Si02
#       8
#     2   2   2   2   2   2   2   2
#     4  11  21  36  53  85 112 151 172 231 273 337
#     4  10  20  33  54  80 121 138 189 214 285 320
#     4  10  23  37  58  76 112 148 198 222 273 312
#     4  11  21  34  56  86 114 145 176 230 284 330
#     4  12  20  35  55  81 118 141 182 222 281 340
#     4  10  20  37  56  80 112 147 182 242 272 320
#     4  11  23  38  53  84 109 160 183 222 261 335
#     4  11  22  36  56  77 121 147 186 213 274 334
#
# _framework density 23.451640999999999
#
# number of rings (size 3 to 8) (size 9 to 14) (size 15 to 20)
#    0.000    1.250    6.250    0.750    1.750    4.000 
#    0.000    0.000    0.000    0.000    0.000    5.250 
#    0.000    0.000    0.000    0.000    0.000    0.000 
#
# Total GULP energy -89126.968291 kJ/mol
# GULP energy per Si atom -5570.435518 kJ/mol
# Density = 2.339826 g / cm^3
# Si number density = 23.451641 Si / 1000 Ang^3
#
#
#
# Elastic Constant Matrix: (Units=GPa)
#
#
# Indices 1 2 3 4 5 6 
#
# 1 146.1141 29.8617 19.0847 5.6919 -10.5320 -20.3153
# 2 29.8617 61.0160 34.7280 22.5014 -13.9133 -22.9843
# 3 19.0847 34.7280 143.9509 49.8840 -11.8036 -3.3887
# 4 5.6919 22.5014 49.8840 36.9148 -11.5402 -8.8089
# 5 -10.5320 -13.9133 -11.8036 -11.5402 32.6043 6.4452
# 6 -20.3153 -22.9843 -3.3887 -8.8089 6.4452 28.8620
#
#
#
# Elastic Compliance Matrix: (Units=1/GPa)
#
#
# Indices 1 2 3 4 5 6 
#
# 1 0.008140 -0.002530 -0.001635 0.004021 0.001509 0.004413
# 2 -0.002530 0.030584 -0.003677 -0.007350 0.004569 0.018880
# 3 -0.001635 -0.003677 0.014504 -0.019694 -0.002259 -0.007882
# 4 0.004021 -0.007350 -0.019694 0.063884 0.011345 0.011629
# 5 0.001509 0.004569 -0.002259 0.011345 0.036349 -0.000219
# 6 0.004413 0.018880 -0.007882 0.011629 -0.000219 0.055462
#
#
# Mechanical properties :
#
#
# Convention : Reuss Voigt Hill
#
# Bulk Modulus (GPa) = 26.63332 57.60333 42.11833
# Shear Modulus (GPa) = 21.08616 37.50332 29.29474
#
# Velocity S-wave (km/s) = 3.00181 4.00331 3.53817
# Velocity P-wave (km/s) = 4.83692 6.78119 5.88984
#
# Compressibility (1/GPa) = 0.03754695
#
# Stress axis : x y z
#
# Youngs Moduli (GPa) = 122.84662 32.69648 68.94445
#
# Poissons Ratio (x) = 0.08271 0.11269
# Poissons Ratio (y) = 0.31076 0.25349
# Poissons Ratio (z) = 0.20080 0.12022
#
# Static dielectric constant tensor:
#      x y z
#    x 1.553410 0.771460 -0.269490 
#    y 0.771460 0.990030 0.249830 
#    z -0.269490 0.249830 1.860330 
# 
# From -- ./inp_files/84366.got.cif
#   From: 2010.05.17/outbox.cif.g08.bks.cpg/sg2_43_cif.got.tgz:84366.got - 2010.06.03 11:33:40.
