data_PCOD9093013
_publ_section_title
;
Structure prediction by ZEFSAII (Michael W. Deem and Ramdas Pophale) SiO2 
 PCOD9093013
Probable space group: P -1
;
_chemical_formula_sum "Si O2"
_cell_formula_units_Z 14
_cell_length_a 5.499604
_cell_length_b 11.266752
_cell_length_c 18.650387
_cell_angle_alpha 140.491302
_cell_angle_beta 127.251313
_cell_angle_gamma 66.014824
_cell_volume 581.021009
_symmetry_space_group_name_H-M "P -1"
_symmetry_group_IT_number 2
_symmetry_cell_setting 'triclinic'
loop_
_space_group_symop_operation_xyz
x,y,z
-x,-y,-z
loop_
_atom_site_type_symbol
_atom_site_label
_atom_site_fract_x
_atom_site_fract_y
_atom_site_fract_z
Si Si1 0.840506 0.676457 0.124565
Si Si2 0.576956 0.286180 0.819590
Si Si3 0.622468 0.681466 0.506361
Si Si4 0.388639 0.186480 0.033099
Si Si5 0.225907 0.936312 0.071851
Si Si6 0.584572 0.409356 0.729990
Si Si7 0.677762 0.257203 0.372537
O O1 0.629320 0.794847 0.189673
O O2 0.109025 0.793616 0.182117
O O3 0.057239 0.587940 0.182131
O O4 0.684939 0.498404 0.968246
O O5 0.423465 0.304539 0.722575
O O6 0.480802 0.676948 0.399306
O O7 0.643212 0.468068 0.437408
O O8 0.413421 0.759720 0.567245
O O9 0.975528 0.773295 0.601721
O O10 0.541840 0.190531 0.983975
O O11 0.501797 0.378277 0.184037
O O12 0.021297 0.163274 0.963700
O O13 0.500000 0.000000 0.000000
O O14 0.424439 0.118799 0.221937
O O15 0.000000 0.000000 0.000000
#
# Coordination Sequence:
#
# PCOD9093013 Si02
#       7
#     2   2   2   2   2   2   2
#     4   8  16  29  46  70 103 125 146 198 250 301
#     4   8  16  29  46  70 103 125 146 198 250 301
#     4  10  21  31  51  67  95 130 161 209 243 288
#     4  10  21  30  47  70  96 131 166 201 227 273
#     4  10  20  35  49  61  88 131 170 205 237 273
#     4  10  20  30  52  76 103 127 170 189 247 305
#     4  10  21  36  44  66  95 130 172 205 242 272
#
# _framework density 24.095516
#
# number of rings (size 3 to 8) (size 9 to 14) (size 15 to 20)
#    0.857    1.714    0.000    2.571    4.000    5.714 
#    0.000    0.000    0.000    0.000    0.000    0.000 
#    0.000   27.429    0.000    0.000    0.000    0.000 
#
# Total GULP energy -78113.852090 kJ/mol
# GULP energy per Si atom -5579.560864 kJ/mol
# Density = 2.404067 g / cm^3
# Si number density = 24.095516 Si / 1000 Ang^3
#
#
#
# Elastic Constant Matrix: (Units=GPa)
#
#
# Indices 1 2 3 4 5 6 
#
# 1 218.0683 26.9357 43.0737 -1.8689 -21.1297 26.1986
# 2 26.9357 66.8128 28.8400 -18.1432 -10.6807 10.1350
# 3 43.0737 28.8400 125.6402 -23.4326 -12.4919 15.3412
# 4 -1.8689 -18.1432 -23.4326 37.8463 7.9982 -19.1050
# 5 -21.1297 -10.6807 -12.4919 7.9982 31.2713 -7.2536
# 6 26.1986 10.1350 15.3412 -19.1050 -7.2536 30.0670
#
#
#
# Elastic Compliance Matrix: (Units=1/GPa)
#
#
# Indices 1 2 3 4 5 6 
#
# 1 0.006174 -0.001833 -0.001636 -0.005616 0.002743 -0.006834
# 2 -0.001833 0.018985 -0.002196 0.008160 0.002786 0.002175
# 3 -0.001636 -0.002196 0.010011 0.005144 0.000957 0.000557
# 4 -0.005616 0.008160 0.005144 0.049196 -0.004657 0.029655
# 5 0.002743 0.002786 0.000957 -0.004657 0.036847 0.002112
# 6 -0.006834 0.002175 0.000557 0.029655 0.002112 0.057549
#
#
# Mechanical properties :
#
#
# Convention : Reuss Voigt Hill
#
# Bulk Modulus (GPa) = 41.94679 67.58000 54.76339
# Shear Modulus (GPa) = 25.24748 40.61505 32.93126
#
# Velocity S-wave (km/s) = 3.24050 4.11004 3.70090
# Velocity P-wave (km/s) = 5.60780 7.11554 6.40618
#
# Compressibility (1/GPa) = 0.02383973
#
# Stress axis : x y z
#
# Youngs Moduli (GPa) = 161.96937 52.67178 99.89266
#
# Poissons Ratio (x) = 0.09653 0.16345
# Poissons Ratio (y) = 0.29684 0.21940
# Poissons Ratio (z) = 0.26502 0.11568
#
# Static dielectric constant tensor:
#      x y z
#    x 2.030210 0.092350 -0.028550 
#    y 0.092350 1.144700 0.295780 
#    z -0.028550 0.295780 1.728060 
# 
# From -- ./inp_files/549873.got.cif
#   From: 2010.05.17/outbox.cif.g08.bks.cpg/sg2_275_cif.got.tgz:549873.got - 2010.06.03 11:33:40.
