data_PCOD9093068
_publ_section_title
;
Structure prediction by ZEFSAII (Michael W. Deem and Ramdas Pophale) SiO2 
 PCOD9093068
Probable space group: P -1
;
_chemical_formula_sum "Si O2"
_cell_formula_units_Z 16
_cell_length_a 19.890347
_cell_length_b 6.174861
_cell_length_c 11.510142
_cell_angle_alpha 92.939215
_cell_angle_beta 141.540597
_cell_angle_gamma 105.194181
_cell_volume 767.128165
_symmetry_space_group_name_H-M "P -1"
_symmetry_group_IT_number 2
_symmetry_cell_setting 'triclinic'
loop_
_space_group_symop_operation_xyz
x,y,z
-x,-y,-z
loop_
_atom_site_type_symbol
_atom_site_label
_atom_site_fract_x
_atom_site_fract_y
_atom_site_fract_z
Si Si1 0.601230 0.403260 0.139714
Si Si2 0.030473 0.349952 0.634453
Si Si3 0.347674 0.155994 0.087557
Si Si4 0.651070 0.847967 0.588038
Si Si5 0.807766 0.803084 0.307406
Si Si6 0.532324 0.011518 0.238264
Si Si7 0.393106 0.586694 0.339401
Si Si8 0.812137 0.254048 0.972314
O O1 0.741515 0.621118 0.319496
O O2 0.592405 0.239084 0.235301
O O3 0.500000 0.500000 0.000000
O O4 0.565090 0.222110 0.974628
O O5 0.139286 0.311938 0.721038
O O6 0.000000 0.500000 0.500000
O O7 0.069399 0.503977 0.811919
O O8 0.916858 0.075085 0.491850
O O9 0.376611 0.398774 0.206100
O O10 0.456161 0.087654 0.225285
O O11 0.229321 0.930631 0.979680
O O12 0.305858 0.179240 0.903789
O O13 0.617933 0.926657 0.423205
O O14 0.534117 0.799920 0.512944
O O15 0.641287 0.581143 0.594108
O O16 0.782733 0.064630 0.819557
O O17 0.291525 0.667285 0.188632
#
# Coordination Sequence:
#
# PCOD9093068 Si02
#       8
#     2   2   2   2   2   2   2   2
#     4  11  24  39  60  83 118 154 198 237 286 344
#     4  11  23  37  61  84 118 154 190 240 295 336
#     4  11  19  32  57  81 123 146 187 231 287 350
#     4  10  22  31  51  80 116 152 191 230 287 346
#     4  11  22  37  57  89 115 155 193 238 286 345
#     4  11  23  36  55  86 115 158 189 235 291 343
#     4  10  20  31  51  81 117 155 182 231 284 355
#     4  11  20  34  51  83 115 152 187 232 287 349
#
# _framework density 20.857012000000001
#
# number of rings (size 3 to 8) (size 9 to 14) (size 15 to 20)
#    0.000    1.250    5.000    1.875    3.500    0.000 
#    0.000    0.000    0.000    0.750    0.000    2.625 
#    0.000    0.000    0.000    0.000    0.000    0.000 
#
# Total GULP energy -89193.317768 kJ/mol
# GULP energy per Si atom -5574.582360 kJ/mol
# Density = 2.080954 g / cm^3
# Si number density = 20.857012 Si / 1000 Ang^3
#
#
#
# Elastic Constant Matrix: (Units=GPa)
#
#
# Indices 1 2 3 4 5 6 
#
# 1 35.8257 24.4256 10.0576 14.9292 -2.5358 11.6734
# 2 24.4256 100.7081 40.0079 6.0611 -2.0794 17.5058
# 3 10.0576 40.0079 88.6890 11.3639 -9.8454 16.0796
# 4 14.9292 6.0611 11.3639 42.8508 2.3468 -2.5691
# 5 -2.5358 -2.0794 -9.8454 2.3468 23.7258 -0.0031
# 6 11.6734 17.5058 16.0796 -2.5691 -0.0031 36.3700
#
#
#
# Elastic Compliance Matrix: (Units=1/GPa)
#
#
# Indices 1 2 3 4 5 6 
#
# 1 0.044599 -0.009140 0.004376 -0.016593 0.007421 -0.013021
# 2 -0.009140 0.014489 -0.005898 0.002758 -0.002427 -0.001238
# 3 0.004376 -0.005898 0.016070 -0.005710 0.007183 -0.006073
# 4 -0.016593 0.002758 -0.005710 0.031147 -0.006981 0.008722
# 5 0.007421 -0.002427 0.007183 -0.006981 0.046399 -0.004878
# 6 -0.013021 -0.001238 -0.006073 0.008722 -0.004878 0.035571
#
#
# Mechanical properties :
#
#
# Convention : Reuss Voigt Hill
#
# Bulk Modulus (GPa) = 18.57567 41.57832 30.07699
# Shear Modulus (GPa) = 21.97396 30.63810 26.30603
#
# Velocity S-wave (km/s) = 3.24937 3.83686 3.55527
# Velocity P-wave (km/s) = 4.79619 6.29340 5.59510
#
# Compressibility (1/GPa) = 0.05383387
#
# Stress axis : x y z
#
# Youngs Moduli (GPa) = 22.42217 69.01997 62.22925
#
# Poissons Ratio (x) = 0.63085 -0.27233
# Poissons Ratio (y) = 0.20494 0.36701
# Poissons Ratio (z) = -0.09812 0.40706
#
# Static dielectric constant tensor:
#      x y z
#    x 1.771240 -0.015270 -0.032330 
#    y -0.015270 1.814870 -0.001370 
#    z -0.032330 -0.001370 1.820470 
# 
# From -- ./inp_files/75495.got.cif
#   From: 2010.05.17/outbox.cif.g08.bks.cpg/sg2_38_cif.got.tgz:75495.got - 2010.06.03 11:33:40.
