data_PCOD9093274
_publ_section_title
;
Structure prediction by ZEFSAII (Michael W. Deem and Ramdas Pophale) SiO2 
 PCOD9093274
Probable space group: P -1
;
_chemical_formula_sum "Si O2"
_cell_formula_units_Z 16
_cell_length_a 15.368451
_cell_length_b 11.958900
_cell_length_c 11.973977
_cell_angle_alpha 62.562224
_cell_angle_beta 48.162142
_cell_angle_gamma 29.739904
_cell_volume 770.489305
_symmetry_space_group_name_H-M "P -1"
_symmetry_group_IT_number 2
_symmetry_cell_setting 'triclinic'
loop_
_space_group_symop_operation_xyz
x,y,z
-x,-y,-z
loop_
_atom_site_type_symbol
_atom_site_label
_atom_site_fract_x
_atom_site_fract_y
_atom_site_fract_z
Si Si1 0.653564 0.202422 0.418570
Si Si2 0.562448 0.753454 0.851032
Si Si3 0.744039 0.390232 0.256013
Si Si4 0.817117 0.333843 0.968494
Si Si5 0.677811 0.948136 0.864017
Si Si6 0.320437 0.818016 0.838914
Si Si7 0.394918 0.995597 0.349576
Si Si8 0.093022 0.516538 0.826486
O O1 0.810966 0.181342 0.299553
O O2 0.467983 0.398383 0.580598
O O3 0.556022 0.298808 0.332708
O O4 0.734055 0.986467 0.471212
O O5 0.444150 0.791650 0.832694
O O6 0.641434 0.821282 0.715567
O O7 0.758126 0.492473 0.856424
O O8 0.389439 0.916681 0.028317
O O9 0.706250 0.458118 0.127680
O O10 0.910845 0.340728 0.182455
O O11 0.722833 0.284325 0.034719
O O12 0.075777 0.089492 0.888895
O O13 0.927491 0.671047 0.793369
O O14 0.642426 0.026406 0.732891
O O15 0.500000 0.000000 0.000000
O O16 0.650086 0.751818 0.284261
O O17 0.000000 0.500000 0.000000
#
# Coordination Sequence:
#
# PCOD9093274 Si02
#       8
#     2   2   2   2   2   2   2   2
#     4   9  19  40  56  81 118 158 190 224 287 350
#     4  11  20  32  56  84 111 147 190 238 289 331
#     4   9  19  35  64  83 110 155 192 235 285 333
#     4  10  21  37  59  85 111 145 195 244 281 335
#     4  10  20  32  53  89 119 145 186 242 293 326
#     4  10  22  38  57  81 116 153 189 233 287 345
#     4  10  22  35  56  84 120 153 189 241 281 343
#     4  11  18  32  55  88 119 139 186 241 286 332
#
# _framework density 20.766024000000002
#
# number of rings (size 3 to 8) (size 9 to 14) (size 15 to 20)
#    0.000    2.000    2.500    2.625    1.750    0.500 
#    0.000    3.750    0.000    4.500    0.000    0.000 
#    0.000    0.000    0.000    0.000    0.000    0.000 
#
# Total GULP energy -89098.570834 kJ/mol
# GULP energy per Si atom -5568.660677 kJ/mol
# Density = 2.071876 g / cm^3
# Si number density = 20.766024 Si / 1000 Ang^3
#
#
#
# Elastic Constant Matrix: (Units=GPa)
#
#
# Indices 1 2 3 4 5 6 
#
# 1 128.7371 45.8555 40.1881 -17.6579 -10.4994 2.1781
# 2 45.8555 110.4257 31.9915 -30.4257 -16.6233 -1.8852
# 3 40.1881 31.9915 76.6134 -22.7901 -8.9900 7.2332
# 4 -17.6579 -30.4257 -22.7901 32.0432 17.0127 -4.4355
# 5 -10.4994 -16.6233 -8.9900 17.0127 34.5252 -6.7931
# 6 2.1781 -1.8852 7.2332 -4.4355 -6.7931 24.1912
#
#
#
# Elastic Compliance Matrix: (Units=1/GPa)
#
#
# Indices 1 2 3 4 5 6 
#
# 1 0.010129 -0.003062 -0.004172 -0.000760 0.000938 0.000221
# 2 -0.003062 0.013820 -0.001284 0.010557 0.000962 0.003942
# 3 -0.004172 -0.001284 0.019144 0.011250 -0.003293 -0.004311
# 4 -0.000760 0.010557 0.011250 0.060634 -0.021589 0.002582
# 5 0.000938 0.000962 -0.003293 -0.021589 0.041182 0.008581
# 6 0.000221 0.003942 -0.004311 0.002582 0.008581 0.045797
#
#
# Mechanical properties :
#
#
# Convention : Reuss Voigt Hill
#
# Bulk Modulus (GPa) = 38.37481 61.31628 49.84554
# Shear Modulus (GPa) = 23.10248 31.33465 27.21856
#
# Velocity S-wave (km/s) = 3.33905 3.88872 3.62432
# Velocity P-wave (km/s) = 5.77801 7.05366 6.44746
#
# Compressibility (1/GPa) = 0.02605876
#
# Stress axis : x y z
#
# Youngs Moduli (GPa) = 98.72386 72.35710 52.23630
#
# Poissons Ratio (x) = 0.22157 0.21791
# Poissons Ratio (y) = 0.30232 0.06705
# Poissons Ratio (z) = 0.41183 0.09287
#
# Static dielectric constant tensor:
#      x y z
#    x 1.771170 0.042170 0.012970 
#    y 0.042170 1.803370 0.005640 
#    z 0.012970 0.005640 1.779340 
# 
# From -- ./inp_files/451240.got.cif
#   From: 2010.05.17/outbox.cif.g08.bks.cpg/sg2_226_cif.got.tgz:451240.got - 2010.06.03 11:33:40.
