data_PCOD9093185
_publ_section_title
;
Structure prediction by ZEFSAII (Michael W. Deem and Ramdas Pophale) SiO2 
 PCOD9093185
Probable space group: P -1
;
_chemical_formula_sum "Si O2"
_cell_formula_units_Z 16
_cell_length_a 18.224940
_cell_length_b 7.757604
_cell_length_c 16.669921
_cell_angle_alpha 152.860910
_cell_angle_beta 141.812018
_cell_angle_gamma 38.283442
_cell_volume 633.369446
_symmetry_space_group_name_H-M "P -1"
_symmetry_group_IT_number 2
_symmetry_cell_setting 'triclinic'
loop_
_space_group_symop_operation_xyz
x,y,z
-x,-y,-z
loop_
_atom_site_type_symbol
_atom_site_label
_atom_site_fract_x
_atom_site_fract_y
_atom_site_fract_z
Si Si1 0.618370 0.718888 0.721936
Si Si2 0.854931 0.997627 0.048781
Si Si3 0.006849 0.163819 0.745342
Si Si4 0.512781 0.297564 0.735108
Si Si5 0.235018 0.955835 0.532890
Si Si6 0.283488 0.283564 0.433407
Si Si7 0.447924 0.210962 0.889396
Si Si8 0.004597 0.345329 0.208943
O O1 0.694208 0.274911 0.580003
O O2 0.528538 0.934886 0.661727
O O3 0.541688 0.787804 0.766826
O O4 0.718519 0.962128 0.906599
O O5 0.879726 0.011117 0.170335
O O6 0.935079 0.580566 0.901655
O O7 0.906927 0.315100 0.179468
O O8 0.910141 0.912847 0.556863
O O9 0.033909 0.264967 0.719351
O O10 0.374352 0.405723 0.624648
O O11 0.623568 0.114981 0.691208
O O12 0.538894 0.656439 0.954731
O O13 0.250876 0.610661 0.470243
O O14 0.313373 0.221297 0.746152
O O15 0.146227 0.258502 0.327432
O O16 0.500000 0.500000 0.000000
O O17 0.000000 0.000000 0.000000
#
# Coordination Sequence:
#
# PCOD9093185 Si02
#       8
#     2   2   2   2   2   2   2   2
#     4   9  18  33  51  77 108 139 178 217 261 323
#     4   9  16  29  51  78 107 137 175 222 264 311
#     4   8  16  29  48  77 105 133 178 223 262 314
#     4   9  18  33  51  74 104 135 174 221 263 317
#     4   9  17  32  52  74 105 139 174 223 267 314
#     4   9  18  33  54  78 104 136 179 219 266 326
#     4  10  20  32  50  73 104 140 176 220 272 315
#     4   9  16  29  52  80 105 134 174 222 268 313
#
# _framework density 25.261717000000001
#
# number of rings (size 3 to 8) (size 9 to 14) (size 15 to 20)
#    0.000    3.000    0.000    2.625    0.000    2.500 
#    0.000   12.500    0.000    8.250    0.000   36.750 
#    0.000    0.000    0.000    0.000    0.000    0.000 
#
# Total GULP energy -89405.112717 kJ/mol
# GULP energy per Si atom -5587.819545 kJ/mol
# Density = 2.520422 g / cm^3
# Si number density = 25.261717 Si / 1000 Ang^3
#
#
#
# Elastic Constant Matrix: (Units=GPa)
#
#
# Indices 1 2 3 4 5 6 
#
# 1 95.2520 33.3324 62.7882 -14.9292 25.2233 -14.8028
# 2 33.3324 66.6903 36.1332 -32.1043 8.0378 5.4266
# 3 62.7882 36.1332 208.4723 -29.5042 12.7856 -13.4598
# 4 -14.9292 -32.1043 -29.5042 49.1085 -10.9861 -1.2059
# 5 25.2233 8.0378 12.7856 -10.9861 49.9418 -4.8155
# 6 -14.8028 5.4266 -13.4598 -1.2059 -4.8155 22.0318
#
#
#
# Elastic Compliance Matrix: (Units=1/GPa)
#
#
# Indices 1 2 3 4 5 6 
#
# 1 0.019192 -0.009639 -0.003489 -0.003848 -0.006996 0.011397
# 2 -0.009639 0.028369 -0.000804 0.015428 0.002695 -0.012521
# 3 -0.003489 -0.000804 0.006424 0.002553 0.001015 0.002140
# 4 -0.003848 0.015428 0.002553 0.032038 0.005678 -0.001832
# 5 -0.006996 0.002695 0.001015 0.005678 0.024195 0.000855
# 6 0.011397 -0.012521 0.002140 -0.001832 0.000855 0.057525
#
#
# Mechanical properties :
#
#
# Convention : Reuss Voigt Hill
#
# Bulk Modulus (GPa) = 38.28366 70.54693 54.41529
# Shear Modulus (GPa) = 24.47206 40.09381 32.28293
#
# Velocity S-wave (km/s) = 3.11584 3.98821 3.57871
# Velocity P-wave (km/s) = 5.30399 7.01390 6.21800
#
# Compressibility (1/GPa) = 0.02612081
#
# Stress axis : x y z
#
# Youngs Moduli (GPa) = 52.10429 35.24985 155.65738
#
# Poissons Ratio (x) = 0.33976 0.54316
# Poissons Ratio (y) = 0.50221 0.12519
# Poissons Ratio (z) = 0.18182 0.02835
#
# Static dielectric constant tensor:
#      x y z
#    x 2.021610 -0.019550 -0.066620 
#    y -0.019550 2.058000 0.081070 
#    z -0.066620 0.081070 2.044250 
# 
# From -- ./inp_files/170714.got.cif
#   From: 2010.05.17/outbox.cif.g08.bks.cpg/sg2_86_cif.got.tgz:170714.got - 2010.06.03 11:33:40.
