data_PCOD9093568
_publ_section_title
;
Structure prediction by ZEFSAII (Michael W. Deem and Ramdas Pophale) SiO2 
 PCOD9093568
Probable space group: P -1
;
_chemical_formula_sum "Si O2"
_cell_formula_units_Z 16
_cell_length_a 20.715838
_cell_length_b 8.922701
_cell_length_c 7.434729
_cell_angle_alpha 107.278911
_cell_angle_beta 52.878496
_cell_angle_gamma 138.159677
_cell_volume 700.210338
_symmetry_space_group_name_H-M "P -1"
_symmetry_group_IT_number 2
_symmetry_cell_setting 'triclinic'
loop_
_space_group_symop_operation_xyz
x,y,z
-x,-y,-z
loop_
_atom_site_type_symbol
_atom_site_label
_atom_site_fract_x
_atom_site_fract_y
_atom_site_fract_z
Si Si1 0.340085 0.728064 0.785764
Si Si2 0.246235 0.273015 0.674332
Si Si3 0.794224 0.613139 0.566782
Si Si4 0.272124 0.964335 0.431567
Si Si5 0.913378 0.225338 0.583973
Si Si6 0.413305 0.911015 0.332620
Si Si7 0.107157 0.273145 0.162612
Si Si8 0.050197 0.438484 0.768383
O O1 0.344858 0.545878 0.670630
O O2 0.359301 0.843104 0.604688
O O3 0.447410 0.926019 0.809198
O O4 0.207425 0.547848 0.030296
O O5 0.234062 0.290885 0.489342
O O6 0.271718 0.126988 0.598810
O O7 0.131413 0.166064 0.946901
O O8 0.667580 0.340616 0.710465
O O9 0.855784 0.725473 0.696671
O O10 0.885684 0.630355 0.307396
O O11 0.222559 0.936419 0.306602
O O12 0.390478 0.036435 0.304618
O O13 0.164344 0.691947 0.576010
O O14 0.000000 0.500000 0.500000
O O15 0.980487 0.180531 0.348214
O O16 0.940784 0.233698 0.748136
O O17 0.000000 0.500000 0.000000
#
# Coordination Sequence:
#
# PCOD9093568 Si02
#       8
#     2   2   2   2   2   2   2   2
#     4   8  18  35  57  80 104 145 181 226 266 317
#     4   9  20  35  53  79 109 150 171 222 274 322
#     4   9  18  35  55  75 108 139 183 228 262 320
#     4  10  20  33  53  82 112 140 176 222 274 321
#     4   9  19  33  51  76 108 137 175 224 261 314
#     4   9  17  34  57  83 104 139 189 221 269 316
#     4   9  19  36  54  77 109 143 182 217 270 320
#     4   9  19  35  54  76 103 144 184 223 264 313
#
# _framework density 22.850276999999998
#
# number of rings (size 3 to 8) (size 9 to 14) (size 15 to 20)
#    0.750    2.250    0.000    0.750    3.500    1.500 
#    2.250    1.250    0.000    0.750    0.000    0.000 
#    0.000    0.000    0.000    0.000    0.000    0.000 
#
# Total GULP energy -89144.459645 kJ/mol
# GULP energy per Si atom -5571.528728 kJ/mol
# Density = 2.279827 g / cm^3
# Si number density = 22.850277 Si / 1000 Ang^3
#
#
#
# Elastic Constant Matrix: (Units=GPa)
#
#
# Indices 1 2 3 4 5 6 
#
# 1 93.2600 25.0340 9.3782 4.1020 4.5291 7.3451
# 2 25.0340 81.8012 3.8180 6.3650 -2.7017 -4.8656
# 3 9.3782 3.8180 63.8956 4.0805 8.3586 -1.1392
# 4 4.1020 6.3650 4.0805 24.3216 0.8380 -10.5656
# 5 4.5291 -2.7017 8.3586 0.8380 11.0892 0.8051
# 6 7.3451 -4.8656 -1.1392 -10.5656 0.8051 30.0634
#
#
#
# Elastic Compliance Matrix: (Units=1/GPa)
#
#
# Indices 1 2 3 4 5 6 
#
# 1 0.012620 -0.004044 -0.000870 -0.002755 -0.004941 -0.004607
# 2 -0.004044 0.013984 -0.000811 -0.002010 0.005650 0.002363
# 3 -0.000870 -0.000811 0.017666 -0.001980 -0.013038 0.000404
# 4 -0.002755 -0.002010 -0.001980 0.050388 -0.002991 0.018061
# 5 -0.004941 0.005650 -0.013038 -0.002991 0.103786 -0.002203
# 6 -0.004607 0.002363 0.000404 0.018061 -0.002203 0.041193
#
#
# Mechanical properties :
#
#
# Convention : Reuss Voigt Hill
#
# Bulk Modulus (GPa) = 30.47035 35.04634 32.75834
# Shear Modulus (GPa) = 19.08203 26.47660 22.77932
#
# Velocity S-wave (km/s) = 2.89293 3.40766 3.16079
# Velocity P-wave (km/s) = 4.95201 5.55460 5.26194
#
# Compressibility (1/GPa) = 0.03281879
#
# Stress axis : x y z
#
# Youngs Moduli (GPa) = 79.24046 71.51119 56.60612
#
# Poissons Ratio (x) = 0.28921 0.04927
# Poissons Ratio (y) = 0.32047 0.04589
# Poissons Ratio (z) = 0.06897 0.05797
#
# Static dielectric constant tensor:
#      x y z
#    x 1.938950 -0.008110 0.037780 
#    y -0.008110 1.937280 0.018150 
#    z 0.037780 0.018150 1.894070 
# 
# From -- ./inp_files/341903.got.cif
#   From: 2010.05.17/outbox.cif.g08.bks.cpg/sg2_171_cif.got.tgz:341903.got - 2010.06.03 11:33:40.
