data_PCOD9093855
_publ_section_title
;
Structure prediction by ZEFSAII (Michael W. Deem and Ramdas Pophale) SiO2 
 PCOD9093855
Probable space group: P -1
;
_chemical_formula_sum "Si O2"
_cell_formula_units_Z 14
_cell_length_a 20.069512
_cell_length_b 9.090743
_cell_length_c 25.098542
_cell_angle_alpha 149.517821
_cell_angle_beta 159.598105
_cell_angle_gamma 39.863794
_cell_volume 788.602823
_symmetry_space_group_name_H-M "P -1"
_symmetry_group_IT_number 2
_symmetry_cell_setting 'triclinic'
loop_
_space_group_symop_operation_xyz
x,y,z
-x,-y,-z
loop_
_atom_site_type_symbol
_atom_site_label
_atom_site_fract_x
_atom_site_fract_y
_atom_site_fract_z
Si Si1 0.469459 0.641370 0.229374
Si Si2 0.353875 0.706346 0.468063
Si Si3 0.959564 0.329510 0.074653
Si Si4 0.770199 0.290742 0.395656
Si Si5 0.525691 0.759721 0.989546
Si Si6 0.110367 0.415827 0.608250
Si Si7 0.167227 0.747690 0.445344
O O1 0.600205 0.455521 0.301451
O O2 0.438969 0.504461 0.103949
O O3 0.586266 0.979045 0.416785
O O4 0.257310 0.646240 0.095588
O O5 0.500000 0.500000 0.500000
O O6 0.347727 0.749827 0.541051
O O7 0.131675 0.539963 0.235542
O O8 0.004151 0.479657 0.213622
O O9 0.000000 0.000000 0.000000
O O10 0.796491 0.300364 0.481196
O O11 0.971426 0.434217 0.560208
O O12 0.696218 0.946736 0.212965
O O13 0.328186 0.628112 0.834206
O O14 0.500000 0.000000 0.000000
O O15 0.000000 0.500000 0.500000
O O16 0.119468 0.070594 0.503145
#
# Coordination Sequence:
#
# PCOD9093855 Si02
#       7
#     2   2   2   2   2   2   2
#     4  11  19  37  62  82 116 159 194 235 286 351
#     4  10  20  39  63  85 109 149 205 244 288 349
#     4  10  21  37  64  85 106 149 204 240 292 350
#     4  11  24  37  56  92 124 155 191 240 295 342
#     4  10  20  33  59  85 118 158 200 221 279 360
#     4  12  20  38  59  88 122 163 195 230 278 356
#     4  10  23  40  58  88 125 147 192 255 292 331
#
# _framework density 17.752915999999999
#
# number of rings (size 3 to 8) (size 9 to 14) (size 15 to 20)
#    0.857    0.571    5.714    1.286    2.000    0.571 
#    2.571    2.857    0.000    1.714    0.000    0.000 
#    0.000    0.000    0.000    0.000    0.000    0.000 
#
# Total GULP energy -77967.370022 kJ/mol
# GULP energy per Si atom -5569.097859 kJ/mol
# Density = 1.771251 g / cm^3
# Si number density = 17.752916 Si / 1000 Ang^3
#
#
#
# Elastic Constant Matrix: (Units=GPa)
#
#
# Indices 1 2 3 4 5 6 
#
# 1 95.1798 58.3912 30.5567 -11.8159 11.5450 3.0812
# 2 58.3912 112.7465 44.7618 8.0061 7.5067 -14.2755
# 3 30.5567 44.7618 109.4049 11.3530 26.2044 -4.0819
# 4 -11.8159 8.0061 11.3530 26.6185 -8.2394 4.6737
# 5 11.5450 7.5067 26.2044 -8.2394 32.7792 -8.8990
# 6 3.0812 -14.2755 -4.0819 4.6737 -8.8990 24.7792
#
#
#
# Elastic Compliance Matrix: (Units=1/GPa)
#
#
# Indices 1 2 3 4 5 6 
#
# 1 0.022666 -0.013769 -0.002358 0.017029 -0.002837 -0.015370
# 2 -0.013769 0.020088 -0.003595 -0.012119 0.004591 0.016627
# 3 -0.002358 -0.003595 0.015686 -0.010645 -0.014180 -0.002278
# 4 0.017029 -0.012119 -0.010645 0.061232 0.016174 -0.016594
# 5 -0.002837 0.004591 -0.014180 0.016174 0.050091 0.015600
# 6 -0.015370 0.016627 -0.002278 -0.016594 0.015600 0.060204
#
#
# Mechanical properties :
#
#
# Convention : Reuss Voigt Hill
#
# Bulk Modulus (GPa) = 52.64287 64.97229 58.80758
# Shear Modulus (GPa) = 18.13282 29.07682 23.60482
#
# Velocity S-wave (km/s) = 3.19940 4.05144 3.65037
# Velocity P-wave (km/s) = 6.58526 7.65265 7.13894
#
# Compressibility (1/GPa) = 0.01899593
#
# Stress axis : x y z
#
# Youngs Moduli (GPa) = 44.11813 49.78167 63.75249
#
# Poissons Ratio (x) = 0.68545 0.15035
# Poissons Ratio (y) = 0.60747 0.22916
# Poissons Ratio (z) = 0.10405 0.17894
#
# Static dielectric constant tensor:
#      x y z
#    x 1.617250 -0.044940 0.000390 
#    y -0.044940 1.636520 0.010280 
#    z 0.000390 0.010280 1.676290 
# 
# From -- ./inp_files/356530.got.cif
#   From: 2010.05.17/outbox.cif.g08.bks.cpg/sg2_179_cif.got.tgz:356530.got - 2010.06.03 11:33:40.
