data_PCOD9093234
_publ_section_title
;
Structure prediction by ZEFSAII (Michael W. Deem and Ramdas Pophale) SiO2 
 PCOD9093234
Probable space group: P -1
;
_chemical_formula_sum "Si O2"
_cell_formula_units_Z 14
_cell_length_a 14.999015
_cell_length_b 9.214940
_cell_length_c 8.135866
_cell_angle_alpha 62.592618
_cell_angle_beta 47.512067
_cell_angle_gamma 89.146785
_cell_volume 656.592117
_symmetry_space_group_name_H-M "P -1"
_symmetry_group_IT_number 2
_symmetry_cell_setting 'triclinic'
loop_
_space_group_symop_operation_xyz
x,y,z
-x,-y,-z
loop_
_atom_site_type_symbol
_atom_site_label
_atom_site_fract_x
_atom_site_fract_y
_atom_site_fract_z
Si Si1 0.879480 0.643204 0.099449
Si Si2 0.595391 0.514954 0.122905
Si Si3 0.757160 0.859262 0.914784
Si Si4 0.085129 0.804045 0.249295
Si Si5 0.854926 0.461250 0.912755
Si Si6 0.685907 0.674605 0.562197
Si Si7 0.106640 0.012132 0.677913
O O1 0.776205 0.590140 0.407239
O O2 0.831051 0.760861 0.976328
O O3 0.873837 0.483650 0.073767
O O4 0.023253 0.795549 0.901166
O O5 0.440226 0.365701 0.378061
O O6 0.616318 0.687638 0.123210
O O7 0.707482 0.451485 0.068036
O O8 0.636592 0.586971 0.847583
O O9 0.829166 0.935411 0.610958
O O10 0.789505 0.038671 0.888847
O O11 0.134201 0.701181 0.111856
O O12 0.977309 0.646815 0.586733
O O13 0.995947 0.896337 0.234903
O O14 0.780198 0.886143 0.378541
#
# Coordination Sequence:
#
# PCOD9093234 Si02
#       7
#     2   2   2   2   2   2   2
#     4  10  17  29  50  76  93 118 161 201 230 265
#     4   9  19  34  49  69  94 128 158 189 236 282
#     4   9  16  30  51  70  93 120 160 199 224 273
#     4  10  16  29  52  71  94 122 159 194 233 272
#     4  10  18  29  51  71  94 124 159 194 230 279
#     4  10  19  30  50  71  98 124 155 195 233 280
#     4  10  16  32  49  74  95 123 153 197 234 280
#
# _framework density 21.322216999999998
#
# number of rings (size 3 to 8) (size 9 to 14) (size 15 to 20)
#    0.000    2.286    5.714    1.286    0.000    2.286 
#    0.000    0.714    0.000   17.143    0.000    0.000 
#    0.000    0.000    0.000    0.000    0.000    0.000 
#
# Total GULP energy -78105.894941 kJ/mol
# GULP energy per Si atom -5578.992496 kJ/mol
# Density = 2.127369 g / cm^3
# Si number density = 21.322217 Si / 1000 Ang^3
#
#
#
# Elastic Constant Matrix: (Units=GPa)
#
#
# Indices 1 2 3 4 5 6 
#
# 1 82.4295 55.1962 22.6504 -12.3815 -18.3756 34.5855
# 2 55.1962 196.2391 34.8918 4.6827 -20.1994 41.8558
# 3 22.6504 34.8918 43.8296 -2.5144 -8.7693 23.7392
# 4 -12.3815 4.6827 -2.5144 21.3665 15.6896 -3.1244
# 5 -18.3756 -20.1994 -8.7693 15.6896 29.7660 -7.0200
# 6 34.5855 41.8558 23.7392 -3.1244 -7.0200 42.1909
#
#
#
# Elastic Compliance Matrix: (Units=1/GPa)
#
#
# Indices 1 2 3 4 5 6 
#
# 1 0.022156 -0.003102 -0.000379 0.008851 0.003584 -0.013620
# 2 -0.003102 0.008118 -0.001795 -0.009675 0.007218 -0.004016
# 3 -0.000379 -0.001795 0.034450 -0.002798 0.006292 -0.016453
# 4 0.008851 -0.009675 -0.002798 0.089844 -0.048701 0.002467
# 5 0.003584 0.007218 0.006292 -0.048701 0.066783 -0.006133
# 6 -0.013620 -0.004016 -0.016453 0.002467 -0.006133 0.047270
#
#
# Mechanical properties :
#
#
# Convention : Reuss Voigt Hill
#
# Bulk Modulus (GPa) = 18.45974 60.88610 39.67292
# Shear Modulus (GPa) = 16.82201 32.64866 24.73534
#
# Velocity S-wave (km/s) = 2.81186 3.91730 3.40968
# Velocity P-wave (km/s) = 4.38388 7.00554 5.84363
#
# Compressibility (1/GPa) = 0.05417193
#
# Stress axis : x y z
#
# Youngs Moduli (GPa) = 45.13546 123.18529 29.02764
#
# Poissons Ratio (x) = 0.38208 0.01100
# Poissons Ratio (y) = 0.14000 0.05211
# Poissons Ratio (z) = 0.01710 0.22114
#
# Static dielectric constant tensor:
#      x y z
#    x 1.812080 0.035330 0.002420 
#    y 0.035330 1.790340 -0.005740 
#    z 0.002420 -0.005740 1.816030 
# 
# From -- ./inp_files/162348.got.cif
#   From: 2010.05.17/outbox.cif.g08.bks.cpg/sg2_82_cif.got.tgz:162348.got - 2010.06.03 11:33:40.
