data_PCOD9093508
_publ_section_title
;
Structure prediction by ZEFSAII (Michael W. Deem and Ramdas Pophale) SiO2 
 PCOD9093508
Probable space group: P -1
;
_chemical_formula_sum "Si O2"
_cell_formula_units_Z 15
_cell_length_a 18.363878
_cell_length_b 5.180717
_cell_length_c 23.379478
_cell_angle_alpha 108.669382
_cell_angle_beta 15.095711
_cell_angle_gamma 106.219221
_cell_volume 544.789840
_symmetry_space_group_name_H-M "P -1"
_symmetry_group_IT_number 2
_symmetry_cell_setting 'triclinic'
loop_
_space_group_symop_operation_xyz
x,y,z
-x,-y,-z
loop_
_atom_site_type_symbol
_atom_site_label
_atom_site_fract_x
_atom_site_fract_y
_atom_site_fract_z
Si Si1 0.973787 0.843148 0.678059
Si Si2 0.500000 0.000000 0.000000
Si Si3 0.365622 0.348256 0.509683
Si Si4 0.348300 0.945285 0.302999
Si Si5 0.177097 0.621131 0.925378
Si Si6 0.994868 0.140330 0.221787
Si Si7 0.063801 0.835825 0.878941
Si Si8 0.148257 0.652682 0.329733
O O1 0.247617 0.896349 0.440282
O O2 0.009311 0.704955 0.701867
O O3 0.796481 0.666010 0.754803
O O4 0.733397 0.097567 0.879242
O O5 0.326353 0.845668 0.171727
O O6 0.617914 0.290833 0.360160
O O7 0.185841 0.645581 0.667976
O O8 0.169064 0.113597 0.652948
O O9 0.529248 0.339035 0.323680
O O10 0.230438 0.713167 0.336161
O O11 0.679176 0.933355 0.045271
O O12 0.172779 0.229231 0.434285
O O13 0.152135 0.391560 0.975427
O O14 0.004769 0.909408 0.093583
O O15 0.000000 0.500000 0.000000
O O16 0.000000 0.000000 0.000000
#
# Coordination Sequence:
#
# PCOD9093508 Si02
#       8
#     2   1   2   2   2   2   2   2
#     4  11  24  38  60  79 113 149 192 251 299 348
#     4  10  20  36  62  84 100 136 204 248 300 334
#     4  10  20  33  51  86 124 156 186 233 287 351
#     4  10  24  39  57  83 106 153 197 248 294 344
#     4   8  13  26  50  76 115 149 185 238 271 312
#     4  12  25  36  58  86 124 154 190 232 301 363
#     4   8  13  26  50  76 115 149 185 238 271 312
#     4  10  21  41  61  78 107 143 205 253 294 335
#
# _framework density 27.533555
#
# number of rings (size 3 to 8) (size 9 to 14) (size 15 to 20)
#    0.000    2.400    1.333    4.000    5.600    0.000 
#    0.000    0.000    0.000    0.000    0.000    0.000 
#    0.000  192.000    0.000    0.000    0.000    0.000 
#
# Total GULP energy -83779.243674 kJ/mol
# GULP energy per Si atom -5585.282912 kJ/mol
# Density = 2.747089 g / cm^3
# Si number density = 27.533555 Si / 1000 Ang^3
#
#
#
# Elastic Constant Matrix: (Units=GPa)
#
#
# Indices 1 2 3 4 5 6 
#
# 1 78.9696 8.8074 48.5801 -5.2565 -21.4117 -12.7985
# 2 8.8074 185.3835 81.4122 -8.0476 -3.8586 -8.1714
# 3 48.5801 81.4122 243.0989 -2.7262 -13.5616 -19.8478
# 4 -5.2565 -8.0476 -2.7262 54.3736 -12.1023 4.3279
# 5 -21.4117 -3.8586 -13.5616 -12.1023 35.5203 0.8272
# 6 -12.7985 -8.1714 -19.8478 4.3279 0.8272 40.1970
#
#
#
# Elastic Compliance Matrix: (Units=1/GPa)
#
#
# Indices 1 2 3 4 5 6 
#
# 1 0.018368 0.001035 -0.003024 0.003981 0.011296 0.003905
# 2 0.001035 0.006422 -0.002269 0.001089 0.000818 0.000381
# 3 -0.003024 -0.002269 0.005578 -0.000490 -0.000139 0.001386
# 4 0.003981 0.001089 -0.000490 0.021138 0.009562 -0.001226
# 5 0.011296 0.000818 -0.000139 0.009562 0.038212 0.001878
# 6 0.003905 0.000381 0.001386 -0.001226 0.001878 0.026976
#
#
# Mechanical properties :
#
#
# Convention : Reuss Voigt Hill
#
# Bulk Modulus (GPa) = 45.75889 87.22792 66.49340
# Shear Modulus (GPa) = 37.73772 50.59498 44.16635
#
# Velocity S-wave (km/s) = 3.70619 4.29135 4.00946
# Velocity P-wave (km/s) = 5.91353 7.50357 6.75549
#
# Compressibility (1/GPa) = 0.02185368
#
# Stress axis : x y z
#
# Youngs Moduli (GPa) = 54.44158 155.70361 179.29139
#
# Poissons Ratio (x) = -0.16120 0.54214
# Poissons Ratio (y) = -0.05636 0.40678
# Poissons Ratio (z) = 0.16462 0.35326
#
# Static dielectric constant tensor:
#      x y z
#    x 2.626230 -0.298160 -0.208550 
#    y -0.298160 3.146460 0.877170 
#    z -0.208550 0.877170 2.886750 
# 
# From -- ./inp_files/624107.got.cif
#   From: 2010.05.17/outbox.cif.g08.bks.cpg/sg2_313_cif.got.tgz:624107.got - 2010.06.03 11:33:40.
