data_PCOD9093158
_publ_section_title
;
Structure prediction by ZEFSAII (Michael W. Deem and Ramdas Pophale) SiO2 
 PCOD9093158
Probable space group: P -1
;
_chemical_formula_sum "Si O2"
_cell_formula_units_Z 16
_cell_length_a 14.723337
_cell_length_b 7.828377
_cell_length_c 11.362124
_cell_angle_alpha 139.081354
_cell_angle_beta 56.564430
_cell_angle_gamma 122.529608
_cell_volume 697.940378
_symmetry_space_group_name_H-M "P -1"
_symmetry_group_IT_number 2
_symmetry_cell_setting 'triclinic'
loop_
_space_group_symop_operation_xyz
x,y,z
-x,-y,-z
loop_
_atom_site_type_symbol
_atom_site_label
_atom_site_fract_x
_atom_site_fract_y
_atom_site_fract_z
Si Si1 0.623618 0.351407 0.891057
Si Si2 0.864364 0.667556 0.190718
Si Si3 0.480106 0.174093 0.219917
Si Si4 0.244724 0.348433 0.484415
Si Si5 0.936661 0.246114 0.485446
Si Si6 0.853433 0.239507 0.788806
Si Si7 0.628188 0.680748 0.273708
Si Si8 0.301487 0.736230 0.436190
O O1 0.734558 0.290191 0.847699
O O2 0.652028 0.444227 0.786294
O O3 0.535126 0.066341 0.800964
O O4 0.589788 0.564250 0.112563
O O5 0.811624 0.608048 0.328293
O O6 0.760459 0.714150 0.210655
O O7 0.952621 0.951609 0.286021
O O8 0.892494 0.423323 0.969608
O O9 0.366457 0.278649 0.368115
O O10 0.572459 0.448684 0.284748
O O11 0.500000 0.000000 0.000000
O O12 0.262044 0.595390 0.512807
O O13 0.170990 0.078290 0.338848
O O14 0.941294 0.298483 0.649214
O O15 0.807207 0.218483 0.530367
O O16 0.000000 0.500000 0.500000
O O17 0.614972 0.979024 0.458050
#
# Coordination Sequence:
#
# PCOD9093158 Si02
#       8
#     2   2   2   2   2   2   2   2
#     4   8  16  31  49  67  93 129 165 200 238 285
#     4   9  18  33  53  72  96 133 168 196 238 294
#     4   9  17  32  51  71  95 130 174 205 233 284
#     4  10  20  32  48  73 103 132 160 199 249 289
#     4   9  18  34  56  77  96 124 164 204 241 291
#     4   8  16  33  52  71  97 131 166 195 233 292
#     4   9  17  31  49  69  94 128 169 204 235 284
#     4  10  20  32  48  73 102 127 157 203 255 291
#
# _framework density 22.924595
#
# number of rings (size 3 to 8) (size 9 to 14) (size 15 to 20)
#    0.000    3.000    0.000    3.000    0.000    4.000 
#    0.000    5.000    0.000    1.500    0.000    0.000 
#    0.000    0.000    0.000    0.000    0.000    0.000 
#
# Total GULP energy -89143.106675 kJ/mol
# GULP energy per Si atom -5571.444167 kJ/mol
# Density = 2.287242 g / cm^3
# Si number density = 22.924595 Si / 1000 Ang^3
#
#
#
# Elastic Constant Matrix: (Units=GPa)
#
#
# Indices 1 2 3 4 5 6 
#
# 1 51.7854 -12.9748 24.0068 13.5562 -7.0092 8.5127
# 2 -12.9748 125.8421 93.5457 9.8418 19.0638 1.7602
# 3 24.0068 93.5457 201.7054 10.5902 23.8050 -5.9797
# 4 13.5562 9.8418 10.5902 15.9673 10.6843 8.3723
# 5 -7.0092 19.0638 23.8050 10.6843 6.1171 0.8045
# 6 8.5127 1.7602 -5.9797 8.3723 0.8045 25.7650
#
#
#
# Elastic Compliance Matrix: (Units=1/GPa)
#
#
# Indices 1 2 3 4 5 6 
#
# 1 0.010681 0.006757 -0.000516 0.023073 -0.045769 -0.010179
# 2 0.006757 0.015423 -0.006772 -0.001861 -0.010203 -0.003934
# 3 -0.000516 -0.006772 0.007283 -0.013563 0.015037 0.006261
# 4 0.023073 -0.001861 -0.013563 -0.007379 0.099401 -0.011349
# 5 -0.045769 -0.010203 0.015037 0.099401 -0.087958 -0.010245
# 6 -0.010179 -0.003934 0.006261 -0.011349 -0.010245 0.047905
#
#
# Mechanical properties :
#
#
# Convention : Reuss Voigt Hill
#
# Bulk Modulus (GPa) = 30.93664 65.38758 48.16211
# Shear Modulus (GPa) = -2265.19381 27.88690 -1118.65345
#
# Velocity S-wave (km/s) = -31.46826 3.49157 -22.11403
# Velocity P-wave (km/s) = 36.14984 6.69623 25.11943
#
# Compressibility (1/GPa) = 0.03232413
#
# Stress axis : x y z
#
# Youngs Moduli (GPa) = 93.62249 64.83718 137.30963
#
# Poissons Ratio (x) = -0.43808 0.07090
# Poissons Ratio (y) = -0.63257 0.92984
# Poissons Ratio (z) = 0.04834 0.43907
#
# Static dielectric constant tensor:
#      x y z
#    x 1.928200 0.026220 -0.040590 
#    y 0.026220 1.854720 0.010690 
#    z -0.040590 0.010690 1.905060 
# 
# From -- ./inp_files/341545.got.cif
#   From: 2010.05.17/outbox.cif.g08.bks.cpg/sg2_171_cif.got.tgz:341545.got - 2010.06.03 11:33:40.
