data_PCOD9093419
_publ_section_title
;
Structure prediction by ZEFSAII (Michael W. Deem and Ramdas Pophale) SiO2 
 PCOD9093419
Probable space group: P -1
;
_chemical_formula_sum "Si O2"
_cell_formula_units_Z 16
_cell_length_a 18.510232
_cell_length_b 22.688419
_cell_length_c 10.187198
_cell_angle_alpha 154.218135
_cell_angle_beta 143.876641
_cell_angle_gamma 28.159694
_cell_volume 876.173344
_symmetry_space_group_name_H-M "P -1"
_symmetry_group_IT_number 2
_symmetry_cell_setting 'triclinic'
loop_
_space_group_symop_operation_xyz
x,y,z
-x,-y,-z
loop_
_atom_site_type_symbol
_atom_site_label
_atom_site_fract_x
_atom_site_fract_y
_atom_site_fract_z
Si Si1 0.027903 0.548611 0.275684
Si Si2 0.741055 0.398084 0.183054
Si Si3 0.750082 0.878211 0.656911
Si Si4 0.503018 0.900014 0.479453
Si Si5 0.001632 0.148860 0.855982
Si Si6 0.398407 0.996197 0.953082
Si Si7 0.441884 0.735395 0.300098
Si Si8 0.937452 0.650490 0.816634
O O1 0.177824 0.542993 0.490831
O O2 0.036567 0.431885 0.169503
O O3 0.884574 0.737743 0.479840
O O4 0.000000 0.500000 0.000000
O O5 0.603111 0.563590 0.236031
O O6 0.868509 0.264380 0.997705
O O7 0.673088 0.313368 0.988156
O O8 0.668279 0.803477 0.457250
O O9 0.621136 0.027300 0.672430
O O10 0.837090 0.916002 0.966088
O O11 0.470655 0.809937 0.363618
O O12 0.507662 0.041669 0.850058
O O13 0.000000 0.000000 0.500000
O O14 0.979907 0.266859 0.939935
O O15 0.378222 0.863132 0.589538
O O16 0.241878 0.186076 0.119154
O O17 0.500000 0.000000 0.000000
O O18 0.000000 0.500000 0.500000
#
# Coordination Sequence:
#
# PCOD9093419 Si02
#       8
#     2   2   2   2   2   2   2   2
#     4  11  24  38  61  91 125 158 208 256 316 366
#     4  10  22  40  61  90 122 162 208 264 303 377
#     4  10  22  38  60  91 118 163 201 262 306 371
#     4  10  20  37  60  86 124 154 204 254 312 369
#     4  11  23  41  65  89 123 159 216 256 313 372
#     4  10  20  32  62  90 113 157 209 248 303 368
#     4  10  22  38  62  88 124 162 206 257 319 365
#     4  12  21  40  65  90 121 165 216 255 308 366
#
# _framework density 18.261226000000001
#
# number of rings (size 3 to 8) (size 9 to 14) (size 15 to 20)
#    0.000    1.500    3.750    2.250    7.000    0.000 
#    2.250    1.250    0.000    1.500    0.000    0.000 
#    0.000    0.000    0.000    0.000    0.000    0.000 
#
# Total GULP energy -89125.889215 kJ/mol
# GULP energy per Si atom -5570.368076 kJ/mol
# Density = 1.821966 g / cm^3
# Si number density = 18.261226 Si / 1000 Ang^3
#
#
#
# Elastic Constant Matrix: (Units=GPa)
#
#
# Indices 1 2 3 4 5 6 
#
# 1 111.7365 41.0920 58.0299 -13.1910 16.1632 1.1086
# 2 41.0920 82.4128 48.1611 -9.8257 1.6249 -8.1575
# 3 58.0299 48.1611 132.1780 -13.4207 9.2110 10.2053
# 4 -13.1910 -9.8257 -13.4207 30.1692 -0.0851 -1.2583
# 5 16.1632 1.6249 9.2110 -0.0851 35.3033 -0.6426
# 6 1.1086 -8.1575 10.2053 -1.2583 -0.6426 30.1770
#
#
#
# Elastic Compliance Matrix: (Units=1/GPa)
#
#
# Indices 1 2 3 4 5 6 
#
# 1 0.013477 -0.004121 -0.003752 0.002854 -0.005001 -0.000328
# 2 -0.004121 0.018193 -0.005332 0.002051 0.002573 0.007013
# 3 -0.003752 -0.005332 0.011814 0.001656 -0.001211 -0.005255
# 4 0.002854 0.002051 0.001656 0.035850 -0.001722 0.001348
# 5 -0.005001 0.002573 -0.001211 -0.001722 0.030843 0.001874
# 6 -0.000328 0.007013 -0.005255 0.001348 0.001874 0.036919
#
#
# Mechanical properties :
#
#
# Convention : Reuss Voigt Hill
#
# Bulk Modulus (GPa) = 58.56840 68.98815 63.77827
# Shear Modulus (GPa) = 27.90229 31.06621 29.48425
#
# Velocity S-wave (km/s) = 3.91314 4.12905 4.02255
# Velocity P-wave (km/s) = 7.24977 7.78412 7.52169
#
# Compressibility (1/GPa) = 0.01707405
#
# Stress axis : x y z
#
# Youngs Moduli (GPa) = 74.19949 54.96682 84.64693
#
# Poissons Ratio (x) = 0.22652 0.31757
# Poissons Ratio (y) = 0.30578 0.45135
# Poissons Ratio (z) = 0.27838 0.29309
#
# Static dielectric constant tensor:
#      x y z
#    x 1.651330 -0.012180 -0.003410 
#    y -0.012180 1.638250 0.005810 
#    z -0.003410 0.005810 1.650050 
# 
# From -- ./inp_files/338022.got.cif
#   From: 2010.05.17/outbox.cif.g08.bks.cpg/sg2_170_cif.got.tgz:338022.got - 2010.06.03 11:33:40.
