data_PCOD9093019
_publ_section_title
;
Structure prediction by ZEFSAII (Michael W. Deem and Ramdas Pophale) SiO2 
 PCOD9093019
Probable space group: P -1
;
_chemical_formula_sum "Si O2"
_cell_formula_units_Z 16
_cell_length_a 9.453899
_cell_length_b 14.941044
_cell_length_c 12.198168
_cell_angle_alpha 47.915567
_cell_angle_beta 130.761380
_cell_angle_gamma 134.163695
_cell_volume 859.531800
_symmetry_space_group_name_H-M "P -1"
_symmetry_group_IT_number 2
_symmetry_cell_setting 'triclinic'
loop_
_space_group_symop_operation_xyz
x,y,z
-x,-y,-z
loop_
_atom_site_type_symbol
_atom_site_label
_atom_site_fract_x
_atom_site_fract_y
_atom_site_fract_z
Si Si1 0.789127 0.788334 0.177840
Si Si2 0.041534 0.467045 0.716996
Si Si3 0.694326 0.327136 0.483580
Si Si4 0.795351 0.978474 0.695466
Si Si5 0.411678 0.018890 0.054793
Si Si6 0.444131 0.004762 0.625170
Si Si7 0.336662 0.483165 0.524595
Si Si8 0.935108 0.782361 0.012598
O O1 0.724568 0.650982 0.324772
O O2 0.816802 0.773641 0.074684
O O3 0.013455 0.903061 0.240636
O O4 0.629210 0.850393 0.068829
O O5 0.242108 0.593128 0.664137
O O6 0.914954 0.372807 0.624195
O O7 0.874274 0.516563 0.631590
O O8 0.084954 0.365935 0.898054
O O9 0.572880 0.167791 0.542968
O O10 0.580807 0.390123 0.452865
O O11 0.765945 0.032471 0.518732
O O12 0.584081 0.945361 0.683871
O O13 0.842215 0.850169 0.823446
O O14 0.562086 0.026623 0.224674
O O15 0.182253 0.889141 0.063515
O O16 0.500000 0.000000 0.000000
O O17 0.500000 0.500000 0.500000
#
# Coordination Sequence:
#
# PCOD9093019 Si02
#       8
#     2   2   2   2   2   2   2   2
#     4  11  19  36  56  82 109 140 190 220 268 326
#     4   9  16  30  54  74 102 136 177 221 268 306
#     4   9  17  31  53  78 101 142 170 229 263 312
#     4  10  21  32  57  83 108 150 174 224 273 323
#     4  11  22  32  56  82 111 143 177 234 266 315
#     4  11  19  36  53  83 117 135 182 225 273 322
#     4  10  20  30  53  84 104 135 182 234 267 307
#     4  11  17  37  54  79 107 142 189 220 267 322
#
# _framework density 18.614785999999999
#
# number of rings (size 3 to 8) (size 9 to 14) (size 15 to 20)
#    0.750    1.000    5.000    1.500    3.500    0.000 
#    0.000    3.125    0.000    0.000    0.000    1.750 
#    0.000    0.000    0.000    0.000    0.000    0.000 
#
# Total GULP energy -89180.636520 kJ/mol
# GULP energy per Si atom -5573.789783 kJ/mol
# Density = 1.857242 g / cm^3
# Si number density = 18.614786 Si / 1000 Ang^3
#
#
#
# Elastic Constant Matrix: (Units=GPa)
#
#
# Indices 1 2 3 4 5 6 
#
# 1 112.1801 5.5823 35.7818 -9.8306 -0.0708 -22.2842
# 2 5.5823 20.8028 13.5224 -17.1163 5.2852 -5.5499
# 3 35.7818 13.5224 125.5871 -10.6718 4.6795 -14.0241
# 4 -9.8306 -17.1163 -10.6718 32.8434 -8.0168 1.2901
# 5 -0.0708 5.2852 4.6795 -8.0168 17.9255 -2.5115
# 6 -22.2842 -5.5499 -14.0241 1.2901 -2.5115 15.4590
#
#
#
# Elastic Compliance Matrix: (Units=1/GPa)
#
#
# Indices 1 2 3 4 5 6 
#
# 1 0.014280 0.009467 -0.002039 0.008863 0.004869 0.022186
# 2 0.009467 0.104251 -0.004600 0.054166 0.000679 0.042492
# 3 -0.002039 -0.004600 0.009481 -0.000249 -0.000689 0.003919
# 4 0.008863 0.054166 -0.000249 0.064237 0.016976 0.029394
# 5 0.004869 0.000679 -0.000689 0.016976 0.065603 0.015879
# 6 0.022186 0.042492 0.003919 0.029394 0.015879 0.115606
#
#
# Mechanical properties :
#
#
# Convention : Reuss Voigt Hill
#
# Bulk Modulus (GPa) = 7.48114 40.92702 24.20408
# Shear Modulus (GPa) = 12.12540 26.82449 19.47494
#
# Velocity S-wave (km/s) = 2.55499 3.80021 3.23802
# Velocity P-wave (km/s) = 3.56814 6.42569 5.19717
#
# Compressibility (1/GPa) = 0.13366949
#
# Stress axis : x y z
#
# Youngs Moduli (GPa) = 70.02606 9.59222 105.47416
#
# Poissons Ratio (x) = -0.09081 0.21506
# Poissons Ratio (y) = -0.66297 0.48519
# Poissons Ratio (z) = 0.14278 0.04413
#
# Static dielectric constant tensor:
#      x y z
#    x 1.626710 -0.006830 0.019810 
#    y -0.006830 1.655140 -0.000380 
#    z 0.019810 -0.000380 1.709690 
# 
# From -- ./inp_files/397138.got.cif
#   From: 2010.05.17/outbox.cif.g08.bks.cpg/sg2_199_cif.got.tgz:397138.got - 2010.06.03 11:33:40.
