data_PCOD9093721
_publ_section_title
;
Structure prediction by ZEFSAII (Michael W. Deem and Ramdas Pophale) SiO2 
 PCOD9093721
Probable space group: P -1
;
_chemical_formula_sum "Si O2"
_cell_formula_units_Z 15
_cell_length_a 8.024206
_cell_length_b 13.601965
_cell_length_c 12.810274
_cell_angle_alpha 42.328365
_cell_angle_beta 126.221043
_cell_angle_gamma 141.902050
_cell_volume 580.774724
_symmetry_space_group_name_H-M "P -1"
_symmetry_group_IT_number 2
_symmetry_cell_setting 'triclinic'
loop_
_space_group_symop_operation_xyz
x,y,z
-x,-y,-z
loop_
_atom_site_type_symbol
_atom_site_label
_atom_site_fract_x
_atom_site_fract_y
_atom_site_fract_z
Si Si1 0.625670 0.207522 0.082587
Si Si2 0.267622 0.020979 0.281119
Si Si3 0.353699 0.713626 0.203289
Si Si4 0.336056 0.482766 0.693207
Si Si5 0.191652 0.681759 0.617901
Si Si6 0.500000 0.500000 0.500000
Si Si7 0.194793 0.394733 0.089551
Si Si8 0.016341 0.194313 0.972454
O O1 0.408562 0.039561 0.209716
O O2 0.887338 0.229382 0.141199
O O3 0.543810 0.224042 0.925000
O O4 0.727397 0.401730 0.023935
O O5 0.525567 0.190882 0.314037
O O6 0.152243 0.828616 0.448461
O O7 0.060439 0.053850 0.145674
O O8 0.546015 0.701802 0.351562
O O9 0.079329 0.486147 0.286344
O O10 0.252514 0.827746 0.110152
O O11 0.206691 0.577738 0.607323
O O12 0.395416 0.473707 0.603734
O O13 0.615785 0.607498 0.762608
O O14 0.155239 0.278387 0.846274
O O15 0.199289 0.364337 0.992584
#
# Coordination Sequence:
#
# PCOD9093721 Si02
#       8
#     2   2   2   2   2   1   2   2
#     4  10  18  30  59  85 117 145 196 230 294 342
#     4  11  19  35  57  93 124 151 172 232 306 374
#     4  10  22  38  59  86 112 156 197 247 273 340
#     4  11  20  36  56  86 114 156 193 246 273 343
#     4  10  23  35  56  89 129 147 178 235 311 343
#     4  12  24  38  60  82 114 152 212 244 282 306
#     4  10  16  29  55  88 109 146 185 249 278 337
#     4  10  19  32  62  84 116 144 198 231 297 345
#
# _framework density 25.827572
#
# number of rings (size 3 to 8) (size 9 to 14) (size 15 to 20)
#    0.000    1.600    4.000    3.600    0.000    2.133 
#    0.000    3.333    0.000   11.200    0.000    0.000 
#    0.000    0.000    0.000    0.000    0.000    0.000 
#
# Total GULP energy -83661.975304 kJ/mol
# GULP energy per Si atom -5577.465020 kJ/mol
# Density = 2.576879 g / cm^3
# Si number density = 25.827572 Si / 1000 Ang^3
#
#
#
# Elastic Constant Matrix: (Units=GPa)
#
#
# Indices 1 2 3 4 5 6 
#
# 1 105.2982 30.4419 57.3044 11.2479 -9.3228 -17.5860
# 2 30.4419 90.1412 45.9355 -3.9890 -16.0217 -2.5351
# 3 57.3044 45.9355 178.2375 -10.6397 -5.8840 -14.1874
# 4 11.2479 -3.9890 -10.6397 33.1529 -19.1630 -7.6620
# 5 -9.3228 -16.0217 -5.8840 -19.1630 46.6975 8.6719
# 6 -17.5860 -2.5351 -14.1874 -7.6620 8.6719 37.3583
#
#
#
# Elastic Compliance Matrix: (Units=1/GPa)
#
#
# Indices 1 2 3 4 5 6 
#
# 1 0.013628 -0.003326 -0.003682 -0.006645 -0.002349 0.003973
# 2 -0.003326 0.014811 -0.002335 0.005656 0.006790 -0.001863
# 3 -0.003682 -0.002335 0.007833 0.004437 0.000942 0.001774
# 4 -0.006645 0.005656 0.004437 0.046791 0.019635 0.003980
# 5 -0.002349 0.006790 0.000942 0.019635 0.032143 -0.003721
# 6 0.003973 -0.001863 0.001774 0.003980 -0.003721 0.030866
#
#
# Mechanical properties :
#
#
# Convention : Reuss Voigt Hill
#
# Bulk Modulus (GPa) = 56.85878 71.22673 64.04275
# Shear Modulus (GPa) = 29.30506 39.44141 34.37324
#
# Velocity S-wave (km/s) = 3.37210 3.91206 3.65207
# Velocity P-wave (km/s) = 6.10114 6.93132 6.52944
#
# Compressibility (1/GPa) = 0.01758743
#
# Stress axis : x y z
#
# Youngs Moduli (GPa) = 73.38042 67.51607 127.66201
#
# Poissons Ratio (x) = 0.22453 0.47008
# Poissons Ratio (y) = 0.24403 0.29803
# Poissons Ratio (z) = 0.27020 0.15762
#
# Static dielectric constant tensor:
#      x y z
#    x 2.219320 0.123520 0.104940 
#    y 0.123520 2.153480 0.029350 
#    z 0.104940 0.029350 2.053930 
# 
# From -- ./inp_files/303840.got.cif
#   From: 2010.05.17/outbox.cif.g08.bks.cpg/sg2_152_cif.got.tgz:303840.got - 2010.06.03 11:33:40.
