data_PCOD9093650
_publ_section_title
;
Structure prediction by ZEFSAII (Michael W. Deem and Ramdas Pophale) SiO2 
 PCOD9093650
Probable space group: P -1
;
_chemical_formula_sum "Si O2"
_cell_formula_units_Z 14
_cell_length_a 11.416575
_cell_length_b 16.628183
_cell_length_c 6.933763
_cell_angle_alpha 88.621281
_cell_angle_beta 112.870771
_cell_angle_gamma 144.682541
_cell_volume 585.467903
_symmetry_space_group_name_H-M "P -1"
_symmetry_group_IT_number 2
_symmetry_cell_setting 'triclinic'
loop_
_space_group_symop_operation_xyz
x,y,z
-x,-y,-z
loop_
_atom_site_type_symbol
_atom_site_label
_atom_site_fract_x
_atom_site_fract_y
_atom_site_fract_z
Si Si1 0.841319 0.857445 0.187293
Si Si2 0.676859 0.213357 0.011830
Si Si3 0.247289 0.277166 0.476580
Si Si4 0.396375 0.107557 0.447627
Si Si5 0.433982 0.551462 0.695323
Si Si6 0.658774 0.335758 0.258443
Si Si7 0.227270 0.904494 0.032256
O O1 0.827821 0.828521 0.404820
O O2 0.641982 0.818765 0.009577
O O3 0.692559 0.703453 0.984297
O O4 0.140007 0.023002 0.298945
O O5 0.512112 0.153776 0.727511
O O6 0.802994 0.359539 0.194908
O O7 0.480597 0.068179 0.056003
O O8 0.837311 0.225231 0.035935
O O9 0.327477 0.403264 0.631422
O O10 0.478262 0.380490 0.472008
O O11 0.007069 0.171655 0.196227
O O12 0.609085 0.264973 0.433085
O O13 0.297216 0.970503 0.289024
O O14 0.252858 0.523026 0.663166
#
# Coordination Sequence:
#
# PCOD9093650 Si02
#       7
#     2   2   2   2   2   2   2
#     4  10  20  33  55  81 107 137 176 216 269 315
#     4  10  21  35  55  76 110 144 172 222 264 307
#     4  11  19  37  59  77 107 141 176 225 262 301
#     4  11  19  35  54  81 110 139 173 221 269 309
#     4   9  22  36  53  82 109 136 179 219 260 321
#     4   9  22  34  50  83 113 134 179 209 268 327
#     4  10  20  36  54  82 103 137 190 214 256 319
#
# _framework density 23.912497999999999
#
# number of rings (size 3 to 8) (size 9 to 14) (size 15 to 20)
#    0.857    1.143    2.857    1.286    2.000    0.571 
#    0.000    0.714    0.000    0.857    0.000    0.000 
#    0.000    0.000    0.000    0.000    0.000    0.000 
#
# Total GULP energy -78196.654724 kJ/mol
# GULP energy per Si atom -5585.475337 kJ/mol
# Density = 2.385807 g / cm^3
# Si number density = 23.912498 Si / 1000 Ang^3
#
#
#
# Elastic Constant Matrix: (Units=GPa)
#
#
# Indices 1 2 3 4 5 6 
#
# 1 116.7605 25.2004 38.0551 5.7556 -26.9195 -17.6753
# 2 25.2004 52.8242 16.8339 3.9292 -11.8814 -10.6564
# 3 38.0551 16.8339 67.1121 -9.5428 -20.3081 7.2892
# 4 5.7556 3.9292 -9.5428 26.1919 -1.3830 -4.2803
# 5 -26.9195 -11.8814 -20.3081 -1.3830 49.3442 16.7522
# 6 -17.6753 -10.6564 7.2892 -4.2803 16.7522 30.0791
#
#
#
# Elastic Compliance Matrix: (Units=1/GPa)
#
#
# Indices 1 2 3 4 5 6 
#
# 1 0.013280 -0.001455 -0.008636 -0.004428 0.000303 0.008583
# 2 -0.001455 0.023864 -0.007234 -0.004418 -0.001369 0.009487
# 3 -0.008636 -0.007234 0.029243 0.010999 0.012773 -0.020272
# 4 -0.004428 -0.004418 0.010999 0.043603 0.003061 -0.002333
# 5 0.000303 -0.001369 0.012773 0.003061 0.032619 -0.021133
# 6 0.008583 0.009487 -0.020272 -0.002333 -0.021133 0.058001
#
#
# Mechanical properties :
#
#
# Convention : Reuss Voigt Hill
#
# Bulk Modulus (GPa) = 31.50744 44.09728 37.80236
# Shear Modulus (GPa) = 20.33858 31.56354 25.95106
#
# Velocity S-wave (km/s) = 2.91957 3.63707 3.29789
# Velocity P-wave (km/s) = 4.95681 6.00989 5.50857
#
# Compressibility (1/GPa) = 0.03173853
#
# Stress axis : x y z
#
# Youngs Moduli (GPa) = 75.29872 41.90331 34.19676
#
# Poissons Ratio (x) = 0.06096 0.29532
# Poissons Ratio (y) = 0.10954 0.24738
# Poissons Ratio (z) = 0.65026 0.30313
#
# Static dielectric constant tensor:
#      x y z
#    x 1.969950 -0.029920 -0.027420 
#    y -0.029920 1.897400 0.062630 
#    z -0.027420 0.062630 1.894740 
# 
# From -- ./inp_files/70757.got.cif
#   From: 2010.05.17/outbox.cif.g08.bks.cpg/sg2_36_cif.got.tgz:70757.got - 2010.06.03 11:33:40.
