data_PCOD9093738
_publ_section_title
;
Structure prediction by ZEFSAII (Michael W. Deem and Ramdas Pophale) SiO2 
 PCOD9093738
Probable space group: P -1
;
_chemical_formula_sum "Si O2"
_cell_formula_units_Z 14
_cell_length_a 15.394736
_cell_length_b 7.283939
_cell_length_c 7.706451
_cell_angle_alpha 56.517781
_cell_angle_beta 117.926415
_cell_angle_gamma 93.649336
_cell_volume 614.191037
_symmetry_space_group_name_H-M "P -1"
_symmetry_group_IT_number 2
_symmetry_cell_setting 'triclinic'
loop_
_space_group_symop_operation_xyz
x,y,z
-x,-y,-z
loop_
_atom_site_type_symbol
_atom_site_label
_atom_site_fract_x
_atom_site_fract_y
_atom_site_fract_z
Si Si1 0.674502 0.515803 0.294339
Si Si2 0.420521 0.336867 0.218677
Si Si3 0.120785 0.385181 0.149077
Si Si4 0.296518 0.621460 0.228680
Si Si5 0.866489 0.682471 0.431134
Si Si6 0.343421 0.913671 0.382679
Si Si7 0.959760 0.797243 0.142266
O O1 0.656649 0.537041 0.475388
O O2 0.767612 0.623042 0.292705
O O3 0.702328 0.238958 0.447058
O O4 0.589851 0.623382 0.018067
O O5 0.369558 0.560351 0.164833
O O6 0.536319 0.226631 0.436946
O O7 0.352333 0.164184 0.296580
O O8 0.189067 0.565954 0.119156
O O9 0.152402 0.237458 0.430099
O O10 0.124499 0.248831 0.045372
O O11 0.000000 0.500000 0.000000
O O12 0.294144 0.867060 0.178549
O O13 0.914821 0.834444 0.273111
O O14 0.948559 0.433484 0.645098
O O15 0.000000 0.000000 0.000000
#
# Coordination Sequence:
#
# PCOD9093738 Si02
#       7
#     2   2   2   2   2   2   2
#     4   9  20  36  55  81 115 149 184 237 282 333
#     4  11  19  39  60  82 119 148 189 237 291 335
#     4   9  18  36  55  76 114 147 178 231 277 323
#     4   9  20  37  57  83 115 150 190 233 282 341
#     4   9  19  36  52  76 114 138 185 234 266 338
#     4   9  22  37  57  89 111 148 195 237 277 352
#     4  10  20  33  57  81 103 148 186 225 285 328
#
# _framework density 22.794211000000001
#
# number of rings (size 3 to 8) (size 9 to 14) (size 15 to 20)
#    0.857    1.714    0.000    1.714    0.000    2.857 
#    2.571    1.429    6.286    0.000    0.000    0.000 
#    0.000    0.000    0.000    0.000    0.000    0.000 
#
# Total GULP energy -78015.628370 kJ/mol
# GULP energy per Si atom -5572.544884 kJ/mol
# Density = 2.274233 g / cm^3
# Si number density = 22.794211 Si / 1000 Ang^3
#
#
#
# Elastic Constant Matrix: (Units=GPa)
#
#
# Indices 1 2 3 4 5 6 
#
# 1 46.5017 9.1126 18.0569 10.6576 4.4544 12.6802
# 2 9.1126 84.4980 29.3873 10.1498 1.6417 23.6713
# 3 18.0569 29.3873 64.2790 6.5557 -1.2553 11.8257
# 4 10.6576 10.1498 6.5557 34.9997 7.6556 -0.3316
# 5 4.4544 1.6417 -1.2553 7.6556 33.1164 2.0631
# 6 12.6802 23.6713 11.8257 -0.3316 2.0631 37.3862
#
#
#
# Elastic Compliance Matrix: (Units=1/GPa)
#
#
# Indices 1 2 3 4 5 6 
#
# 1 0.028011 0.002853 -0.006731 -0.007791 -0.001793 -0.009148
# 2 0.002853 0.017035 -0.006291 -0.004778 0.000250 -0.009820
# 3 -0.006731 -0.006291 0.020469 -0.000425 0.002112 -0.000329
# 4 -0.007791 -0.004778 -0.000425 0.034001 -0.006996 0.006490
# 5 -0.001793 0.000250 0.002112 -0.006996 0.032251 -0.002060
# 6 -0.009148 -0.009820 -0.000329 0.006490 -0.002060 0.036343
#
#
# Mechanical properties :
#
#
# Convention : Reuss Voigt Hill
#
# Bulk Modulus (GPa) = 22.13429 34.26580 28.20004
# Shear Modulus (GPa) = 24.56938 30.34860 27.45899
#
# Velocity S-wave (km/s) = 3.28667 3.65282 3.47457
# Velocity P-wave (km/s) = 4.91268 5.73202 5.33810
#
# Compressibility (1/GPa) = 0.04517878
#
# Stress axis : x y z
#
# Youngs Moduli (GPa) = 35.70047 58.70360 48.85418
#
# Poissons Ratio (x) = -0.16751 0.32882
# Poissons Ratio (y) = -0.10187 0.30733
# Poissons Ratio (z) = 0.24029 0.36929
#
# Static dielectric constant tensor:
#      x y z
#    x 1.871900 -0.003880 0.016710 
#    y -0.003880 1.858360 -0.005660 
#    z 0.016710 -0.005660 1.896830 
# 
# From -- ./inp_files/325633.got.cif
#   From: 2010.05.17/outbox.cif.g08.bks.cpg/sg2_163_cif.got.tgz:325633.got - 2010.06.03 11:33:40.
