data_PCOD9093203
_publ_section_title
;
Structure prediction by ZEFSAII (Michael W. Deem and Ramdas Pophale) SiO2 
 PCOD9093203
Probable space group: P -1
;
_chemical_formula_sum "Si O2"
_cell_formula_units_Z 14
_cell_length_a 13.060776
_cell_length_b 8.789774
_cell_length_c 9.517974
_cell_angle_alpha 91.002734
_cell_angle_beta 140.191113
_cell_angle_gamma 63.734004
_cell_volume 519.043054
_symmetry_space_group_name_H-M "P -1"
_symmetry_group_IT_number 2
_symmetry_cell_setting 'triclinic'
loop_
_space_group_symop_operation_xyz
x,y,z
-x,-y,-z
loop_
_atom_site_type_symbol
_atom_site_label
_atom_site_fract_x
_atom_site_fract_y
_atom_site_fract_z
Si Si1 0.360295 0.287300 0.951815
Si Si2 0.760855 0.364315 0.289158
Si Si3 0.838026 0.999654 0.483251
Si Si4 0.577817 0.504487 0.745173
Si Si5 0.206532 0.963114 0.253303
Si Si6 0.278306 0.447167 0.350315
Si Si7 0.804961 0.765018 0.953901
O O1 0.609972 0.095693 0.173651
O O2 0.356322 0.439691 0.052117
O O3 0.275535 0.217365 0.972796
O O4 0.230557 0.454639 0.692547
O O5 0.824407 0.195046 0.472733
O O6 0.500000 0.500000 0.000000
O O7 0.946392 0.190002 0.370675
O O8 0.824407 0.941145 0.624449
O O9 0.467992 0.409636 0.640328
O O10 0.760356 0.410810 0.819102
O O11 0.398746 0.726359 0.488484
O O12 0.249481 0.037404 0.164082
O O13 0.000000 0.000000 0.000000
O O14 0.289497 0.284079 0.270318
O O15 0.061233 0.578970 0.212778
#
# Coordination Sequence:
#
# PCOD9093203 Si02
#       7
#     2   2   2   2   2   2   2
#     4   9  19  33  54  82 112 142 185 238 281 333
#     4   9  18  37  58  82 107 143 197 247 275 322
#     4   9  20  33  56  85 108 147 196 232 279 338
#     4   9  18  32  48  75 109 151 191 218 274 339
#     4  11  21  34  53  83 124 152 179 231 284 346
#     4   9  18  30  47  73 111 150 190 217 264 343
#     4  10  20  32  50  81 117 152 183 226 286 338
#
# _framework density 26.972711
#
# number of rings (size 3 to 8) (size 9 to 14) (size 15 to 20)
#    0.000    2.571    1.429    0.000    6.000    5.143 
#    0.000    0.000    0.000    0.857    0.000    6.000 
#    0.000    0.000    0.000    0.000    0.000    0.000 
#
# Total GULP energy -77940.603819 kJ/mol
# GULP energy per Si atom -5567.185987 kJ/mol
# Density = 2.691132 g / cm^3
# Si number density = 26.972711 Si / 1000 Ang^3
#
#
#
# Elastic Constant Matrix: (Units=GPa)
#
#
# Indices 1 2 3 4 5 6 
#
# 1 144.6600 28.8128 25.1604 -14.9100 12.9063 35.9750
# 2 28.8128 81.7730 45.4701 -13.3341 6.6309 26.2015
# 3 25.1604 45.4701 110.6914 -25.6228 1.3171 12.9241
# 4 -14.9100 -13.3341 -25.6228 50.8069 4.8952 -8.0159
# 5 12.9063 6.6309 1.3171 4.8952 37.2549 1.3006
# 6 35.9750 26.2015 12.9241 -8.0159 1.3006 52.2114
#
#
#
# Elastic Compliance Matrix: (Units=1/GPa)
#
#
# Indices 1 2 3 4 5 6 
#
# 1 0.008913 -0.000467 -0.000817 0.001517 -0.002987 -0.005397
# 2 -0.000467 0.018687 -0.006554 0.000580 -0.002755 -0.007276
# 3 -0.000817 -0.006554 0.012834 0.004700 0.000330 0.001388
# 4 0.001517 0.000580 0.004700 0.023207 -0.003885 0.001160
# 5 -0.002987 -0.002755 0.000330 -0.003885 0.028794 0.002045
# 6 -0.005397 -0.007276 0.001388 0.001160 0.002045 0.026307
#
#
# Mechanical properties :
#
#
# Convention : Reuss Voigt Hill
#
# Bulk Modulus (GPa) = 40.39107 59.55677 49.97392
# Shear Modulus (GPa) = 35.04573 43.90004 39.47288
#
# Velocity S-wave (km/s) = 3.60850 4.03869 3.82964
# Velocity P-wave (km/s) = 5.68937 6.62393 6.17436
#
# Compressibility (1/GPa) = 0.02475795
#
# Stress axis : x y z
#
# Youngs Moduli (GPa) = 112.19571 53.51317 77.91880
#
# Poissons Ratio (x) = 0.02500 0.06367
# Poissons Ratio (y) = 0.05242 0.51065
# Poissons Ratio (z) = 0.09168 0.35071
#
# Static dielectric constant tensor:
#      x y z
#    x 2.770170 -0.115960 -0.070890 
#    y -0.115960 2.278200 0.037430 
#    z -0.070890 0.037430 2.224570 
# 
# From -- ./inp_files/529567.got.cif
#   From: 2010.05.17/outbox.cif.g08.bks.cpg/sg2_265_cif.got.tgz:529567.got - 2010.06.03 11:33:40.
