data_PCOD9093553
_publ_section_title
;
Structure prediction by ZEFSAII (Michael W. Deem and Ramdas Pophale) SiO2 
 PCOD9093553
Probable space group: P -1
;
_chemical_formula_sum "Si O2"
_cell_formula_units_Z 14
_cell_length_a 6.669559
_cell_length_b 17.715750
_cell_length_c 18.738983
_cell_angle_alpha 24.252624
_cell_angle_beta 41.019997
_cell_angle_gamma 32.880722
_cell_volume 493.123873
_symmetry_space_group_name_H-M "P -1"
_symmetry_group_IT_number 2
_symmetry_cell_setting 'triclinic'
loop_
_space_group_symop_operation_xyz
x,y,z
-x,-y,-z
loop_
_atom_site_type_symbol
_atom_site_label
_atom_site_fract_x
_atom_site_fract_y
_atom_site_fract_z
Si Si1 0.750601 0.975383 0.842624
Si Si2 0.566358 0.334167 0.461647
Si Si3 0.494675 0.351631 0.692232
Si Si4 0.290052 0.551558 0.134303
Si Si5 0.300994 0.299315 0.011877
Si Si6 0.374551 0.967298 0.399749
Si Si7 0.675994 0.736392 0.736033
O O1 0.656040 0.158512 0.651222
O O2 0.685548 0.104132 0.823530
O O3 0.558137 0.857322 0.961651
O O4 0.151948 0.750095 0.942450
O O5 0.353413 0.580103 0.340426
O O6 0.959286 0.282127 0.376548
O O7 0.404849 0.268701 0.496275
O O8 0.500000 0.500000 0.500000
O O9 0.085586 0.417742 0.763852
O O10 0.493084 0.320589 0.235076
O O11 0.474273 0.602314 0.104421
O O12 0.297777 0.147813 0.205093
O O13 0.895826 0.519528 0.915552
O O14 0.538389 0.028474 0.368348
O O15 0.000000 0.000000 0.500000
#
# Coordination Sequence:
#
# PCOD9093553 Si02
#       7
#     2   2   2   2   2   2   2
#     4   9  18  34  54  74 105 137 166 208 257 302
#     4   8  16  32  54  74  96 134 172 204 248 298
#     4   9  17  33  54  74 102 138 169 205 256 304
#     4  10  20  33  53  80 104 131 171 212 251 301
#     4  10  20  33  53  80 104 131 171 212 251 301
#     4   9  17  33  54  74 102 138 169 205 256 304
#     4   9  18  34  54  74 105 137 166 208 257 302
#
# _framework density 28.390432000000001
#
# number of rings (size 3 to 8) (size 9 to 14) (size 15 to 20)
#    0.000    2.857    0.000    0.857    0.000    1.143 
#    0.000   12.857    0.000   30.857    0.000    0.000 
#    0.000    0.000    0.000    0.000    0.000    0.000 
#
# Total GULP energy -78281.843946 kJ/mol
# GULP energy per Si atom -5591.560282 kJ/mol
# Density = 2.832581 g / cm^3
# Si number density = 28.390432 Si / 1000 Ang^3
#
#
#
# Elastic Constant Matrix: (Units=GPa)
#
#
# Indices 1 2 3 4 5 6 
#
# 1 114.1376 67.6491 51.4704 -50.5912 -38.4457 31.3168
# 2 67.6491 157.1701 44.1827 -68.7439 -47.6952 63.8269
# 3 51.4704 44.1827 187.7041 -19.4103 -20.6022 23.2705
# 4 -50.5912 -68.7439 -19.4103 62.8663 24.7774 -43.8858
# 5 -38.4457 -47.6952 -20.6022 24.7774 64.6799 -25.7953
# 6 31.3168 63.8269 23.2705 -43.8858 -25.7953 50.2735
#
#
#
# Elastic Compliance Matrix: (Units=1/GPa)
#
#
# Indices 1 2 3 4 5 6 
#
# 1 0.017550 -0.002070 -0.003289 0.015106 0.005815 0.009389
# 2 -0.002070 0.015722 -0.000739 0.006106 0.003275 -0.011319
# 3 -0.003289 -0.000739 0.006399 -0.003704 -0.000405 -0.003417
# 4 0.015106 0.006106 -0.003704 0.057926 0.005177 0.037775
# 5 0.005815 0.003275 -0.000405 0.005177 0.022624 0.008535
# 6 0.009389 -0.011319 -0.003417 0.037775 0.008535 0.067349
#
#
# Mechanical properties :
#
#
# Convention : Reuss Voigt Hill
#
# Bulk Modulus (GPa) = 36.39573 87.29070 61.84321
# Shear Modulus (GPa) = 23.93208 55.27791 39.60499
#
# Velocity S-wave (km/s) = 2.90653 4.41734 3.73904
# Velocity P-wave (km/s) = 4.91034 7.53860 6.36168
#
# Compressibility (1/GPa) = 0.02747575
#
# Stress axis : x y z
#
# Youngs Moduli (GPa) = 56.98059 63.60359 156.26593
#
# Poissons Ratio (x) = 0.13167 0.51390
# Poissons Ratio (y) = 0.11796 0.11549
# Poissons Ratio (z) = 0.18739 0.04701
#
# Static dielectric constant tensor:
#      x y z
#    x 2.128560 0.052530 -0.039950 
#    y 0.052530 2.321520 0.091340 
#    z -0.039950 0.091340 2.221750 
# 
# From -- ./inp_files/39351.got.cif
#   From: 2010.05.17/outbox.cif.g08.bks.cpg/sg2_20_cif.got.tgz:39351.got - 2010.06.03 11:33:40.
