data_PCOD9093624
_publ_section_title
;
Structure prediction by ZEFSAII (Michael W. Deem and Ramdas Pophale) SiO2 
 PCOD9093624
Probable space group: P -1
;
_chemical_formula_sum "Si O2"
_cell_formula_units_Z 16
_cell_length_a 19.479456
_cell_length_b 15.974569
_cell_length_c 11.774156
_cell_angle_alpha 138.857973
_cell_angle_beta 154.184108
_cell_angle_gamma 25.536907
_cell_volume 652.757370
_symmetry_space_group_name_H-M "P -1"
_symmetry_group_IT_number 2
_symmetry_cell_setting 'triclinic'
loop_
_space_group_symop_operation_xyz
x,y,z
-x,-y,-z
loop_
_atom_site_type_symbol
_atom_site_label
_atom_site_fract_x
_atom_site_fract_y
_atom_site_fract_z
Si Si1 0.876386 0.011593 0.553851
Si Si2 0.942463 0.253132 0.633512
Si Si3 0.205155 0.664529 0.241999
Si Si4 0.015733 0.292458 0.421115
Si Si5 0.407537 0.418428 0.746300
Si Si6 0.295377 0.336285 0.976412
Si Si7 0.264349 0.269247 0.115078
Si Si8 0.204003 0.973936 0.226673
O O1 0.907501 0.134955 0.773414
O O2 0.590221 0.182689 0.257223
O O3 0.924173 0.862780 0.558260
O O4 0.041373 0.884480 0.557135
O O5 0.842776 0.304745 0.663657
O O6 0.765605 0.450410 0.489242
O O7 0.211834 0.154793 0.946075
O O8 0.500000 0.500000 0.500000
O O9 0.145118 0.563675 0.000697
O O10 0.758601 0.512521 0.319710
O O11 0.042115 0.205268 0.250673
O O12 0.202770 0.293999 0.704081
O O13 0.636558 0.185189 0.806086
O O14 0.500000 0.500000 0.000000
O O15 0.261639 0.284820 0.992377
O O16 0.533023 0.156005 0.441339
O O17 0.000000 0.500000 0.000000
O O18 0.000000 0.000000 0.000000
#
# Coordination Sequence:
#
# PCOD9093624 Si02
#       8
#     2   2   2   2   2   2   2   2
#     4  10  20  33  54  85 124 157 197 245 309 374
#     4  11  21  36  59  86 125 159 202 260 311 361
#     4  10  22  34  53  86 128 161 197 251 314 370
#     4  11  21  36  59  87 124 158 200 257 308 362
#     4  11  22  37  56  91 126 159 203 255 315 364
#     4  11  18  35  55  87 121 150 196 253 312 361
#     4  12  19  33  60  90 122 158 201 254 320 358
#     4  12  23  35  56  90 133 161 197 251 321 371
#
# _framework density 24.511402
#
# number of rings (size 3 to 8) (size 9 to 14) (size 15 to 20)
#    0.000    1.000    7.500    1.500    1.750    0.000 
#    0.000    0.000    0.000    0.000    0.000   17.500 
#    0.000    0.000    0.000    0.000    0.000    0.000 
#
# Total GULP energy -89145.597227 kJ/mol
# GULP energy per Si atom -5571.599827 kJ/mol
# Density = 2.445561 g / cm^3
# Si number density = 24.511402 Si / 1000 Ang^3
#
#
#
# Elastic Constant Matrix: (Units=GPa)
#
#
# Indices 1 2 3 4 5 6 
#
# 1 77.9298 49.7161 10.1046 -2.2702 5.8768 -21.0125
# 2 49.7161 155.9512 30.6644 16.3872 3.3480 -46.2684
# 3 10.1046 30.6644 100.7137 13.3115 19.3464 -8.0865
# 4 -2.2702 16.3872 13.3115 65.5532 -6.4640 -0.0222
# 5 5.8768 3.3480 19.3464 -6.4640 24.5254 -0.1337
# 6 -21.0125 -46.2684 -8.0865 -0.0222 -0.1337 35.8248
#
#
#
# Elastic Compliance Matrix: (Units=1/GPa)
#
#
# Indices 1 2 3 4 5 6 
#
# 1 0.016994 -0.004172 0.000460 0.001192 -0.003526 0.004671
# 2 -0.004172 0.012251 -0.001941 -0.002789 0.000194 0.012936
# 3 0.000460 -0.001941 0.013070 -0.003238 -0.011005 0.000669
# 4 0.001192 -0.002789 -0.003238 0.017360 0.007205 -0.003596
# 5 -0.003526 0.000194 -0.011005 0.007205 0.052150 -0.004102
# 6 0.004671 0.012936 0.000669 -0.003596 -0.004102 0.047494
#
#
# Mechanical properties :
#
#
# Convention : Reuss Voigt Hill
#
# Bulk Modulus (GPa) = 32.24968 57.28499 44.76734
# Shear Modulus (GPa) = 27.63037 41.45466 34.54251
#
# Velocity S-wave (km/s) = 3.36109 4.11693 3.75806
# Velocity P-wave (km/s) = 5.31490 6.78383 6.09379
#
# Compressibility (1/GPa) = 0.03100806
#
# Stress axis : x y z
#
# Youngs Moduli (GPa) = 58.84478 81.62772 76.51311
#
# Poissons Ratio (x) = 0.34052 -0.03519
# Poissons Ratio (y) = 0.24548 0.14854
# Poissons Ratio (z) = -0.02707 0.15847
#
# Static dielectric constant tensor:
#      x y z
#    x 2.097010 -0.016960 -0.136940 
#    y -0.016960 2.121580 0.048360 
#    z -0.136940 0.048360 2.121780 
# 
# From -- ./inp_files/444171.got.cif
#   From: 2010.05.17/outbox.cif.g08.bks.cpg/sg2_223_cif.got.tgz:444171.got - 2010.06.03 11:33:40.
