data_PCOD9093082
_publ_section_title
;
Structure prediction by ZEFSAII (Michael W. Deem and Ramdas Pophale) SiO2 
 PCOD9093082
Probable space group: P -1
;
_chemical_formula_sum "Si O2"
_cell_formula_units_Z 16
_cell_length_a 16.710628
_cell_length_b 24.869201
_cell_length_c 23.818450
_cell_angle_alpha 11.386640
_cell_angle_beta 157.280208
_cell_angle_gamma 157.307434
_cell_volume 732.622680
_symmetry_space_group_name_H-M "P -1"
_symmetry_group_IT_number 2
_symmetry_cell_setting 'triclinic'
loop_
_space_group_symop_operation_xyz
x,y,z
-x,-y,-z
loop_
_atom_site_type_symbol
_atom_site_label
_atom_site_fract_x
_atom_site_fract_y
_atom_site_fract_z
Si Si1 0.476290 0.826909 0.370997
Si Si2 0.107824 0.676451 0.495106
Si Si3 0.554146 0.967949 0.502265
Si Si4 0.490485 0.528752 0.530469
Si Si5 0.174075 0.471862 0.872691
Si Si6 0.253947 0.565613 0.103007
Si Si7 0.260927 0.928276 0.017207
Si Si8 0.093236 0.887186 0.119979
O O1 0.609235 0.594723 0.684546
O O2 0.297076 0.809348 0.223978
O O3 0.647801 0.112466 0.177181
O O4 0.334483 0.846193 0.314373
O O5 0.328457 0.903488 0.391056
O O6 0.145954 0.559852 0.700141
O O7 0.930129 0.856358 0.198554
O O8 0.049911 0.414221 0.683979
O O9 0.500000 0.000000 0.500000
O O10 0.739389 0.245009 0.325662
O O11 0.643247 0.694776 0.834085
O O12 0.500000 0.500000 0.500000
O O13 0.682316 0.498094 0.726737
O O14 0.448475 0.832075 0.204355
O O15 0.299396 0.262828 0.698943
O O16 0.954402 0.243761 0.974878
O O17 0.000000 0.500000 0.000000
O O18 0.000000 0.000000 0.000000
#
# Coordination Sequence:
#
# PCOD9093082 Si02
#       8
#     2   2   2   2   2   2   2   2
#     4  10  21  37  61  92 120 149 213 264 305 373
#     4  11  21  36  56  81 119 153 209 262 305 352
#     4  10  20  31  52  83 111 152 189 244 302 361
#     4  10  21  37  59  91 125 153 195 247 320 392
#     4  11  19  33  56  86 113 148 203 248 306 352
#     4  10  21  39  67  95 118 163 206 258 322 382
#     4  10  20  33  60  88 114 154 195 255 305 365
#     4  12  24  38  60  86 120 170 215 263 316 356
#
# _framework density 21.839345999999999
#
# number of rings (size 3 to 8) (size 9 to 14) (size 15 to 20)
#    0.000    1.500    1.250    6.375    3.500    0.000 
#    0.000    0.000   11.000    0.000    0.000    0.000 
#    0.000    0.000    0.000    0.000    0.000    0.000 
#
# Total GULP energy -89244.887608 kJ/mol
# GULP energy per Si atom -5577.805476 kJ/mol
# Density = 2.178964 g / cm^3
# Si number density = 21.839346 Si / 1000 Ang^3
#
#
#
# Elastic Constant Matrix: (Units=GPa)
#
#
# Indices 1 2 3 4 5 6 
#
# 1 68.2055 23.2499 2.2484 9.1907 16.6590 -7.9446
# 2 23.2499 140.1489 25.5321 -11.3032 5.8536 9.5927
# 3 2.2484 25.5321 103.7690 -9.7930 18.6059 -7.2956
# 4 9.1907 -11.3032 -9.7930 37.9981 1.4090 3.4170
# 5 16.6590 5.8536 18.6059 1.4090 27.9206 -5.9754
# 6 -7.9446 9.5927 -7.2956 3.4170 -5.9754 15.1981
#
#
#
# Elastic Compliance Matrix: (Units=1/GPa)
#
#
# Indices 1 2 3 4 5 6 
#
# 1 0.021275 -0.005069 0.002952 -0.006686 -0.010451 0.013132
# 2 -0.005069 0.009536 -0.002630 0.004348 0.000244 -0.010813
# 3 0.002952 -0.002630 0.012225 0.001466 -0.008254 0.005497
# 4 -0.006686 0.004348 0.001466 0.030896 -0.002325 -0.013396
# 5 -0.010451 0.000244 -0.008254 -0.002325 0.049876 0.010553
# 6 0.013132 -0.010813 0.005497 -0.013396 0.010553 0.089287
#
#
# Mechanical properties :
#
#
# Convention : Reuss Voigt Hill
#
# Bulk Modulus (GPa) = 29.81286 46.02046 37.91666
# Shear Modulus (GPa) = 21.38856 33.62956 27.50906
#
# Velocity S-wave (km/s) = 3.13287 3.92836 3.55295
# Velocity P-wave (km/s) = 5.17369 6.45709 5.85069
#
# Compressibility (1/GPa) = 0.03354258
#
# Stress axis : x y z
#
# Youngs Moduli (GPa) = 47.00272 104.86719 81.80138
#
# Poissons Ratio (x) = 0.53156 -0.24151
# Poissons Ratio (y) = 0.23825 0.21515
# Poissons Ratio (z) = -0.13877 0.27581
#
# Static dielectric constant tensor:
#      x y z
#    x 1.889860 0.002140 -0.023070 
#    y 0.002140 1.854910 0.006040 
#    z -0.023070 0.006040 1.800250 
# 
# From -- ./inp_files/538851.got.cif
#   From: 2010.05.17/outbox.cif.g08.bks.cpg/sg2_270_cif.got.tgz:538851.got - 2010.06.03 11:33:40.
