data_PCOD9093928
_publ_section_title
;
Structure prediction by ZEFSAII (Michael W. Deem and Ramdas Pophale) SiO2 
 PCOD9093928
Probable space group: P -1
;
_chemical_formula_sum "Si O2"
_cell_formula_units_Z 16
_cell_length_a 8.780054
_cell_length_b 10.429745
_cell_length_c 9.066540
_cell_angle_alpha 106.376211
_cell_angle_beta 66.656204
_cell_angle_gamma 110.242685
_cell_volume 705.029854
_symmetry_space_group_name_H-M "P -1"
_symmetry_group_IT_number 2
_symmetry_cell_setting 'triclinic'
loop_
_space_group_symop_operation_xyz
x,y,z
-x,-y,-z
loop_
_atom_site_type_symbol
_atom_site_label
_atom_site_fract_x
_atom_site_fract_y
_atom_site_fract_z
Si Si1 0.730432 0.951360 0.628387
Si Si2 0.675813 0.853245 0.131512
Si Si3 0.134261 0.253593 0.210841
Si Si4 0.638304 0.166537 0.239676
Si Si5 0.666896 0.204138 0.587708
Si Si6 0.035251 0.052124 0.726539
Si Si7 0.076883 0.582388 0.853023
Si Si8 0.042409 0.386280 0.552697
O O1 0.656169 0.044985 0.574585
O O2 0.859557 0.904546 0.452403
O O3 0.560883 0.847911 0.720907
O O4 0.841469 0.041589 0.745915
O O5 0.503087 0.775596 0.260629
O O6 0.670020 0.013354 0.160591
O O7 0.847352 0.858947 0.164646
O O8 0.709415 0.781010 0.945538
O O9 0.162336 0.319496 0.383852
O O10 0.994936 0.106314 0.253359
O O11 0.054319 0.351105 0.168471
O O12 0.668386 0.219247 0.415982
O O13 0.765225 0.284479 0.134518
O O14 0.850538 0.284851 0.612344
O O15 0.122019 0.465959 0.693306
O O16 0.000000 0.500000 0.000000
O O17 0.000000 0.500000 0.500000
#
# Coordination Sequence:
#
# PCOD9093928 Si02
#       8
#     2   2   2   2   2   2   2   2
#     4  10  20  33  61  98 134 159 217 258 331 388
#     4  11  21  36  68  99 132 162 212 269 339 379
#     4  11  22  41  64  98 128 171 209 270 324 386
#     4  11  19  41  65  95 133 173 214 265 331 387
#     4  11  18  39  64  97 126 182 209 264 319 397
#     4  11  19  34  59  99 132 167 197 265 328 389
#     4  11  24  43  70  93 122 177 229 264 308 390
#     4  10  20  41  67  88 123 179 221 252 317 394
#
# _framework density 22.694072999999999
#
# number of rings (size 3 to 8) (size 9 to 14) (size 15 to 20)
#    0.000    1.250    7.500    1.125    0.000    1.000 
#    2.250    3.750    0.000    1.500    0.000    0.000 
#    0.000    0.000    0.000    0.000    0.000    0.000 
#
# Total GULP energy -89247.014230 kJ/mol
# GULP energy per Si atom -5577.938389 kJ/mol
# Density = 2.264242 g / cm^3
# Si number density = 22.694073 Si / 1000 Ang^3
#
#
#
# Elastic Constant Matrix: (Units=GPa)
#
#
# Indices 1 2 3 4 5 6 
#
# 1 86.7373 20.8417 29.4401 -9.7526 -2.1436 8.4179
# 2 20.8417 88.6126 46.2710 -26.5741 -7.1881 3.6536
# 3 29.4401 46.2710 135.2797 -2.3025 -19.8911 -5.9708
# 4 -9.7526 -26.5741 -2.3025 42.2615 -3.8997 4.2683
# 5 -2.1436 -7.1881 -19.8911 -3.8997 31.3156 -10.6482
# 6 8.4179 3.6536 -5.9708 4.2683 -10.6482 23.6249
#
#
#
# Elastic Compliance Matrix: (Units=1/GPa)
#
#
# Indices 1 2 3 4 5 6 
#
# 1 0.013977 -0.000263 -0.003842 0.003324 -0.003949 -0.008291
# 2 -0.000263 0.018512 -0.006488 0.011852 -0.000758 -0.006892
# 3 -0.003842 -0.006488 0.012128 -0.004523 0.008875 0.010255
# 4 0.003324 0.011852 -0.004523 0.032692 0.000855 -0.009682
# 5 -0.003949 -0.000758 0.008875 0.000855 0.045422 0.024086
# 6 -0.008291 -0.006892 0.010255 -0.009682 0.024086 0.061545
#
#
# Mechanical properties :
#
#
# Convention : Reuss Voigt Hill
#
# Bulk Modulus (GPa) = 42.67941 55.97058 49.32499
# Shear Modulus (GPa) = 23.44407 33.71218 28.57812
#
# Velocity S-wave (km/s) = 3.21759 3.85841 3.55248
# Velocity P-wave (km/s) = 5.71412 6.67580 6.21359
#
# Compressibility (1/GPa) = 0.02343050
#
# Stress axis : x y z
#
# Youngs Moduli (GPa) = 71.54615 54.01839 82.45357
#
# Poissons Ratio (x) = 0.01421 0.31677
# Poissons Ratio (y) = 0.01882 0.53500
# Poissons Ratio (z) = 0.27486 0.35050
#
# Static dielectric constant tensor:
#      x y z
#    x 1.894160 -0.005040 -0.029380 
#    y -0.005040 1.953720 0.000360 
#    z -0.029380 0.000360 1.906680 
# 
# From -- ./inp_files/181346.got.cif
#   From: 2010.05.17/outbox.cif.g08.bks.cpg/sg2_91_cif.got.tgz:181346.got - 2010.06.03 11:33:40.
