data_PCOD9093348
_publ_section_title
;
Structure prediction by ZEFSAII (Michael W. Deem and Ramdas Pophale) SiO2 
 PCOD9093348
Probable space group: P -1
;
_chemical_formula_sum "Si O2"
_cell_formula_units_Z 15
_cell_length_a 8.332777
_cell_length_b 18.313603
_cell_length_c 8.654441
_cell_angle_alpha 40.601477
_cell_angle_beta 69.863454
_cell_angle_gamma 88.769542
_cell_volume 742.159123
_symmetry_space_group_name_H-M "P -1"
_symmetry_group_IT_number 2
_symmetry_cell_setting 'triclinic'
loop_
_space_group_symop_operation_xyz
x,y,z
-x,-y,-z
loop_
_atom_site_type_symbol
_atom_site_label
_atom_site_fract_x
_atom_site_fract_y
_atom_site_fract_z
Si Si1 0.371874 0.778867 0.640955
Si Si2 0.338356 0.171072 0.768586
Si Si3 0.841393 0.369432 0.789499
Si Si4 0.500000 0.000000 0.500000
Si Si5 0.080202 0.845516 0.034385
Si Si6 0.814698 0.111245 0.721685
Si Si7 0.872559 0.925138 0.519677
Si Si8 0.486982 0.225239 0.963370
O O1 0.554577 0.771736 0.515180
O O2 0.428739 0.884108 0.582065
O O3 0.265360 0.814359 0.481302
O O4 0.238184 0.657947 0.967149
O O5 0.128792 0.161683 0.868880
O O6 0.450621 0.235001 0.780284
O O7 0.318455 0.031227 0.001259
O O8 0.000000 0.500000 0.500000
O O9 0.919113 0.266363 0.884841
O O10 0.660521 0.337376 0.792037
O O11 0.485417 0.899216 0.806953
O O12 0.148214 0.843556 0.188319
O O13 0.198386 0.975033 0.696612
O O14 0.003350 0.110334 0.584579
O O15 0.707286 0.807633 0.828428
O O16 0.000000 0.000000 0.500000
#
# Coordination Sequence:
#
# PCOD9093348 Si02
#       8
#     2   2   2   1   2   2   2   2
#     4  11  23  37  64  89 128 164 208 251 319 376
#     4  11  22  37  61 104 132 159 194 254 327 395
#     4  11  27  47  64  84 119 172 229 267 301 359
#     4  10  20  32  56  94 116 166 192 250 300 384
#     4  11  24  39  62  93 138 161 204 260 318 379
#     4  11  22  34  60 100 142 158 189 246 331 400
#     4  11  18  35  61 102 134 161 189 250 323 392
#     4  11  21  36  65  87 132 160 213 247 317 370
#
# _framework density 20.211299
#
# number of rings (size 3 to 8) (size 9 to 14) (size 15 to 20)
#    0.000    1.067    4.000    5.200   11.200    0.000 
#    0.000    4.000    0.000    0.000    0.000    0.000 
#    0.000    0.000    0.000    0.000    0.000    0.000 
#
# Total GULP energy -83710.213255 kJ/mol
# GULP energy per Si atom -5580.680884 kJ/mol
# Density = 2.016530 g / cm^3
# Si number density = 20.211299 Si / 1000 Ang^3
#
#
#
# Elastic Constant Matrix: (Units=GPa)
#
#
# Indices 1 2 3 4 5 6 
#
# 1 73.8019 23.9521 33.0105 6.1461 -8.7205 21.1067
# 2 23.9521 66.5410 49.8177 27.4175 -13.9106 -2.0109
# 3 33.0105 49.8177 134.9105 13.0449 -38.5317 11.6963
# 4 6.1461 27.4175 13.0449 34.2906 3.7444 -3.2594
# 5 -8.7205 -13.9106 -38.5317 3.7444 35.9090 9.1885
# 6 21.1067 -2.0109 11.6963 -3.2594 9.1885 35.6231
#
#
#
# Elastic Compliance Matrix: (Units=1/GPa)
#
#
# Indices 1 2 3 4 5 6 
#
# 1 0.020420 -0.006529 0.000821 -0.000929 0.007162 -0.014670
# 2 -0.006529 0.033653 -0.008006 -0.022606 0.003853 0.005334
# 3 0.000821 -0.008006 0.016670 -0.003163 0.018233 -0.011404
# 4 -0.000929 -0.022606 -0.003163 0.051818 -0.020421 0.010321
# 5 0.007162 0.003853 0.018233 -0.020421 0.059759 -0.027295
# 6 -0.014670 0.005334 -0.011404 0.010321 -0.027295 0.048794
#
#
# Mechanical properties :
#
#
# Convention : Reuss Voigt Hill
#
# Bulk Modulus (GPa) = 23.08558 54.31266 38.69912
# Shear Modulus (GPa) = 18.31645 32.39609 25.35627
#
# Velocity S-wave (km/s) = 3.01366 4.00793 3.54582
# Velocity P-wave (km/s) = 4.85350 6.95333 5.99605
#
# Compressibility (1/GPa) = 0.04331708
#
# Stress axis : x y z
#
# Youngs Moduli (GPa) = 48.97098 29.71476 59.98926
#
# Poissons Ratio (x) = 0.19401 -0.04928
# Poissons Ratio (y) = 0.31973 0.48025
# Poissons Ratio (z) = -0.04023 0.23788
#
# Static dielectric constant tensor:
#      x y z
#    x 1.799510 -0.011310 -0.025320 
#    y -0.011310 1.682490 0.040760 
#    z -0.025320 0.040760 1.715770 
# 
# From -- ./inp_files/211628.got.cif
#   From: 2010.05.17/outbox.cif.g08.bks.cpg/sg2_106_cif.got.tgz:211628.got - 2010.06.03 11:33:40.
