data_PCOD9093837
_publ_section_title
;
Structure prediction by ZEFSAII (Michael W. Deem and Ramdas Pophale) SiO2 
 PCOD9093837
Probable space group: P -1
;
_chemical_formula_sum "Si O2"
_cell_formula_units_Z 16
_cell_length_a 13.052242
_cell_length_b 8.652491
_cell_length_c 14.358450
_cell_angle_alpha 99.701759
_cell_angle_beta 132.499598
_cell_angle_gamma 47.934443
_cell_volume 758.617457
_symmetry_space_group_name_H-M "P -1"
_symmetry_group_IT_number 2
_symmetry_cell_setting 'triclinic'
loop_
_space_group_symop_operation_xyz
x,y,z
-x,-y,-z
loop_
_atom_site_type_symbol
_atom_site_label
_atom_site_fract_x
_atom_site_fract_y
_atom_site_fract_z
Si Si1 0.704698 0.927064 0.091569
Si Si2 0.038395 0.376680 0.271653
Si Si3 0.780202 0.976986 0.823742
Si Si4 0.116252 0.679080 0.654224
Si Si5 0.976257 0.098387 0.875716
Si Si6 0.054989 0.841805 0.356456
Si Si7 0.282935 0.390696 0.558706
Si Si8 0.427507 0.661904 0.059865
O O1 0.889222 0.638498 0.159944
O O2 0.828277 0.940416 0.239837
O O3 0.500000 0.000000 0.000000
O O4 0.624264 0.115836 0.982083
O O5 0.904324 0.386941 0.264724
O O6 0.210647 0.313614 0.437889
O O7 0.145534 0.187835 0.235493
O O8 0.533228 0.151466 0.714456
O O9 0.799594 0.140431 0.817387
O O10 0.945766 0.832445 0.998733
O O11 0.109773 0.561434 0.554041
O O12 0.359722 0.528699 0.768515
O O13 0.970476 0.960166 0.600446
O O14 0.917634 0.184889 0.741822
O O15 0.199650 0.803836 0.973739
O O16 0.242843 0.583220 0.493992
O O17 0.500000 0.500000 0.000000
#
# Coordination Sequence:
#
# PCOD9093837 Si02
#       8
#     2   2   2   2   2   2   2   2
#     4  10  20  33  58  93 122 154 198 253 309 359
#     4  11  23  41  61  91 129 166 201 255 313 368
#     4  11  22  40  66  88 121 166 213 250 311 367
#     4  12  20  39  65  88 123 167 203 250 311 369
#     4  10  21  38  63  93 116 159 211 260 303 361
#     4  10  22  40  61  92 127 158 207 262 306 360
#     4  11  25  40  62  92 126 165 211 252 303 374
#     4  11  18  35  64  91 120 157 201 251 314 357
#
# _framework density 21.090997000000002
#
# number of rings (size 3 to 8) (size 9 to 14) (size 15 to 20)
#    0.000    1.250    6.250    1.125    0.000    0.500 
#    0.000    5.625    0.000    0.000    0.000    0.000 
#    0.000    0.000    0.000    0.000    0.000    0.000 
#
# Total GULP energy -89082.332745 kJ/mol
# GULP energy per Si atom -5567.645797 kJ/mol
# Density = 2.104299 g / cm^3
# Si number density = 21.090997 Si / 1000 Ang^3
#
#
#
# Elastic Constant Matrix: (Units=GPa)
#
#
# Indices 1 2 3 4 5 6 
#
# 1 64.8836 29.1908 18.2051 15.9361 -6.3708 -5.3276
# 2 29.1908 100.6720 39.5862 33.9946 -16.0874 -8.2012
# 3 18.2051 39.5862 86.3398 20.0412 -6.1387 -4.5103
# 4 15.9361 33.9946 20.0412 39.4874 -7.6086 -11.4716
# 5 -6.3708 -16.0874 -6.1387 -7.6086 37.4748 8.6282
# 6 -5.3276 -8.2012 -4.5103 -11.4716 8.6282 29.0829
#
#
#
# Elastic Compliance Matrix: (Units=1/GPa)
#
#
# Indices 1 2 3 4 5 6 
#
# 1 0.018309 -0.003467 -0.001410 -0.003391 0.000554 0.000656
# 2 -0.003467 0.016700 -0.004276 -0.010583 0.004193 -0.002007
# 3 -0.001410 -0.004276 0.014570 -0.003322 -0.000263 -0.000437
# 4 -0.003391 -0.010583 -0.003322 0.040974 -0.000126 0.012079
# 5 0.000554 0.004193 -0.000263 -0.000126 0.030305 -0.007797
# 6 0.000656 -0.002007 -0.000437 0.012079 -0.007797 0.040949
#
#
# Mechanical properties :
#
#
# Convention : Reuss Voigt Hill
#
# Bulk Modulus (GPa) = 31.97784 47.31773 39.64779
# Shear Modulus (GPa) = 26.24154 32.20324 29.22239
#
# Velocity S-wave (km/s) = 3.53116 3.91176 3.72632
# Velocity P-wave (km/s) = 5.64094 6.54876 6.11173
#
# Compressibility (1/GPa) = 0.03127166
#
# Stress axis : x y z
#
# Youngs Moduli (GPa) = 54.61833 59.87995 68.63631
#
# Poissons Ratio (x) = 0.20763 0.09677
# Poissons Ratio (y) = 0.18938 0.29349
# Poissons Ratio (z) = 0.07701 0.25605
#
# Static dielectric constant tensor:
#      x y z
#    x 1.814140 -0.012320 0.001450 
#    y -0.012320 1.768250 0.076420 
#    z 0.001450 0.076420 1.883720 
# 
# From -- ./inp_files/515127.got.cif
#   From: 2010.05.17/outbox.cif.g08.bks.cpg/sg2_258_cif.got.tgz:515127.got - 2010.06.03 11:33:40.
