data_PCOD9093706
_publ_section_title
;
Structure prediction by ZEFSAII (Michael W. Deem and Ramdas Pophale) SiO2 
 PCOD9093706
Probable space group: P -1
;
_chemical_formula_sum "Si O2"
_cell_formula_units_Z 16
_cell_length_a 11.914800
_cell_length_b 11.353227
_cell_length_c 12.231768
_cell_angle_alpha 99.686731
_cell_angle_beta 122.302593
_cell_angle_gamma 128.608447
_cell_volume 710.768952
_symmetry_space_group_name_H-M "P -1"
_symmetry_group_IT_number 2
_symmetry_cell_setting 'triclinic'
loop_
_space_group_symop_operation_xyz
x,y,z
-x,-y,-z
loop_
_atom_site_type_symbol
_atom_site_label
_atom_site_fract_x
_atom_site_fract_y
_atom_site_fract_z
Si Si1 0.734558 0.738748 0.225793
Si Si2 0.083071 0.671619 0.305777
Si Si3 0.714414 0.495565 0.932225
Si Si4 0.937162 0.536380 0.576111
Si Si5 0.327099 0.373279 0.256408
Si Si6 0.087446 0.217305 0.458292
Si Si7 0.457582 0.840298 0.358721
Si Si8 0.520988 0.720761 0.569072
O O1 0.579260 0.706484 0.221259
O O2 0.880754 0.764513 0.390076
O O3 0.500000 0.500000 0.000000
O O4 0.923930 0.975057 0.299287
O O5 0.959480 0.462110 0.267794
O O6 0.248477 0.757651 0.300394
O O7 0.308564 0.905419 0.531744
O O8 0.876141 0.603685 0.142263
O O9 0.803545 0.668986 0.923983
O O10 0.699006 0.361909 0.836572
O O11 0.021823 0.738260 0.628289
O O12 0.640531 0.331072 0.431582
O O13 0.000000 0.500000 0.500000
O O14 0.622938 0.576372 0.404067
O O15 0.335958 0.482828 0.370653
O O16 0.264300 0.197824 0.250868
O O17 0.587756 0.859686 0.525738
#
# Coordination Sequence:
#
# PCOD9093706 Si02
#       8
#     2   2   2   2   2   2   2   2
#     4  10  22  36  58  84 111 149 192 243 291 346
#     4  10  21  36  56  84 115 153 194 231 280 347
#     4  10  20  33  56  84 113 146 189 244 289 337
#     4  10  21  34  57  84 118 161 190 231 286 356
#     4   8  15  32  58  82 108 147 193 245 290 335
#     4   9  20  39  57  81 114 152 192 239 292 337
#     4   9  19  36  58  82 113 153 191 232 287 343
#     4   8  15  32  56  83 110 147 196 233 289 341
#
# _framework density 22.510832000000001
#
# number of rings (size 3 to 8) (size 9 to 14) (size 15 to 20)
#    0.000    2.750    0.000    0.375    3.500    3.000 
#    0.000    2.500    0.000   24.000    0.000    0.000 
#    0.000    0.000    0.000    0.000    0.000    0.000 
#
# Total GULP energy -89083.409452 kJ/mol
# GULP energy per Si atom -5567.713091 kJ/mol
# Density = 2.245960 g / cm^3
# Si number density = 22.510832 Si / 1000 Ang^3
#
#
#
# Elastic Constant Matrix: (Units=GPa)
#
#
# Indices 1 2 3 4 5 6 
#
# 1 85.9081 13.8341 6.1237 -0.0899 -2.2812 0.2956
# 2 13.8341 116.2378 45.0528 -8.9768 2.2608 -29.7255
# 3 6.1237 45.0528 73.6182 -6.2809 -0.6314 -16.0162
# 4 -0.0899 -8.9768 -6.2809 34.6793 -13.3844 4.5060
# 5 -2.2812 2.2608 -0.6314 -13.3844 21.1903 -8.7986
# 6 0.2956 -29.7255 -16.0162 4.5060 -8.7986 30.5226
#
#
#
# Elastic Compliance Matrix: (Units=1/GPa)
#
#
# Indices 1 2 3 4 5 6 
#
# 1 0.011974 -0.001785 -0.000284 0.000041 0.000753 -0.001792
# 2 -0.001785 0.014166 -0.005648 0.003009 0.004941 0.011830
# 3 -0.000284 -0.005648 0.018546 0.003294 0.005409 0.005306
# 4 0.000041 0.003009 0.003294 0.040111 0.027936 0.006790
# 5 0.000753 0.004941 0.005409 0.027936 0.074988 0.025135
# 6 -0.001792 0.011830 0.005306 0.006790 0.025135 0.053328
#
#
# Mechanical properties :
#
#
# Convention : Reuss Voigt Hill
#
# Bulk Modulus (GPa) = 34.18511 45.08727 39.63619
# Shear Modulus (GPa) = 20.98217 31.32868 26.15542
#
# Velocity S-wave (km/s) = 3.05633 3.73462 3.41237
# Velocity P-wave (km/s) = 5.26060 6.21845 5.75947
#
# Compressibility (1/GPa) = 0.02925250
#
# Stress axis : x y z
#
# Youngs Moduli (GPa) = 83.51291 70.59062 53.92105
#
# Poissons Ratio (x) = 0.12600 0.01529
# Poissons Ratio (y) = 0.14907 0.30456
# Poissons Ratio (z) = 0.02369 0.39871
#
# Static dielectric constant tensor:
#      x y z
#    x 1.882560 -0.016060 0.003510 
#    y -0.016060 1.946930 -0.023360 
#    z 0.003510 -0.023360 1.859220 
# 
# From -- ./inp_files/428433.got.cif
#   From: 2010.05.17/outbox.cif.g08.bks.cpg/sg2_215_cif.got.tgz:428433.got - 2010.06.03 11:33:40.
