data_PCOD9093847
_publ_section_title
;
Structure prediction by ZEFSAII (Michael W. Deem and Ramdas Pophale) SiO2 
 PCOD9093847
Probable space group: P -1
;
_chemical_formula_sum "Si O2"
_cell_formula_units_Z 16
_cell_length_a 13.719973
_cell_length_b 7.714654
_cell_length_c 7.911690
_cell_angle_alpha 106.976313
_cell_angle_beta 81.057750
_cell_angle_gamma 58.314649
_cell_volume 630.577023
_symmetry_space_group_name_H-M "P -1"
_symmetry_group_IT_number 2
_symmetry_cell_setting 'triclinic'
loop_
_space_group_symop_operation_xyz
x,y,z
-x,-y,-z
loop_
_atom_site_type_symbol
_atom_site_label
_atom_site_fract_x
_atom_site_fract_y
_atom_site_fract_z
Si Si1 0.102198 0.519386 0.616506
Si Si2 0.758715 0.010110 0.544381
Si Si3 0.510197 0.114177 0.702076
Si Si4 0.424555 0.324044 0.317841
Si Si5 0.281124 0.545501 0.776685
Si Si6 0.175210 0.679769 0.325953
Si Si7 0.288381 0.923633 0.822572
Si Si8 0.902421 0.573408 0.898050
O O1 0.164879 0.551288 0.768009
O O2 0.882540 0.352414 0.500422
O O3 0.969242 0.590954 0.722727
O O4 0.185373 0.246615 0.497942
O O5 0.614316 0.152193 0.672722
O O6 0.837468 0.090709 0.615562
O O7 0.753459 0.039800 0.351392
O O8 0.376725 0.350255 0.824320
O O9 0.500000 0.000000 0.500000
O O10 0.556502 0.913281 0.762474
O O11 0.361775 0.453001 0.551109
O O12 0.323029 0.493775 0.258723
O O13 0.563399 0.242863 0.249357
O O14 0.244294 0.791700 0.891134
O O15 0.121088 0.612615 0.177033
O O16 0.224480 0.176677 0.975163
O O17 0.000000 0.500000 0.000000
#
# Coordination Sequence:
#
# PCOD9093847 Si02
#       8
#     2   2   2   2   2   2   2   2
#     4  11  22  44  69  95 132 179 231 273 319 396
#     4  12  19  38  72 104 129 171 230 279 326 393
#     4  10  16  29  63 106 131 161 210 280 325 385
#     4  10  18  35  68  99 132 167 218 273 337 389
#     4  10  18  33  63 105 126 170 220 274 317 400
#     4  11  25  45  71 101 130 175 233 278 333 397
#     4  12  21  38  66 102 139 173 215 275 341 400
#     4  12  29  46  65  95 140 184 222 279 341 395
#
# _framework density 25.373584999999999
#
# number of rings (size 3 to 8) (size 9 to 14) (size 15 to 20)
#    0.000    1.000   10.000    1.500    0.000    1.500 
#    0.000    1.250    0.000    1.500    0.000    0.000 
#    0.000    0.000    0.000    0.000    0.000    0.000 
#
# Total GULP energy -89566.241342 kJ/mol
# GULP energy per Si atom -5597.890084 kJ/mol
# Density = 2.531583 g / cm^3
# Si number density = 25.373585 Si / 1000 Ang^3
#
#
#
# Elastic Constant Matrix: (Units=GPa)
#
#
# Indices 1 2 3 4 5 6 
#
# 1 161.2924 24.1174 40.0590 5.6745 8.0235 36.7015
# 2 24.1174 73.4363 3.8658 6.4169 9.7904 15.7791
# 3 40.0590 3.8658 50.4481 -12.6920 5.6734 -2.0900
# 4 5.6745 6.4169 -12.6920 13.6048 -0.2976 5.9130
# 5 8.0235 9.7904 5.6734 -0.2976 24.8058 12.3837
# 6 36.7015 15.7791 -2.0900 5.9130 12.3837 54.6152
#
#
#
# Elastic Compliance Matrix: (Units=1/GPa)
#
#
# Indices 1 2 3 4 5 6 
#
# 1 0.011567 -0.000765 -0.013172 -0.013520 0.003047 -0.007283
# 2 -0.000765 0.015796 -0.002313 -0.008423 -0.004452 -0.002216
# 3 -0.013172 -0.002313 0.042366 0.042265 -0.008217 0.008428
# 4 -0.013520 -0.008423 0.042265 0.122542 -0.000489 -0.000020
# 5 0.003047 -0.004452 -0.008217 -0.000489 0.049017 -0.012137
# 6 -0.007283 -0.002216 0.008428 -0.000020 -0.012137 0.026921
#
#
# Mechanical properties :
#
#
# Convention : Reuss Voigt Hill
#
# Bulk Modulus (GPa) = 26.86147 46.80679 36.83413
# Shear Modulus (GPa) = 15.96827 33.08082 24.52455
#
# Velocity S-wave (km/s) = 2.51136 3.61467 3.11229
# Velocity P-wave (km/s) = 4.36103 5.99234 5.24055
#
# Compressibility (1/GPa) = 0.03722804
#
# Stress axis : x y z
#
# Youngs Moduli (GPa) = 86.45118 63.30639 23.60395
#
# Poissons Ratio (x) = 0.04845 0.31092
# Poissons Ratio (y) = 0.06616 0.05460
# Poissons Ratio (z) = 1.13876 0.14643
#
# Static dielectric constant tensor:
#      x y z
#    x 1.982200 0.006470 0.010250 
#    y 0.006470 2.008470 -0.059890 
#    z 0.010250 -0.059890 2.100960 
# 
# From -- ./inp_files/415606.got.cif
#   From: 2010.05.17/outbox.cif.g08.bks.cpg/sg2_208_cif.got.tgz:415606.got - 2010.06.03 11:33:40.
