data_PCOD9093496
_publ_section_title
;
Structure prediction by ZEFSAII (Michael W. Deem and Ramdas Pophale) SiO2 
 PCOD9093496
Probable space group: P -1
;
_chemical_formula_sum "Si O2"
_cell_formula_units_Z 14
_cell_length_a 15.481370
_cell_length_b 15.901491
_cell_length_c 11.560650
_cell_angle_alpha 50.299257
_cell_angle_beta 127.704755
_cell_angle_gamma 161.922239
_cell_volume 679.355295
_symmetry_space_group_name_H-M "P -1"
_symmetry_group_IT_number 2
_symmetry_cell_setting 'triclinic'
loop_
_space_group_symop_operation_xyz
x,y,z
-x,-y,-z
loop_
_atom_site_type_symbol
_atom_site_label
_atom_site_fract_x
_atom_site_fract_y
_atom_site_fract_z
Si Si1 0.766579 0.541171 0.622260
Si Si2 0.446666 0.561580 0.214746
Si Si3 0.139220 0.466093 0.936576
Si Si4 0.321914 0.975116 0.640899
Si Si5 0.542601 0.979694 0.933107
Si Si6 0.218498 0.725089 0.580528
Si Si7 0.992603 0.010376 0.623777
O O1 0.648166 0.477306 0.702939
O O2 0.518439 0.256969 0.594697
O O3 0.916386 0.780745 0.468712
O O4 0.039496 0.717339 0.712576
O O5 0.774816 0.848125 0.245799
O O6 0.315222 0.517071 0.047031
O O7 0.305453 0.312344 0.303705
O O8 0.197867 0.599415 0.758352
O O9 0.813343 0.157949 0.969256
O O10 0.271281 0.657869 0.979177
O O11 0.530079 0.066082 0.755413
O O12 0.193901 0.816378 0.552981
O O13 0.500000 0.000000 0.000000
O O14 0.000000 0.500000 0.500000
O O15 0.500000 0.000000 0.500000
O O16 0.000000 0.000000 0.500000
#
# Coordination Sequence:
#
# PCOD9093496 Si02
#       7
#     2   2   2   2   2   2   2
#     4  11  19  33  52  81 114 145 178 216 259 325
#     4  11  20  34  53  81 116 150 180 215 258 321
#     4  11  22  35  55  80 106 146 187 219 272 330
#     4  11  21  33  54  79 104 142 182 219 275 327
#     4  11  20  33  49  79 117 145 170 213 264 334
#     4  11  23  41  58  78 106 138 186 244 284 328
#     4  10  20  33  51  78 115 154 183 212 253 309
#
# _framework density 20.607775
#
# number of rings (size 3 to 8) (size 9 to 14) (size 15 to 20)
#    0.000    1.143    0.000   11.571    0.000    0.000 
#    0.000    0.000    0.000    0.000    0.000   20.000 
#    0.000    0.000    0.000    0.000    0.000    0.000 
#
# Total GULP energy -77973.443366 kJ/mol
# GULP energy per Si atom -5569.531669 kJ/mol
# Density = 2.056087 g / cm^3
# Si number density = 20.607775 Si / 1000 Ang^3
#
#
#
# Elastic Constant Matrix: (Units=GPa)
#
#
# Indices 1 2 3 4 5 6 
#
# 1 31.9565 30.8804 14.0691 -4.1050 -1.8942 -8.4458
# 2 30.8804 145.2705 28.0528 13.1173 -3.3004 -18.2923
# 3 14.0691 28.0528 86.9824 5.0555 6.8046 -9.7727
# 4 -4.1050 13.1173 5.0555 27.5974 3.0430 11.1536
# 5 -1.8942 -3.3004 6.8046 3.0430 25.4249 -0.1893
# 6 -8.4458 -18.2923 -9.7727 11.1536 -0.1893 43.6348
#
#
#
# Elastic Compliance Matrix: (Units=1/GPa)
#
#
# Indices 1 2 3 4 5 6 
#
# 1 0.044261 -0.009375 -0.004890 0.011462 0.002022 0.000621
# 2 -0.009375 0.010410 -0.001023 -0.008152 0.001935 0.004412
# 3 -0.004890 -0.001023 0.013368 -0.003272 -0.003665 0.002439
# 4 0.011462 -0.008152 -0.003272 0.048831 -0.005280 -0.014436
# 5 0.002022 0.001935 -0.003665 -0.005280 0.041360 0.001911
# 6 0.000621 0.004412 0.002439 -0.014436 0.001911 0.029132
#
#
# Mechanical properties :
#
#
# Convention : Reuss Voigt Hill
#
# Bulk Modulus (GPa) = 26.69290 45.57932 36.13611
# Shear Modulus (GPa) = 21.69891 32.07856 26.88873
#
# Velocity S-wave (km/s) = 3.24844 3.94969 3.61610
# Velocity P-wave (km/s) = 5.20103 6.55481 5.91677
#
# Compressibility (1/GPa) = 0.03746315
#
# Stress axis : x y z
#
# Youngs Moduli (GPa) = 22.59314 96.06404 74.80382
#
# Poissons Ratio (x) = 0.90063 0.36580
# Poissons Ratio (y) = 0.21182 0.07650
# Poissons Ratio (z) = 0.11048 0.09825
#
# Static dielectric constant tensor:
#      x y z
#    x 1.773660 0.041260 0.083360 
#    y 0.041260 1.660080 -0.026770 
#    z 0.083360 -0.026770 1.856720 
# 
# From -- ./inp_files/432891.got.cif
#   From: 2010.05.17/outbox.cif.g08.bks.cpg/sg2_217_cif.got.tgz:432891.got - 2010.06.03 11:33:40.
