data_PCOD9093112
_publ_section_title
;
Structure prediction by ZEFSAII (Michael W. Deem and Ramdas Pophale) SiO2 
 PCOD9093112
Probable space group: P -1
;
_chemical_formula_sum "Si O2"
_cell_formula_units_Z 15
_cell_length_a 12.253418
_cell_length_b 5.746396
_cell_length_c 9.159885
_cell_angle_alpha 99.406178
_cell_angle_beta 67.878865
_cell_angle_gamma 101.763797
_cell_volume 582.272107
_symmetry_space_group_name_H-M "P -1"
_symmetry_group_IT_number 2
_symmetry_cell_setting 'triclinic'
loop_
_space_group_symop_operation_xyz
x,y,z
-x,-y,-z
loop_
_atom_site_type_symbol
_atom_site_label
_atom_site_fract_x
_atom_site_fract_y
_atom_site_fract_z
Si Si1 0.102281 0.627336 0.115961
Si Si2 0.000000 0.000000 0.000000
Si Si3 0.826471 0.929174 0.717338
Si Si4 0.365430 0.274202 0.441242
Si Si5 0.044016 0.692318 0.620169
Si Si6 0.752344 0.742911 0.057057
Si Si7 0.507966 0.432108 0.820709
Si Si8 0.326966 0.769963 0.488741
O O1 0.203991 0.512596 0.972249
O O2 0.010806 0.407925 0.207428
O O3 0.031133 0.792637 0.075425
O O4 0.166403 0.790560 0.230574
O O5 0.145569 0.072135 0.900578
O O6 0.755431 0.812593 0.602088
O O7 0.766851 0.802744 0.881340
O O8 0.964626 0.894848 0.647240
O O9 0.465910 0.333847 0.271523
O O10 0.357971 0.537501 0.537900
O O11 0.376967 0.049468 0.513217
O O12 0.184624 0.746244 0.558798
O O13 0.000000 0.500000 0.500000
O O14 0.617578 0.726723 0.167508
O O15 0.614838 0.292607 0.702778
O O16 0.500000 0.500000 0.000000
#
# Coordination Sequence:
#
# PCOD9093112 Si02
#       8
#     2   1   2   2   2   2   2   2
#     4  10  23  36  62  88 123 162 212 270 316 374
#     4  10  22  42  64  90 120 158 222 264 322 362
#     4  10  20  31  55  86 119 166 205 255 315 370
#     4  10  21  35  51  83 126 168 202 243 303 381
#     4  11  20  35  55  86 129 167 210 254 320 383
#     4  10  20  40  59  91 117 162 208 266 313 372
#     4  10  21  36  56  89 127 169 207 251 319 385
#     4  10  23  35  52  82 125 169 207 247 304 382
#
# _framework density 25.761151999999999
#
# number of rings (size 3 to 8) (size 9 to 14) (size 15 to 20)
#    0.800    1.067    2.667    1.200    7.467    3.733 
#    0.000    0.000    0.000    0.800    0.000   10.267 
#    0.000    0.000    0.000    0.000    0.000    0.000 
#
# Total GULP energy -83573.180024 kJ/mol
# GULP energy per Si atom -5571.545335 kJ/mol
# Density = 2.570252 g / cm^3
# Si number density = 25.761152 Si / 1000 Ang^3
#
#
#
# Elastic Constant Matrix: (Units=GPa)
#
#
# Indices 1 2 3 4 5 6 
#
# 1 135.0638 35.1395 58.4798 -13.8134 -24.5453 3.4324
# 2 35.1395 122.6526 31.1202 -21.5521 0.7770 3.9480
# 3 58.4798 31.1202 100.7304 7.1748 -16.0299 3.0468
# 4 -13.8134 -21.5521 7.1748 43.6399 5.7474 1.1531
# 5 -24.5453 0.7770 -16.0299 5.7474 52.5151 -9.6681
# 6 3.4324 3.9480 3.0468 1.1531 -9.6681 24.9753
#
#
#
# Elastic Compliance Matrix: (Units=1/GPa)
#
#
# Indices 1 2 3 4 5 6 
#
# 1 0.011170 -0.001113 -0.005909 0.003536 0.003122 0.000407
# 2 -0.001113 0.010437 -0.003359 0.005785 -0.002780 -0.002430
# 3 -0.005909 -0.003359 0.015276 -0.006434 0.002814 0.000866
# 4 0.003536 0.005785 -0.006434 0.028593 -0.004181 -0.003554
# 5 0.003122 -0.002780 0.002814 -0.004181 0.023509 0.008961
# 6 0.000407 -0.002430 0.000866 -0.003554 0.008961 0.043895
#
#
# Mechanical properties :
#
#
# Convention : Reuss Voigt Hill
#
# Bulk Modulus (GPa) = 62.02997 67.54729 64.78863
# Shear Modulus (GPa) = 31.44369 39.80654 35.62512
#
# Velocity S-wave (km/s) = 3.49748 3.93519 3.72277
# Velocity P-wave (km/s) = 6.35932 6.85019 6.60932
#
# Compressibility (1/GPa) = 0.01612124
#
# Stress axis : x y z
#
# Youngs Moduli (GPa) = 89.52319 95.81693 65.46368
#
# Poissons Ratio (x) = 0.10661 0.38680
# Poissons Ratio (y) = 0.09961 0.21992
# Poissons Ratio (z) = 0.52896 0.32188
#
# Static dielectric constant tensor:
#      x y z
#    x 2.035680 0.117210 0.170910 
#    y 0.117210 2.350020 0.260660 
#    z 0.170910 0.260660 2.332160 
# 
# From -- ./inp_files/366384.got.cif
#   From: 2010.05.17/outbox.cif.g08.bks.cpg/sg2_184_cif.got.tgz:366384.got - 2010.06.03 11:33:40.
