data_PCOD9093948
_publ_section_title
;
Structure prediction by ZEFSAII (Michael W. Deem and Ramdas Pophale) SiO2 
 PCOD9093948
Probable space group: P -1
;
_chemical_formula_sum "Si O2"
_cell_formula_units_Z 16
_cell_length_a 14.419607
_cell_length_b 14.739006
_cell_length_c 11.956707
_cell_angle_alpha 152.289330
_cell_angle_beta 138.762319
_cell_angle_gamma 35.141688
_cell_volume 676.421891
_symmetry_space_group_name_H-M "P -1"
_symmetry_group_IT_number 2
_symmetry_cell_setting 'triclinic'
loop_
_space_group_symop_operation_xyz
x,y,z
-x,-y,-z
loop_
_atom_site_type_symbol
_atom_site_label
_atom_site_fract_x
_atom_site_fract_y
_atom_site_fract_z
Si Si1 0.613659 0.539934 0.336060
Si Si2 0.179733 0.963889 0.647911
Si Si3 0.820135 0.043433 0.899105
Si Si4 0.319323 0.505705 0.402356
Si Si5 0.309758 0.204999 0.885846
Si Si6 0.598628 0.019679 0.504685
Si Si7 0.974449 0.553040 0.870957
Si Si8 0.904756 0.638793 0.671420
O O1 0.587043 0.530248 0.434596
O O2 0.475423 0.732486 0.345740
O O3 0.756890 0.600577 0.523534
O O4 0.686856 0.297343 0.081585
O O5 0.286831 0.725129 0.543432
O O6 0.270088 0.011374 0.679165
O O7 0.000000 0.000000 0.500000
O O8 0.138329 0.182309 0.922385
O O9 0.767985 0.962547 0.652689
O O10 0.830791 0.896616 0.855421
O O11 0.000000 0.000000 0.000000
O O12 0.139486 0.554531 0.329554
O O13 0.386280 0.287954 0.142853
O O14 0.133893 0.425722 0.949685
O O15 0.391725 0.131425 0.758384
O O16 0.500000 0.000000 0.500000
O O17 0.025872 0.546951 0.783910
O O18 0.000000 0.500000 0.500000
#
# Coordination Sequence:
#
# PCOD9093948 Si02
#       8
#     2   2   2   2   2   2   2   2
#     4  11  25  46  70 100 146 188 234 296 356 424
#     4  11  18  37  61 102 139 171 226 295 355 397
#     4  12  25  45  74 105 135 186 247 296 347 417
#     4  10  21  41  67 100 138 181 230 297 354 416
#     4  11  23  40  67 102 139 188 235 280 355 429
#     4  12  28  51  71 100 153 195 233 290 361 430
#     4  10  20  33  62  99 141 171 225 293 348 416
#     4  11  21  39  65 102 138 185 233 288 349 413
#
# _framework density 23.653877000000001
#
# number of rings (size 3 to 8) (size 9 to 14) (size 15 to 20)
#    0.000    1.000    5.000    2.625    1.750    1.500 
#    4.500    0.625    0.000    0.000    0.000    0.000 
#    0.000    0.000    0.000    0.000    0.000    0.000 
#
# Total GULP energy -89434.323644 kJ/mol
# GULP energy per Si atom -5589.645228 kJ/mol
# Density = 2.360004 g / cm^3
# Si number density = 23.653877 Si / 1000 Ang^3
#
#
#
# Elastic Constant Matrix: (Units=GPa)
#
#
# Indices 1 2 3 4 5 6 
#
# 1 114.2460 39.5387 40.3938 1.1183 -15.9358 30.0318
# 2 39.5387 115.5761 37.9955 2.3300 -0.0443 29.9404
# 3 40.3938 37.9955 82.7077 16.6972 -11.4532 16.8693
# 4 1.1183 2.3300 16.6972 45.2218 6.4772 2.7165
# 5 -15.9358 -0.0443 -11.4532 6.4772 44.8690 0.8213
# 6 30.0318 29.9404 16.8693 2.7165 0.8213 42.2463
#
#
#
# Elastic Compliance Matrix: (Units=1/GPa)
#
#
# Indices 1 2 3 4 5 6 
#
# 1 0.012904 -0.001360 -0.004050 0.001149 0.003505 -0.006733
# 2 -0.001360 0.011997 -0.004179 0.001552 -0.001653 -0.005934
# 3 -0.004050 -0.004179 0.018191 -0.006942 0.004222 -0.001059
# 4 0.001149 0.001552 -0.006942 0.025326 -0.005006 -0.000676
# 5 0.003505 -0.001653 0.004222 -0.005006 0.025389 -0.003178
# 6 -0.006733 -0.005934 -0.001059 -0.000676 -0.003178 0.033191
#
#
# Mechanical properties :
#
#
# Convention : Reuss Voigt Hill
#
# Bulk Modulus (GPa) = 41.81924 60.93175 51.37549
# Shear Modulus (GPa) = 32.43672 39.44087 35.93880
#
# Velocity S-wave (km/s) = 3.70713 4.08783 3.90213
# Velocity P-wave (km/s) = 6.00348 6.93514 6.48606
#
# Compressibility (1/GPa) = 0.02391244
#
# Stress axis : x y z
#
# Youngs Moduli (GPa) = 77.49796 83.35541 54.97304
#
# Poissons Ratio (x) = 0.11339 0.22266
# Poissons Ratio (y) = 0.10542 0.22972
# Poissons Ratio (z) = 0.31389 0.34832
#
# Static dielectric constant tensor:
#      x y z
#    x 1.947780 0.025090 -0.026390 
#    y 0.025090 1.928350 -0.013600 
#    z -0.026390 -0.013600 1.929760 
# 
# From -- ./inp_files/456057.got.cif
#   From: 2010.05.17/outbox.cif.g08.bks.cpg/sg2_229_cif.got.tgz:456057.got - 2010.06.03 11:33:40.
