data_PCOD9093838
_publ_section_title
;
Structure prediction by ZEFSAII (Michael W. Deem and Ramdas Pophale) SiO2 
 PCOD9093838
Probable space group: P -1
;
_chemical_formula_sum "Si O2"
_cell_formula_units_Z 16
_cell_length_a 18.799536
_cell_length_b 12.590850
_cell_length_c 25.713794
_cell_angle_alpha 27.310907
_cell_angle_beta 16.402193
_cell_angle_gamma 26.000855
_cell_volume 736.222906
_symmetry_space_group_name_H-M "P -1"
_symmetry_group_IT_number 2
_symmetry_cell_setting 'triclinic'
loop_
_space_group_symop_operation_xyz
x,y,z
-x,-y,-z
loop_
_atom_site_type_symbol
_atom_site_label
_atom_site_fract_x
_atom_site_fract_y
_atom_site_fract_z
Si Si1 0.821021 0.909876 0.723774
Si Si2 0.193781 0.157701 0.633374
Si Si3 0.539943 0.615291 0.117897
Si Si4 0.721221 0.723388 0.593888
Si Si5 0.187611 0.589664 0.524455
Si Si6 0.285173 0.584593 0.716813
Si Si7 0.928953 0.996440 0.399370
Si Si8 0.039368 0.715330 0.947661
O O1 0.078530 0.895966 0.584964
O O2 0.917596 0.743583 0.677535
O O3 0.701477 0.197965 0.666087
O O4 0.648275 0.795473 0.930334
O O5 0.215308 0.162780 0.553722
O O6 0.139876 0.418675 0.586892
O O7 0.500000 0.000000 0.500000
O O8 0.019762 0.998631 0.845267
O O9 0.507585 0.390547 0.204990
O O10 0.745273 0.472619 0.081821
O O11 0.234007 0.790361 0.271898
O O12 0.000000 0.500000 0.500000
O O13 0.710866 0.879547 0.584987
O O14 0.408662 0.435761 0.478772
O O15 0.159563 0.649821 0.833905
O O16 0.119010 0.793365 0.701784
O O17 0.235012 0.341384 0.836739
#
# Coordination Sequence:
#
# PCOD9093838 Si02
#       8
#     2   2   2   2   2   2   2   2
#     4  11  25  43  63  86 124 173 203 250 303 373
#     4  12  20  38  64  90 123 159 201 250 307 365
#     4  11  22  38  61  92 125 157 210 253 306 362
#     4  10  20  33  58  94 119 151 192 259 308 349
#     4  11  25  44  62  86 125 169 209 242 312 374
#     4  11  22  36  61  97 122 154 202 261 306 355
#     4  11  21  37  64  94 124 155 205 259 304 358
#     4  11  22  35  61  97 122 156 199 256 312 350
#
# _framework density 21.732548999999999
#
# number of rings (size 3 to 8) (size 9 to 14) (size 15 to 20)
#    0.000    1.000    5.000    2.625    3.500    0.500 
#    0.000    1.875    0.000    6.000    0.000    0.000 
#    0.000    0.000    0.000    0.000    0.000    0.000 
#
# Total GULP energy -89195.313643 kJ/mol
# GULP energy per Si atom -5574.707103 kJ/mol
# Density = 2.168308 g / cm^3
# Si number density = 21.732549 Si / 1000 Ang^3
#
#
#
# Elastic Constant Matrix: (Units=GPa)
#
#
# Indices 1 2 3 4 5 6 
#
# 1 95.4452 25.2190 13.9055 -13.1407 -6.6116 -6.1011
# 2 25.2190 68.6259 23.0968 -23.1433 3.5842 11.9844
# 3 13.9055 23.0968 47.6923 -31.3909 -12.4974 7.3267
# 4 -13.1407 -23.1433 -31.3909 30.8482 5.6295 -3.6234
# 5 -6.6116 3.5842 -12.4974 5.6295 31.7939 -13.2078
# 6 -6.1011 11.9844 7.3267 -3.6234 -13.2078 51.5842
#
#
#
# Elastic Compliance Matrix: (Units=1/GPa)
#
#
# Indices 1 2 3 4 5 6 
#
# 1 0.012577 -0.005207 0.000565 0.001618 0.004781 0.003955
# 2 -0.005207 0.023970 -0.001806 0.014917 -0.010254 -0.007506
# 3 0.000565 -0.001806 0.070347 0.067517 0.015711 -0.000740
# 4 0.001618 0.014917 0.067517 0.111850 0.003704 -0.004059
# 5 0.004781 -0.010254 0.015711 0.003704 0.044233 0.012302
# 6 0.003955 -0.007506 -0.000740 -0.004059 0.012302 0.024567
#
#
# Mechanical properties :
#
#
# Convention : Reuss Voigt Hill
#
# Bulk Modulus (GPa) = 10.63838 37.35623 23.99731
# Shear Modulus (GPa) = 15.07056 32.81472 23.94264
#
# Velocity S-wave (km/s) = 2.63621 3.89000 3.32278
# Velocity P-wave (km/s) = 3.76456 6.11576 5.07811
#
# Compressibility (1/GPa) = 0.09399927
#
# Stress axis : x y z
#
# Youngs Moduli (GPa) = 79.50736 41.71913 14.21517
#
# Poissons Ratio (x) = 0.21722 -0.00803
# Poissons Ratio (y) = 0.41397 0.02567
# Poissons Ratio (z) = -0.04489 0.07533
#
# Static dielectric constant tensor:
#      x y z
#    x 1.816050 0.039870 -0.038420 
#    y 0.039870 1.848550 -0.064710 
#    z -0.038420 -0.064710 1.838660 
# 
# From -- ./inp_files/613078.got.cif
#   From: 2010.05.17/outbox.cif.g08.bks.cpg/sg2_307_cif.got.tgz:613078.got - 2010.06.03 11:33:40.
