data_PCOD9093299
_publ_section_title
;
Structure prediction by ZEFSAII (Michael W. Deem and Ramdas Pophale) SiO2 
 PCOD9093299
Probable space group: P -1
;
_chemical_formula_sum "Si O2"
_cell_formula_units_Z 14
_cell_length_a 12.370511
_cell_length_b 5.033693
_cell_length_c 14.154986
_cell_angle_alpha 70.144979
_cell_angle_beta 105.217520
_cell_angle_gamma 93.207010
_cell_volume 799.421394
_symmetry_space_group_name_H-M "P -1"
_symmetry_group_IT_number 2
_symmetry_cell_setting 'triclinic'
loop_
_space_group_symop_operation_xyz
x,y,z
-x,-y,-z
loop_
_atom_site_type_symbol
_atom_site_label
_atom_site_fract_x
_atom_site_fract_y
_atom_site_fract_z
Si Si1 0.106629 0.801938 0.578501
Si Si2 0.455502 0.615400 0.576267
Si Si3 0.079579 0.259706 0.000448
Si Si4 0.325443 0.154453 0.397195
Si Si5 0.016076 0.512237 0.774472
Si Si6 0.759912 0.658267 0.451133
Si Si7 0.860608 0.991652 0.773468
O O1 0.155654 0.595933 0.532373
O O2 0.072193 0.599340 0.679760
O O3 0.195265 0.035325 0.600511
O O4 0.000000 0.000000 0.500000
O O5 0.500000 0.500000 0.500000
O O6 0.571981 0.680161 0.646020
O O7 0.361381 0.405606 0.613931
O O8 0.386286 0.905216 0.502474
O O9 0.103653 0.375512 0.887603
O O10 0.165879 0.149371 0.113526
O O11 0.000000 0.500000 0.000000
O O12 0.000000 0.000000 0.000000
O O13 0.257387 0.333441 0.439962
O O14 0.244564 0.025019 0.317666
O O15 0.957630 0.793018 0.771547
O O16 0.917148 0.291009 0.764739
#
# Coordination Sequence:
#
# PCOD9093299 Si02
#       7
#     2   2   2   2   2   2   2
#     4  12  24  33  49  74 106 147 182 201 239 304
#     4   9  20  35  53  72 104 132 170 216 265 305
#     4   8  16  33  50  71  99 130 168 210 258 295
#     4  10  20  34  54  78 101 132 172 217 264 305
#     4  10  21  34  49  75 107 139 171 208 243 303
#     4  11  22  37  49  71 107 142 172 210 248 302
#     4  10  20  32  55  76 101 134 167 214 261 300
#
# _framework density 17.512664999999998
#
# number of rings (size 3 to 8) (size 9 to 14) (size 15 to 20)
#    0.000    2.000    1.429    2.143    6.000    0.000 
#    0.000    0.000    0.000    0.000    0.000    2.000 
#    0.000    0.571    0.000    0.000    0.000    0.000 
#
# Total GULP energy -77993.331657 kJ/mol
# GULP energy per Si atom -5570.952261 kJ/mol
# Density = 1.747281 g / cm^3
# Si number density = 17.512665 Si / 1000 Ang^3
#
#
#
# Elastic Constant Matrix: (Units=GPa)
#
#
# Indices 1 2 3 4 5 6 
#
# 1 63.0899 13.6442 41.6464 -2.4907 -9.5096 6.3846
# 2 13.6442 91.5714 17.0779 -2.3749 -8.1315 -8.2854
# 3 41.6464 17.0779 99.0053 -0.6733 -7.1055 8.2981
# 4 -2.4907 -2.3749 -0.6733 19.7330 4.2785 -3.6769
# 5 -9.5096 -8.1315 -7.1055 4.2785 9.0481 1.5885
# 6 6.3846 -8.2854 8.2981 -3.6769 1.5885 39.3648
#
#
#
# Elastic Compliance Matrix: (Units=1/GPa)
#
#
# Indices 1 2 3 4 5 6 
#
# 1 0.025099 -0.000654 -0.008690 -0.002328 0.020669 -0.003428
# 2 -0.000654 0.012305 -0.001436 -0.000070 0.008813 0.002637
# 3 -0.008690 -0.001436 0.014312 -0.001602 0.001948 -0.002138
# 4 -0.002328 -0.000070 -0.001602 0.058860 -0.032922 0.007527
# 5 0.020669 0.008813 0.001948 -0.032922 0.159264 -0.011410
# 6 -0.003428 0.002637 -0.002138 0.007527 -0.011410 0.028129
#
#
# Mechanical properties :
#
#
# Convention : Reuss Voigt Hill
#
# Bulk Modulus (GPa) = 33.16241 44.26707 38.71474
# Shear Modulus (GPa) = 15.17074 25.71571 20.44323
#
# Velocity S-wave (km/s) = 2.94644 3.83614 3.42034
# Velocity P-wave (km/s) = 5.52745 6.70472 6.14435
#
# Compressibility (1/GPa) = 0.03015462
#
# Stress axis : x y z
#
# Youngs Moduli (GPa) = 39.84258 81.26675 69.87262
#
# Poissons Ratio (x) = 0.05317 0.60719
# Poissons Ratio (y) = 0.02607 0.10036
# Poissons Ratio (z) = 0.34623 0.11673
#
# Static dielectric constant tensor:
#      x y z
#    x 1.644880 0.014980 0.013250 
#    y 0.014980 1.662130 -0.003080 
#    z 0.013250 -0.003080 1.656260 
# 
# From -- ./inp_files/509699.got.cif
#   From: 2010.05.17/outbox.cif.g08.bks.cpg/sg2_255_cif.got.tgz:509699.got - 2010.06.03 11:33:40.
