data_PCOD9093538
_publ_section_title
;
Structure prediction by ZEFSAII (Michael W. Deem and Ramdas Pophale) SiO2 
 PCOD9093538
Probable space group: P -1
;
_chemical_formula_sum "Si O2"
_cell_formula_units_Z 16
_cell_length_a 8.190288
_cell_length_b 15.203012
_cell_length_c 13.742822
_cell_angle_alpha 47.193270
_cell_angle_beta 81.951444
_cell_angle_gamma 42.502333
_cell_volume 581.281509
_symmetry_space_group_name_H-M "P -1"
_symmetry_group_IT_number 2
_symmetry_cell_setting 'triclinic'
loop_
_space_group_symop_operation_xyz
x,y,z
-x,-y,-z
loop_
_atom_site_type_symbol
_atom_site_label
_atom_site_fract_x
_atom_site_fract_y
_atom_site_fract_z
Si Si1 0.703854 0.705240 0.598770
Si Si2 0.585741 0.599203 0.207746
Si Si3 0.351113 0.823623 0.266102
Si Si4 0.107764 0.831263 0.451324
Si Si5 0.633990 0.046470 0.168911
Si Si6 0.996041 0.163991 0.208058
Si Si7 0.131451 0.508155 0.063884
Si Si8 0.811472 0.747955 0.233218
O O1 0.359416 0.975152 0.371837
O O2 0.028812 0.587918 0.668527
O O3 0.858488 0.498554 0.675478
O O4 0.633251 0.702296 0.714671
O O5 0.364519 0.762330 0.202616
O O6 0.673095 0.404571 0.327462
O O7 0.406494 0.796286 0.993276
O O8 0.339821 0.722776 0.419513
O O9 0.050345 0.098891 0.137293
O O10 0.665886 0.718269 0.314304
O O11 0.981697 0.039368 0.347981
O O12 0.782319 0.973525 0.318221
O O13 0.253482 0.228648 0.051224
O O14 0.879393 0.802820 0.268301
O O15 0.752730 0.437736 0.028641
O O16 0.000000 0.500000 0.000000
O O17 0.500000 0.000000 0.000000
#
# Coordination Sequence:
#
# PCOD9093538 Si02
#       8
#     2   2   2   2   2   2   2   2
#     4  10  22  36  64  88 116 155 193 249 295 346
#     4  10  20  33  52  86 119 160 192 224 283 353
#     4   9  19  33  50  84 123 153 192 225 280 350
#     4  10  23  35  52  85 131 157 190 227 292 366
#     4  11  21  37  60  86 120 157 193 244 294 347
#     4  10  22  39  56  87 120 154 197 236 293 349
#     4  11  23  43  67  87 108 147 210 260 294 338
#     4  11  17  36  59  90 123 154 202 237 288 350
#
# _framework density 27.525388
#
# number of rings (size 3 to 8) (size 9 to 14) (size 15 to 20)
#    0.750    1.000    5.000    1.125    1.750    3.000 
#    0.000    0.625    0.000    3.750    0.000    0.000 
#    0.000    0.000    0.000    0.000    0.000    0.000 
#
# Total GULP energy -89460.408427 kJ/mol
# GULP energy per Si atom -5591.275527 kJ/mol
# Density = 2.746274 g / cm^3
# Si number density = 27.525388 Si / 1000 Ang^3
#
#
#
# Elastic Constant Matrix: (Units=GPa)
#
#
# Indices 1 2 3 4 5 6 
#
# 1 118.1826 18.7351 26.8277 1.1013 -25.9802 7.4348
# 2 18.7351 82.7034 16.5584 2.7775 -17.4113 4.9392
# 3 26.8277 16.5584 135.2960 2.8044 -29.5727 -0.2914
# 4 1.1013 2.7775 2.8044 24.3945 3.6923 -7.8591
# 5 -25.9802 -17.4113 -29.5727 3.6923 58.2880 -8.6957
# 6 7.4348 4.9392 -0.2914 -7.8591 -8.6957 39.9027
#
#
#
# Elastic Compliance Matrix: (Units=1/GPa)
#
#
# Indices 1 2 3 4 5 6 
#
# 1 0.009700 -0.001183 -0.001028 -0.001061 0.003344 -0.001149
# 2 -0.001183 0.013286 -0.000679 -0.002231 0.003059 -0.001202
# 3 -0.001028 -0.000679 0.008555 -0.001139 0.003895 0.000963
# 4 -0.001061 -0.002231 -0.001139 0.044676 -0.003272 0.008552
# 5 0.003344 0.003059 0.003895 -0.003272 0.022225 0.003226
# 6 -0.001149 -0.001202 0.000963 0.008552 0.003226 0.027818
#
#
# Mechanical properties :
#
#
# Convention : Reuss Voigt Hill
#
# Bulk Modulus (GPa) = 38.81950 51.15827 44.98888
# Shear Modulus (GPa) = 35.55480 42.78778 39.17129
#
# Velocity S-wave (km/s) = 3.59793 3.94697 3.77649
# Velocity P-wave (km/s) = 5.60303 6.27675 5.94944
#
# Compressibility (1/GPa) = 0.02576025
#
# Stress axis : x y z
#
# Youngs Moduli (GPa) = 103.09571 75.26660 116.88696
#
# Poissons Ratio (x) = 0.08906 0.12016
# Poissons Ratio (y) = 0.12198 0.07939
# Poissons Ratio (z) = 0.10599 0.05112
#
# Static dielectric constant tensor:
#      x y z
#    x 2.197630 -0.065640 0.040980 
#    y -0.065640 2.210930 -0.072110 
#    z 0.040980 -0.072110 2.137540 
# 
# From -- ./inp_files/505363.got.cif
#   From: 2010.05.17/outbox.cif.g08.bks.cpg/sg2_253_cif.got.tgz:505363.got - 2010.06.03 11:33:40.
