data_PCOD9093211
_publ_section_title
;
Structure prediction by ZEFSAII (Michael W. Deem and Ramdas Pophale) SiO2 
 PCOD9093211
Probable space group: P -1
;
_chemical_formula_sum "Si O2"
_cell_formula_units_Z 16
_cell_length_a 5.158531
_cell_length_b 19.308607
_cell_length_c 11.226554
_cell_angle_alpha 53.482336
_cell_angle_beta 62.168589
_cell_angle_gamma 74.967982
_cell_volume 794.453463
_symmetry_space_group_name_H-M "P -1"
_symmetry_group_IT_number 2
_symmetry_cell_setting 'triclinic'
loop_
_space_group_symop_operation_xyz
x,y,z
-x,-y,-z
loop_
_atom_site_type_symbol
_atom_site_label
_atom_site_fract_x
_atom_site_fract_y
_atom_site_fract_z
Si Si1 0.455216 0.331393 0.522930
Si Si2 0.914627 0.068749 0.292130
Si Si3 0.347587 0.512581 0.392319
Si Si4 0.654053 0.829240 0.441620
Si Si5 0.288715 0.116582 0.369039
Si Si6 0.768320 0.307820 0.729157
Si Si7 0.756663 0.122572 0.881406
Si Si8 0.458849 0.973551 0.195075
O O1 0.459774 0.431200 0.377068
O O2 0.487244 0.258075 0.491827
O O3 0.681550 0.319978 0.594964
O O4 0.120729 0.316334 0.659013
O O5 0.627242 0.113217 0.259746
O O6 0.074051 0.130945 0.290816
O O7 0.174780 0.032765 0.192187
O O8 0.799317 0.979570 0.468285
O O9 0.500000 0.500000 0.500000
O O10 0.381360 0.613607 0.250061
O O11 0.000000 0.500000 0.500000
O O12 0.731517 0.825668 0.567285
O O13 0.938737 0.854286 0.274360
O O14 0.458881 0.912928 0.372679
O O15 0.668792 0.210056 0.875120
O O16 0.551368 0.092049 0.846249
O O17 0.728768 0.040864 0.057236
#
# Coordination Sequence:
#
# PCOD9093211 Si02
#       8
#     2   2   2   2   2   2   2   2
#     4   9  17  26  43  64  87 112 142 177 223 267
#     4  10  20  34  46  65  81 120 155 192 220 260
#     4   8  14  25  42  59  82 113 140 174 213 263
#     4  11  19  31  46  66  94 119 151 188 228 266
#     4  10  20  32  51  63  84 113 156 190 233 256
#     4   9  16  30  41  60  87 116 149 174 212 262
#     4  10  21  30  43  66  89 129 150 184 216 267
#     4  11  20  32  44  60  95 122 161 180 219 257
#
# _framework density 20.13963
#
# number of rings (size 3 to 8) (size 9 to 14) (size 15 to 20)
#    0.000    2.250    2.500    2.625    0.000    0.000 
#    0.000    0.000    0.000    0.000    0.000    0.000 
#    0.000    2.000    0.000    0.000    0.000   13.500 
#
# Total GULP energy -89145.417631 kJ/mol
# GULP energy per Si atom -5571.588602 kJ/mol
# Density = 2.009379 g / cm^3
# Si number density = 20.139630 Si / 1000 Ang^3
#
#
#
# Elastic Constant Matrix: (Units=GPa)
#
#
# Indices 1 2 3 4 5 6 
#
# 1 92.9595 5.7477 12.0700 9.1358 -4.6995 0.9835
# 2 5.7477 120.9549 33.4287 -17.8810 -6.8235 15.7718
# 3 12.0700 33.4287 24.7797 0.8702 -6.2591 -0.5810
# 4 9.1358 -17.8810 0.8702 24.5393 2.5655 -1.0589
# 5 -4.6995 -6.8235 -6.2591 2.5655 16.8569 5.9311
# 6 0.9835 15.7718 -0.5810 -1.0589 5.9311 30.5130
#
#
#
# Elastic Compliance Matrix: (Units=1/GPa)
#
#
# Indices 1 2 3 4 5 6 
#
# 1 0.012065 0.001016 -0.006512 -0.003857 0.002529 -0.001663
# 2 0.001016 0.019003 -0.027053 0.014091 -0.000792 -0.009727
# 3 -0.006512 -0.027053 0.085680 -0.021744 0.018306 0.011512
# 4 -0.003857 0.014091 -0.021744 0.054153 -0.010394 -0.003673
# 5 0.002529 -0.000792 0.018306 -0.010394 0.072966 -0.013868
# 6 -0.001663 -0.009727 0.011512 -0.003673 -0.013868 0.040642
#
#
# Mechanical properties :
#
#
# Convention : Reuss Voigt Hill
#
# Bulk Modulus (GPa) = 19.36110 37.90962 28.63536
# Shear Modulus (GPa) = 13.63053 26.87836 20.25445
#
# Velocity S-wave (km/s) = 2.60436 3.65718 3.17472
# Velocity P-wave (km/s) = 4.32180 6.05785 5.26191
#
# Compressibility (1/GPa) = 0.05164995
#
# Stress axis : x y z
#
# Youngs Moduli (GPa) = 82.88770 52.62372 11.67128
#
# Poissons Ratio (x) = -0.05345 0.07600
# Poissons Ratio (y) = -0.08419 0.31574
# Poissons Ratio (z) = 0.53973 1.42364
#
# Static dielectric constant tensor:
#      x y z
#    x 1.801320 -0.021740 0.010520 
#    y -0.021740 1.809550 -0.000010 
#    z 0.010520 -0.000010 1.730000 
# 
# From -- ./inp_files/127423.got.cif
#   From: 2010.05.17/outbox.cif.g08.bks.cpg/sg2_64_cif.got.tgz:127423.got - 2010.06.03 11:33:40.
