data_PCOD9093390
_publ_section_title
;
Structure prediction by ZEFSAII (Michael W. Deem and Ramdas Pophale) SiO2 
 PCOD9093390
Probable space group: P -1
;
_chemical_formula_sum "Si O2"
_cell_formula_units_Z 14
_cell_length_a 7.138027
_cell_length_b 13.889264
_cell_length_c 7.548127
_cell_angle_alpha 123.948203
_cell_angle_beta 102.001168
_cell_angle_gamma 77.556054
_cell_volume 602.638323
_symmetry_space_group_name_H-M "P -1"
_symmetry_group_IT_number 2
_symmetry_cell_setting 'triclinic'
loop_
_space_group_symop_operation_xyz
x,y,z
-x,-y,-z
loop_
_atom_site_type_symbol
_atom_site_label
_atom_site_fract_x
_atom_site_fract_y
_atom_site_fract_z
Si Si1 0.172977 0.716908 0.106314
Si Si2 0.220336 0.986439 0.383158
Si Si3 0.125320 0.923962 0.800588
Si Si4 0.822374 0.469204 0.810473
Si Si5 0.927781 0.329966 0.336839
Si Si6 0.749538 0.708897 0.908072
Si Si7 0.447304 0.045070 0.829119
O O1 0.196617 0.653516 0.852954
O O2 0.937454 0.738723 0.088304
O O3 0.238194 0.845068 0.253221
O O4 0.255644 0.633028 0.195329
O O5 0.344611 0.006518 0.252466
O O6 0.323723 0.041586 0.619727
O O7 0.004057 0.045845 0.368307
O O8 0.124002 0.791303 0.718072
O O9 0.333823 0.965005 0.852333
O O10 0.000000 0.000000 0.000000
O O11 0.895276 0.421234 0.583037
O O12 0.693536 0.591055 0.864770
O O13 0.000000 0.500000 0.000000
O O14 0.146997 0.315207 0.288171
O O15 0.589862 0.819161 0.984415
#
# Coordination Sequence:
#
# PCOD9093390 Si02
#       7
#     2   2   2   2   2   2   2
#     4   9  19  37  56  84 116 155 191 244 293 349
#     4  11  23  38  60  89 123 155 199 247 299 360
#     4  12  20  38  59  88 119 158 194 241 300 360
#     4  10  20  32  59  89 111 157 201 246 295 353
#     4  10  20  34  56  89 119 152 200 244 297 354
#     4   9  19  36  54  85 117 151 200 242 289 354
#     4  11  23  38  60  90 120 158 198 247 300 357
#
# _framework density 23.231179999999998
#
# number of rings (size 3 to 8) (size 9 to 14) (size 15 to 20)
#    0.857    0.857    4.286    1.714    4.000    0.571 
#    0.000    0.714    0.000    0.857    0.000    0.000 
#    0.000    0.000    0.000    0.000    0.000    0.000 
#
# Total GULP energy -78134.390565 kJ/mol
# GULP energy per Si atom -5581.027897 kJ/mol
# Density = 2.317831 g / cm^3
# Si number density = 23.231180 Si / 1000 Ang^3
#
#
#
# Elastic Constant Matrix: (Units=GPa)
#
#
# Indices 1 2 3 4 5 6 
#
# 1 67.4034 13.5666 -5.6290 8.0342 -1.3502 3.9785
# 2 13.5666 118.3871 21.8709 -2.7615 -10.5345 9.2097
# 3 -5.6290 21.8709 120.4763 -8.5077 -15.6674 -3.7400
# 4 8.0342 -2.7615 -8.5077 31.1168 5.3790 -1.5006
# 5 -1.3502 -10.5345 -15.6674 5.3790 19.0969 -3.7604
# 6 3.9785 9.2097 -3.7400 -1.5006 -3.7604 28.5618
#
#
#
# Elastic Compliance Matrix: (Units=1/GPa)
#
#
# Indices 1 2 3 4 5 6 
#
# 1 0.015934 -0.001825 0.000959 -0.004406 0.001854 -0.001493
# 2 -0.001825 0.009417 -0.001423 0.000219 0.003341 -0.002517
# 3 0.000959 -0.001423 0.009737 0.001124 0.007475 0.002643
# 4 -0.004406 0.000219 0.001124 0.035209 -0.008917 0.001366
# 5 0.001854 0.003341 0.007475 -0.008917 0.064493 0.007666
# 6 -0.001493 -0.002517 0.002643 0.001366 0.007666 0.037459
#
#
# Mechanical properties :
#
#
# Convention : Reuss Voigt Hill
#
# Bulk Modulus (GPa) = 32.77495 40.65375 36.71435
# Shear Modulus (GPa) = 26.73866 34.18567 30.46217
#
# Velocity S-wave (km/s) = 3.39629 3.84023 3.62506
# Velocity P-wave (km/s) = 5.43310 6.09925 5.77578
#
# Compressibility (1/GPa) = 0.03051110
#
# Stress axis : x y z
#
# Youngs Moduli (GPa) = 62.75924 106.18975 102.70025
#
# Poissons Ratio (x) = 0.19378 -0.09853
# Poissons Ratio (y) = 0.11453 0.14614
# Poissons Ratio (z) = -0.06021 0.15111
#
# Static dielectric constant tensor:
#      x y z
#    x 3.172240 -1.873610 0.935020 
#    y -1.873610 4.734690 -1.448200 
#    z 0.935020 -1.448200 2.600730 
# 
# From -- ./inp_files/198398.got.cif
#   From: 2010.05.17/outbox.cif.g08.bks.cpg/sg2_100_cif.got.tgz:198398.got - 2010.06.03 11:33:40.
