data_PCOD9093163
_publ_section_title
;
Structure prediction by ZEFSAII (Michael W. Deem and Ramdas Pophale) SiO2 
 PCOD9093163
Probable space group: P -1
;
_chemical_formula_sum "Si O2"
_cell_formula_units_Z 16
_cell_length_a 10.407668
_cell_length_b 7.359983
_cell_length_c 9.551028
_cell_angle_alpha 102.371941
_cell_angle_beta 101.575124
_cell_angle_gamma 52.613712
_cell_volume 565.458006
_symmetry_space_group_name_H-M "P -1"
_symmetry_group_IT_number 2
_symmetry_cell_setting 'triclinic'
loop_
_space_group_symop_operation_xyz
x,y,z
-x,-y,-z
loop_
_atom_site_type_symbol
_atom_site_label
_atom_site_fract_x
_atom_site_fract_y
_atom_site_fract_z
Si Si1 0.743864 0.732651 0.055338
Si Si2 0.012085 0.957154 0.795991
Si Si3 0.078006 0.385683 0.211058
Si Si4 0.415474 0.853950 0.719569
Si Si5 0.299886 0.376155 0.470034
Si Si6 0.264864 0.690398 0.012781
Si Si7 0.801932 0.117639 0.534769
Si Si8 0.517123 0.342630 0.727506
O O1 0.917440 0.619942 0.154373
O O2 0.613884 0.979848 0.134535
O O3 0.786304 0.714736 0.897354
O O4 0.697074 0.556839 0.041879
O O5 0.973204 0.783564 0.812204
O O6 0.879397 0.194667 0.883034
O O7 0.974063 0.980596 0.628211
O O8 0.186904 0.846035 0.882488
O O9 0.147141 0.392834 0.377650
O O10 0.550873 0.804015 0.628196
O O11 0.246708 0.973421 0.617427
O O12 0.471206 0.597718 0.729085
O O13 0.254221 0.626991 0.467742
O O14 0.369673 0.336501 0.637450
O O15 0.402620 0.703891 0.110798
O O16 0.670693 0.164502 0.633407
#
# Coordination Sequence:
#
# PCOD9093163 Si02
#       8
#     2   2   2   2   2   2   2   2
#     4  10  20  33  51  75 105 134 172 212 248 296
#     4   9  17  31  52  74 101 135 169 206 256 306
#     4  10  20  32  48  77 108 133 162 212 263 298
#     4   9  17  31  54  79  98 132 177 211 242 295
#     4   9  17  32  56  78  99 130 173 214 250 295
#     4   9  17  31  51  73  95 135 177 205 236 298
#     4   8  15  31  53  75  98 132 174 206 241 306
#     4   8  15  29  51  75  96 124 171 213 240 286
#
# _framework density 28.295649999999998
#
# number of rings (size 3 to 8) (size 9 to 14) (size 15 to 20)
#    0.000    3.000    0.000    3.750    0.000    3.000 
#    0.000   10.625    0.000   15.000    0.000    1.750 
#    0.000    0.000    0.000    0.000    0.000    0.000 
#
# Total GULP energy -89669.182430 kJ/mol
# GULP energy per Si atom -5604.323902 kJ/mol
# Density = 2.823125 g / cm^3
# Si number density = 28.295650 Si / 1000 Ang^3
#
#
#
# Elastic Constant Matrix: (Units=GPa)
#
#
# Indices 1 2 3 4 5 6 
#
# 1 85.8892 19.3737 48.2959 -2.1035 19.0462 -22.6050
# 2 19.3737 93.0626 68.4976 3.0734 -5.9655 8.6777
# 3 48.2959 68.4976 245.6892 -23.9739 43.4789 -18.1540
# 4 -2.1035 3.0734 -23.9739 65.2157 -19.0938 5.3181
# 5 19.0462 -5.9655 43.4789 -19.0938 54.6117 0.0992
# 6 -22.6050 8.6777 -18.1540 5.3181 0.0992 13.2739
#
#
#
# Elastic Compliance Matrix: (Units=1/GPa)
#
#
# Indices 1 2 3 4 5 6 
#
# 1 0.096206 -0.072260 0.031839 -0.025775 -0.076288 0.265516
# 2 -0.072260 0.075257 -0.033517 0.020054 0.067529 -0.226634
# 3 0.031839 -0.033517 0.020308 -0.008712 -0.034175 0.107653
# 4 -0.025775 0.020054 -0.008712 0.024668 0.026884 -0.079003
# 5 -0.076288 0.067529 -0.034175 0.026884 0.089324 -0.232241
# 6 0.265516 -0.226634 0.107653 -0.079003 -0.232241 0.856281
#
#
# Mechanical properties :
#
#
# Convention : Reuss Voigt Hill
#
# Bulk Modulus (GPa) = 22.78142 77.44172 50.11157
# Shear Modulus (GPa) = 3.77486 45.85184 24.81335
#
# Velocity S-wave (km/s) = 1.15628 4.02985 2.96452
# Velocity P-wave (km/s) = 3.13868 7.00579 5.42828
#
# Compressibility (1/GPa) = 0.04389543
#
# Stress axis : x y z
#
# Youngs Moduli (GPa) = 10.39440 13.28776 49.24126
#
# Poissons Ratio (x) = 0.96017 -1.56779
# Poissons Ratio (y) = 0.75110 1.65041
# Poissons Ratio (z) = -0.33095 0.44536
#
# Static dielectric constant tensor:
#      x y z
#    x 2.208900 -0.063580 -0.027300 
#    y -0.063580 2.171180 -0.074800 
#    z -0.027300 -0.074800 2.253820 
# 
# From -- ./inp_files/448070.got.cif
#   From: 2010.05.17/outbox.cif.g08.bks.cpg/sg2_225_cif.got.tgz:448070.got - 2010.06.03 11:33:40.
