data_PCOD9093389
_publ_section_title
;
Structure prediction by ZEFSAII (Michael W. Deem and Ramdas Pophale) SiO2 
 PCOD9093389
Probable space group: P -1
;
_chemical_formula_sum "Si O2"
_cell_formula_units_Z 14
_cell_length_a 9.007206
_cell_length_b 9.452938
_cell_length_c 10.626830
_cell_angle_alpha 61.189202
_cell_angle_beta 59.890172
_cell_angle_gamma 85.575113
_cell_volume 669.469241
_symmetry_space_group_name_H-M "P -1"
_symmetry_group_IT_number 2
_symmetry_cell_setting 'triclinic'
loop_
_space_group_symop_operation_xyz
x,y,z
-x,-y,-z
loop_
_atom_site_type_symbol
_atom_site_label
_atom_site_fract_x
_atom_site_fract_y
_atom_site_fract_z
Si Si1 0.117541 0.294324 0.522905
Si Si2 0.127914 0.917912 0.072238
Si Si3 0.335370 0.063445 0.594954
Si Si4 0.198566 0.635425 0.493981
Si Si5 0.848455 0.274311 0.083014
Si Si6 0.568578 0.802583 0.220567
Si Si7 0.754408 0.518764 0.194196
O O1 0.269817 0.195769 0.478923
O O2 0.185206 0.470969 0.485189
O O3 0.989398 0.178763 0.726932
O O4 0.990186 0.317883 0.454059
O O5 0.195516 0.783724 0.015373
O O6 0.298724 0.056948 0.973597
O O7 0.000000 0.000000 0.000000
O O8 0.377499 0.150155 0.676835
O O9 0.500000 0.000000 0.500000
O O10 0.189396 0.894437 0.748361
O O11 0.359370 0.776112 0.314771
O O12 0.238790 0.589315 0.637789
O O13 0.735775 0.396383 0.136532
O O14 0.053637 0.361328 0.957072
O O15 0.616477 0.630607 0.233236
#
# Coordination Sequence:
#
# PCOD9093389 Si02
#       7
#     2   2   2   2   2   2   2
#     4  11  22  39  60  84 125 155 188 234 311 343
#     4  11  17  39  61  85 113 156 195 242 284 348
#     4  11  21  37  60  88 112 152 199 246 282 345
#     4  11  23  36  58  91 119 158 183 246 295 349
#     4  10  20  32  59  89 110 149 198 244 284 325
#     4  11  21  36  62  86 114 152 208 238 276 342
#     4  11  19  35  59  89 115 150 202 239 276 353
#
# _framework density 20.912089000000002
#
# number of rings (size 3 to 8) (size 9 to 14) (size 15 to 20)
#    0.000    1.143    7.143    1.286    2.000    0.571 
#    0.000    2.857    0.000    6.857    0.000    0.000 
#    0.000    0.000    0.000    0.000    0.000    0.000 
#
# Total GULP energy -78163.319183 kJ/mol
# GULP energy per Si atom -5583.094227 kJ/mol
# Density = 2.086449 g / cm^3
# Si number density = 20.912089 Si / 1000 Ang^3
#
#
#
# Elastic Constant Matrix: (Units=GPa)
#
#
# Indices 1 2 3 4 5 6 
#
# 1 45.4307 19.6924 14.9667 -4.5451 -22.4928 -10.5272
# 2 19.6924 114.8175 -1.5716 11.8729 -4.1949 -13.4179
# 3 14.9667 -1.5716 48.5249 -12.2457 -22.6156 11.1389
# 4 -4.5451 11.8729 -12.2457 33.9933 5.5720 -8.8263
# 5 -22.4928 -4.1949 -22.6156 5.5720 25.9113 -1.1306
# 6 -10.5272 -13.4179 11.1389 -8.8263 -1.1306 21.6482
#
#
#
# Elastic Compliance Matrix: (Units=1/GPa)
#
#
# Indices 1 2 3 4 5 6 
#
# 1 0.054919 -0.005227 -0.000153 0.009296 0.045992 0.029738
# 2 -0.005227 0.010154 -0.000802 -0.003400 -0.002748 0.002635
# 3 -0.000153 -0.000802 0.042384 0.005008 0.034845 -0.018519
# 4 0.009296 -0.003400 0.005008 0.036810 0.004633 0.015086
# 5 0.045992 -0.002748 0.034845 0.004633 0.107937 0.010259
# 6 0.029738 0.002635 -0.018519 0.015086 0.010259 0.078503
#
#
# Mechanical properties :
#
#
# Convention : Reuss Voigt Hill
#
# Bulk Modulus (GPa) = 10.51616 30.54978 20.53297
# Shear Modulus (GPa) = 13.34150 28.02295 20.68223
#
# Velocity S-wave (km/s) = 2.52857 3.66462 3.14826
# Velocity P-wave (km/s) = 3.68301 5.70494 4.80161
#
# Compressibility (1/GPa) = 0.09509173
#
# Stress axis : x y z
#
# Youngs Moduli (GPa) = 18.20852 98.48238 23.59370
#
# Poissons Ratio (x) = 0.51477 0.00362
# Poissons Ratio (y) = 0.09518 0.01893
# Poissons Ratio (z) = 0.00279 0.07903
#
# Static dielectric constant tensor:
#      x y z
#    x 1.769410 -0.014440 -0.022540 
#    y -0.014440 1.788030 -0.005640 
#    z -0.022540 -0.005640 1.796800 
# 
# From -- ./inp_files/185107.got.cif
#   From: 2010.05.17/outbox.cif.g08.bks.cpg/sg2_93_cif.got.tgz:185107.got - 2010.06.03 11:33:40.
