data_PCOD9093484
_publ_section_title
;
Structure prediction by ZEFSAII (Michael W. Deem and Ramdas Pophale) SiO2 
 PCOD9093484
Probable space group: P -1
;
_chemical_formula_sum "Si O2"
_cell_formula_units_Z 16
_cell_length_a 11.939898
_cell_length_b 9.382216
_cell_length_c 11.713360
_cell_angle_alpha 115.314957
_cell_angle_beta 121.353350
_cell_angle_gamma 109.857365
_cell_volume 694.216698
_symmetry_space_group_name_H-M "P -1"
_symmetry_group_IT_number 2
_symmetry_cell_setting 'triclinic'
loop_
_space_group_symop_operation_xyz
x,y,z
-x,-y,-z
loop_
_atom_site_type_symbol
_atom_site_label
_atom_site_fract_x
_atom_site_fract_y
_atom_site_fract_z
Si Si1 0.621727 0.185212 0.963665
Si Si2 0.045090 0.661129 0.432872
Si Si3 0.740420 0.701617 0.865130
Si Si4 0.849088 0.181064 0.699435
Si Si5 0.568563 0.816520 0.939649
Si Si6 0.154451 0.413861 0.485618
Si Si7 0.282288 0.643933 0.174443
Si Si8 0.826266 0.882429 0.746309
O O1 0.608718 0.201060 0.827503
O O2 0.617620 0.002590 0.943695
O O3 0.829060 0.429386 0.198248
O O4 0.460570 0.136207 0.934193
O O5 0.011284 0.727297 0.554279
O O6 0.144438 0.830363 0.436929
O O7 0.144300 0.580203 0.483838
O O8 0.707975 0.793592 0.983013
O O9 0.647796 0.455339 0.763732
O O10 0.687183 0.742873 0.733220
O O11 0.965576 0.868611 0.021368
O O12 0.734378 0.232262 0.700215
O O13 0.773675 0.960649 0.647816
O O14 0.068070 0.412262 0.934741
O O15 0.359240 0.572737 0.707892
O O16 0.139112 0.260513 0.335467
#
# Coordination Sequence:
#
# PCOD9093484 Si02
#       8
#     2   2   2   2   2   2   2   2
#     4   9  18  34  54  75 101 134 171 207 245 295
#     4   9  18  34  54  75 101 134 171 207 245 295
#     4  10  20  34  54  77 100 131 170 209 250 299
#     4   9  17  31  53  77  98 126 169 214 249 289
#     4  10  20  33  51  76 105 135 166 205 252 298
#     4  10  20  33  51  76 105 135 166 205 252 298
#     4   9  17  31  53  77  98 126 169 214 249 289
#     4  10  20  34  54  77 100 131 170 209 250 299
#
# _framework density 23.047560000000001
#
# number of rings (size 3 to 8) (size 9 to 14) (size 15 to 20)
#    0.000    2.500    0.000    2.250    0.000    6.500 
#    0.000    1.250    0.000    3.000    0.000    0.000 
#    0.000    0.000    0.000    0.000    0.000    0.000 
#
# Total GULP energy -89386.334784 kJ/mol
# GULP energy per Si atom -5586.645924 kJ/mol
# Density = 2.299510 g / cm^3
# Si number density = 23.047560 Si / 1000 Ang^3
#
#
#
# Elastic Constant Matrix: (Units=GPa)
#
#
# Indices 1 2 3 4 5 6 
#
# 1 93.9309 57.0560 -3.0235 -2.4710 -24.9464 -2.9312
# 2 57.0560 131.2772 -9.0150 -25.4771 -17.8999 14.5331
# 3 -3.0235 -9.0150 42.1855 7.0252 6.3201 10.8151
# 4 -2.4710 -25.4771 7.0252 16.3532 11.7921 -7.5326
# 5 -24.9464 -17.8999 6.3201 11.7921 36.3205 1.6996
# 6 -2.9312 14.5331 10.8151 -7.5326 1.6996 25.8888
#
#
#
# Elastic Compliance Matrix: (Units=1/GPa)
#
#
# Indices 1 2 3 4 5 6 
#
# 1 0.023405 -0.013691 0.001747 -0.033682 0.020031 -0.001509
# 2 -0.013691 0.018970 -0.001067 0.036031 -0.011543 -0.000512
# 3 0.001747 -0.001067 0.033512 -0.030203 0.005695 -0.022365
# 4 -0.033682 0.036031 -0.030203 0.195728 -0.066001 0.049859
# 5 0.020031 -0.011543 0.005695 -0.066001 0.056814 -0.016565
# 6 -0.001509 -0.000512 -0.022365 0.049859 -0.016565 0.063681
#
#
# Mechanical properties :
#
#
# Convention : Reuss Voigt Hill
#
# Bulk Modulus (GPa) = 20.05400 39.71430 29.88415
# Shear Modulus (GPa) = 11.50074 30.53758 21.01916
#
# Velocity S-wave (km/s) = 2.23626 3.64398 3.02319
# Velocity P-wave (km/s) = 3.92273 5.91385 5.01804
#
# Compressibility (1/GPa) = 0.04986536
#
# Stress axis : x y z
#
# Youngs Moduli (GPa) = 42.72558 52.71497 29.83981
#
# Poissons Ratio (x) = 0.72172 -0.05213
# Poissons Ratio (y) = 0.58495 0.03184
# Poissons Ratio (z) = -0.07464 0.05625
#
# Static dielectric constant tensor:
#      x y z
#    x 1.842950 0.025000 0.056350 
#    y 0.025000 1.851130 -0.028330 
#    z 0.056350 -0.028330 1.915710 
# 
# From -- ./inp_files/189285.got.cif
#   From: 2010.05.17/outbox.cif.g08.bks.cpg/sg2_95_cif.got.tgz:189285.got - 2010.06.03 11:33:40.
