data_PCOD9093167
_publ_section_title
;
Structure prediction by ZEFSAII (Michael W. Deem and Ramdas Pophale) SiO2 
 PCOD9093167
Probable space group: P -1
;
_chemical_formula_sum "Si O2"
_cell_formula_units_Z 16
_cell_length_a 8.190504
_cell_length_b 10.288309
_cell_length_c 13.325101
_cell_angle_alpha 81.997781
_cell_angle_beta 87.103404
_cell_angle_gamma 43.699407
_cell_volume 766.137602
_symmetry_space_group_name_H-M "P -1"
_symmetry_group_IT_number 2
_symmetry_cell_setting 'triclinic'
loop_
_space_group_symop_operation_xyz
x,y,z
-x,-y,-z
loop_
_atom_site_type_symbol
_atom_site_label
_atom_site_fract_x
_atom_site_fract_y
_atom_site_fract_z
Si Si1 0.485230 0.833621 0.814405
Si Si2 0.389409 0.533018 0.393462
Si Si3 0.733105 0.600171 0.189391
Si Si4 0.750757 0.787344 0.990292
Si Si5 0.994231 0.218027 0.869333
Si Si6 0.738503 0.295210 0.223129
Si Si7 0.778378 0.127048 0.765879
Si Si8 0.159067 0.457969 0.302632
O O1 0.388227 0.740632 0.838612
O O2 0.611020 0.761783 0.709982
O O3 0.249079 0.054146 0.821449
O O4 0.698068 0.756203 0.888105
O O5 0.500000 0.500000 0.500000
O O6 0.599681 0.376476 0.324985
O O7 0.261531 0.737035 0.331176
O O8 0.211433 0.511768 0.394511
O O9 0.791723 0.648902 0.084045
O O10 0.724110 0.453774 0.174802
O O11 0.472453 0.793351 0.214034
O O12 0.921557 0.515366 0.281768
O O13 0.947477 0.779357 0.017881
O O14 0.500000 0.000000 0.000000
O O15 0.854404 0.166047 0.858289
O O16 0.862471 0.412044 0.794588
O O17 0.009376 0.091821 0.245128
#
# Coordination Sequence:
#
# PCOD9093167 Si02
#       8
#     2   2   2   2   2   2   2   2
#     4   9  17  32  49  68  97 131 171 210 239 282
#     4   9  18  35  59  79  94 121 165 208 243 293
#     4  10  20  32  49  73 102 135 164 199 247 293
#     4   9  18  32  49  72  98 130 177 215 238 273
#     4   8  16  31  49  67  93 131 166 201 241 283
#     4   9  19  34  51  73 102 135 162 195 253 301
#     4   9  18  35  52  71 105 134 159 199 248 301
#     4   9  18  32  51  73  97 128 164 201 247 292
#
# _framework density 20.883977000000002
#
# number of rings (size 3 to 8) (size 9 to 14) (size 15 to 20)
#    0.000    3.000    0.000    0.750    0.000    6.000 
#    0.000   10.625    0.000    1.500    0.000    0.000 
#    0.000    0.000    0.000    0.000    0.000    0.000 
#
# Total GULP energy -89149.929929 kJ/mol
# GULP energy per Si atom -5571.870621 kJ/mol
# Density = 2.083644 g / cm^3
# Si number density = 20.883977 Si / 1000 Ang^3
#
#
#
# Elastic Constant Matrix: (Units=GPa)
#
#
# Indices 1 2 3 4 5 6 
#
# 1 63.0457 12.2169 18.1800 -0.2085 19.2499 -12.1224
# 2 12.2169 120.6477 7.2945 8.8408 -0.2650 -14.5728
# 3 18.1800 7.2945 59.0811 -1.7274 32.2773 6.1774
# 4 -0.2085 8.8408 -1.7274 15.0543 -1.8586 3.0356
# 5 19.2499 -0.2650 32.2773 -1.8586 28.3970 -1.8208
# 6 -12.1224 -14.5728 6.1774 3.0356 -1.8208 33.7766
#
#
#
# Elastic Compliance Matrix: (Units=1/GPa)
#
#
# Indices 1 2 3 4 5 6 
#
# 1 0.021887 -0.001486 0.001893 -0.001910 -0.016734 0.006137
# 2 -0.001486 0.010001 -0.005669 -0.006797 0.007473 0.005832
# 3 0.001893 -0.005669 0.052367 0.004813 -0.061512 -0.015092
# 4 -0.001910 -0.006797 0.004813 0.073159 -0.000161 -0.011082
# 5 -0.016734 0.007473 -0.061512 -0.000161 0.117485 0.014816
# 6 0.006137 0.005832 -0.015092 -0.011082 0.014816 0.038880
#
#
# Mechanical properties :
#
#
# Convention : Reuss Voigt Hill
#
# Bulk Modulus (GPa) = 13.56270 35.35081 24.45675
# Shear Modulus (GPa) = 14.33163 29.11779 21.72471
#
# Velocity S-wave (km/s) = 2.62248 3.73804 3.22880
# Velocity P-wave (km/s) = 3.95958 5.96612 5.06324
#
# Compressibility (1/GPa) = 0.07373164
#
# Stress axis : x y z
#
# Youngs Moduli (GPa) = 45.68976 99.99241 19.09591
#
# Poissons Ratio (x) = 0.14861 -0.03615
# Poissons Ratio (y) = 0.06790 0.10825
# Poissons Ratio (z) = -0.08650 0.56682
#
# Static dielectric constant tensor:
#      x y z
#    x 1.856720 -0.005690 0.033030 
#    y -0.005690 1.775700 0.026010 
#    z 0.033030 0.026010 1.740340 
# 
# From -- ./inp_files/276900.got.cif
#   From: 2010.05.17/outbox.cif.g08.bks.cpg/sg2_139_cif.got.tgz:276900.got - 2010.06.03 11:33:40.
