data_PCOD9093801
_publ_section_title
;
Structure prediction by ZEFSAII (Michael W. Deem and Ramdas Pophale) SiO2 
 PCOD9093801
Probable space group: P -1
;
_chemical_formula_sum "Si O2"
_cell_formula_units_Z 16
_cell_length_a 23.171402
_cell_length_b 5.184496
_cell_length_c 10.792908
_cell_angle_alpha 120.505587
_cell_angle_beta 34.519256
_cell_angle_gamma 117.473784
_cell_volume 630.572110
_symmetry_space_group_name_H-M "P -1"
_symmetry_group_IT_number 2
_symmetry_cell_setting 'triclinic'
loop_
_space_group_symop_operation_xyz
x,y,z
-x,-y,-z
loop_
_atom_site_type_symbol
_atom_site_label
_atom_site_fract_x
_atom_site_fract_y
_atom_site_fract_z
Si Si1 0.976739 0.428379 0.236109
Si Si2 0.305418 0.227547 0.339857
Si Si3 0.314156 0.945570 0.521198
Si Si4 0.900702 0.108126 0.039069
Si Si5 0.392414 0.680735 0.969043
Si Si6 0.658363 0.176907 0.174274
Si Si7 0.538293 0.251269 0.626170
Si Si8 0.798538 0.755429 0.711915
O O1 0.905041 0.611388 0.495016
O O2 0.060760 0.655161 0.075096
O O3 0.914323 0.270615 0.190369
O O4 0.030456 0.168839 0.146829
O O5 0.319270 0.585019 0.407638
O O6 0.211586 0.150586 0.391765
O O7 0.293166 0.097525 0.466456
O O8 0.390543 0.037223 0.081465
O O9 0.420400 0.998203 0.418438
O O10 0.218039 0.998166 0.789847
O O11 0.370785 0.642008 0.851158
O O12 0.492590 0.558673 0.822284
O O13 0.292226 0.508481 0.168286
O O14 0.631707 0.337707 0.386919
O O15 0.568970 0.902003 0.274255
O O16 0.764036 0.030450 0.923397
#
# Coordination Sequence:
#
# PCOD9093801 Si02
#       8
#     2   2   2   2   2   2   2   2
#     4  10  20  33  58  83 116 155 188 240 285 342
#     4  11  22  37  57  89 125 154 191 231 299 361
#     4  12  24  39  59  86 130 158 188 241 295 361
#     4  10  21  33  54  87 117 152 194 229 289 358
#     4  10  20  38  62  88 117 155 196 250 284 355
#     4   9  21  41  62  87 113 151 215 242 285 347
#     4  10  23  40  60  86 117 161 197 248 291 339
#     4  10  20  37  62  88 120 154 195 249 288 343
#
# _framework density 25.373783
#
# number of rings (size 3 to 8) (size 9 to 14) (size 15 to 20)
#    0.000    1.750    2.500    1.125    8.750    1.000 
#    0.000    0.000    0.000    1.500    0.000    0.000 
#    0.000    0.000    0.000    0.000    0.000    0.000 
#
# Total GULP energy -89411.972289 kJ/mol
# GULP energy per Si atom -5588.248268 kJ/mol
# Density = 2.531603 g / cm^3
# Si number density = 25.373783 Si / 1000 Ang^3
#
#
#
# Elastic Constant Matrix: (Units=GPa)
#
#
# Indices 1 2 3 4 5 6 
#
# 1 31.0619 15.6380 11.4169 0.3604 4.0588 -16.2979
# 2 15.6380 90.0419 6.2183 5.3886 3.3794 -32.4038
# 3 11.4169 6.2183 111.9354 5.8618 -18.9597 -8.7094
# 4 0.3604 5.3886 5.8618 39.8059 -11.7576 -1.6706
# 5 4.0588 3.3794 -18.9597 -11.7576 25.1146 -5.1948
# 6 -16.2979 -32.4038 -8.7094 -1.6706 -5.1948 28.6456
#
#
#
# Elastic Compliance Matrix: (Units=1/GPa)
#
#
# Indices 1 2 3 4 5 6 
#
# 1 0.047520 0.002023 -0.003735 -0.000622 -0.005444 0.027166
# 2 0.002023 0.019078 0.000972 -0.001132 0.002140 0.023349
# 3 -0.003735 0.000972 0.011335 0.001577 0.010689 0.004451
# 4 -0.000622 -0.001132 0.001577 0.029986 0.016212 0.003534
# 5 -0.005444 0.002140 0.010689 0.016212 0.059010 0.014219
# 6 0.027166 0.023349 0.004451 0.003534 0.014219 0.080915
#
#
# Mechanical properties :
#
#
# Convention : Reuss Voigt Hill
#
# Bulk Modulus (GPa) = 13.07999 33.28730 23.18364
# Shear Modulus (GPa) = 18.19450 32.03096 25.11273
#
# Velocity S-wave (km/s) = 2.68070 3.55683 3.14938
# Velocity P-wave (km/s) = 3.84027 5.47862 4.73091
#
# Compressibility (1/GPa) = 0.07645265
#
# Stress axis : x y z
#
# Youngs Moduli (GPa) = 21.04357 52.41744 88.22293
#
# Poissons Ratio (x) = -0.10602 0.32952
# Poissons Ratio (y) = -0.04256 -0.08578
# Poissons Ratio (z) = 0.07860 -0.05097
#
# Static dielectric constant tensor:
#      x y z
#    x 2.180660 0.108050 0.074290 
#    y 0.108050 2.138650 0.056280 
#    z 0.074290 0.056280 2.042670 
# 
# From -- ./inp_files/118144.got.cif
#   From: 2010.05.17/outbox.cif.g08.bks.cpg/sg2_60_cif.got.tgz:118144.got - 2010.06.03 11:33:40.
