data_PCOD9093161
_publ_section_title
;
Structure prediction by ZEFSAII (Michael W. Deem and Ramdas Pophale) SiO2 
 PCOD9093161
Probable space group: P -1
;
_chemical_formula_sum "Si O2"
_cell_formula_units_Z 16
_cell_length_a 16.496415
_cell_length_b 13.837900
_cell_length_c 16.274995
_cell_angle_alpha 120.583369
_cell_angle_beta 132.061682
_cell_angle_gamma 21.743178
_cell_volume 930.756466
_symmetry_space_group_name_H-M "P -1"
_symmetry_group_IT_number 2
_symmetry_cell_setting 'triclinic'
loop_
_space_group_symop_operation_xyz
x,y,z
-x,-y,-z
loop_
_atom_site_type_symbol
_atom_site_label
_atom_site_fract_x
_atom_site_fract_y
_atom_site_fract_z
Si Si1 0.407780 0.131796 0.862607
Si Si2 0.536164 0.803212 0.694405
Si Si3 0.175744 0.176968 0.852263
Si Si4 0.677535 0.734180 0.461490
Si Si5 0.584175 0.464675 0.451904
Si Si6 0.223310 0.940843 0.661763
Si Si7 0.364131 0.900294 0.442231
Si Si8 0.146236 0.461155 0.676387
O O1 0.210915 0.246099 0.840098
O O2 0.259480 0.361892 0.802435
O O3 0.522696 0.933169 0.789088
O O4 0.648315 0.955534 0.006175
O O5 0.317237 0.926239 0.641273
O O6 0.469308 0.866147 0.580019
O O7 0.852108 0.463379 0.773548
O O8 0.291901 0.955381 0.791629
O O9 0.592097 0.706632 0.442409
O O10 0.640776 0.747526 0.345590
O O11 0.985568 0.492477 0.577588
O O12 0.500000 0.000000 0.500000
O O13 0.500000 0.500000 0.500000
O O14 0.370673 0.763139 0.408608
O O15 0.893773 0.226477 0.562327
O O16 0.615263 0.329127 0.354013
O O17 0.075253 0.231317 0.362099
#
# Coordination Sequence:
#
# PCOD9093161 Si02
#       8
#     2   2   2   2   2   2   2   2
#     4  10  21  33  53  77 108 149 183 213 261 317
#     4  11  19  33  53  79 109 142 174 221 265 322
#     4  10  20  36  53  77 108 143 184 225 259 311
#     4   9  18  31  46  73 106 146 173 209 257 314
#     4  11  21  36  55  82 108 138 174 228 280 323
#     4  10  21  34  55  79 106 137 176 223 278 318
#     4  11  21  31  54  77 111 139 173 219 272 322
#     4  10  20  32  48  75 110 145 178 209 261 322
#
# _framework density 17.190318000000001
#
# number of rings (size 3 to 8) (size 9 to 14) (size 15 to 20)
#    0.000    1.750    2.500    3.375    3.500    1.000 
#    0.000    0.000    0.000    0.750    0.000    4.375 
#    0.000    0.000    0.000    0.000    0.000    0.000 
#
# Total GULP energy -89191.784014 kJ/mol
# GULP energy per Si atom -5574.486501 kJ/mol
# Density = 1.715119 g / cm^3
# Si number density = 17.190318 Si / 1000 Ang^3
#
#
#
# Elastic Constant Matrix: (Units=GPa)
#
#
# Indices 1 2 3 4 5 6 
#
# 1 104.0850 38.6932 42.6644 -3.2482 -14.4879 -4.8572
# 2 38.6932 85.6569 39.6765 4.2832 -5.5201 12.0919
# 3 42.6644 39.6765 100.2446 4.5963 -20.4087 3.5727
# 4 -3.2482 4.2832 4.5963 19.4837 2.3932 1.2301
# 5 -14.4879 -5.5201 -20.4087 2.3932 24.8217 -0.5150
# 6 -4.8572 12.0919 3.5727 1.2301 -0.5150 38.1774
#
#
#
# Elastic Compliance Matrix: (Units=1/GPa)
#
#
# Indices 1 2 3 4 5 6 
#
# 1 0.013663 -0.005072 -0.003308 0.003471 0.003867 0.003594
# 2 -0.005072 0.016923 -0.004835 -0.002706 -0.003026 -0.005506
# 3 -0.003308 -0.004835 0.015585 -0.004418 0.010233 -0.000067
# 4 0.003471 -0.002706 -0.004418 0.054466 -0.007463 -0.000144
# 5 0.003867 -0.003026 0.010233 -0.007463 0.051035 0.001422
# 6 0.003594 -0.005506 -0.000067 -0.000144 0.001422 0.028425
#
#
# Mechanical properties :
#
#
# Convention : Reuss Voigt Hill
#
# Bulk Modulus (GPa) = 50.65229 59.11717 54.88473
# Shear Modulus (GPa) = 23.46245 27.76007 25.61126
#
# Velocity S-wave (km/s) = 3.69841 4.02290 3.86406
# Velocity P-wave (km/s) = 6.91139 7.48617 7.20451
#
# Compressibility (1/GPa) = 0.01974245
#
# Stress axis : x y z
#
# Youngs Moduli (GPa) = 73.19020 59.09222 64.16262
#
# Poissons Ratio (x) = 0.29969 0.21223
# Poissons Ratio (y) = 0.37119 0.31024
# Poissons Ratio (z) = 0.24209 0.28572
#
# Static dielectric constant tensor:
#      x y z
#    x 1.624050 0.000890 -0.010760 
#    y 0.000890 1.640330 -0.008740 
#    z -0.010760 -0.008740 1.564420 
# 
# From -- ./inp_files/538824.got.cif
#   From: 2010.05.17/outbox.cif.g08.bks.cpg/sg2_270_cif.got.tgz:538824.got - 2010.06.03 11:33:40.
