data_PCOD9093174
_publ_section_title
;
Structure prediction by ZEFSAII (Michael W. Deem and Ramdas Pophale) SiO2 
 PCOD9093174
Probable space group: P -1
;
_chemical_formula_sum "Si O2"
_cell_formula_units_Z 16
_cell_length_a 10.125731
_cell_length_b 8.612209
_cell_length_c 12.098097
_cell_angle_alpha 52.133820
_cell_angle_beta 47.464939
_cell_angle_gamma 70.648031
_cell_volume 607.346439
_symmetry_space_group_name_H-M "P -1"
_symmetry_group_IT_number 2
_symmetry_cell_setting 'triclinic'
loop_
_space_group_symop_operation_xyz
x,y,z
-x,-y,-z
loop_
_atom_site_type_symbol
_atom_site_label
_atom_site_fract_x
_atom_site_fract_y
_atom_site_fract_z
Si Si1 0.498324 0.352527 0.463759
Si Si2 0.047384 0.739378 0.229953
Si Si3 0.637099 0.080111 0.178950
Si Si4 0.981271 0.340218 0.316411
Si Si5 0.369318 0.001142 0.178794
Si Si6 0.293117 0.521960 0.900399
Si Si7 0.955437 0.951466 0.399229
Si Si8 0.647798 0.394906 0.723902
O O1 0.500000 0.500000 0.500000
O O2 0.690847 0.433650 0.258585
O O3 0.364666 0.400331 0.419503
O O4 0.573333 0.869276 0.362525
O O5 0.946459 0.549752 0.301952
O O6 0.944699 0.868204 0.317136
O O7 0.192980 0.641891 0.268320
O O8 0.174981 0.889141 0.010659
O O9 0.478069 0.103956 0.172716
O O10 0.653114 0.261232 0.173717
O O11 0.071177 0.228577 0.417753
O O12 0.866267 0.139878 0.412195
O O13 0.112571 0.428918 0.103481
O O14 0.169845 0.036035 0.248676
O O15 0.342270 0.759591 0.314477
O O16 0.448195 0.381484 0.898785
O O17 0.500000 0.000000 0.000000
#
# Coordination Sequence:
#
# PCOD9093174 Si02
#       8
#     2   2   2   2   2   2   2   2
#     4  10  20  32  49  76 108 137 171 213 266 320
#     4  10  21  34  56  80 108 135 174 221 263 311
#     4  11  19  31  52  81 107 138 165 219 274 300
#     4  10  21  35  51  78 107 148 170 212 267 309
#     4  11  18  31  52  80 106 130 172 216 265 306
#     4   9  21  32  51  75 110 132 177 214 261 319
#     4  10  21  33  52  77 114 135 176 215 259 318
#     4   9  19  32  48  80 103 133 166 218 262 302
#
# _framework density 26.344107000000001
#
# number of rings (size 3 to 8) (size 9 to 14) (size 15 to 20)
#    0.750    1.250    3.750    1.500    3.500    1.000 
#    0.000    0.000    0.000    0.750    0.000   23.625 
#    0.000    0.125    0.000    0.000    0.000    0.000 
#
# Total GULP energy -89215.364860 kJ/mol
# GULP energy per Si atom -5575.960304 kJ/mol
# Density = 2.628415 g / cm^3
# Si number density = 26.344107 Si / 1000 Ang^3
#
#
#
# Elastic Constant Matrix: (Units=GPa)
#
#
# Indices 1 2 3 4 5 6 
#
# 1 38.8749 -12.5906 14.2767 1.8840 -8.9202 -2.7925
# 2 -12.5906 157.5460 50.2375 14.7165 -13.6306 10.3414
# 3 14.2767 50.2375 160.3325 5.8991 -3.0966 2.2885
# 4 1.8840 14.7165 5.8991 56.8289 -3.5135 1.1706
# 5 -8.9202 -13.6306 -3.0966 -3.5135 40.4908 -11.2560
# 6 -2.7925 10.3414 2.2885 1.1706 -11.2560 27.9763
#
#
#
# Elastic Compliance Matrix: (Units=1/GPa)
#
#
# Indices 1 2 3 4 5 6 
#
# 1 0.031253 0.004338 -0.003993 -0.001274 0.009521 0.005727
# 2 0.004338 0.008072 -0.002778 -0.001738 0.003022 -0.001035
# 3 -0.003993 -0.002778 0.007444 0.000004 -0.001396 -0.000542
# 4 -0.001274 -0.001738 0.000004 0.018132 0.000721 0.000046
# 5 0.009521 0.003022 -0.001396 0.000721 0.031239 0.012486
# 6 0.005727 -0.001035 -0.000542 0.000046 0.012486 0.041765
#
#
# Mechanical properties :
#
#
# Convention : Reuss Voigt Hill
#
# Bulk Modulus (GPa) = 23.86573 51.17785 37.52179
# Shear Modulus (GPa) = 31.90045 45.38119 38.64082
#
# Velocity S-wave (km/s) = 3.48359 4.15496 3.83400
# Velocity P-wave (km/s) = 5.02588 6.51822 5.82008
#
# Compressibility (1/GPa) = 0.04190109
#
# Stress axis : x y z
#
# Youngs Moduli (GPa) = 31.99714 123.89074 134.34066
#
# Poissons Ratio (x) = -0.53741 0.53643
# Poissons Ratio (y) = -0.13880 0.37324
# Poissons Ratio (z) = 0.12777 0.34421
#
# Static dielectric constant tensor:
#      x y z
#    x 2.120300 -0.071520 -0.055630 
#    y -0.071520 2.121260 -0.066930 
#    z -0.055630 -0.066930 2.269930 
# 
# From -- ./inp_files/460414.got.cif
#   From: 2010.05.17/outbox.cif.g08.bks.cpg/sg2_231_cif.got.tgz:460414.got - 2010.06.03 11:33:40.
