data_PCOD9093353
_publ_section_title
;
Structure prediction by ZEFSAII (Michael W. Deem and Ramdas Pophale) SiO2 
 PCOD9093353
Probable space group: P -1
;
_chemical_formula_sum "Si O2"
_cell_formula_units_Z 16
_cell_length_a 12.420151
_cell_length_b 9.566197
_cell_length_c 13.066626
_cell_angle_alpha 55.574655
_cell_angle_beta 32.838424
_cell_angle_gamma 76.184985
_cell_volume 589.711029
_symmetry_space_group_name_H-M "P -1"
_symmetry_group_IT_number 2
_symmetry_cell_setting 'triclinic'
loop_
_space_group_symop_operation_xyz
x,y,z
-x,-y,-z
loop_
_atom_site_type_symbol
_atom_site_label
_atom_site_fract_x
_atom_site_fract_y
_atom_site_fract_z
Si Si1 0.498928 0.823917 0.846653
Si Si2 0.376158 0.152775 0.618790
Si Si3 0.212660 0.437459 0.561295
Si Si4 0.147256 0.242487 0.299079
Si Si5 0.938107 0.227539 0.669943
Si Si6 0.365929 0.310167 0.758705
Si Si7 0.009901 0.851873 0.744579
Si Si8 0.229113 0.705392 0.902678
O O1 0.615280 0.717484 0.857000
O O2 0.379271 0.719917 0.878331
O O3 0.315870 0.827759 0.067886
O O4 0.720533 0.037677 0.544955
O O5 0.233396 0.246288 0.649594
O O6 0.352547 0.145077 0.763163
O O7 0.635309 0.296964 0.305291
O O8 0.273568 0.927672 0.762754
O O9 0.464095 0.634077 0.302617
O O10 0.114787 0.388702 0.544508
O O11 0.033761 0.432261 0.790005
O O12 0.137509 0.298172 0.167987
O O13 0.014861 0.300849 0.461807
O O14 0.000000 0.000000 0.500000
O O15 0.960687 0.032165 0.728530
O O16 0.500000 0.500000 0.500000
O O17 0.113860 0.270695 0.005020
#
# Coordination Sequence:
#
# PCOD9093353 Si02
#       8
#     2   2   2   2   2   2   2   2
#     4   9  17  31  54  83 105 125 169 220 267 314
#     4  10  20  35  52  77 105 139 183 223 263 309
#     4  10  20  35  53  75 109 142 175 217 263 318
#     4   8  17  30  53  81 106 130 165 222 268 311
#     4   9  17  33  58  81 103 134 170 220 270 310
#     4  10  22  37  53  73 109 151 178 214 262 311
#     4  10  20  35  53  78 105 137 178 218 261 309
#     4  10  20  32  57  82 100 136 180 225 268 307
#
# _framework density 27.131931000000002
#
# number of rings (size 3 to 8) (size 9 to 14) (size 15 to 20)
#    0.000    2.750    0.000    3.375    0.000   10.000 
#    0.000    4.375    0.000    3.000    0.000    0.000 
#    0.000    1.000    0.000    0.000    0.000    0.000 
#
# Total GULP energy -89493.820439 kJ/mol
# GULP energy per Si atom -5593.363777 kJ/mol
# Density = 2.707018 g / cm^3
# Si number density = 27.131931 Si / 1000 Ang^3
#
#
#
# Elastic Constant Matrix: (Units=GPa)
#
#
# Indices 1 2 3 4 5 6 
#
# 1 59.3603 67.1641 55.0003 12.3425 -8.5021 42.3421
# 2 67.1641 108.4093 48.0057 31.1193 -1.8810 9.9471
# 3 55.0003 48.0057 178.6982 54.4722 -3.0925 33.0093
# 4 12.3425 31.1193 54.4722 53.2734 6.6599 11.1052
# 5 -8.5021 -1.8810 -3.0925 6.6599 42.0106 8.1353
# 6 42.3421 9.9471 33.0093 11.1052 8.1353 49.3138
#
#
#
# Elastic Compliance Matrix: (Units=1/GPa)
#
#
# Indices 1 2 3 4 5 6 
#
# 1 -0.055656 0.033300 0.005852 -0.019886 -0.014722 0.044060
# 2 0.033300 -0.008501 -0.004820 0.006494 0.010162 -0.026789
# 3 0.005852 -0.004820 0.008727 -0.006082 0.004365 -0.009245
# 4 -0.019886 0.006494 -0.006082 0.023793 -0.011112 0.016311
# 5 -0.014722 0.010162 0.004365 -0.011112 0.022098 0.006525
# 6 0.044060 -0.026789 -0.009245 0.016311 0.006525 -0.010710
#
#
# Mechanical properties :
#
#
# Convention : Reuss Voigt Hill
#
# Bulk Modulus (GPa) = 75.56853 76.31200 75.94027
# Shear Modulus (GPa) = -59.17033 40.67273 -9.24880
#
# Velocity S-wave (km/s) = -4.67501 3.87599 -1.84830
# Velocity P-wave (km/s) = 1.10826 6.94394 4.84717
#
# Compressibility (1/GPa) = 0.01323302
#
# Stress axis : x y z
#
# Youngs Moduli (GPa) = -17.96759 -117.62711 114.58781
#
# Poissons Ratio (x) = 3.91694 -0.67061
# Poissons Ratio (y) = 0.59831 0.55236
# Poissons Ratio (z) = 0.10515 -0.56701
#
# Static dielectric constant tensor:
#      x y z
#    x 2.350730 -0.045400 0.100930 
#    y -0.045400 2.203960 -0.053180 
#    z 0.100930 -0.053180 2.196440 
# 
# From -- ./inp_files/531093.got.cif
#   From: 2010.05.17/outbox.cif.g08.bks.cpg/sg2_266_cif.got.tgz:531093.got - 2010.06.03 11:33:40.
