data_PCOD9093076
_publ_section_title
;
Structure prediction by ZEFSAII (Michael W. Deem and Ramdas Pophale) SiO2 
 PCOD9093076
Probable space group: P -1
;
_chemical_formula_sum "Si O2"
_cell_formula_units_Z 12
_cell_length_a 6.645358
_cell_length_b 8.787405
_cell_length_c 13.113618
_cell_angle_alpha 126.539021
_cell_angle_beta 131.066821
_cell_angle_gamma 62.642444
_cell_volume 460.905822
_symmetry_space_group_name_H-M "P -1"
_symmetry_group_IT_number 2
_symmetry_cell_setting 'triclinic'
loop_
_space_group_symop_operation_xyz
x,y,z
-x,-y,-z
loop_
_atom_site_type_symbol
_atom_site_label
_atom_site_fract_x
_atom_site_fract_y
_atom_site_fract_z
Si Si1 0.859241 0.417958 0.264772
Si Si2 0.179865 0.687607 0.004726
Si Si3 0.734392 0.328872 0.527846
Si Si4 0.679721 0.939255 0.726507
Si Si5 0.374285 0.217510 0.051598
Si Si6 0.863236 0.243186 0.769138
O O1 0.614779 0.340131 0.209432
O O2 0.000768 0.605601 0.412531
O O3 0.092064 0.239551 0.268673
O O4 0.754052 0.437961 0.120841
O O5 0.249186 0.624320 0.118943
O O6 0.283709 0.894199 0.114134
O O7 0.142809 0.264458 0.077070
O O8 0.500000 0.500000 0.500000
O O9 0.606818 0.136259 0.383035
O O10 0.791512 0.309731 0.659961
O O11 0.741003 0.049887 0.685338
O O12 0.181633 0.234320 0.892930
O O13 0.500000 0.000000 0.000000
#
# Coordination Sequence:
#
# PCOD9093076 Si02
#       6
#     2   2   2   2   2   2
#     4  11  17  32  55  81 101 132 165 215 258 292
#     4   8  19  30  56  79  98 129 180 201 250 303
#     4  10  20  31  52  77 104 138 170 206 258 301
#     4   8  17  31  51  75 101 135 172 199 246 312
#     4   9  17  31  52  80 103 129 166 215 250 297
#     4   8  18  32  52  77  99 136 175 202 248 309
#
# _framework density 26.035688
#
# number of rings (size 3 to 8) (size 9 to 14) (size 15 to 20)
#    2.000    0.667    3.333    1.000    0.000    1.333 
#    0.000    0.000    0.000   14.000    0.000    0.000 
#    0.000    0.000    0.000    0.000    0.000    0.000 
#
# Total GULP energy -66935.047314 kJ/mol
# GULP energy per Si atom -5577.920609 kJ/mol
# Density = 2.597643 g / cm^3
# Si number density = 26.035688 Si / 1000 Ang^3
#
#
#
# Elastic Constant Matrix: (Units=GPa)
#
#
# Indices 1 2 3 4 5 6 
#
# 1 86.1633 14.9991 35.2427 21.3236 23.7882 14.1207
# 2 14.9991 116.4627 59.8041 18.2696 23.2973 27.8410
# 3 35.2427 59.8041 133.1670 39.2858 45.2014 20.5895
# 4 21.3236 18.2696 39.2858 80.9482 27.6326 20.7980
# 5 23.7882 23.2973 45.2014 27.6326 30.5880 11.4732
# 6 14.1207 27.8410 20.5895 20.7980 11.4732 32.5321
#
#
#
# Elastic Compliance Matrix: (Units=1/GPa)
#
#
# Indices 1 2 3 4 5 6 
#
# 1 0.015149 0.001349 -0.000299 0.000845 -0.011639 -0.003976
# 2 0.001349 0.013222 -0.004485 0.002300 -0.003018 -0.009469
# 3 -0.000299 -0.004485 0.016734 0.000070 -0.021485 0.000909
# 4 0.000845 0.002300 0.000070 0.019655 -0.016898 -0.008986
# 5 -0.011639 -0.003018 -0.021485 -0.016898 0.091090 -0.000090
# 6 -0.003976 -0.009469 0.000909 -0.008986 -0.000090 0.045768
#
#
# Mechanical properties :
#
#
# Convention : Reuss Voigt Hill
#
# Bulk Modulus (GPa) = 26.15403 61.76496 43.95949
# Shear Modulus (GPa) = 22.60047 43.86348 33.23197
#
# Velocity S-wave (km/s) = 2.94948 4.10902 3.57655
# Velocity P-wave (km/s) = 4.65473 6.80343 5.82895
#
# Compressibility (1/GPa) = 0.03823503
#
# Stress axis : x y z
#
# Youngs Moduli (GPa) = 66.01038 75.62994 59.75872
#
# Poissons Ratio (x) = -0.10199 0.01785
# Poissons Ratio (y) = -0.08902 0.26802
# Poissons Ratio (z) = 0.01971 0.33920
#
# Static dielectric constant tensor:
#      x y z
#    x 2.037430 0.085420 0.028590 
#    y 0.085420 2.190060 0.004860 
#    z 0.028590 0.004860 2.082230 
# 
# From -- ./inp_files/489717.got.cif
#   From: 2010.05.17/outbox.cif.g08.bks.cpg/sg2_245_cif.got.tgz:489717.got - 2010.06.03 11:33:40.
