data_PCOD9093693
_publ_section_title
;
Structure prediction by ZEFSAII (Michael W. Deem and Ramdas Pophale) SiO2 
 PCOD9093693
Probable space group: P -1
;
_chemical_formula_sum "Si O2"
_cell_formula_units_Z 15
_cell_length_a 11.099593
_cell_length_b 11.763307
_cell_length_c 14.500831
_cell_angle_alpha 29.783472
_cell_angle_beta 132.884866
_cell_angle_gamma 119.511698
_cell_volume 663.634033
_symmetry_space_group_name_H-M "P -1"
_symmetry_group_IT_number 2
_symmetry_cell_setting 'triclinic'
loop_
_space_group_symop_operation_xyz
x,y,z
-x,-y,-z
loop_
_atom_site_type_symbol
_atom_site_label
_atom_site_fract_x
_atom_site_fract_y
_atom_site_fract_z
Si Si1 0.685204 0.041463 0.072692
Si Si2 0.337531 0.831899 0.228685
Si Si3 0.342353 0.165876 0.164399
Si Si4 0.026817 0.234631 0.301710
Si Si5 0.262513 0.357020 0.485410
Si Si6 0.500000 0.500000 0.000000
Si Si7 0.689829 0.936647 0.573766
Si Si8 0.645648 0.458538 0.898901
O O1 0.648756 0.287067 0.935810
O O2 0.786235 0.827524 0.339790
O O3 0.745178 0.055520 0.990248
O O4 0.500000 0.000000 0.000000
O O5 0.268885 0.599717 0.367506
O O6 0.543029 0.748963 0.376342
O O7 0.308937 0.013256 0.170500
O O8 0.286453 0.078422 0.293656
O O9 0.549533 0.165393 0.295364
O O10 0.303166 0.443919 0.929931
O O11 0.136842 0.368452 0.326241
O O12 0.137321 0.130792 0.342803
O O13 0.845253 0.406254 0.063367
O O14 0.000000 0.000000 0.500000
O O15 0.457934 0.579524 0.038712
O O16 0.591600 0.733034 0.647201
#
# Coordination Sequence:
#
# PCOD9093693 Si02
#       8
#     2   2   2   2   2   1   2   2
#     4  10  20  33  55  90 118 155 204 245 293 358
#     4  10  20  36  61  85 124 159 201 251 297 358
#     4  10  20  38  59  87 121 157 196 255 303 350
#     4  12  21  37  61  86 127 154 202 254 303 356
#     4  10  20  35  57  90 119 159 204 246 302 354
#     4  10  20  38  60  86 120 148 202 244 310 356
#     4  10  22  36  57  88 119 155 201 246 306 361
#     4  11  22  36  60  90 119 158 197 259 303 356
#
# _framework density 22.602819
#
# number of rings (size 3 to 8) (size 9 to 14) (size 15 to 20)
#    0.000    1.600    2.667    3.600    3.733    0.000 
#    2.400    0.000    0.000    9.600    0.000    0.000 
#    0.000    0.000    0.000    0.000    0.000    0.000 
#
# Total GULP energy -83580.972674 kJ/mol
# GULP energy per Si atom -5572.064845 kJ/mol
# Density = 2.255137 g / cm^3
# Si number density = 22.602819 Si / 1000 Ang^3
#
#
#
# Elastic Constant Matrix: (Units=GPa)
#
#
# Indices 1 2 3 4 5 6 
#
# 1 119.5494 34.0345 25.2025 2.2733 -22.4004 -30.0604
# 2 34.0345 187.2930 25.7515 -17.9526 -12.6539 -37.3387
# 3 25.2025 25.7515 59.6288 -4.2608 -14.3403 -9.0666
# 4 2.2733 -17.9526 -4.2608 34.9008 7.5569 0.0667
# 5 -22.4004 -12.6539 -14.3403 7.5569 34.4298 11.2043
# 6 -30.0604 -37.3387 -9.0666 0.0667 11.2043 41.8946
#
#
#
# Elastic Compliance Matrix: (Units=1/GPa)
#
#
# Indices 1 2 3 4 5 6 
#
# 1 0.011520 -0.000410 -0.002805 -0.002338 0.004726 0.006033
# 2 -0.000410 0.007157 -0.002044 0.003717 -0.001246 0.005970
# 3 -0.002805 -0.002044 0.020162 0.000269 0.006123 -0.001109
# 4 -0.002338 0.003717 0.000269 0.032575 -0.008464 0.003905
# 5 0.004726 -0.001246 0.006123 -0.008464 0.038218 -0.006602
# 6 0.006033 0.005970 -0.001109 0.003905 -0.006602 0.035038
#
#
# Mechanical properties :
#
#
# Convention : Reuss Voigt Hill
#
# Bulk Modulus (GPa) = 35.30975 59.60536 47.45756
# Shear Modulus (GPa) = 30.37153 41.01054 35.69103
#
# Velocity S-wave (km/s) = 3.66964 4.26420 3.97804
# Velocity P-wave (km/s) = 5.79747 7.11846 6.49166
#
# Compressibility (1/GPa) = 0.02832079
#
# Stress axis : x y z
#
# Youngs Moduli (GPa) = 86.80734 139.72481 49.59845
#
# Poissons Ratio (x) = 0.05725 0.13913
# Poissons Ratio (y) = 0.03557 0.10138
# Poissons Ratio (z) = 0.24351 0.28560
#
# Static dielectric constant tensor:
#      x y z
#    x 1.855920 -0.009820 -0.054640 
#    y -0.009820 1.858440 -0.040700 
#    z -0.054640 -0.040700 2.081510 
# 
# From -- ./inp_files/402250.got.cif
#   From: 2010.05.17/outbox.cif.g08.bks.cpg/sg2_202_cif.got.tgz:402250.got - 2010.06.03 11:33:40.
