data_PCOD9093759
_publ_section_title
;
Structure prediction by ZEFSAII (Michael W. Deem and Ramdas Pophale) SiO2 
 PCOD9093759
Probable space group: P -1
;
_chemical_formula_sum "Si O2"
_cell_formula_units_Z 16
_cell_length_a 5.992560
_cell_length_b 18.694454
_cell_length_c 15.486970
_cell_angle_alpha 151.450952
_cell_angle_beta 117.626958
_cell_angle_gamma 54.049606
_cell_volume 665.138951
_symmetry_space_group_name_H-M "P -1"
_symmetry_group_IT_number 2
_symmetry_cell_setting 'triclinic'
loop_
_space_group_symop_operation_xyz
x,y,z
-x,-y,-z
loop_
_atom_site_type_symbol
_atom_site_label
_atom_site_fract_x
_atom_site_fract_y
_atom_site_fract_z
Si Si1 0.267018 0.479584 0.833189
Si Si2 0.770932 0.862356 0.947661
Si Si3 0.917105 0.353268 0.860453
Si Si4 0.517093 0.320339 0.208491
Si Si5 0.020566 0.260085 0.327431
Si Si6 0.925301 0.805772 0.451151
Si Si7 0.202857 0.965603 0.184664
Si Si8 0.543867 0.599600 0.400377
O O1 0.590156 0.406964 0.842908
O O2 0.298739 0.507028 0.767835
O O3 0.163230 0.335999 0.678856
O O4 0.074477 0.637303 0.023969
O O5 0.717069 0.721192 0.833715
O O6 0.960761 0.797289 0.829367
O O7 0.921081 0.941199 0.119268
O O8 0.500000 0.000000 0.000000
O O9 0.080239 0.204250 0.665112
O O10 0.000000 0.500000 0.000000
O O11 0.453375 0.490718 0.331453
O O12 0.691014 0.322916 0.330156
O O13 0.599783 0.189929 0.002487
O O14 0.135140 0.118702 0.269497
O O15 0.222911 0.350549 0.464981
O O16 0.252409 0.745693 0.471512
O O17 0.741800 0.973929 0.648236
#
# Coordination Sequence:
#
# PCOD9093759 Si02
#       8
#     2   2   2   2   2   2   2   2
#     4   9  17  34  57  80 120 140 174 227 273 328
#     4  11  19  35  54  71 104 144 191 233 273 321
#     4   8  16  31  55  90 111 141 174 221 273 327
#     4  11  24  37  53  77 111 153 188 232 286 322
#     4  11  21  36  55  76 107 149 195 234 275 323
#     4  10  20  33  57  86 111 141 185 226 272 329
#     4  11  21  36  57  78 104 147 193 232 272 326
#     4  11  23  35  54  84 113 144 185 233 282 327
#
# _framework density 24.055123999999999
#
# number of rings (size 3 to 8) (size 9 to 14) (size 15 to 20)
#    0.000    1.750    3.750    1.875    0.000    2.500 
#    0.000    0.000    0.000    0.750    0.000   30.625 
#    0.000    0.000    0.000    0.000    0.000    0.000 
#
# Total GULP energy -89136.693682 kJ/mol
# GULP energy per Si atom -5571.043355 kJ/mol
# Density = 2.400037 g / cm^3
# Si number density = 24.055124 Si / 1000 Ang^3
#
#
#
# Elastic Constant Matrix: (Units=GPa)
#
#
# Indices 1 2 3 4 5 6 
#
# 1 83.3811 13.7699 41.9675 -5.3156 13.0976 15.0105
# 2 13.7699 22.8952 15.9276 -5.2568 -1.1982 8.4002
# 3 41.9675 15.9276 106.7111 -29.2368 -11.0787 3.4708
# 4 -5.3156 -5.2568 -29.2368 28.3483 12.8425 -1.1833
# 5 13.0976 -1.1982 -11.0787 12.8425 54.0330 -8.8741
# 6 15.0105 8.4002 3.4708 -1.1833 -8.8741 39.0214
#
#
#
# Elastic Compliance Matrix: (Units=1/GPa)
#
#
# Indices 1 2 3 4 5 6 
#
# 1 0.018963 -0.004077 -0.008066 -0.002697 -0.006907 -0.007352
# 2 -0.004077 0.054234 -0.005168 0.004228 -0.001493 -0.009858
# 3 -0.008066 -0.005168 0.017434 0.014497 0.002576 0.003690
# 4 -0.002697 0.004228 0.014497 0.054772 -0.009574 -0.001678
# 5 -0.006907 -0.001493 0.002576 -0.009574 0.024262 0.007977
# 6 -0.007352 -0.009858 0.003690 -0.001678 0.007977 0.032012
#
#
# Mechanical properties :
#
#
# Convention : Reuss Voigt Hill
#
# Bulk Modulus (GPa) = 17.85409 39.59081 28.72245
# Shear Modulus (GPa) = 19.61029 33.70202 26.65616
#
# Velocity S-wave (km/s) = 2.85831 3.74710 3.33247
# Velocity P-wave (km/s) = 4.28153 5.93423 5.17429
#
# Compressibility (1/GPa) = 0.05600958
#
# Stress axis : x y z
#
# Youngs Moduli (GPa) = 52.73455 18.43870 57.35933
#
# Poissons Ratio (x) = 0.07517 0.46267
# Poissons Ratio (y) = 0.21498 0.29641
# Poissons Ratio (z) = 0.42537 0.09528
#
# Static dielectric constant tensor:
#      x y z
#    x 1.755690 -0.013150 -0.050190 
#    y -0.013150 1.835260 -0.030050 
#    z -0.050190 -0.030050 1.972040 
# 
# From -- ./inp_files/48129.got.cif
#   From: 2010.05.17/outbox.cif.g08.bks.cpg/sg2_25_cif.got.tgz:48129.got - 2010.06.03 11:33:40.
