data_PCOD9093836
_publ_section_title
;
Structure prediction by ZEFSAII (Michael W. Deem and Ramdas Pophale) SiO2 
 PCOD9093836
Probable space group: P -1
;
_chemical_formula_sum "Si O2"
_cell_formula_units_Z 16
_cell_length_a 20.574088
_cell_length_b 18.387484
_cell_length_c 12.065299
_cell_angle_alpha 150.792543
_cell_angle_beta 18.437559
_cell_angle_gamma 150.522647
_cell_volume 677.195677
_symmetry_space_group_name_H-M "P -1"
_symmetry_group_IT_number 2
_symmetry_cell_setting 'triclinic'
loop_
_space_group_symop_operation_xyz
x,y,z
-x,-y,-z
loop_
_atom_site_type_symbol
_atom_site_label
_atom_site_fract_x
_atom_site_fract_y
_atom_site_fract_z
Si Si1 0.816279 0.964316 0.623425
Si Si2 0.140833 0.404666 0.209466
Si Si3 0.644274 0.343334 0.635913
Si Si4 0.553229 0.140656 0.740378
Si Si5 0.830250 0.920280 0.297006
Si Si6 0.272877 0.133746 0.846142
Si Si7 0.487351 0.437050 0.315571
Si Si8 0.983418 0.745063 0.199147
O O1 0.730594 0.924764 0.585671
O O2 0.947942 0.841619 0.275961
O O3 0.663497 0.945710 0.954535
O O4 0.967507 0.137635 0.621175
O O5 0.220253 0.492994 0.313047
O O6 0.000000 0.500000 0.500000
O O7 0.055201 0.220142 0.091013
O O8 0.368104 0.430801 0.816377
O O9 0.586105 0.226265 0.681287
O O10 0.416021 0.295711 0.878637
O O11 0.811844 0.310611 0.233715
O O12 0.665493 0.004807 0.373136
O O13 0.599505 0.296435 0.947409
O O14 0.680102 0.891476 0.393490
O O15 0.015760 0.082826 0.202057
O O16 0.500000 0.500000 0.500000
O O17 0.246968 0.377542 0.580189
#
# Coordination Sequence:
#
# PCOD9093836 Si02
#       8
#     2   2   2   2   2   2   2   2
#     4  10  20  34  58  87 123 149 195 256 302 352
#     4  11  22  39  63  91 119 162 199 257 305 362
#     4  11  22  38  64  91 125 151 211 254 301 366
#     4  10  20  35  62  91 115 155 202 255 302 353
#     4  11  25  41  59  87 128 160 206 246 312 369
#     4  11  24  40  60  89 120 169 199 254 306 365
#     4  10  20  34  56  91 125 151 196 251 313 357
#     4  10  20  33  58  93 116 154 192 259 309 344
#
# _framework density 23.626847999999999
#
# number of rings (size 3 to 8) (size 9 to 14) (size 15 to 20)
#    0.000    1.500    1.250    5.625    7.000    1.000 
#    0.000    0.000    0.000    0.750    0.000    0.000 
#    0.000    0.000    0.000    0.000    0.000    0.000 
#
# Total GULP energy -89068.022522 kJ/mol
# GULP energy per Si atom -5566.751408 kJ/mol
# Density = 2.357307 g / cm^3
# Si number density = 23.626848 Si / 1000 Ang^3
#
#
#
# Elastic Constant Matrix: (Units=GPa)
#
#
# Indices 1 2 3 4 5 6 
#
# 1 74.5608 10.2909 2.9752 4.6875 8.2462 13.7532
# 2 10.2909 97.4011 13.8662 -16.3097 -1.9762 34.5019
# 3 2.9752 13.8662 35.8962 -11.3187 3.3188 -1.3012
# 4 4.6875 -16.3097 -11.3187 30.7864 0.8154 1.9976
# 5 8.2462 -1.9762 3.3188 0.8154 23.5585 4.3177
# 6 13.7532 34.5019 -1.3012 1.9976 4.3177 38.1277
#
#
#
# Elastic Compliance Matrix: (Units=1/GPa)
#
#
# Indices 1 2 3 4 5 6 
#
# 1 0.014991 -0.000184 -0.001795 -0.002627 -0.004056 -0.004705
# 2 -0.000184 0.019463 -0.005780 0.009289 0.005648 -0.018870
# 3 -0.001795 -0.005780 0.034060 0.009429 -0.006312 0.007262
# 4 -0.002627 0.009289 0.009429 0.041862 0.000645 -0.009402
# 5 -0.004056 0.005648 -0.006312 0.000645 0.046896 -0.009208
# 6 -0.004705 -0.018870 0.007262 -0.009402 -0.009208 0.046783
#
#
# Mechanical properties :
#
#
# Convention : Reuss Voigt Hill
#
# Bulk Modulus (GPa) = 18.86993 29.12477 23.99735
# Shear Modulus (GPa) = 21.07581 30.54290 25.80936
#
# Velocity S-wave (km/s) = 2.98992 3.59934 3.30869
# Velocity P-wave (km/s) = 4.46358 5.44311 4.97750
#
# Compressibility (1/GPa) = 0.05299436
#
# Stress axis : x y z
#
# Youngs Moduli (GPa) = 66.70853 51.37905 29.36013
#
# Poissons Ratio (x) = 0.00944 0.05271
# Poissons Ratio (y) = 0.01225 0.16972
# Poissons Ratio (z) = 0.11977 0.29700
#
# Static dielectric constant tensor:
#      x y z
#    x 1.965140 -0.021260 -0.053600 
#    y -0.021260 1.923220 -0.070350 
#    z -0.053600 -0.070350 1.932000 
# 
# From -- ./inp_files/472757.got.cif
#   From: 2010.05.17/outbox.cif.g08.bks.cpg/sg2_237_cif.got.tgz:472757.got - 2010.06.03 11:33:40.
