data_PCOD9093571
_publ_section_title
;
Structure prediction by ZEFSAII (Michael W. Deem and Ramdas Pophale) SiO2 
 PCOD9093571
Probable space group: P -1
;
_chemical_formula_sum "Si O2"
_cell_formula_units_Z 16
_cell_length_a 13.777752
_cell_length_b 10.589071
_cell_length_c 9.628071
_cell_angle_alpha 28.842335
_cell_angle_beta 103.261608
_cell_angle_gamma 106.272275
_cell_volume 650.080895
_symmetry_space_group_name_H-M "P -1"
_symmetry_group_IT_number 2
_symmetry_cell_setting 'triclinic'
loop_
_space_group_symop_operation_xyz
x,y,z
-x,-y,-z
loop_
_atom_site_type_symbol
_atom_site_label
_atom_site_fract_x
_atom_site_fract_y
_atom_site_fract_z
Si Si1 0.500115 0.059513 0.189280
Si Si2 0.209475 0.581557 0.837375
Si Si3 0.349464 0.966544 0.960891
Si Si4 0.032019 0.425264 0.735859
Si Si5 0.729867 0.552857 0.440767
Si Si6 0.123454 0.062480 0.480518
Si Si7 0.594406 0.459430 0.211007
Si Si8 0.915940 0.860153 0.315026
O O1 0.426085 0.985573 0.101113
O O2 0.485009 0.801984 0.528449
O O3 0.606099 0.119464 0.086017
O O4 0.463610 0.291778 0.041700
O O5 0.145544 0.517777 0.734879
O O6 0.179338 0.852283 0.622871
O O7 0.327291 0.579265 0.847790
O O8 0.162739 0.345732 0.152055
O O9 0.262764 0.727345 0.215384
O O10 0.331774 0.269088 0.655428
O O11 0.000000 0.500000 0.500000
O O12 0.969064 0.616018 0.618094
O O13 0.994737 0.115634 0.050125
O O14 0.668492 0.510165 0.320634
O O15 0.837424 0.744494 0.281384
O O16 0.146976 0.059753 0.653481
O O17 0.000000 0.000000 0.500000
#
# Coordination Sequence:
#
# PCOD9093571 Si02
#       8
#     2   2   2   2   2   2   2   2
#     4   9  17  31  52  81 114 148 177 216 276 342
#     4  12  23  39  59  83 110 151 192 237 285 320
#     4   9  17  31  53  80 114 149 178 214 275 345
#     4  12  24  38  58  83 115 148 182 224 291 352
#     4  10  20  34  53  83 117 143 179 229 280 336
#     4  12  23  42  61  78 106 151 205 245 266 321
#     4  10  20  33  53  83 117 141 179 231 280 338
#     4  12  24  39  58  82 112 151 191 235 279 321
#
# _framework density 24.612321000000001
#
# number of rings (size 3 to 8) (size 9 to 14) (size 15 to 20)
#    0.000    1.250    2.500    4.500    0.000    6.000 
#    0.000    0.000    0.000    0.000    0.000   17.500 
#    0.000    0.000    0.000    0.000    0.000    0.000 
#
# Total GULP energy -89456.707323 kJ/mol
# GULP energy per Si atom -5591.044208 kJ/mol
# Density = 2.455630 g / cm^3
# Si number density = 24.612321 Si / 1000 Ang^3
#
#
#
# Elastic Constant Matrix: (Units=GPa)
#
#
# Indices 1 2 3 4 5 6 
#
# 1 63.1759 9.5486 7.2003 -3.2292 0.1525 -16.1291
# 2 9.5486 77.3377 7.8330 4.3267 9.9615 -9.6193
# 3 7.2003 7.8330 110.6131 -18.3573 1.0774 -3.4015
# 4 -3.2292 4.3267 -18.3573 32.0333 -6.6721 8.3446
# 5 0.1525 9.9615 1.0774 -6.6721 25.7674 -5.3566
# 6 -16.1291 -9.6193 -3.4015 8.3446 -5.3566 39.4557
#
#
#
# Elastic Compliance Matrix: (Units=1/GPa)
#
#
# Indices 1 2 3 4 5 6 
#
# 1 0.017983 -0.001508 -0.000849 0.000084 0.002024 0.007167
# 2 -0.001508 0.014778 -0.001659 -0.005225 -0.006346 0.003087
# 3 -0.000849 -0.001659 0.010269 0.006653 0.001723 -0.001039
# 4 0.000084 -0.005225 0.006653 0.039930 0.010482 -0.007687
# 5 0.002024 -0.006346 0.001723 0.010482 0.044571 0.003263
# 6 0.007167 0.003087 -0.001039 -0.007687 0.003263 0.031007
#
#
# Mechanical properties :
#
#
# Convention : Reuss Voigt Hill
#
# Bulk Modulus (GPa) = 28.57338 33.36561 30.96950
# Shear Modulus (GPa) = 28.05292 34.55426 31.30359
#
# Velocity S-wave (km/s) = 3.37974 3.75099 3.57019
# Velocity P-wave (km/s) = 5.18313 5.68733 5.44107
#
# Compressibility (1/GPa) = 0.03499761
#
# Stress axis : x y z
#
# Youngs Moduli (GPa) = 55.60867 67.66757 97.38428
#
# Poissons Ratio (x) = 0.10206 0.08269
# Poissons Ratio (y) = 0.08387 0.16153
# Poissons Ratio (z) = 0.04722 0.11224
#
# Static dielectric constant tensor:
#      x y z
#    x 2.043710 0.006800 0.052290 
#    y 0.006800 2.174630 -0.015830 
#    z 0.052290 -0.015830 1.873400 
# 
# From -- ./inp_files/434085.got.cif
#   From: 2010.05.17/outbox.cif.g08.bks.cpg/sg2_218_cif.got.tgz:434085.got - 2010.06.03 11:33:40.
