data_PCOD9093228
_publ_section_title
;
Structure prediction by ZEFSAII (Michael W. Deem and Ramdas Pophale) SiO2 
 PCOD9093228
Probable space group: P -1
;
_chemical_formula_sum "Si O2"
_cell_formula_units_Z 14
_cell_length_a 14.041703
_cell_length_b 14.098792
_cell_length_c 13.586676
_cell_angle_alpha 46.680012
_cell_angle_beta 21.332272
_cell_angle_gamma 38.643425
_cell_volume 600.764707
_symmetry_space_group_name_H-M "P -1"
_symmetry_group_IT_number 2
_symmetry_cell_setting 'triclinic'
loop_
_space_group_symop_operation_xyz
x,y,z
-x,-y,-z
loop_
_atom_site_type_symbol
_atom_site_label
_atom_site_fract_x
_atom_site_fract_y
_atom_site_fract_z
Si Si1 0.729014 0.659269 0.097492
Si Si2 0.333099 0.334546 0.487486
Si Si3 0.271142 0.555747 0.900785
Si Si4 0.775600 0.100821 0.924662
Si Si5 0.636854 0.606239 0.794787
Si Si6 0.592735 0.006612 0.517695
Si Si7 0.921951 0.199178 0.266620
O O1 0.678939 0.597468 0.087396
O O2 0.414137 0.729894 0.411952
O O3 0.000000 0.500000 0.000000
O O4 0.856921 0.771873 0.897151
O O5 0.417294 0.456100 0.356078
O O6 0.456766 0.292991 0.287033
O O7 0.523266 0.177740 0.477737
O O8 0.978209 0.391929 0.808676
O O9 0.128615 0.693805 0.857406
O O10 0.493850 0.279324 0.068109
O O11 0.628589 0.020729 0.183637
O O12 0.050563 0.103079 0.716421
O O13 0.929267 0.981769 0.771402
O O14 0.000000 0.500000 0.500000
O O15 0.500000 0.500000 0.000000
O O16 0.500000 0.000000 0.500000
#
# Coordination Sequence:
#
# PCOD9093228 Si02
#       7
#     2   2   2   2   2   2   2
#     4  10  20  32  51  83 133 164 182 224 287 372
#     4  12  22  37  62  86 121 157 198 243 296 359
#     4  11  20  34  55  91 122 161 191 229 295 362
#     4  12  24  38  63  87 122 160 200 243 297 363
#     4  12  28  46  60  84 118 162 211 254 297 351
#     4  12  22  36  58  92 122 153 193 244 306 359
#     4  11  19  34  54  88 124 161 190 228 295 362
#
# _framework density 23.303633000000001
#
# number of rings (size 3 to 8) (size 9 to 14) (size 15 to 20)
#    0.000    0.571    4.286    7.286    2.000    0.000 
#    0.000    0.000    0.000    0.000    0.000   20.000 
#    0.000    0.000    0.000    0.000    0.000    0.000 
#
# Total GULP energy -78238.533704 kJ/mol
# GULP energy per Si atom -5588.466693 kJ/mol
# Density = 2.325059 g / cm^3
# Si number density = 23.303633 Si / 1000 Ang^3
#
#
#
# Elastic Constant Matrix: (Units=GPa)
#
#
# Indices 1 2 3 4 5 6 
#
# 1 42.0431 22.6740 16.2276 1.1756 -3.1958 30.0171
# 2 22.6740 95.9947 33.0378 16.7306 6.3802 42.7471
# 3 16.2276 33.0378 163.5044 5.8089 1.2932 24.5891
# 4 1.1756 16.7306 5.8089 39.4327 11.7395 4.8564
# 5 -3.1958 6.3802 1.2932 11.7395 37.2782 -6.4954
# 6 30.0171 42.7471 24.5891 4.8564 -6.4954 39.6868
#
#
#
# Elastic Compliance Matrix: (Units=1/GPa)
#
#
# Indices 1 2 3 4 5 6 
#
# 1 0.059456 0.013119 0.000632 0.002698 -0.008691 -0.061244
# 2 0.013119 0.025877 -0.000546 -0.003962 -0.008729 -0.038401
# 3 0.000632 -0.000546 0.006809 -0.000024 -0.000820 -0.004239
# 4 0.002698 -0.003962 -0.000024 0.030017 -0.009050 -0.002913
# 5 -0.008691 -0.008729 -0.000820 -0.009050 0.034502 0.023237
# 6 -0.061244 -0.038401 -0.004239 -0.002913 0.023237 0.119668
#
#
# Mechanical properties :
#
#
# Convention : Reuss Voigt Hill
#
# Bulk Modulus (GPa) = 8.43519 49.49121 28.96320
# Shear Modulus (GPa) = 17.27498 38.58639 27.93068
#
# Velocity S-wave (km/s) = 2.72564 4.07358 3.46577
# Velocity P-wave (km/s) = 3.67872 6.58855 5.33582
#
# Compressibility (1/GPa) = 0.11855098
#
# Stress axis : x y z
#
# Youngs Moduli (GPa) = 16.81910 38.64403 146.87407
#
# Poissons Ratio (x) = -0.50697 -0.09275
# Poissons Ratio (y) = -0.22065 0.08019
# Poissons Ratio (z) = -0.01062 0.02110
#
# Static dielectric constant tensor:
#      x y z
#    x 2.036140 0.007150 -0.039260 
#    y 0.007150 1.933620 0.050030 
#    z -0.039260 0.050030 1.833360 
# 
# From -- ./inp_files/433895.got.cif
#   From: 2010.05.17/outbox.cif.g08.bks.cpg/sg2_217_cif.got.tgz:433895.got - 2010.06.03 11:33:40.
