data_PCOD9093942
_publ_section_title
;
Structure prediction by ZEFSAII (Michael W. Deem and Ramdas Pophale) SiO2 
 PCOD9093942
Probable space group: P -1
;
_chemical_formula_sum "Si O2"
_cell_formula_units_Z 16
_cell_length_a 10.611840
_cell_length_b 13.463173
_cell_length_c 13.064155
_cell_angle_alpha 126.072714
_cell_angle_beta 67.180443
_cell_angle_gamma 147.186813
_cell_volume 792.732697
_symmetry_space_group_name_H-M "P -1"
_symmetry_group_IT_number 2
_symmetry_cell_setting 'triclinic'
loop_
_space_group_symop_operation_xyz
x,y,z
-x,-y,-z
loop_
_atom_site_type_symbol
_atom_site_label
_atom_site_fract_x
_atom_site_fract_y
_atom_site_fract_z
Si Si1 0.341836 0.712840 0.794109
Si Si2 0.807222 0.452384 0.487833
Si Si3 0.006126 0.875120 0.682606
Si Si4 0.679668 0.884130 0.067063
Si Si5 0.193094 0.849636 0.986682
Si Si6 0.453600 0.371995 0.234985
Si Si7 0.552917 0.712874 0.341569
Si Si8 0.667862 0.504995 0.932398
O O1 0.274705 0.649141 0.659649
O O2 0.172380 0.687992 0.886719
O O3 0.358650 0.592307 0.768343
O O4 0.608016 0.964841 0.881917
O O5 0.577281 0.298206 0.541091
O O6 0.000000 0.500000 0.500000
O O7 0.931755 0.678167 0.577699
O O8 0.756342 0.764946 0.698299
O O9 0.130854 0.984625 0.821201
O O10 0.199621 0.058473 0.648103
O O11 0.429228 0.676665 0.076951
O O12 0.712150 0.031082 0.080874
O O13 0.676912 0.775541 0.915913
O O14 0.941519 0.730532 0.009630
O O15 0.572617 0.590703 0.307771
O O16 0.366161 0.559567 0.213074
O O17 0.500000 0.500000 0.000000
#
# Coordination Sequence:
#
# PCOD9093942 Si02
#       8
#     2   2   2   2   2   2   2   2
#     4  10  23  41  65  85 121 169 199 248 311 363
#     4  11  23  44  63  83 120 163 207 252 299 358
#     4  10  22  35  60  92 122 157 204 248 292 361
#     4  10  20  33  62  93 120 160 197 249 307 348
#     4  10  22  42  60  92 125 155 204 253 305 363
#     4  10  20  36  59  84 126 158 198 248 305 352
#     4  10  22  37  59  96 121 157 207 244 299 359
#     4  11  21  34  64  95 124 153 201 254 300 352
#
# _framework density 20.183347999999999
#
# number of rings (size 3 to 8) (size 9 to 14) (size 15 to 20)
#    0.000    1.750    1.250    3.375    7.000    2.500 
#    0.000   13.125    0.000    0.000    0.000    0.000 
#    0.000    0.000    0.000    0.000    0.000    0.000 
#
# Total GULP energy -89322.557786 kJ/mol
# GULP energy per Si atom -5582.659862 kJ/mol
# Density = 2.013741 g / cm^3
# Si number density = 20.183348 Si / 1000 Ang^3
#
#
#
# Elastic Constant Matrix: (Units=GPa)
#
#
# Indices 1 2 3 4 5 6 
#
# 1 114.1879 51.4457 34.4424 -8.6020 -12.7384 -2.3475
# 2 51.4457 86.6190 13.6824 -7.6958 7.0354 -7.3796
# 3 34.4424 13.6824 81.8128 -11.2681 6.0543 3.3949
# 4 -8.6020 -7.6958 -11.2681 11.6356 1.0028 -0.6504
# 5 -12.7384 7.0354 6.0543 1.0028 27.3049 4.1107
# 6 -2.3475 -7.3796 3.3949 -0.6504 4.1107 20.6229
#
#
#
# Elastic Compliance Matrix: (Units=1/GPa)
#
#
# Indices 1 2 3 4 5 6 
#
# 1 0.016368 -0.010173 -0.006216 -0.001880 0.012193 -0.003244
# 2 -0.010173 0.019667 0.002895 0.009781 -0.012036 0.008111
# 3 -0.006216 0.002895 0.016935 0.014373 -0.007863 -0.000439
# 4 -0.001880 0.009781 0.014373 0.106298 -0.011475 0.006560
# 5 0.012193 -0.012036 -0.007863 -0.011475 0.049358 -0.011825
# 6 -0.003244 0.008111 -0.000439 0.006560 -0.011825 0.053659
#
#
# Mechanical properties :
#
#
# Convention : Reuss Voigt Hill
#
# Bulk Modulus (GPa) = 38.48802 53.52897 46.00849
# Shear Modulus (GPa) = 16.78229 24.11595 20.44912
#
# Velocity S-wave (km/s) = 2.88669 3.46040 3.18648
# Velocity P-wave (km/s) = 5.49738 6.52263 6.03183
#
# Compressibility (1/GPa) = 0.02598211
#
# Stress axis : x y z
#
# Youngs Moduli (GPa) = 61.09655 50.84618 59.04806
#
# Poissons Ratio (x) = 0.51726 0.36703
# Poissons Ratio (y) = 0.62153 -0.17094
# Poissons Ratio (z) = 0.37977 -0.14719
#
# Static dielectric constant tensor:
#      x y z
#    x 1.730850 -0.013180 -0.015910 
#    y -0.013180 1.726770 0.002970 
#    z -0.015910 0.002970 1.715500 
# 
# From -- ./inp_files/433209.got.cif
#   From: 2010.05.17/outbox.cif.g08.bks.cpg/sg2_217_cif.got.tgz:433209.got - 2010.06.03 11:33:40.
