data_PCOD9093829
_publ_section_title
;
Structure prediction by ZEFSAII (Michael W. Deem and Ramdas Pophale) SiO2 
 PCOD9093829
Probable space group: P -1
;
_chemical_formula_sum "Si O2"
_cell_formula_units_Z 14
_cell_length_a 12.685761
_cell_length_b 7.957406
_cell_length_c 12.692302
_cell_angle_alpha 104.705599
_cell_angle_beta 125.754319
_cell_angle_gamma 45.887837
_cell_volume 720.374781
_symmetry_space_group_name_H-M "P -1"
_symmetry_group_IT_number 2
_symmetry_cell_setting 'triclinic'
loop_
_space_group_symop_operation_xyz
x,y,z
-x,-y,-z
loop_
_atom_site_type_symbol
_atom_site_label
_atom_site_fract_x
_atom_site_fract_y
_atom_site_fract_z
Si Si1 0.669224 0.466906 0.498919
Si Si2 0.030436 0.678118 0.657924
Si Si3 0.942973 0.964533 0.262176
Si Si4 0.716331 0.783508 0.597751
Si Si5 0.102744 0.539240 0.138330
Si Si6 0.468743 0.341002 0.314654
Si Si7 0.190365 0.157488 0.652991
O O1 0.737183 0.585810 0.511790
O O2 0.550654 0.453932 0.355265
O O3 0.562560 0.612635 0.568983
O O4 0.852119 0.200760 0.598831
O O5 0.842924 0.817248 0.634486
O O6 0.959675 0.744255 0.507426
O O7 0.153675 0.391490 0.701812
O O8 0.119038 0.780764 0.753187
O O9 0.834409 0.953816 0.282999
O O10 0.974734 0.806779 0.156734
O O11 0.802174 0.655315 0.740840
O O12 0.500000 0.000000 0.500000
O O13 0.273603 0.477393 0.175711
O O14 0.000000 0.500000 0.000000
O O15 0.615306 0.061711 0.321968
#
# Coordination Sequence:
#
# PCOD9093829 Si02
#       7
#     2   2   2   2   2   2   2
#     4   9  17  33  51  82 117 146 189 234 296 334
#     4  11  20  31  55  87 123 155 180 238 303 344
#     4  10  20  36  57  82 122 157 191 239 291 355
#     4  10  20  33  58  90 116 146 195 250 287 344
#     4  10  22  42  60  81 116 161 200 241 294 347
#     4   9  18  31  57  78 109 151 189 240 279 345
#     4  11  20  32  52  91 121 150 190 235 300 354
#
# _framework density 19.434328000000001
#
# number of rings (size 3 to 8) (size 9 to 14) (size 15 to 20)
#    0.000    2.286    4.286    2.143    4.000    0.000 
#    0.000    1.429    0.000    0.857    0.000    0.000 
#    0.000    0.000    0.000    0.000    0.000    0.000 
#
# Total GULP energy -77935.049606 kJ/mol
# GULP energy per Si atom -5566.789258 kJ/mol
# Density = 1.939009 g / cm^3
# Si number density = 19.434328 Si / 1000 Ang^3
#
#
#
# Elastic Constant Matrix: (Units=GPa)
#
#
# Indices 1 2 3 4 5 6 
#
# 1 63.4456 39.6962 22.1783 15.3219 7.0584 7.0791
# 2 39.6962 106.9426 28.8512 20.7793 4.2316 0.4765
# 3 22.1783 28.8512 84.4843 22.4112 28.6155 11.1233
# 4 15.3219 20.7793 22.4112 17.2789 8.2170 8.1970
# 5 7.0584 4.2316 28.6155 8.2170 19.1223 7.6829
# 6 7.0791 0.4765 11.1233 8.1970 7.6829 42.0042
#
#
#
# Elastic Compliance Matrix: (Units=1/GPa)
#
#
# Indices 1 2 3 4 5 6 
#
# 1 0.022665 -0.006105 -0.000323 -0.011153 -0.001231 -0.001263
# 2 -0.006105 0.014736 -0.002902 -0.013740 0.008102 0.002829
# 3 -0.000323 -0.002902 0.030277 -0.018915 -0.037468 0.002614
# 4 -0.011153 -0.013740 -0.018915 0.120769 -0.010571 -0.014590
# 5 -0.001231 0.008102 -0.037468 -0.010571 0.115171 -0.008965
# 6 -0.001263 0.002829 0.002614 -0.014590 -0.008965 0.027783
#
#
# Mechanical properties :
#
#
# Convention : Reuss Voigt Hill
#
# Bulk Modulus (GPa) = 20.40042 48.48042 34.44042
# Shear Modulus (GPa) = 13.64632 26.62418 20.13525
#
# Velocity S-wave (km/s) = 2.65273 3.70531 3.22229
# Velocity P-wave (km/s) = 4.46123 6.58070 5.62175
#
# Compressibility (1/GPa) = 0.04901860
#
# Stress axis : x y z
#
# Youngs Moduli (GPa) = 44.12019 67.86047 33.02875
#
# Poissons Ratio (x) = 0.41426 0.01068
# Poissons Ratio (y) = 0.26933 0.09584
# Poissons Ratio (z) = 0.01427 0.19692
#
# Static dielectric constant tensor:
#      x y z
#    x 1.803770 0.021930 -0.004320 
#    y 0.021930 1.833650 0.028590 
#    z -0.004320 0.028590 1.648580 
# 
# From -- ./inp_files/526780.got.cif
#   From: 2010.05.17/outbox.cif.g08.bks.cpg/sg2_264_cif.got.tgz:526780.got - 2010.06.03 11:33:40.
