data_PCOD9093171
_publ_section_title
;
Structure prediction by ZEFSAII (Michael W. Deem and Ramdas Pophale) SiO2 
 PCOD9093171
Probable space group: P -1
;
_chemical_formula_sum "Si O2"
_cell_formula_units_Z 14
_cell_length_a 11.702159
_cell_length_b 12.822595
_cell_length_c 5.113128
_cell_angle_alpha 97.035511
_cell_angle_beta 78.476148
_cell_angle_gamma 62.438442
_cell_volume 645.732580
_symmetry_space_group_name_H-M "P -1"
_symmetry_group_IT_number 2
_symmetry_cell_setting 'triclinic'
loop_
_space_group_symop_operation_xyz
x,y,z
-x,-y,-z
loop_
_atom_site_type_symbol
_atom_site_label
_atom_site_fract_x
_atom_site_fract_y
_atom_site_fract_z
Si Si1 0.079174 0.728495 0.413937
Si Si2 0.700019 0.198163 0.542172
Si Si3 0.088656 0.338488 0.180522
Si Si4 0.691462 0.500468 0.016875
Si Si5 0.561514 0.335639 0.152916
Si Si6 0.823662 0.604963 0.342573
Si Si7 0.057933 0.034457 0.735310
O O1 0.189652 0.756723 0.499317
O O2 0.973372 0.736496 0.678657
O O3 0.002851 0.823868 0.245382
O O4 0.166293 0.594745 0.210063
O O5 0.586977 0.277453 0.407613
O O6 0.782363 0.056949 0.383515
O O7 0.641901 0.229380 0.869793
O O8 0.192671 0.339101 0.346404
O O9 0.959957 0.474201 0.260845
O O10 0.152493 0.314087 0.857602
O O11 0.629145 0.421214 0.138144
O O12 0.717797 0.574234 0.249347
O O13 0.587279 0.583754 0.868307
O O14 0.000000 0.000000 0.500000
O O15 0.000000 0.000000 0.000000
#
# Coordination Sequence:
#
# PCOD9093171 Si02
#       7
#     2   2   2   2   2   2   2
#     4  10  20  33  54  79 108 135 166 213 262 309
#     4  10  20  36  51  74 104 135 171 208 246 304
#     4  10  20  32  49  74 103 139 169 202 259 310
#     4  10  20  34  51  76 106 136 167 209 253 304
#     4  10  22  34  52  74 102 139 174 202 249 305
#     4  10  20  33  48  71 107 138 169 207 249 309
#     4  10  20  34  53  76 103 136 169 210 261 304
#
# _framework density 21.680803000000001
#
# number of rings (size 3 to 8) (size 9 to 14) (size 15 to 20)
#    0.000    2.000    0.000    6.000    0.000   13.143 
#    0.000    0.000    0.000    0.000    0.000    6.000 
#    0.000    0.000    0.000    0.000    0.000    0.000 
#
# Total GULP energy -78254.058638 kJ/mol
# GULP energy per Si atom -5589.575617 kJ/mol
# Density = 2.163146 g / cm^3
# Si number density = 21.680803 Si / 1000 Ang^3
#
#
#
# Elastic Constant Matrix: (Units=GPa)
#
#
# Indices 1 2 3 4 5 6 
#
# 1 85.3576 36.2899 35.1906 -4.9730 15.3427 -9.8370
# 2 36.2899 81.8174 28.1349 -12.9422 -3.8955 -23.0432
# 3 35.1906 28.1349 101.1035 -26.3763 11.3721 2.7131
# 4 -4.9730 -12.9422 -26.3763 32.2757 -5.6262 0.8199
# 5 15.3427 -3.8955 11.3721 -5.6262 33.1668 -6.7442
# 6 -9.8370 -23.0432 2.7131 0.8199 -6.7442 18.2649
#
#
#
# Elastic Compliance Matrix: (Units=1/GPa)
#
#
# Indices 1 2 3 4 5 6 
#
# 1 0.018390 -0.009784 -0.003917 -0.005971 -0.010432 -0.005441
# 2 -0.009784 0.035635 -0.008074 0.008940 0.022952 0.048960
# 3 -0.003917 -0.008074 0.017250 0.009476 -0.007083 -0.017899
# 4 -0.005971 0.008940 0.009476 0.042840 0.009506 0.008243
# 5 -0.010432 0.022952 -0.007083 0.009506 0.050368 0.042561
# 6 -0.005441 0.048960 -0.017899 0.008243 0.042561 0.131592
#
#
# Mechanical properties :
#
#
# Convention : Reuss Voigt Hill
#
# Bulk Modulus (GPa) = 36.06684 51.94546 44.00615
# Shear Modulus (GPa) = 14.33220 27.98568 21.15894
#
# Velocity S-wave (km/s) = 2.57389 3.59667 3.12738
# Velocity P-wave (km/s) = 5.05022 6.42334 5.77772
#
# Compressibility (1/GPa) = 0.02772630
#
# Stress axis : x y z
#
# Youngs Moduli (GPa) = 54.37780 28.06268 57.97083
#
# Poissons Ratio (x) = 0.27455 0.22704
# Poissons Ratio (y) = 0.53201 0.46806
# Poissons Ratio (z) = 0.21297 0.22658
#
# Static dielectric constant tensor:
#      x y z
#    x 1.823580 0.021070 -0.018990 
#    y 0.021070 1.857190 0.030680 
#    z -0.018990 0.030680 1.837390 
# 
# From -- ./inp_files/66714.got.cif
#   From: 2010.05.17/outbox.cif.g08.bks.cpg/sg2_34_cif.got.tgz:66714.got - 2010.06.03 11:33:40.
