data_PCOD9093194
_publ_section_title
;
Structure prediction by ZEFSAII (Michael W. Deem and Ramdas Pophale) SiO2 
 PCOD9093194
Probable space group: P -1
;
_chemical_formula_sum "Si O2"
_cell_formula_units_Z 14
_cell_length_a 11.828073
_cell_length_b 22.046891
_cell_length_c 12.005808
_cell_angle_alpha 140.250798
_cell_angle_beta 24.166151
_cell_angle_gamma 142.033687
_cell_volume 773.071361
_symmetry_space_group_name_H-M "P -1"
_symmetry_group_IT_number 2
_symmetry_cell_setting 'triclinic'
loop_
_space_group_symop_operation_xyz
x,y,z
-x,-y,-z
loop_
_atom_site_type_symbol
_atom_site_label
_atom_site_fract_x
_atom_site_fract_y
_atom_site_fract_z
Si Si1 0.833690 0.334625 0.962165
Si Si2 0.173726 0.539043 0.062446
Si Si3 0.193269 0.663432 0.597338
Si Si4 0.836104 0.780867 0.206687
Si Si5 0.248904 0.216624 0.445794
Si Si6 0.801922 0.000602 0.784434
Si Si7 0.762952 0.540657 0.627294
O O1 0.744650 0.378486 0.991601
O O2 0.988566 0.252013 0.683411
O O3 0.557071 0.290100 0.228242
O O4 0.071539 0.429777 0.942160
O O5 0.903953 0.547856 0.388771
O O6 0.442865 0.548570 0.915605
O O7 0.510871 0.741915 0.393393
O O8 0.253401 0.566921 0.459479
O O9 0.978824 0.624030 0.630258
O O10 0.021421 0.710245 0.904974
O O11 0.781676 0.777836 0.384723
O O12 0.032717 0.893992 0.156026
O O13 0.233182 0.103506 0.269362
O O14 0.000000 0.000000 0.500000
O O15 0.500000 0.000000 0.000000
#
# Coordination Sequence:
#
# PCOD9093194 Si02
#       7
#     2   2   2   2   2   2   2
#     4  11  22  34  54  78 102 141 176 201 259 310
#     4  11  22  36  52  76 107 136 173 217 249 298
#     4  11  22  34  54  78 102 141 176 201 259 310
#     4  11  20  34  53  78 109 137 167 209 255 311
#     4  11  20  34  53  78 109 137 167 209 255 311
#     4  10  20  32  50  78 108 136 166 206 260 310
#     4  11  22  36  52  76 107 136 173 217 249 298
#
# _framework density 18.109584000000002
#
# number of rings (size 3 to 8) (size 9 to 14) (size 15 to 20)
#    0.000    1.143    0.000   10.286    0.000    4.571 
#    0.000    0.000    0.000    0.000    0.000   20.000 
#    0.000    0.000    0.000    0.000    0.000    0.000 
#
# Total GULP energy -78229.961545 kJ/mol
# GULP energy per Si atom -5587.854396 kJ/mol
# Density = 1.806837 g / cm^3
# Si number density = 18.109584 Si / 1000 Ang^3
#
#
#
# Elastic Constant Matrix: (Units=GPa)
#
#
# Indices 1 2 3 4 5 6 
#
# 1 45.4685 34.1582 2.4743 2.1157 -10.5878 -0.2068
# 2 34.1582 108.9229 31.2007 0.7220 -7.7816 1.3585
# 3 2.4743 31.2007 91.1800 -4.2035 -21.5395 -1.3500
# 4 2.1157 0.7220 -4.2035 25.7471 1.9845 -3.8221
# 5 -10.5878 -7.7816 -21.5395 1.9845 22.7827 -3.9348
# 6 -0.2068 1.3585 -1.3500 -3.8221 -3.9348 26.2852
#
#
#
# Elastic Compliance Matrix: (Units=1/GPa)
#
#
# Indices 1 2 3 4 5 6 
#
# 1 0.035574 -0.012000 0.008046 -0.002276 0.020950 0.004118
# 2 -0.012000 0.014264 -0.006247 -0.000227 -0.006976 -0.002230
# 3 0.008046 -0.006247 0.017440 0.001559 0.018702 0.004308
# 4 -0.002276 -0.000227 0.001559 0.040289 -0.002203 0.005602
# 5 0.020950 -0.006976 0.018702 -0.002203 0.071161 0.011818
# 6 0.004118 -0.002230 0.004308 0.005602 0.011818 0.040997
#
#
# Mechanical properties :
#
#
# Convention : Reuss Voigt Hill
#
# Bulk Modulus (GPa) = 21.33281 42.35976 31.84628
# Shear Modulus (GPa) = 19.55013 26.81223 23.18118
#
# Velocity S-wave (km/s) = 3.28921 3.85197 3.58166
# Velocity P-wave (km/s) = 5.12158 6.57458 5.89304
#
# Compressibility (1/GPa) = 0.04687616
#
# Stress axis : x y z
#
# Youngs Moduli (GPa) = 28.11072 70.10447 57.33824
#
# Poissons Ratio (x) = 0.84127 -0.46135
# Poissons Ratio (y) = 0.33734 0.35819
# Poissons Ratio (z) = -0.22618 0.43794
#
# Static dielectric constant tensor:
#      x y z
#    x 1.607860 0.008390 -0.002290 
#    y 0.008390 1.673230 0.009880 
#    z -0.002290 0.009880 1.612690 
# 
# From -- ./inp_files/439262.got.cif
#   From: 2010.05.17/outbox.cif.g08.bks.cpg/sg2_220_cif.got.tgz:439262.got - 2010.06.03 11:33:40.
