data_PCOD9093252
_publ_section_title
;
Structure prediction by ZEFSAII (Michael W. Deem and Ramdas Pophale) SiO2 
 PCOD9093252
Probable space group: P -1
;
_chemical_formula_sum "Si O2"
_cell_formula_units_Z 16
_cell_length_a 8.523464
_cell_length_b 11.463336
_cell_length_c 12.972055
_cell_angle_alpha 146.039812
_cell_angle_beta 67.061904
_cell_angle_gamma 106.499063
_cell_volume 650.139560
_symmetry_space_group_name_H-M "P -1"
_symmetry_group_IT_number 2
_symmetry_cell_setting 'triclinic'
loop_
_space_group_symop_operation_xyz
x,y,z
-x,-y,-z
loop_
_atom_site_type_symbol
_atom_site_label
_atom_site_fract_x
_atom_site_fract_y
_atom_site_fract_z
Si Si1 0.471695 0.138902 0.462341
Si Si2 0.816923 0.137590 0.261376
Si Si3 0.479316 0.219523 0.103612
Si Si4 0.219616 0.629922 0.748397
Si Si5 0.042719 0.266383 0.939665
Si Si6 0.246411 0.945765 0.228935
Si Si7 0.843423 0.701485 0.650905
Si Si8 0.590851 0.670128 0.168777
O O1 0.622814 0.193774 0.387245
O O2 0.295741 0.096641 0.418363
O O3 0.452067 0.307210 0.682324
O O4 0.531576 0.906637 0.319951
O O5 0.820917 0.154290 0.148756
O O6 0.955547 0.296181 0.379050
O O7 0.875348 0.922789 0.146808
O O8 0.595687 0.366389 0.246555
O O9 0.281196 0.299137 0.218877
O O10 0.500000 0.000000 0.000000
O O11 0.575516 0.184198 0.944147
O O12 0.211605 0.457631 0.537487
O O13 0.083345 0.605789 0.855500
O O14 0.205875 0.367719 0.927107
O O15 0.919406 0.186155 0.822046
O O16 0.200359 0.079733 0.236979
O O17 0.500000 0.500000 0.000000
#
# Coordination Sequence:
#
# PCOD9093252 Si02
#       8
#     2   2   2   2   2   2   2   2
#     4  10  22  42  66  86 118 158 195 248 302 356
#     4  10  20  35  55  86 119 161 192 231 299 354
#     4   9  18  33  51  73 116 160 189 225 280 350
#     4  11  20  33  55  88 122 153 195 240 289 347
#     4   9  21  38  61  84 118 160 195 243 293 352
#     4   9  19  39  58  83 117 157 198 233 300 355
#     4  10  20  32  52  86 124 158 189 244 280 348
#     4  10  23  44  65  89 115 151 203 252 300 352
#
# _framework density 24.610099999999999
#
# number of rings (size 3 to 8) (size 9 to 14) (size 15 to 20)
#    0.000    2.250    0.000    3.375    1.750    2.500 
#    6.750    0.625    0.000    0.000    0.000    0.000 
#    0.000    0.000    0.000    0.000    0.000    0.000 
#
# Total GULP energy -89407.860780 kJ/mol
# GULP energy per Si atom -5587.991299 kJ/mol
# Density = 2.455409 g / cm^3
# Si number density = 24.610100 Si / 1000 Ang^3
#
#
#
# Elastic Constant Matrix: (Units=GPa)
#
#
# Indices 1 2 3 4 5 6 
#
# 1 118.5230 51.6926 55.8464 -10.5674 19.8610 37.0655
# 2 51.6926 56.4214 29.3640 -5.5019 2.6033 25.3037
# 3 55.8464 29.3640 122.3423 -5.1437 26.1047 32.3387
# 4 -10.5674 -5.5019 -5.1437 32.0671 -0.8755 -5.3208
# 5 19.8610 2.6033 26.1047 -0.8755 43.2558 7.3796
# 6 37.0655 25.3037 32.3387 -5.3208 7.3796 56.8161
#
#
#
# Elastic Compliance Matrix: (Units=1/GPa)
#
#
# Indices 1 2 3 4 5 6 
#
# 1 0.017238 -0.012370 -0.002920 0.002424 -0.004809 -0.003223
# 2 -0.012370 0.032484 -0.001764 0.000358 0.005840 -0.006118
# 3 -0.002920 -0.001764 0.011941 -0.000062 -0.005174 -0.003440
# 4 0.002424 0.000358 -0.000062 0.032249 -0.000684 0.001403
# 5 -0.004809 0.005840 -0.005174 -0.000684 0.028124 -0.000236
# 6 -0.003223 -0.006118 -0.003440 0.001403 -0.000236 0.024548
#
#
# Mechanical properties :
#
#
# Convention : Reuss Voigt Hill
#
# Bulk Modulus (GPa) = 36.29014 63.45477 49.87246
# Shear Modulus (GPa) = 26.33300 37.12004 31.72652
#
# Velocity S-wave (km/s) = 3.27465 3.88793 3.59439
# Velocity P-wave (km/s) = 5.39220 6.78194 6.12660
#
# Compressibility (1/GPa) = 0.02755569
#
# Stress axis : x y z
#
# Youngs Moduli (GPa) = 58.01198 30.78402 83.74846
#
# Poissons Ratio (x) = 0.38079 0.24452
# Poissons Ratio (y) = 0.71760 0.14773
# Poissons Ratio (z) = 0.16938 0.05430
#
# Static dielectric constant tensor:
#      x y z
#    x 1.989930 -0.056280 -0.080860 
#    y -0.056280 2.027500 0.093360 
#    z -0.080860 0.093360 2.000250 
# 
# From -- ./inp_files/346442.got.cif
#   From: 2010.05.17/outbox.cif.g08.bks.cpg/sg2_174_cif.got.tgz:346442.got - 2010.06.03 11:33:40.
