data_PCOD9093382
_publ_section_title
;
Structure prediction by ZEFSAII (Michael W. Deem and Ramdas Pophale) SiO2 
 PCOD9093382
Probable space group: P -1
;
_chemical_formula_sum "Si O2"
_cell_formula_units_Z 14
_cell_length_a 12.795351
_cell_length_b 11.386275
_cell_length_c 17.567950
_cell_angle_alpha 27.659331
_cell_angle_beta 149.648678
_cell_angle_gamma 130.423047
_cell_volume 521.964706
_symmetry_space_group_name_H-M "P -1"
_symmetry_group_IT_number 2
_symmetry_cell_setting 'triclinic'
loop_
_space_group_symop_operation_xyz
x,y,z
-x,-y,-z
loop_
_atom_site_type_symbol
_atom_site_label
_atom_site_fract_x
_atom_site_fract_y
_atom_site_fract_z
Si Si1 0.262331 0.964043 0.365168
Si Si2 0.279746 0.707435 0.796962
Si Si3 0.150581 0.201529 0.314736
Si Si4 0.551937 0.217766 0.647272
Si Si5 0.370570 0.242103 0.920008
Si Si6 0.830016 0.532113 0.474886
Si Si7 0.038272 0.311957 0.879163
O O1 0.192125 0.981883 0.398405
O O2 0.500000 0.000000 0.500000
O O3 0.261079 0.680429 0.495179
O O4 0.066569 0.210246 0.043393
O O5 0.144053 0.529048 0.823074
O O6 0.130479 0.021967 0.479207
O O7 0.500000 0.500000 0.000000
O O8 0.416513 0.688189 0.972539
O O9 0.367309 0.249585 0.448775
O O10 0.000000 0.500000 0.000000
O O11 0.500000 0.500000 0.500000
O O12 0.527974 0.032378 0.805213
O O13 0.800660 0.986477 0.896623
O O14 0.321857 0.191733 0.832133
O O15 0.104091 0.435406 0.678993
O O16 0.818290 0.497989 0.577037
#
# Coordination Sequence:
#
# PCOD9093382 Si02
#       7
#     2   2   2   2   2   2   2
#     4  12  23  40  61  92 131 169 208 257 320 377
#     4  11  17  40  65  90 126 165 217 256 309 379
#     4  11  25  39  65  99 123 165 213 264 314 371
#     4  10  21  37  58  87 129 161 199 256 319 371
#     4   9  19  33  58  90 117 159 208 259 305 359
#     4  10  20  32  58  92 118 150 214 262 297 359
#     4  11  22  38  64  95 121 168 212 262 310 371
#
# _framework density 26.821736999999999
#
# number of rings (size 3 to 8) (size 9 to 14) (size 15 to 20)
#    0.000    1.429    5.714    2.143    6.000    0.000 
#    0.000    0.714    0.000    0.857    0.000    0.000 
#    0.000    0.000    0.000    0.000    0.000    0.000 
#
# Total GULP energy -77987.678344 kJ/mol
# GULP energy per Si atom -5570.548453 kJ/mol
# Density = 2.676069 g / cm^3
# Si number density = 26.821737 Si / 1000 Ang^3
#
#
#
# Elastic Constant Matrix: (Units=GPa)
#
#
# Indices 1 2 3 4 5 6 
#
# 1 86.4917 34.5162 46.1852 16.4163 -7.3926 -24.0687
# 2 34.5162 133.9935 37.9960 40.0196 4.8220 -6.0645
# 3 46.1852 37.9960 161.7563 51.8602 -43.9295 -21.6095
# 4 16.4163 40.0196 51.8602 48.4921 -18.5010 -18.3611
# 5 -7.3926 4.8220 -43.9295 -18.5010 49.2555 4.2764
# 6 -24.0687 -6.0645 -21.6095 -18.3611 4.2764 40.5333
#
#
#
# Elastic Compliance Matrix: (Units=1/GPa)
#
#
# Indices 1 2 3 4 5 6 
#
# 1 0.017597 -0.005002 -0.004561 0.007382 0.000923 0.010516
# 2 -0.005002 0.012849 0.000330 -0.014256 -0.006492 -0.006645
# 3 -0.004561 0.000330 0.012121 -0.009663 0.006574 -0.001268
# 4 0.007382 -0.014256 -0.009663 0.052070 0.011756 0.019446
# 5 0.000923 -0.006492 0.006574 0.011756 0.030908 0.005146
# 6 0.010516 -0.006645 -0.001268 0.019446 0.005146 0.037511
#
#
# Mechanical properties :
#
#
# Convention : Reuss Voigt Hill
#
# Bulk Modulus (GPa) = 41.49134 68.84849 55.16991
# Shear Modulus (GPa) = 26.37736 45.22578 35.80157
#
# Velocity S-wave (km/s) = 3.13937 4.11074 3.65745
# Velocity P-wave (km/s) = 5.35199 6.94663 6.20078
#
# Compressibility (1/GPa) = 0.02410142
#
# Stress axis : x y z
#
# Youngs Moduli (GPa) = 56.82659 77.82855 82.50262
#
# Poissons Ratio (x) = 0.38928 0.37627
# Poissons Ratio (y) = 0.28423 -0.02721
# Poissons Ratio (z) = 0.25917 -0.02566
#
# Static dielectric constant tensor:
#      x y z
#    x 2.475820 -0.497720 -0.147570 
#    y -0.497720 3.256190 0.280540 
#    z -0.147570 0.280540 2.308770 
# 
# From -- ./inp_files/573352.got.cif
#   From: 2010.05.17/outbox.cif.g08.bks.cpg/sg2_287_cif.got.tgz:573352.got - 2010.06.03 11:33:40.
