data_PCOD9093617
_publ_section_title
;
Structure prediction by ZEFSAII (Michael W. Deem and Ramdas Pophale) SiO2 
 PCOD9093617
Probable space group: P -1
;
_chemical_formula_sum "Si O2"
_cell_formula_units_Z 16
_cell_length_a 7.421013
_cell_length_b 12.293661
_cell_length_c 11.404059
_cell_angle_alpha 75.752268
_cell_angle_beta 54.415336
_cell_angle_gamma 107.077765
_cell_volume 682.603016
_symmetry_space_group_name_H-M "P -1"
_symmetry_group_IT_number 2
_symmetry_cell_setting 'triclinic'
loop_
_space_group_symop_operation_xyz
x,y,z
-x,-y,-z
loop_
_atom_site_type_symbol
_atom_site_label
_atom_site_fract_x
_atom_site_fract_y
_atom_site_fract_z
Si Si1 0.211935 0.625510 0.464120
Si Si2 0.307071 0.239384 0.092283
Si Si3 0.415986 0.302076 0.297707
Si Si4 0.839262 0.961398 0.395713
Si Si5 0.063591 0.685409 0.852571
Si Si6 0.337071 0.870532 0.470450
Si Si7 0.389874 0.438590 0.688367
Si Si8 0.903175 0.434151 0.845743
O O1 0.234801 0.765687 0.430120
O O2 0.496501 0.653622 0.316811
O O3 0.000000 0.500000 0.500000
O O4 0.106304 0.552897 0.648852
O O5 0.302888 0.289430 0.214143
O O6 0.151779 0.277540 0.051864
O O7 0.621224 0.323532 0.927014
O O8 0.138093 0.078152 0.215120
O O9 0.224048 0.177229 0.489892
O O10 0.482647 0.436085 0.303010
O O11 0.678783 0.295165 0.185182
O O12 0.647939 0.935697 0.363818
O O13 0.743998 0.022663 0.517849
O O14 0.888720 0.528690 0.922426
O O15 0.208435 0.784033 0.660550
O O16 0.500000 0.500000 0.500000
O O17 0.075647 0.374638 0.833327
#
# Coordination Sequence:
#
# PCOD9093617 Si02
#       8
#     2   2   2   2   2   2   2   2
#     4  10  20  35  60  84 100 142 191 226 267 330
#     4  11  20  31  53  81 113 146 176 225 280 331
#     4  10  20  33  54  84 109 144 192 219 272 329
#     4   9  17  32  53  81 112 144 178 224 269 325
#     4   8  17  32  48  74 113 142 168 223 277 323
#     4   8  16  32  56  78 107 142 182 226 274 309
#     4   9  19  35  54  75 111 143 178 232 272 316
#     4   9  19  35  49  77 113 138 178 225 285 323
#
# _framework density 23.439685000000001
#
# number of rings (size 3 to 8) (size 9 to 14) (size 15 to 20)
#    0.000    2.750    0.000    3.750    5.250    2.000 
#    2.250    0.000    0.000    7.500    0.000    0.000 
#    0.000    0.000    0.000    0.000    0.000    0.000 
#
# Total GULP energy -89212.786468 kJ/mol
# GULP energy per Si atom -5575.799154 kJ/mol
# Density = 2.338633 g / cm^3
# Si number density = 23.439685 Si / 1000 Ang^3
#
#
#
# Elastic Constant Matrix: (Units=GPa)
#
#
# Indices 1 2 3 4 5 6 
#
# 1 72.3165 7.6756 7.9707 -5.2648 -13.0278 -5.6477
# 2 7.6756 96.8723 24.1051 -1.8780 -12.0322 -2.6312
# 3 7.9707 24.1051 93.0082 -20.3435 -24.4225 -10.8727
# 4 -5.2648 -1.8780 -20.3435 34.4748 9.8389 -2.7256
# 5 -13.0278 -12.0322 -24.4225 9.8389 40.5623 -1.8273
# 6 -5.6477 -2.6312 -10.8727 -2.7256 -1.8273 33.7488
#
#
#
# Elastic Compliance Matrix: (Units=1/GPa)
#
#
# Indices 1 2 3 4 5 6 
#
# 1 0.015054 -0.000690 0.000910 0.001643 0.004922 0.003158
# 2 -0.000690 0.011256 -0.002752 -0.001658 0.001855 -0.000158
# 3 0.000910 -0.002752 0.015684 0.007624 0.007340 0.006004
# 4 0.001643 -0.001658 0.007624 0.035124 -0.003658 0.005240
# 5 0.004922 0.001855 0.007340 -0.003658 0.032307 0.004787
# 6 0.003158 -0.000158 0.006004 0.005240 0.004787 0.032763
#
#
# Mechanical properties :
#
#
# Convention : Reuss Voigt Hill
#
# Bulk Modulus (GPa) = 27.07917 37.96665 32.52291
# Shear Modulus (GPa) = 31.33544 36.58690 33.96117
#
# Velocity S-wave (km/s) = 3.66027 3.95510 3.81054
# Velocity P-wave (km/s) = 5.42597 6.09015 5.76763
#
# Compressibility (1/GPa) = 0.03692876
#
# Stress axis : x y z
#
# Youngs Moduli (GPa) = 66.42766 88.83831 63.75988
#
# Poissons Ratio (x) = 0.06132 -0.05800
# Poissons Ratio (y) = 0.04585 0.17548
# Poissons Ratio (z) = -0.06043 0.24450
#
# Static dielectric constant tensor:
#      x y z
#    x 2.025760 0.029250 0.006370 
#    y 0.029250 1.948160 0.077000 
#    z 0.006370 0.077000 2.059720 
# 
# From -- ./inp_files/346862.got.cif
#   From: 2010.05.17/outbox.cif.g08.bks.cpg/sg2_174_cif.got.tgz:346862.got - 2010.06.03 11:33:40.
