data_PCOD9093950
_publ_section_title
;
Structure prediction by ZEFSAII (Michael W. Deem and Ramdas Pophale) SiO2 
 PCOD9093950
Probable space group: P -1
;
_chemical_formula_sum "Si O2"
_cell_formula_units_Z 12
_cell_length_a 10.675538
_cell_length_b 15.157047
_cell_length_c 18.326044
_cell_angle_alpha 152.555005
_cell_angle_beta 154.868186
_cell_angle_gamma 40.907363
_cell_volume 562.968297
_symmetry_space_group_name_H-M "P -1"
_symmetry_group_IT_number 2
_symmetry_cell_setting 'triclinic'
loop_
_space_group_symop_operation_xyz
x,y,z
-x,-y,-z
loop_
_atom_site_type_symbol
_atom_site_label
_atom_site_fract_x
_atom_site_fract_y
_atom_site_fract_z
Si Si1 0.465444 0.882215 0.619643
Si Si2 0.301277 0.463913 0.442297
Si Si3 0.675590 0.993779 0.513598
Si Si4 0.605627 0.313305 0.973300
Si Si5 0.851083 0.606378 0.101799
Si Si6 0.241070 0.297774 0.040084
O O1 0.653227 0.738688 0.646347
O O2 0.424348 0.864014 0.496336
O O3 0.121162 0.798951 0.405579
O O4 0.604588 0.113765 0.873908
O O5 0.500000 0.500000 0.500000
O O6 0.452008 0.639166 0.706016
O O7 0.943492 0.430929 0.218828
O O8 0.034965 0.076797 0.775001
O O9 0.500000 0.000000 0.500000
O O10 0.577102 0.787497 0.268165
O O11 0.409316 0.425776 0.999953
O O12 0.720801 0.644713 0.982321
O O13 0.025168 0.432577 0.058309
#
# Coordination Sequence:
#
# PCOD9093950 Si02
#       6
#     2   2   2   2   2   2
#     4   8  19  34  58  80 107 147 181 228 271 324
#     4  11  21  36  54  83 116 149 181 223 284 331
#     4   9  18  34  56  82 106 143 187 225 269 325
#     4  10  20  33  63  83 108 148 190 225 270 336
#     4   9  17  36  59  83 106 145 191 228 275 324
#     4   9  19  34  56  79 114 143 179 235 281 320
#
# _framework density 21.315588000000002
#
# number of rings (size 3 to 8) (size 9 to 14) (size 15 to 20)
#    1.000    1.667    0.000    3.000    0.000    0.667 
#    0.000    7.500    0.000    1.000    0.000    0.000 
#    0.000    0.000    0.000    0.000    0.000    0.000 
#
# Total GULP energy -66925.330811 kJ/mol
# GULP energy per Si atom -5577.110901 kJ/mol
# Density = 2.126707 g / cm^3
# Si number density = 21.315588 Si / 1000 Ang^3
#
#
#
# Elastic Constant Matrix: (Units=GPa)
#
#
# Indices 1 2 3 4 5 6 
#
# 1 109.4777 32.1558 51.7135 1.4688 16.7437 -15.7541
# 2 32.1558 45.4626 23.4243 0.9606 9.1568 7.1973
# 3 51.7135 23.4243 174.0332 -9.7789 9.9318 -11.3896
# 4 1.4688 0.9606 -9.7789 8.6730 1.8067 5.3068
# 5 16.7437 9.1568 9.9318 1.8067 33.5597 1.2837
# 6 -15.7541 7.1973 -11.3896 5.3068 1.2837 28.8357
#
#
#
# Elastic Compliance Matrix: (Units=1/GPa)
#
#
# Indices 1 2 3 4 5 6 
#
# 1 0.016459 -0.011062 -0.002990 -0.012001 -0.004158 0.012966
# 2 -0.011062 0.033757 -0.001780 0.006690 -0.002902 -0.016274
# 3 -0.002990 -0.001780 0.007437 0.009184 -0.000721 0.000090
# 4 -0.012001 0.006690 0.009184 0.147305 -0.005282 -0.031473
# 5 -0.004158 -0.002902 -0.000721 -0.005282 0.033252 -0.002340
# 6 0.012966 -0.016274 0.000090 -0.031473 -0.002340 0.051757
#
#
# Mechanical properties :
#
#
# Convention : Reuss Voigt Hill
#
# Bulk Modulus (GPa) = 38.47872 60.39563 49.43718
# Shear Modulus (GPa) = 15.13801 28.99236 22.06519
#
# Velocity S-wave (km/s) = 2.66782 3.69202 3.22089
# Velocity P-wave (km/s) = 5.25174 6.82424 6.08897
#
# Compressibility (1/GPa) = 0.02598839
#
# Stress axis : x y z
#
# Youngs Moduli (GPa) = 60.75820 29.62331 134.45791
#
# Poissons Ratio (x) = 0.32770 0.40206
# Poissons Ratio (y) = 0.67211 0.23934
# Poissons Ratio (z) = 0.18168 0.05273
#
# Static dielectric constant tensor:
#      x y z
#    x 1.741690 0.030850 -0.000490 
#    y 0.030850 1.814890 0.046320 
#    z -0.000490 0.046320 1.828950 
# 
# From -- ./inp_files/157090.got.cif
#   From: 2010.05.17/outbox.cif.g08.bks.cpg/sg2_79_cif.got.tgz:157090.got - 2010.06.03 11:33:40.
