data_PCOD9093634
_publ_section_title
;
Structure prediction by ZEFSAII (Michael W. Deem and Ramdas Pophale) SiO2 
 PCOD9093634
Probable space group: P -1
;
_chemical_formula_sum "Si O2"
_cell_formula_units_Z 16
_cell_length_a 11.517883
_cell_length_b 8.781495
_cell_length_c 12.295520
_cell_angle_alpha 53.194054
_cell_angle_beta 63.670266
_cell_angle_gamma 99.072642
_cell_volume 720.526625
_symmetry_space_group_name_H-M "P -1"
_symmetry_group_IT_number 2
_symmetry_cell_setting 'triclinic'
loop_
_space_group_symop_operation_xyz
x,y,z
-x,-y,-z
loop_
_atom_site_type_symbol
_atom_site_label
_atom_site_fract_x
_atom_site_fract_y
_atom_site_fract_z
Si Si1 0.224002 0.547452 0.487750
Si Si2 0.442352 0.115603 0.395461
Si Si3 0.342697 0.623667 0.173919
Si Si4 0.625419 0.642198 0.125953
Si Si5 0.315898 0.272623 0.691974
Si Si6 0.420525 0.972468 0.815479
Si Si7 0.106609 0.793880 0.559129
Si Si8 0.188742 0.254027 0.215558
O O1 0.221710 0.527351 0.366956
O O2 0.212965 0.329337 0.639615
O O3 0.403932 0.786272 0.335426
O O4 0.111002 0.602339 0.571049
O O5 0.493369 0.361243 0.316718
O O6 0.500000 0.000000 0.500000
O O7 0.541375 0.166673 0.221680
O O8 0.258386 0.931533 0.518081
O O9 0.520006 0.734403 0.099194
O O10 0.308062 0.420817 0.191691
O O11 0.342506 0.813649 0.021838
O O12 0.715624 0.736549 0.162064
O O13 0.736687 0.690785 0.957642
O O14 0.500000 0.500000 0.500000
O O15 0.317150 0.047636 0.768719
O O16 0.949739 0.708757 0.729266
O O17 0.127676 0.990395 0.384266
#
# Coordination Sequence:
#
# PCOD9093634 Si02
#       8
#     2   2   2   2   2   2   2   2
#     4  10  21  37  60  87 117 162 199 249 300 356
#     4  11  21  36  63  90 118 160 203 253 298 362
#     4  12  21  35  61  91 120 150 209 256 292 354
#     4  12  20  36  62  92 122 151 207 256 299 352
#     4  10  20  36  56  91 123 151 196 254 308 345
#     4  10  20  33  54  92 120 146 195 258 302 341
#     4  10  23  42  59  87 128 158 206 237 319 362
#     4  11  24  39  59  92 125 164 191 257 305 367
#
# _framework density 22.205981000000001
#
# number of rings (size 3 to 8) (size 9 to 14) (size 15 to 20)
#    0.000    1.250    5.000    4.500    1.750    0.500 
#    0.000    2.500    0.000    0.750    0.000    0.000 
#    0.000    0.000    0.000    0.000    0.000    0.000 
#
# Total GULP energy -89412.934452 kJ/mol
# GULP energy per Si atom -5588.308403 kJ/mol
# Density = 2.215544 g / cm^3
# Si number density = 22.205981 Si / 1000 Ang^3
#
#
#
# Elastic Constant Matrix: (Units=GPa)
#
#
# Indices 1 2 3 4 5 6 
#
# 1 85.5529 10.8966 45.3905 14.0724 11.1128 -26.0071
# 2 10.8966 64.9760 10.7601 15.5368 -3.3822 -16.0623
# 3 45.3905 10.7601 57.1799 19.7928 5.8563 -10.0830
# 4 14.0724 15.5368 19.7928 42.0170 -12.3633 5.8303
# 5 11.1128 -3.3822 5.8563 -12.3633 21.8014 -2.0792
# 6 -26.0071 -16.0623 -10.0830 5.8303 -2.0792 34.5304
#
#
#
# Elastic Compliance Matrix: (Units=1/GPa)
#
#
# Indices 1 2 3 4 5 6 
#
# 1 0.029170 0.004822 -0.014683 -0.011955 -0.014949 0.021044
# 2 0.004822 0.021265 -0.000061 -0.013087 -0.005095 0.015409
# 3 -0.014683 -0.000061 0.035723 -0.015187 -0.010612 0.001270
# 4 -0.011955 -0.013087 -0.015187 0.054162 0.036332 -0.026483
# 5 -0.014949 -0.005095 -0.010612 0.036332 0.074399 -0.018382
# 6 0.021044 0.015409 0.001270 -0.026483 -0.018382 0.055712
#
#
# Mechanical properties :
#
#
# Convention : Reuss Voigt Hill
#
# Bulk Modulus (GPa) = 15.07954 37.97812 26.52883
# Shear Modulus (GPa) = 16.00620 29.04722 22.52671
#
# Velocity S-wave (km/s) = 2.68770 3.62066 3.18849
# Velocity P-wave (km/s) = 4.05427 5.88377 5.05252
#
# Compressibility (1/GPa) = 0.06631503
#
# Stress axis : x y z
#
# Youngs Moduli (GPa) = 34.28208 47.02606 27.99284
#
# Poissons Ratio (x) = -0.22677 0.41102
# Poissons Ratio (y) = -0.16531 0.00170
# Poissons Ratio (z) = 0.50336 0.00285
#
# Static dielectric constant tensor:
#      x y z
#    x 1.832770 0.012220 -0.002200 
#    y 0.012220 1.874310 0.004470 
#    z -0.002200 0.004470 1.806980 
# 
# From -- ./inp_files/187533.got.cif
#   From: 2010.05.17/outbox.cif.g08.bks.cpg/sg2_94_cif.got.tgz:187533.got - 2010.06.03 11:33:40.
