data_PCOD9093088
_publ_section_title
;
Structure prediction by ZEFSAII (Michael W. Deem and Ramdas Pophale) SiO2 
 PCOD9093088
Probable space group: P -1
;
_chemical_formula_sum "Si O2"
_cell_formula_units_Z 12
_cell_length_a 11.649703
_cell_length_b 13.355976
_cell_length_c 5.016023
_cell_angle_alpha 57.827442
_cell_angle_beta 64.847611
_cell_angle_gamma 63.913717
_cell_volume 574.314437
_symmetry_space_group_name_H-M "P -1"
_symmetry_group_IT_number 2
_symmetry_cell_setting 'triclinic'
loop_
_space_group_symop_operation_xyz
x,y,z
-x,-y,-z
loop_
_atom_site_type_symbol
_atom_site_label
_atom_site_fract_x
_atom_site_fract_y
_atom_site_fract_z
Si Si1 0.769548 0.667800 0.791522
Si Si2 0.507131 0.128571 0.194254
Si Si3 0.946939 0.627875 0.203441
Si Si4 0.770344 0.397277 0.234452
Si Si5 0.418427 0.767060 0.518195
Si Si6 0.413855 0.479838 0.360134
O O1 0.639706 0.779059 0.798024
O O2 0.853333 0.704436 0.416890
O O3 0.858840 0.631428 0.021079
O O4 0.734440 0.537776 0.947573
O O5 0.587798 0.188957 0.237393
O O6 0.500000 0.000000 0.500000
O O7 0.576999 0.126332 0.843863
O O8 0.000000 0.500000 0.500000
O O9 0.077490 0.656802 0.917981
O O10 0.690575 0.303154 0.346954
O O11 0.727394 0.430772 0.540839
O O12 0.561519 0.665968 0.476349
O O13 0.500000 0.500000 0.500000
O O14 0.500000 0.500000 0.000000
#
# Coordination Sequence:
#
# PCOD9093088 Si02
#       6
#     2   2   2   2   2   2
#     4  11  23  39  62  92 129 170 204 252 310 379
#     4  12  26  44  63  86 124 172 219 263 308 365
#     4  10  22  38  61  94 132 170 196 242 318 394
#     4  10  21  37  63  96 132 153 201 254 323 389
#     4  11  23  38  63  92 123 162 206 266 323 360
#     4  10  20  31  53  90 127 154 180 245 319 374
#
# _framework density 20.894476000000001
#
# number of rings (size 3 to 8) (size 9 to 14) (size 15 to 20)
#    0.000    1.333    1.667    5.500    2.333    9.333 
#    0.000    0.000    0.000    6.000    0.000    0.000 
#    0.000    0.000    0.000    0.000    0.000    0.000 
#
# Total GULP energy -66894.430430 kJ/mol
# GULP energy per Si atom -5574.535869 kJ/mol
# Density = 2.084692 g / cm^3
# Si number density = 20.894476 Si / 1000 Ang^3
#
#
#
# Elastic Constant Matrix: (Units=GPa)
#
#
# Indices 1 2 3 4 5 6 
#
# 1 117.8854 25.2296 53.0944 6.6896 -11.1227 -5.0253
# 2 25.2296 35.5996 32.9548 6.1812 -7.1108 -5.5592
# 3 53.0944 32.9548 144.0688 26.3424 -6.6990 -15.7554
# 4 6.6896 6.1812 26.3424 50.3489 1.4790 -0.1282
# 5 -11.1227 -7.1108 -6.6990 1.4790 37.4083 12.7669
# 6 -5.0253 -5.5592 -15.7554 -0.1282 12.7669 21.2030
#
#
#
# Elastic Compliance Matrix: (Units=1/GPa)
#
#
# Indices 1 2 3 4 5 6 
#
# 1 0.011095 -0.004832 -0.003291 0.000756 0.002680 -0.002692
# 2 -0.004832 0.038851 -0.006589 -0.000801 0.004263 0.001573
# 3 -0.003291 -0.006589 0.011164 -0.004501 -0.002542 0.007291
# 4 0.000756 -0.000801 -0.004501 0.022226 -0.000637 -0.002858
# 5 0.002680 0.004263 -0.002542 -0.000637 0.035188 -0.021328
# 6 -0.002692 0.001573 0.007291 -0.002858 -0.021328 0.065180
#
#
# Mechanical properties :
#
#
# Convention : Reuss Voigt Hill
#
# Bulk Modulus (GPa) = 31.56252 57.79016 44.67634
# Shear Modulus (GPa) = 22.35239 34.21037 28.28138
#
# Velocity S-wave (km/s) = 3.27429 4.05074 3.68303
# Velocity P-wave (km/s) = 5.42523 7.04245 6.28606
#
# Compressibility (1/GPa) = 0.03168315
#
# Stress axis : x y z
#
# Youngs Moduli (GPa) = 90.13392 25.73949 89.57730
#
# Poissons Ratio (x) = 0.12438 0.29483
# Poissons Ratio (y) = 0.43555 0.59025
# Poissons Ratio (z) = 0.29666 0.16960
#
# Static dielectric constant tensor:
#      x y z
#    x 1.899150 -0.007920 0.084790 
#    y -0.007920 1.788250 0.040100 
#    z 0.084790 0.040100 1.980490 
# 
# From -- ./inp_files/73718.got.cif
#   From: 2010.05.17/outbox.cif.g08.bks.cpg/sg2_37_cif.got.tgz:73718.got - 2010.06.03 11:33:40.
