data_PCOD9093084
_publ_section_title
;
Structure prediction by ZEFSAII (Michael W. Deem and Ramdas Pophale) SiO2 
 PCOD9093084
Probable space group: P -1
;
_chemical_formula_sum "Si O2"
_cell_formula_units_Z 14
_cell_length_a 7.942374
_cell_length_b 18.908406
_cell_length_c 11.983660
_cell_angle_alpha 44.506690
_cell_angle_beta 56.551505
_cell_angle_gamma 32.836912
_cell_volume 678.597841
_symmetry_space_group_name_H-M "P -1"
_symmetry_group_IT_number 2
_symmetry_cell_setting 'triclinic'
loop_
_space_group_symop_operation_xyz
x,y,z
-x,-y,-z
loop_
_atom_site_type_symbol
_atom_site_label
_atom_site_fract_x
_atom_site_fract_y
_atom_site_fract_z
Si Si1 0.211759 0.400060 0.429548
Si Si2 0.723135 0.747538 0.955597
Si Si3 0.150998 0.927353 0.403970
Si Si4 0.735363 0.412020 0.905647
Si Si5 0.294117 0.800646 0.901675
Si Si6 0.076183 0.408351 0.227148
Si Si7 0.161866 0.162042 0.392194
O O1 0.478186 0.216236 0.561037
O O2 0.351901 0.454751 0.279848
O O3 0.034053 0.433089 0.346554
O O4 0.000000 0.500000 0.500000
O O5 0.904075 0.709875 0.045489
O O6 0.912022 0.571472 0.056060
O O7 0.383039 0.834226 0.940537
O O8 0.782050 0.822416 0.772511
O O9 0.046810 0.854607 0.493337
O O10 0.000000 0.000000 0.500000
O O11 0.018103 0.049128 0.218845
O O12 0.500000 0.500000 0.000000
O O13 0.702083 0.321508 0.951018
O O14 0.563874 0.722329 0.798794
O O15 0.996800 0.325209 0.316981
O O16 0.500000 0.000000 0.500000
#
# Coordination Sequence:
#
# PCOD9093084 Si02
#       7
#     2   2   2   2   2   2   2
#     4  11  24  41  60  88 125 161 199 250 306 361
#     4  10  20  31  52  88 125 143 195 259 298 345
#     4  12  21  36  58  89 124 154 203 253 298 364
#     4  11  20  36  63  88 114 161 209 242 299 360
#     4  11  19  34  57  92 114 150 200 257 295 350
#     4  10  20  35  55  85 123 150 198 245 303 352
#     4  11  18  30  54  91 122 147 189 258 310 334
#
# _framework density 20.630776000000001
#
# number of rings (size 3 to 8) (size 9 to 14) (size 15 to 20)
#    0.000    1.143    7.143    3.429    2.000    0.000 
#    0.000    1.429    0.000    3.429    0.000    0.000 
#    0.000    0.000    0.000    0.000    0.000    0.000 
#
# Total GULP energy -77938.029147 kJ/mol
# GULP energy per Si atom -5567.002082 kJ/mol
# Density = 2.058382 g / cm^3
# Si number density = 20.630776 Si / 1000 Ang^3
#
#
#
# Elastic Constant Matrix: (Units=GPa)
#
#
# Indices 1 2 3 4 5 6 
#
# 1 56.2306 -17.0969 -13.0786 5.3490 -4.9345 4.3171
# 2 -17.0969 47.9315 13.7717 -1.7083 15.7886 -2.4494
# 3 -13.0786 13.7717 57.7544 -24.3237 3.9897 -8.9736
# 4 5.3490 -1.7083 -24.3237 29.5037 -1.5093 5.8138
# 5 -4.9345 15.7886 3.9897 -1.5093 42.0541 -17.7500
# 6 4.3171 -2.4494 -8.9736 5.8138 -17.7500 15.0473
#
#
#
# Elastic Compliance Matrix: (Units=1/GPa)
#
#
# Indices 1 2 3 4 5 6 
#
# 1 0.020915 0.008011 0.001530 -0.000561 -0.004431 -0.008794
# 2 0.008011 0.032403 -0.010257 -0.003683 -0.022126 -0.027818
# 3 0.001530 -0.010257 0.031796 0.021741 0.010679 0.021051
# 4 -0.000561 -0.003683 0.021741 0.054215 -0.004688 -0.013951
# 5 -0.004431 -0.022126 0.010679 -0.004688 0.065431 0.083033
# 6 -0.008794 -0.027818 0.021051 -0.013951 0.083033 0.180345
#
#
# Mechanical properties :
#
#
# Convention : Reuss Voigt Hill
#
# Bulk Modulus (GPa) = 11.95019 14.34542 13.14781
# Shear Modulus (GPa) = 12.06469 29.20902 20.63685
#
# Velocity S-wave (km/s) = 2.42087 3.76679 3.16617
# Velocity P-wave (km/s) = 3.69041 5.08791 4.44443
#
# Compressibility (1/GPa) = 0.08368069
#
# Stress axis : x y z
#
# Youngs Moduli (GPa) = 47.81233 30.86121 31.45024
#
# Poissons Ratio (x) = -0.24723 -0.04810
# Poissons Ratio (y) = -0.38302 0.32260
# Poissons Ratio (z) = -0.07313 0.31655
#
# Static dielectric constant tensor:
#      x y z
#    x 2.051290 -0.204620 0.026490 
#    y -0.204620 1.889270 -0.004020 
#    z 0.026490 -0.004020 1.675890 
# 
# From -- ./inp_files/176318.got.cif
#   From: 2010.05.17/outbox.cif.g08.bks.cpg/sg2_89_cif.got.tgz:176318.got - 2010.06.03 11:33:40.
