data_PCOD9093734
_publ_section_title
;
Structure prediction by ZEFSAII (Michael W. Deem and Ramdas Pophale) SiO2 
 PCOD9093734
Probable space group: P -1
;
_chemical_formula_sum "Si O2"
_cell_formula_units_Z 14
_cell_length_a 11.181193
_cell_length_b 10.070706
_cell_length_c 12.693744
_cell_angle_alpha 111.801219
_cell_angle_beta 111.731351
_cell_angle_gamma 129.700879
_cell_volume 537.229695
_symmetry_space_group_name_H-M "P -1"
_symmetry_group_IT_number 2
_symmetry_cell_setting 'triclinic'
loop_
_space_group_symop_operation_xyz
x,y,z
-x,-y,-z
loop_
_atom_site_type_symbol
_atom_site_label
_atom_site_fract_x
_atom_site_fract_y
_atom_site_fract_z
Si Si1 0.108140 0.783001 0.552298
Si Si2 0.202860 0.784031 0.813026
Si Si3 0.033411 0.151876 0.714037
Si Si4 0.288063 0.893323 0.330347
Si Si5 0.351460 0.477247 0.696207
Si Si6 0.352518 0.488237 0.134831
Si Si7 0.131620 0.776508 0.016208
O O1 0.238804 0.888441 0.741056
O O2 0.058756 0.593649 0.407369
O O3 0.767505 0.491488 0.376897
O O4 0.330065 0.118742 0.669710
O O5 0.176374 0.857573 0.930005
O O6 0.500000 0.000000 0.000000
O O7 0.793239 0.036081 0.624681
O O8 0.254924 0.402908 0.764063
O O9 0.873833 0.848599 0.538587
O O10 0.215401 0.315140 0.926768
O O11 0.981103 0.498708 0.110363
O O12 0.500000 0.000000 0.500000
O O13 0.344246 0.983682 0.250388
O O14 0.621346 0.636182 0.831624
O O15 0.135336 0.386163 0.085422
#
# Coordination Sequence:
#
# PCOD9093734 Si02
#       7
#     2   2   2   2   2   2   2
#     4  11  25  42  65  96 123 177 217 255 326 380
#     4  11  28  44  62  89 136 173 216 257 316 398
#     4  10  20  33  57 100 125 157 200 268 327 369
#     4  10  21  35  63  91 130 157 203 267 317 369
#     4  11  21  36  63  98 126 162 213 264 325 372
#     4  11  22  39  67  99 128 155 215 279 319 373
#     4  10  24  38  61  99 123 169 208 264 331 366
#
# _framework density 26.059619000000001
#
# number of rings (size 3 to 8) (size 9 to 14) (size 15 to 20)
#    0.000    1.429    2.857    2.143   10.000    1.143 
#    0.000    0.714    0.000    4.286    0.000    0.000 
#    0.000    0.000    0.000    0.000    0.000    0.000 
#
# Total GULP energy -78105.441252 kJ/mol
# GULP energy per Si atom -5578.960089 kJ/mol
# Density = 2.600031 g / cm^3
# Si number density = 26.059619 Si / 1000 Ang^3
#
#
#
# Elastic Constant Matrix: (Units=GPa)
#
#
# Indices 1 2 3 4 5 6 
#
# 1 153.7269 34.7856 61.0494 -16.5509 4.5047 15.1984
# 2 34.7856 64.8597 30.0011 -13.3307 -7.5929 15.4502
# 3 61.0494 30.0011 165.6297 -45.8546 1.1802 15.9114
# 4 -16.5509 -13.3307 -45.8546 31.9843 3.0350 -12.7443
# 5 4.5047 -7.5929 1.1802 3.0350 50.9496 -12.5815
# 6 15.1984 15.4502 15.9114 -12.7443 -12.5815 31.6253
#
#
#
# Elastic Compliance Matrix: (Units=1/GPa)
#
#
# Indices 1 2 3 4 5 6 
#
# 1 0.008433 -0.003214 -0.002767 -0.001766 -0.001664 -0.002464
# 2 -0.003214 0.019778 -0.001187 0.002368 0.001660 -0.005906
# 3 -0.002767 -0.001187 0.011255 0.015103 -0.000573 0.002105
# 4 -0.001766 0.002368 0.015103 0.059423 0.000643 0.016295
# 5 -0.001664 0.001660 -0.000573 0.000643 0.022322 0.009417
# 6 -0.002464 -0.005906 0.002105 0.016295 0.009417 0.044944
#
#
# Mechanical properties :
#
#
# Convention : Reuss Voigt Hill
#
# Bulk Modulus (GPa) = 39.78882 70.65427 55.22154
# Shear Modulus (GPa) = 26.47340 40.13719 33.30530
#
# Velocity S-wave (km/s) = 3.19074 3.92880 3.57885
# Velocity P-wave (km/s) = 5.37364 6.91029 6.18983
#
# Compressibility (1/GPa) = 0.02513269
#
# Stress axis : x y z
#
# Youngs Moduli (GPa) = 118.57818 50.56001 88.84549
#
# Poissons Ratio (x) = 0.16250 0.24580
# Poissons Ratio (y) = 0.38110 0.10544
# Poissons Ratio (z) = 0.32805 0.06000
#
# Static dielectric constant tensor:
#      x y z
#    x 2.001730 -0.039260 0.025460 
#    y -0.039260 2.326540 0.059620 
#    z 0.025460 0.059620 2.071640 
# 
# From -- ./inp_files/421810.got.cif
#   From: 2010.05.17/outbox.cif.g08.bks.cpg/sg2_211_cif.got.tgz:421810.got - 2010.06.03 11:33:40.
