data_PCOD9093773
_publ_section_title
;
Structure prediction by ZEFSAII (Michael W. Deem and Ramdas Pophale) SiO2 
 PCOD9093773
Probable space group: P -1
;
_chemical_formula_sum "Si O2"
_cell_formula_units_Z 16
_cell_length_a 12.904720
_cell_length_b 10.248261
_cell_length_c 17.292471
_cell_angle_alpha 148.629907
_cell_angle_beta 136.684147
_cell_angle_gamma 45.357327
_cell_volume 795.178353
_symmetry_space_group_name_H-M "P -1"
_symmetry_group_IT_number 2
_symmetry_cell_setting 'triclinic'
loop_
_space_group_symop_operation_xyz
x,y,z
-x,-y,-z
loop_
_atom_site_type_symbol
_atom_site_label
_atom_site_fract_x
_atom_site_fract_y
_atom_site_fract_z
Si Si1 0.557593 0.171579 0.845891
Si Si2 0.838482 0.307833 0.268445
Si Si3 0.115913 0.144767 0.432091
Si Si4 0.395278 0.418081 0.469236
Si Si5 0.425684 0.763638 0.370562
Si Si6 0.962431 0.278084 0.581836
Si Si7 0.890314 0.273145 0.097292
Si Si8 0.512942 0.426933 0.106873
O O1 0.448724 0.337683 0.805575
O O2 0.603120 0.875529 0.700812
O O3 0.716978 0.270792 0.975450
O O4 0.487502 0.237906 0.927515
O O5 0.834505 0.598057 0.442830
O O6 0.885490 0.288672 0.195092
O O7 0.664529 0.275269 0.157712
O O8 0.969633 0.112466 0.286275
O O9 0.047772 0.219421 0.516691
O O10 0.259249 0.905409 0.385364
O O11 0.500000 0.500000 0.500000
O O12 0.472308 0.393508 0.584152
O O13 0.221025 0.594938 0.463000
O O14 0.407542 0.580179 0.195147
O O15 0.500000 0.000000 0.500000
O O16 0.040395 0.489235 0.773027
O O17 0.000000 0.000000 0.500000
O O18 0.000000 0.000000 0.000000
#
# Coordination Sequence:
#
# PCOD9093773 Si02
#       8
#     2   2   2   2   2   2   2   2
#     4  10  21  38  62  95 128 170 215 272 321 388
#     4   9  18  31  53  87 119 157 200 266 302 366
#     4  10  20  33  57  88 128 157 212 261 320 372
#     4  12  25  42  67  94 133 175 218 269 334 396
#     4  12  22  36  63  96 127 167 226 271 319 387
#     4  11  24  41  64  94 133 170 210 265 332 392
#     4  10  20  35  62  91 121 162 215 255 317 380
#     4  10  20  35  59  92 128 159 211 271 320 368
#
# _framework density 20.121272999999999
#
# number of rings (size 3 to 8) (size 9 to 14) (size 15 to 20)
#    0.000    1.500    3.750    1.500    5.250    3.000 
#    0.000    0.625    0.000    3.750    0.000    0.000 
#    0.000    0.000    0.000    0.000    0.000    0.000 
#
# Total GULP energy -89182.539331 kJ/mol
# GULP energy per Si atom -5573.908708 kJ/mol
# Density = 2.007548 g / cm^3
# Si number density = 20.121273 Si / 1000 Ang^3
#
#
#
# Elastic Constant Matrix: (Units=GPa)
#
#
# Indices 1 2 3 4 5 6 
#
# 1 89.4238 35.4646 28.8530 4.6706 -18.8744 -18.9884
# 2 35.4646 112.6121 40.4156 5.0289 -3.4395 -18.6611
# 3 28.8530 40.4156 75.4429 2.0952 -17.4282 -9.3805
# 4 4.6706 5.0289 2.0952 29.3741 -2.3479 -7.5506
# 5 -18.8744 -3.4395 -17.4282 -2.3479 33.5437 9.8117
# 6 -18.9884 -18.6611 -9.3805 -7.5506 9.8117 37.8219
#
#
#
# Elastic Compliance Matrix: (Units=1/GPa)
#
#
# Indices 1 2 3 4 5 6 
#
# 1 0.015268 -0.003135 -0.002297 -0.000235 0.005898 0.003972
# 2 -0.003135 0.012679 -0.006191 -0.000514 -0.004985 0.004337
# 3 -0.002297 -0.006191 0.019217 0.000328 0.008547 -0.001593
# 4 -0.000235 -0.000514 0.000328 0.035921 0.000527 0.006744
# 5 0.005898 -0.004985 0.008547 0.000527 0.039280 -0.007464
# 6 0.003972 0.004337 -0.001593 0.006744 -0.007464 0.033461
#
#
# Mechanical properties :
#
#
# Convention : Reuss Voigt Hill
#
# Bulk Modulus (GPa) = 41.81058 54.10502 47.95780
# Shear Modulus (GPa) = 26.73162 31.66430 29.19796
#
# Velocity S-wave (km/s) = 3.64885 3.97126 3.81346
# Velocity P-wave (km/s) = 6.21100 6.92645 6.57846
#
# Compressibility (1/GPa) = 0.02391739
#
# Stress axis : x y z
#
# Youngs Moduli (GPa) = 65.49831 78.87230 52.03642
#
# Poissons Ratio (x) = 0.24728 0.11951
# Poissons Ratio (y) = 0.20535 0.32217
# Poissons Ratio (z) = 0.15043 0.48832
#
# Static dielectric constant tensor:
#      x y z
#    x 1.853660 0.087370 -0.011940 
#    y 0.087370 1.842280 -0.056290 
#    z -0.011940 -0.056290 1.791660 
# 
# From -- ./inp_files/516431.got.cif
#   From: 2010.05.17/outbox.cif.g08.bks.cpg/sg2_259_cif.got.tgz:516431.got - 2010.06.03 11:33:40.
