data_PCOD9093676
_publ_section_title
;
Structure prediction by ZEFSAII (Michael W. Deem and Ramdas Pophale) SiO2 
 PCOD9093676
Probable space group: P -1
;
_chemical_formula_sum "Si O2"
_cell_formula_units_Z 14
_cell_length_a 14.982631
_cell_length_b 11.934086
_cell_length_c 12.267857
_cell_angle_alpha 47.152241
_cell_angle_beta 26.890171
_cell_angle_gamma 42.086549
_cell_volume 663.762135
_symmetry_space_group_name_H-M "P -1"
_symmetry_group_IT_number 2
_symmetry_cell_setting 'triclinic'
loop_
_space_group_symop_operation_xyz
x,y,z
-x,-y,-z
loop_
_atom_site_type_symbol
_atom_site_label
_atom_site_fract_x
_atom_site_fract_y
_atom_site_fract_z
Si Si1 0.261961 0.102464 0.240345
Si Si2 0.496207 0.362130 0.358972
Si Si3 0.387573 0.963761 0.417396
Si Si4 0.222515 0.452585 0.150990
Si Si5 0.727199 0.685356 0.579900
Si Si6 0.734703 0.483175 0.289108
Si Si7 0.851260 0.787456 0.931268
O O1 0.240516 0.280787 0.191022
O O2 0.115382 0.136382 0.269806
O O3 0.252156 0.003559 0.425439
O O4 0.500000 0.000000 0.000000
O O5 0.613784 0.193220 0.412051
O O6 0.424010 0.316681 0.352727
O O7 0.289832 0.474487 0.582867
O O8 0.641152 0.464280 0.115167
O O9 0.309190 0.128681 0.467122
O O10 0.640105 0.914370 0.141037
O O11 0.307666 0.404385 0.213958
O O12 0.974120 0.581253 0.344140
O O13 0.500000 0.500000 0.500000
O O14 0.928617 0.303175 0.181597
O O15 0.786832 0.629792 0.081533
#
# Coordination Sequence:
#
# PCOD9093676 Si02
#       7
#     2   2   2   2   2   2   2
#     4   9  17  35  60  83 114 153 186 227 288 342
#     4  11  21  35  58  84 112 148 191 238 283 334
#     4   9  20  35  57  85 117 155 191 233 282 337
#     4  10  21  36  60  84 110 151 194 237 281 336
#     4  10  21  39  57  81 115 153 193 232 285 340
#     4  10  20  33  55  86 111 139 187 237 282 333
#     4   9  18  35  57  79 111 151 183 225 284 337
#
# _framework density 21.091891
#
# number of rings (size 3 to 8) (size 9 to 14) (size 15 to 20)
#    0.000    2.286    0.000    2.571    0.000    2.857 
#    0.000    2.857    0.000   65.143    0.000    0.000 
#    0.000    0.000    0.000    0.000    0.000    0.000 
#
# Total GULP energy -78163.016852 kJ/mol
# GULP energy per Si atom -5583.072632 kJ/mol
# Density = 2.104389 g / cm^3
# Si number density = 21.091891 Si / 1000 Ang^3
#
#
#
# Elastic Constant Matrix: (Units=GPa)
#
#
# Indices 1 2 3 4 5 6 
#
# 1 61.4722 13.9976 16.5664 -0.0549 10.2035 -13.5782
# 2 13.9976 115.1812 42.4207 12.1038 8.2894 -9.7108
# 3 16.5664 42.4207 71.7575 -12.3602 13.8078 -9.1784
# 4 -0.0549 12.1038 -12.3602 40.7369 -2.4285 9.1983
# 5 10.2035 8.2894 13.8078 -2.4285 27.7016 1.8000
# 6 -13.5782 -9.7108 -9.1784 9.1983 1.8000 30.5633
#
#
#
# Elastic Compliance Matrix: (Units=1/GPa)
#
#
# Indices 1 2 3 4 5 6 
#
# 1 0.020294 0.000290 -0.002860 -0.003546 -0.007080 0.009733
# 2 0.000290 0.012837 -0.008261 -0.007256 -0.000724 0.003953
# 3 -0.002860 -0.008261 0.022386 0.008691 -0.006911 0.000619
# 4 -0.003546 -0.007256 0.008691 0.031991 0.002668 -0.011056
# 5 -0.007080 -0.000724 -0.006911 0.002668 0.043173 -0.008796
# 6 0.009733 0.003953 0.000619 -0.011056 -0.008796 0.042330
#
#
# Mechanical properties :
#
#
# Convention : Reuss Voigt Hill
#
# Bulk Modulus (GPa) = 29.53800 43.82002 36.67901
# Shear Modulus (GPa) = 24.27667 31.49544 27.88605
#
# Velocity S-wave (km/s) = 3.39631 3.86845 3.64004
# Velocity P-wave (km/s) = 5.42354 6.38546 5.92405
#
# Compressibility (1/GPa) = 0.03385470
#
# Stress axis : x y z
#
# Youngs Moduli (GPa) = 49.27508 77.90017 44.67162
#
# Poissons Ratio (x) = -0.02259 0.12777
# Poissons Ratio (y) = -0.01429 0.36902
# Poissons Ratio (z) = 0.14094 0.64351
#
# Static dielectric constant tensor:
#      x y z
#    x 1.801390 -0.031100 0.016300 
#    y -0.031100 1.750040 -0.007220 
#    z 0.016300 -0.007220 1.761190 
# 
# From -- ./inp_files/410385.got.cif
#   From: 2010.05.17/outbox.cif.g08.bks.cpg/sg2_206_cif.got.tgz:410385.got - 2010.06.03 11:33:40.
