data_PCOD9093878
_publ_section_title
;
Structure prediction by ZEFSAII (Michael W. Deem and Ramdas Pophale) SiO2 
 PCOD9093878
Probable space group: P -1
;
_chemical_formula_sum "Si O2"
_cell_formula_units_Z 14
_cell_length_a 12.555800
_cell_length_b 12.336420
_cell_length_c 9.337233
_cell_angle_alpha 48.037387
_cell_angle_beta 34.092251
_cell_angle_gamma 58.656358
_cell_volume 600.847609
_symmetry_space_group_name_H-M "P -1"
_symmetry_group_IT_number 2
_symmetry_cell_setting 'triclinic'
loop_
_space_group_symop_operation_xyz
x,y,z
-x,-y,-z
loop_
_atom_site_type_symbol
_atom_site_label
_atom_site_fract_x
_atom_site_fract_y
_atom_site_fract_z
Si Si1 0.198621 0.252910 0.174139
Si Si2 0.210161 0.011642 0.178407
Si Si3 0.963409 0.082495 0.822694
Si Si4 0.672886 0.420564 0.229876
Si Si5 0.369299 0.439320 0.331236
Si Si6 0.769844 0.315797 0.524879
Si Si7 0.982330 0.347761 0.736356
O O1 0.139867 0.150178 0.467463
O O2 0.000142 0.306951 0.282634
O O3 0.298320 0.155713 0.031718
O O4 0.311685 0.403093 0.959625
O O5 0.299805 0.856824 0.235175
O O6 0.166821 0.014802 0.055714
O O7 0.000000 0.000000 0.500000
O O8 0.885149 0.229400 0.840965
O O9 0.000000 0.000000 0.000000
O O10 0.493074 0.368708 0.378546
O O11 0.691745 0.380821 0.408886
O O12 0.854569 0.358686 0.007501
O O13 0.280724 0.576320 0.387196
O O14 0.198322 0.329466 0.558864
O O15 0.500000 0.500000 0.000000
O O16 0.000000 0.500000 0.500000
#
# Coordination Sequence:
#
# PCOD9093878 Si02
#       7
#     2   2   2   2   2   2   2
#     4  10  20  40  61  95 125 165 214 257 317 376
#     4   8  19  36  59  89 123 161 210 254 308 377
#     4  10  20  33  59  93 123 158 212 256 307 377
#     4  12  24  38  68  95 128 167 211 264 313 376
#     4  12  24  39  62  96 135 163 208 267 312 373
#     4  10  21  40  60  93 127 166 213 258 314 374
#     4  12  22  41  64  96 124 169 212 258 324 368
#
# _framework density 23.300418000000001
#
# number of rings (size 3 to 8) (size 9 to 14) (size 15 to 20)
#    0.000    1.714    4.286    1.714    6.000    0.000 
#    0.000    0.714    0.000    4.286    0.000    0.000 
#    0.000    0.000    0.000    0.000    0.000    0.000 
#
# Total GULP energy -78193.757727 kJ/mol
# GULP energy per Si atom -5585.268409 kJ/mol
# Density = 2.324739 g / cm^3
# Si number density = 23.300418 Si / 1000 Ang^3
#
#
#
# Elastic Constant Matrix: (Units=GPa)
#
#
# Indices 1 2 3 4 5 6 
#
# 1 145.3839 7.7541 41.4353 -5.2381 24.2859 -0.6277
# 2 7.7541 73.3353 16.3338 8.5010 23.1769 26.8068
# 3 41.4353 16.3338 59.7395 8.8572 18.3731 1.6377
# 4 -5.2381 8.5010 8.8572 26.8245 -1.0165 18.2617
# 5 24.2859 23.1769 18.3731 -1.0165 53.0255 2.7121
# 6 -0.6277 26.8068 1.6377 18.2617 2.7121 46.0374
#
#
#
# Elastic Compliance Matrix: (Units=1/GPa)
#
#
# Indices 1 2 3 4 5 6 
#
# 1 0.009323 0.001595 -0.006878 0.005180 -0.002358 -0.002473
# 2 0.001595 0.021391 -0.004819 0.003938 -0.007651 -0.013374
# 3 -0.006878 -0.004819 0.025997 -0.013644 -0.004395 0.007459
# 4 0.005180 0.003938 -0.013644 0.058865 0.003054 -0.025267
# 5 -0.002358 -0.007651 -0.004395 0.003054 0.024767 0.001909
# 6 -0.002473 -0.013374 0.007459 -0.025267 0.001909 0.039120
#
#
# Mechanical properties :
#
#
# Convention : Reuss Voigt Hill
#
# Bulk Modulus (GPa) = 27.39148 45.50055 36.44601
# Shear Modulus (GPa) = 23.60309 39.37318 31.48814
#
# Velocity S-wave (km/s) = 3.18620 4.11518 3.68012
# Velocity P-wave (km/s) = 5.03162 6.49229 5.80805
#
# Compressibility (1/GPa) = 0.03650770
#
# Stress axis : x y z
#
# Youngs Moduli (GPa) = 107.25733 46.74916 38.46552
#
# Poissons Ratio (x) = -0.07455 0.26455
# Poissons Ratio (y) = -0.17105 0.18536
# Poissons Ratio (z) = 0.73768 0.22528
#
# Static dielectric constant tensor:
#      x y z
#    x 1.946880 -0.009690 -0.004650 
#    y -0.009690 1.984170 -0.087130 
#    z -0.004650 -0.087130 2.025250 
# 
# From -- ./inp_files/256548.got.cif
#   From: 2010.05.17/outbox.cif.g08.bks.cpg/sg2_129_cif.got.tgz:256548.got - 2010.06.03 11:33:40.
