data_PCOD9093725
_publ_section_title
;
Structure prediction by ZEFSAII (Michael W. Deem and Ramdas Pophale) SiO2 
 PCOD9093725
Probable space group: P -1
;
_chemical_formula_sum "Si O2"
_cell_formula_units_Z 16
_cell_length_a 10.234926
_cell_length_b 9.464165
_cell_length_c 11.058101
_cell_angle_alpha 56.032486
_cell_angle_beta 63.089292
_cell_angle_gamma 58.649563
_cell_volume 738.568479
_symmetry_space_group_name_H-M "P -1"
_symmetry_group_IT_number 2
_symmetry_cell_setting 'triclinic'
loop_
_space_group_symop_operation_xyz
x,y,z
-x,-y,-z
loop_
_atom_site_type_symbol
_atom_site_label
_atom_site_fract_x
_atom_site_fract_y
_atom_site_fract_z
Si Si1 0.627153 0.464010 0.643261
Si Si2 0.352782 0.163030 0.539423
Si Si3 0.842487 0.913116 0.741665
Si Si4 0.470138 0.051312 0.804442
Si Si5 0.235618 0.340162 0.937107
Si Si6 0.505355 0.348119 0.974506
Si Si7 0.267256 0.621674 0.624426
Si Si8 0.108587 0.041822 0.569593
O O1 0.659102 0.639685 0.596297
O O2 0.622975 0.340648 0.818267
O O3 0.448057 0.532298 0.635530
O O4 0.730828 0.389507 0.516163
O O5 0.500000 0.000000 0.500000
O O6 0.395006 0.161824 0.663144
O O7 0.199747 0.119281 0.589506
O O8 0.654210 0.017333 0.758663
O O9 0.942268 0.034739 0.682319
O O10 0.898443 0.859626 0.604684
O O11 0.870700 0.748092 0.903197
O O12 0.369498 0.166468 0.901321
O O13 0.456815 0.853583 0.893134
O O14 0.329759 0.407386 0.965630
O O15 0.181951 0.496545 0.783458
O O16 0.500000 0.500000 0.000000
O O17 0.206363 0.828061 0.600039
#
# Coordination Sequence:
#
# PCOD9093725 Si02
#       8
#     2   2   2   2   2   2   2   2
#     4  10  20  33  56  88 123 143 196 254 284 344
#     4  12  20  36  61  91 116 151 201 250 284 337
#     4  10  22  40  58  88 122 157 194 237 300 360
#     4  11  21  39  64  90 116 156 198 242 295 349
#     4  10  22  38  62  87 117 157 199 243 291 353
#     4  10  21  31  53  91 121 144 186 248 302 329
#     4  10  20  36  58  90 112 157 200 239 292 345
#     4  11  24  37  63  87 119 161 196 239 296 354
#
# _framework density 21.663529
#
# number of rings (size 3 to 8) (size 9 to 14) (size 15 to 20)
#    0.000    1.500    3.750    2.250    8.750    0.500 
#    0.000    0.625    0.000    6.000    0.000    0.000 
#    0.000    0.000    0.000    0.000    0.000    0.000 
#
# Total GULP energy -89401.526468 kJ/mol
# GULP energy per Si atom -5587.595404 kJ/mol
# Density = 2.161422 g / cm^3
# Si number density = 21.663529 Si / 1000 Ang^3
#
#
#
# Elastic Constant Matrix: (Units=GPa)
#
#
# Indices 1 2 3 4 5 6 
#
# 1 71.2801 16.7710 33.0226 2.1307 -24.0888 18.3352
# 2 16.7710 82.9931 24.1212 -6.3471 -19.7438 10.0574
# 3 33.0226 24.1212 158.6971 -18.0812 -18.4264 -0.6966
# 4 2.1307 -6.3471 -18.0812 35.8546 2.4650 0.7771
# 5 -24.0888 -19.7438 -18.4264 2.4650 29.1534 -6.6859
# 6 18.3352 10.0574 -0.6966 0.7771 -6.6859 31.6591
#
#
#
# Elastic Compliance Matrix: (Units=1/GPa)
#
#
# Indices 1 2 3 4 5 6 
#
# 1 0.023759 0.001059 -0.003766 -0.003980 0.015843 -0.010736
# 2 0.001059 0.014936 -0.001272 0.001377 0.009276 -0.003461
# 3 -0.003766 -0.001272 0.007885 0.003817 0.001365 0.002953
# 4 -0.003980 0.001377 0.003817 0.030442 -0.002355 0.000707
# 5 0.015843 0.009276 0.001365 -0.002355 0.054622 -0.000499
# 6 -0.010736 -0.003461 0.002953 0.000707 -0.000499 0.038846
#
#
# Mechanical properties :
#
#
# Convention : Reuss Voigt Hill
#
# Bulk Modulus (GPa) = 25.89154 51.19999 38.54577
# Shear Modulus (GPa) = 26.13394 35.27046 30.70220
#
# Velocity S-wave (km/s) = 3.47703 4.03935 3.76870
# Velocity P-wave (km/s) = 5.30069 6.74097 6.06374
#
# Compressibility (1/GPa) = 0.03862266
#
# Stress axis : x y z
#
# Youngs Moduli (GPa) = 42.08870 66.95050 126.82954
#
# Poissons Ratio (x) = -0.07090 0.47764
# Poissons Ratio (y) = -0.04457 0.16130
# Poissons Ratio (z) = 0.15851 0.08515
#
# Static dielectric constant tensor:
#      x y z
#    x 1.806280 -0.030080 0.001520 
#    y -0.030080 1.802040 -0.003530 
#    z 0.001520 -0.003530 1.859320 
# 
# From -- ./inp_files/350309.got.cif
#   From: 2010.05.17/outbox.cif.g08.bks.cpg/sg2_176_cif.got.tgz:350309.got - 2010.06.03 11:33:40.
