data_PCOD9093460
_publ_section_title
;
Structure prediction by ZEFSAII (Michael W. Deem and Ramdas Pophale) SiO2 
 PCOD9093460
Probable space group: P -1
;
_chemical_formula_sum "Si O2"
_cell_formula_units_Z 16
_cell_length_a 14.126851
_cell_length_b 13.745448
_cell_length_c 14.942933
_cell_angle_alpha 109.448399
_cell_angle_beta 101.012559
_cell_angle_gamma 20.901847
_cell_volume 911.898882
_symmetry_space_group_name_H-M "P -1"
_symmetry_group_IT_number 2
_symmetry_cell_setting 'triclinic'
loop_
_space_group_symop_operation_xyz
x,y,z
-x,-y,-z
loop_
_atom_site_type_symbol
_atom_site_label
_atom_site_fract_x
_atom_site_fract_y
_atom_site_fract_z
Si Si1 0.936958 0.791051 0.696624
Si Si2 0.350729 0.481648 0.813192
Si Si3 0.233076 0.905441 0.534251
Si Si4 0.711952 0.823667 0.596642
Si Si5 0.379624 0.547209 0.367065
Si Si6 0.241882 0.830571 0.854385
Si Si7 0.398418 0.492184 0.019788
Si Si8 0.543228 0.791881 0.494985
O O1 0.802213 0.811696 0.686694
O O2 0.121178 0.643926 0.768892
O O3 0.156035 0.564459 0.583403
O O4 0.671724 0.132403 0.734698
O O5 0.272317 0.678425 0.836752
O O6 0.361093 0.459022 0.915580
O O7 0.290270 0.757487 0.426645
O O8 0.432810 0.674556 0.582518
O O9 0.322715 0.925989 0.520462
O O10 0.912073 0.221697 0.607140
O O11 0.561535 0.864781 0.594208
O O12 0.000000 0.500000 0.500000
O O13 0.538112 0.066960 0.568227
O O14 0.564488 0.344978 0.250316
O O15 0.367807 0.766438 0.942246
O O16 0.909115 0.186642 0.892010
O O17 0.500000 0.500000 0.000000
#
# Coordination Sequence:
#
# PCOD9093460 Si02
#       8
#     2   2   2   2   2   2   2   2
#     4  11  20  31  49  77 106 133 171 203 252 325
#     4  11  20  31  50  76 102 137 173 209 258 315
#     4  10  22  35  51  73 106 136 183 217 245 284
#     4   9  20  34  52  77 104 139 172 209 260 327
#     4  10  22  35  49  76 102 141 183 217 237 290
#     4  11  20  35  51  69 106 143 176 215 256 298
#     4  10  20  33  50  73 101 136 177 215 258 312
#     4  10  20  36  53  74 107 148 167 212 265 302
#
# _framework density 17.545805000000001
#
# number of rings (size 3 to 8) (size 9 to 14) (size 15 to 20)
#    0.000    1.750    1.250    5.250    3.500    2.000 
#    0.000    0.000    0.000    0.000    0.000    0.000 
#    0.000   20.000    0.000    0.000    0.000    0.000 
#
# Total GULP energy -89237.300265 kJ/mol
# GULP energy per Si atom -5577.331267 kJ/mol
# Density = 1.750587 g / cm^3
# Si number density = 17.545805 Si / 1000 Ang^3
#
#
#
# Elastic Constant Matrix: (Units=GPa)
#
#
# Indices 1 2 3 4 5 6 
#
# 1 102.5051 19.2425 26.5859 -2.0749 6.8308 -26.7243
# 2 19.2425 79.4115 11.4186 8.6434 5.8064 -24.9788
# 3 26.5859 11.4186 53.7204 -8.5390 -1.9196 -16.9984
# 4 -2.0749 8.6434 -8.5390 34.7919 -10.9140 7.4822
# 5 6.8308 5.8064 -1.9196 -10.9140 26.2051 -0.1481
# 6 -26.7243 -24.9788 -16.9984 7.4822 -0.1481 30.6698
#
#
#
# Elastic Compliance Matrix: (Units=1/GPa)
#
#
# Indices 1 2 3 4 5 6 
#
# 1 0.014328 0.002617 -0.004586 -0.006054 -0.007096 0.013518
# 2 0.002617 0.021518 -0.001397 -0.013852 -0.011195 0.022357
# 3 -0.004586 -0.001397 0.024637 0.006527 0.006067 0.006959
# 4 -0.006054 -0.013852 0.006527 0.046209 0.024235 -0.024096
# 5 -0.007096 -0.011195 0.006067 0.024235 0.052929 -0.017595
# 6 0.013518 0.022357 0.006959 -0.024096 -0.017595 0.072243
#
#
# Mechanical properties :
#
#
# Convention : Reuss Voigt Hill
#
# Bulk Modulus (GPa) = 18.60355 38.90343 28.75349
# Shear Modulus (GPa) = 19.49225 30.22602 24.85913
#
# Velocity S-wave (km/s) = 3.33668 4.15504 3.76814
# Velocity P-wave (km/s) = 5.04683 6.72605 5.94602
#
# Compressibility (1/GPa) = 0.05375317
#
# Stress axis : x y z
#
# Youngs Moduli (GPa) = 69.79247 46.47289 40.58860
#
# Poissons Ratio (x) = -0.12163 0.18613
# Poissons Ratio (y) = -0.18266 0.05669
# Poissons Ratio (z) = 0.32005 0.06490
#
# Static dielectric constant tensor:
#      x y z
#    x 1.614890 -0.022640 0.042840 
#    y -0.022640 1.654420 -0.005990 
#    z 0.042840 -0.005990 1.631330 
# 
# From -- ./inp_files/369870.got.cif
#   From: 2010.05.17/outbox.cif.g08.bks.cpg/sg2_185_cif.got.tgz:369870.got - 2010.06.03 11:33:40.
