data_PCOD9093724
_publ_section_title
;
Structure prediction by ZEFSAII (Michael W. Deem and Ramdas Pophale) SiO2 
 PCOD9093724
Probable space group: P -1
;
_chemical_formula_sum "Si O2"
_cell_formula_units_Z 16
_cell_length_a 15.180409
_cell_length_b 7.885044
_cell_length_c 10.076247
_cell_angle_alpha 64.049627
_cell_angle_beta 144.180332
_cell_angle_gamma 101.167756
_cell_volume 604.197603
_symmetry_space_group_name_H-M "P -1"
_symmetry_group_IT_number 2
_symmetry_cell_setting 'triclinic'
loop_
_space_group_symop_operation_xyz
x,y,z
-x,-y,-z
loop_
_atom_site_type_symbol
_atom_site_label
_atom_site_fract_x
_atom_site_fract_y
_atom_site_fract_z
Si Si1 0.246646 0.011202 0.265262
Si Si2 0.975025 0.042399 0.763922
Si Si3 0.836251 0.644669 0.503272
Si Si4 0.286074 0.638308 0.744091
Si Si5 0.474643 0.270357 0.203931
Si Si6 0.338180 0.973012 0.991099
Si Si7 0.148498 0.692120 0.943504
Si Si8 0.333275 0.331009 0.444377
O O1 0.292372 0.172810 0.351728
O O2 0.405373 0.829660 0.497912
O O3 0.128818 0.100125 0.972516
O O4 0.141083 0.921861 0.264231
O O5 0.864131 0.175971 0.472118
O O6 0.034964 0.812287 0.882433
O O7 0.780170 0.501325 0.384991
O O8 0.788771 0.602247 0.606871
O O9 0.022821 0.619289 0.730493
O O10 0.730737 0.870971 0.264234
O O11 0.418840 0.709222 0.802686
O O12 0.364533 0.493843 0.010029
O O13 0.381272 0.118587 0.102173
O O14 0.207132 0.868477 0.898669
O O15 0.500251 0.790532 0.243698
O O16 0.297517 0.524269 0.242533
#
# Coordination Sequence:
#
# PCOD9093724 Si02
#       8
#     2   2   2   2   2   2   2   2
#     4   9  18  34  57  83 117 150 200 255 285 337
#     4  10  20  33  56  88 118 154 195 249 301 345
#     4  11  22  39  67  92 117 160 210 249 296 361
#     4   9  18  35  61  86 112 151 204 255 283 340
#     4   8  17  35  59  79 110 157 197 238 295 343
#     4  10  23  43  60  87 131 162 191 254 314 359
#     4  12  24  38  61  94 128 158 197 249 314 366
#     4  11  22  39  63  92 116 162 213 248 290 363
#
# _framework density 26.481403
#
# number of rings (size 3 to 8) (size 9 to 14) (size 15 to 20)
#    0.000    2.000    1.250    2.250    5.250    0.000 
#    2.250    5.000    5.500    0.000    0.000    0.000 
#    0.000    0.000    0.000    0.000    0.000    0.000 
#
# Total GULP energy -89493.064960 kJ/mol
# GULP energy per Si atom -5593.316560 kJ/mol
# Density = 2.642113 g / cm^3
# Si number density = 26.481403 Si / 1000 Ang^3
#
#
#
# Elastic Constant Matrix: (Units=GPa)
#
#
# Indices 1 2 3 4 5 6 
#
# 1 48.7514 34.5676 23.9786 3.5217 3.4717 22.1720
# 2 34.5676 126.0539 49.1112 6.0086 -0.6801 10.2192
# 3 23.9786 49.1112 138.3425 -35.2343 19.9149 -2.9366
# 4 3.5217 6.0086 -35.2343 57.3163 0.9742 0.4252
# 5 3.4717 -0.6801 19.9149 0.9742 23.6194 -1.1147
# 6 22.1720 10.2192 -2.9366 0.4252 -1.1147 38.9856
#
#
#
# Elastic Compliance Matrix: (Units=1/GPa)
#
#
# Indices 1 2 3 4 5 6 
#
# 1 0.037259 -0.006116 -0.005772 -0.005022 -0.001524 -0.020011
# 2 -0.006116 0.011720 -0.004903 -0.003963 0.005545 0.000238
# 3 -0.005772 -0.004903 0.014212 0.009761 -0.011432 0.005205
# 4 -0.005022 -0.003963 0.009761 0.024284 -0.008413 0.004125
# 5 -0.001524 0.005545 -0.011432 -0.008413 0.052715 0.000151
# 6 -0.020011 0.000238 0.005205 0.004125 0.000151 0.037320
#
#
# Mechanical properties :
#
#
# Convention : Reuss Voigt Hill
#
# Bulk Modulus (GPa) = 33.77176 58.71806 46.24491
# Shear Modulus (GPa) = 22.62854 37.68361 30.15608
#
# Velocity S-wave (km/s) = 2.92637 3.77639 3.37822
# Velocity P-wave (km/s) = 4.91923 6.42155 5.71993
#
# Compressibility (1/GPa) = 0.02961054
#
# Stress axis : x y z
#
# Youngs Moduli (GPa) = 26.83893 85.32484 70.36553
#
# Poissons Ratio (x) = 0.52181 0.40612
# Poissons Ratio (y) = 0.16413 0.34501
# Poissons Ratio (z) = 0.15490 0.41835
#
# Static dielectric constant tensor:
#      x y z
#    x 2.092190 -0.019810 0.017850 
#    y -0.019810 2.030870 -0.003360 
#    z 0.017850 -0.003360 2.135400 
# 
# From -- ./inp_files/243892.got.cif
#   From: 2010.05.17/outbox.cif.g08.bks.cpg/sg2_122_cif.got.tgz:243892.got - 2010.06.03 11:33:40.
