data_PCOD9093987
_publ_section_title
;
Structure prediction by ZEFSAII (Michael W. Deem and Ramdas Pophale) SiO2 
 PCOD9093987
Probable space group: P -1
;
_chemical_formula_sum "Si O2"
_cell_formula_units_Z 16
_cell_length_a 20.606128
_cell_length_b 11.740826
_cell_length_c 12.455127
_cell_angle_alpha 121.175695
_cell_angle_beta 36.626838
_cell_angle_gamma 147.764257
_cell_volume 826.842172
_symmetry_space_group_name_H-M "P -1"
_symmetry_group_IT_number 2
_symmetry_cell_setting 'triclinic'
loop_
_space_group_symop_operation_xyz
x,y,z
-x,-y,-z
loop_
_atom_site_type_symbol
_atom_site_label
_atom_site_fract_x
_atom_site_fract_y
_atom_site_fract_z
Si Si1 0.581613 0.273661 0.675078
Si Si2 0.631212 0.591685 0.203572
Si Si3 0.400935 0.586453 0.627804
Si Si4 0.712342 0.692655 0.630779
Si Si5 0.723332 0.270655 0.204867
Si Si6 0.956677 0.544725 0.251445
Si Si7 0.014573 0.957321 0.180789
Si Si8 0.252313 0.085072 0.114718
O O1 0.665175 0.485272 0.597727
O O2 0.766064 0.362983 0.494633
O O3 0.402704 0.993713 0.731697
O O4 0.469243 0.237445 0.900842
O O5 0.562161 0.656019 0.389266
O O6 0.592919 0.437768 0.266070
O O7 0.478100 0.429837 0.228336
O O8 0.857360 0.831918 0.974742
O O9 0.422761 0.761063 0.650521
O O10 0.173216 0.310642 0.757179
O O11 0.748984 0.789125 0.746396
O O12 0.899259 0.911161 0.409304
O O13 0.847324 0.439252 0.228283
O O14 0.881326 0.403983 0.962951
O O15 0.090189 0.810143 0.232653
O O16 0.182379 0.044935 0.065936
#
# Coordination Sequence:
#
# PCOD9093987 Si02
#       8
#     2   2   2   2   2   2   2   2
#     4  11  21  33  53  82 113 148 178 218 279 333
#     4  10  22  36  58  81 111 148 182 228 272 320
#     4  10  21  40  55  80 114 143 190 226 266 323
#     4  11  22  35  54  87 117 139 180 225 278 333
#     4  10  21  34  53  78 111 147 182 221 273 324
#     4  10  20  34  50  80 112 145 179 223 274 326
#     4  11  20  33  55  84 110 145 174 226 282 323
#     4  11  21  33  55  83 117 143 175 227 280 329
#
# _framework density 19.350731
#
# number of rings (size 3 to 8) (size 9 to 14) (size 15 to 20)
#    0.000    1.500    3.750    2.250    0.000    1.000 
#    0.000    0.000    0.000    3.000    0.000    5.250 
#    0.000    0.000    0.000    0.000    0.000    0.000 
#
# Total GULP energy -89088.096616 kJ/mol
# GULP energy per Si atom -5568.006039 kJ/mol
# Density = 1.930669 g / cm^3
# Si number density = 19.350731 Si / 1000 Ang^3
#
#
#
# Elastic Constant Matrix: (Units=GPa)
#
#
# Indices 1 2 3 4 5 6 
#
# 1 41.4214 16.1117 -2.6916 6.0453 0.8360 -3.1155
# 2 16.1117 74.4616 27.1908 8.3207 3.5903 -3.2101
# 3 -2.6916 27.1908 112.7360 -15.3290 -4.9435 -3.5969
# 4 6.0453 8.3207 -15.3290 19.5192 -5.6853 -4.5552
# 5 0.8360 3.5903 -4.9435 -5.6853 18.4027 1.7623
# 6 -3.1155 -3.2101 -3.5969 -4.5552 1.7623 18.7501
#
#
#
# Elastic Compliance Matrix: (Units=1/GPa)
#
#
# Indices 1 2 3 4 5 6 
#
# 1 0.027391 -0.005731 0.001426 -0.004682 -0.001462 0.002843
# 2 -0.005731 0.019638 -0.007568 -0.016016 -0.010364 -0.001959
# 3 0.001426 -0.007568 0.013728 0.017649 0.010081 0.004915
# 4 -0.004682 -0.016016 0.017649 0.087259 0.033319 0.017933
# 5 -0.001462 -0.010364 0.010081 0.033319 0.069286 0.001499
# 6 0.002843 -0.001959 0.004915 0.017933 0.001499 0.058629
#
#
# Mechanical properties :
#
#
# Convention : Reuss Voigt Hill
#
# Bulk Modulus (GPa) = 27.01874 34.42677 30.72275
# Shear Modulus (GPa) = 16.02483 23.86829 19.94656
#
# Velocity S-wave (km/s) = 2.88084 3.51587 3.21408
# Velocity P-wave (km/s) = 5.00586 5.85759 5.44839
#
# Compressibility (1/GPa) = 0.03701135
#
# Stress axis : x y z
#
# Youngs Moduli (GPa) = 36.50865 50.92043 72.84169
#
# Poissons Ratio (x) = 0.29184 -0.10389
# Poissons Ratio (y) = 0.20924 0.55128
# Poissons Ratio (z) = -0.05207 0.38537
#
# Static dielectric constant tensor:
#      x y z
#    x 1.665380 0.000960 -0.024640 
#    y 0.000960 1.687790 -0.016410 
#    z -0.024640 -0.016410 1.772390 
# 
# From -- ./inp_files/470979.got.cif
#   From: 2010.05.17/outbox.cif.g08.bks.cpg/sg2_236_cif.got.tgz:470979.got - 2010.06.03 11:33:40.
