data_PCOD9093572
_publ_section_title
;
Structure prediction by ZEFSAII (Michael W. Deem and Ramdas Pophale) SiO2 
 PCOD9093572
Probable space group: P -1
;
_chemical_formula_sum "Si O2"
_cell_formula_units_Z 14
_cell_length_a 8.789062
_cell_length_b 12.678920
_cell_length_c 12.549548
_cell_angle_alpha 59.968595
_cell_angle_beta 32.578470
_cell_angle_gamma 80.008194
_cell_volume 551.817621
_symmetry_space_group_name_H-M "P -1"
_symmetry_group_IT_number 2
_symmetry_cell_setting 'triclinic'
loop_
_space_group_symop_operation_xyz
x,y,z
-x,-y,-z
loop_
_atom_site_type_symbol
_atom_site_label
_atom_site_fract_x
_atom_site_fract_y
_atom_site_fract_z
Si Si1 0.267139 0.861679 0.782499
Si Si2 0.226280 0.780654 0.359697
Si Si3 0.437800 0.680969 0.633392
Si Si4 0.021461 0.380669 0.613592
Si Si5 0.180318 0.102654 0.437840
Si Si6 0.213573 0.533777 0.626283
Si Si7 0.081953 0.989161 0.121269
O O1 0.241660 0.726397 0.806088
O O2 0.462541 0.876203 0.766342
O O3 0.500000 0.000000 0.500000
O O4 0.033887 0.115352 0.039946
O O5 0.876010 0.765176 0.604198
O O6 0.273046 0.662622 0.448930
O O7 0.217313 0.759369 0.247233
O O8 0.521398 0.934251 0.150734
O O9 0.611013 0.598549 0.618632
O O10 0.196978 0.594530 0.721034
O O11 0.786819 0.836676 0.323428
O O12 0.967862 0.401114 0.759336
O O13 0.000000 0.500000 0.500000
O O14 0.005846 0.033513 0.689380
O O15 0.000000 0.000000 0.500000
O O16 0.500000 0.500000 0.500000
#
# Coordination Sequence:
#
# PCOD9093572 Si02
#       7
#     2   2   2   2   2   2   2
#     4   8  17  33  50  73 114 148 169 202 273 340
#     4  11  20  34  58  84 110 138 171 234 276 300
#     4   9  16  33  53  76 110 143 175 217 266 323
#     4   9  17  32  51  76 102 144 189 217 253 309
#     4  10  20  33  53  84 111 143 179 205 267 340
#     4   9  20  33  54  80 102 142 194 222 243 319
#     4  10  21  34  54  85 118 136 164 222 290 325
#
# _framework density 25.370701
#
# number of rings (size 3 to 8) (size 9 to 14) (size 15 to 20)
#    0.000    2.857    2.857    0.429    6.000    0.571 
#    0.000    0.000    0.000    8.571    0.000    0.000 
#    0.000    0.000    0.000    0.000    0.000    0.000 
#
# Total GULP energy -77945.847652 kJ/mol
# GULP energy per Si atom -5567.560547 kJ/mol
# Density = 2.531296 g / cm^3
# Si number density = 25.370701 Si / 1000 Ang^3
#
#
#
# Elastic Constant Matrix: (Units=GPa)
#
#
# Indices 1 2 3 4 5 6 
#
# 1 186.4281 84.1948 35.5545 -13.1820 -11.3618 7.0033
# 2 84.1948 132.5334 16.5179 -22.8613 -9.3004 9.8567
# 3 35.5545 16.5179 52.9617 -16.1997 -11.0631 -4.8047
# 4 -13.1820 -22.8613 -16.1997 22.4941 -0.6545 -6.7197
# 5 -11.3618 -9.3004 -11.0631 -0.6545 22.5790 0.7643
# 6 7.0033 9.8567 -4.8047 -6.7197 0.7643 74.6182
#
#
#
# Elastic Compliance Matrix: (Units=1/GPa)
#
#
# Indices 1 2 3 4 5 6 
#
# 1 0.008662 -0.005675 -0.005957 -0.005284 -0.001020 -0.000912
# 2 -0.005675 0.013322 0.005200 0.014221 0.005581 0.000331
# 3 -0.005957 0.005200 0.033518 0.027708 0.016223 0.004359
# 4 -0.005284 0.014221 0.027708 0.078487 0.018803 0.007277
# 5 -0.001020 0.005581 0.016223 0.018803 0.054516 0.001538
# 6 -0.000912 0.000331 0.004359 0.007277 0.001538 0.014364
#
#
# Mechanical properties :
#
#
# Convention : Reuss Voigt Hill
#
# Bulk Modulus (GPa) = 23.45291 71.60639 47.52965
# Shear Modulus (GPa) = 21.74426 39.64867 30.69646
#
# Velocity S-wave (km/s) = 2.93074 3.95748 3.48216
# Velocity P-wave (km/s) = 4.55153 7.01196 5.91118
#
# Compressibility (1/GPa) = 0.04263863
#
# Stress axis : x y z
#
# Youngs Moduli (GPa) = 115.45198 75.06114 29.83470
#
# Poissons Ratio (x) = 0.42600 0.17772
# Poissons Ratio (y) = 0.65523 -0.15515
# Poissons Ratio (z) = 0.68774 -0.39035
#
# Static dielectric constant tensor:
#      x y z
#    x 1.999210 -0.014970 -0.017720 
#    y -0.014970 2.076430 0.038660 
#    z -0.017720 0.038660 2.077350 
# 
# From -- ./inp_files/497747.got.cif
#   From: 2010.05.17/outbox.cif.g08.bks.cpg/sg2_249_cif.got.tgz:497747.got - 2010.06.03 11:33:40.
