data_PCOD9093356
_publ_section_title
;
Structure prediction by ZEFSAII (Michael W. Deem and Ramdas Pophale) SiO2 
 PCOD9093356
Probable space group: P -1
;
_chemical_formula_sum "Si O2"
_cell_formula_units_Z 14
_cell_length_a 18.467817
_cell_length_b 20.990823
_cell_length_c 11.640621
_cell_angle_alpha 39.701750
_cell_angle_beta 149.416834
_cell_angle_gamma 160.312474
_cell_volume 750.814187
_symmetry_space_group_name_H-M "P -1"
_symmetry_group_IT_number 2
_symmetry_cell_setting 'triclinic'
loop_
_space_group_symop_operation_xyz
x,y,z
-x,-y,-z
loop_
_atom_site_type_symbol
_atom_site_label
_atom_site_fract_x
_atom_site_fract_y
_atom_site_fract_z
Si Si1 0.425142 0.841780 0.647947
Si Si2 0.803469 0.956844 0.173374
Si Si3 0.746788 0.384816 0.734884
Si Si4 0.309245 0.434044 0.499084
Si Si5 0.910327 0.432573 0.633833
Si Si6 0.694169 0.502423 0.856881
Si Si7 0.825695 0.000232 0.403726
O O1 0.339519 0.728011 0.575176
O O2 0.149071 0.653928 0.610101
O O3 0.500000 0.000000 0.500000
O O4 0.687765 0.956143 0.916548
O O5 0.566730 0.729874 0.180027
O O6 0.822357 0.021463 0.232975
O O7 0.076305 0.056524 0.381110
O O8 0.702736 0.476632 0.562740
O O9 0.809829 0.397188 0.672673
O O10 0.470275 0.167468 0.709142
O O11 0.000000 0.500000 0.000000
O O12 0.590109 0.537024 0.735135
O O13 0.261811 0.442945 0.291106
O O14 0.054967 0.206210 0.491791
O O15 0.058319 0.412661 0.869428
#
# Coordination Sequence:
#
# PCOD9093356 Si02
#       7
#     2   2   2   2   2   2   2
#     4  10  22  38  61  83 107 157 201 233 271 349
#     4   9  18  37  58  85 116 144 198 241 273 336
#     4  12  22  37  54  87 126 148 176 246 301 337
#     4  10  20  32  57  87 114 149 189 225 284 346
#     4  10  22  39  57  82 119 151 187 237 294 329
#     4   9  17  36  56  81 116 149 191 231 269 342
#     4  10  21  34  59  88 113 150 185 238 294 334
#
# _framework density 18.646425000000001
#
# number of rings (size 3 to 8) (size 9 to 14) (size 15 to 20)
#    0.000    2.000    2.857    0.857    4.000    1.714 
#    0.000    0.714    0.000   18.000    0.000    0.000 
#    0.000    0.000    0.000    0.000    0.000    0.000 
#
# Total GULP energy -78124.062447 kJ/mol
# GULP energy per Si atom -5580.290175 kJ/mol
# Density = 1.860398 g / cm^3
# Si number density = 18.646425 Si / 1000 Ang^3
#
#
#
# Elastic Constant Matrix: (Units=GPa)
#
#
# Indices 1 2 3 4 5 6 
#
# 1 112.8182 29.2633 48.8941 3.9896 1.2934 9.9689
# 2 29.2633 68.4761 32.7638 -9.8341 7.8508 9.2838
# 3 48.8941 32.7638 109.5858 -5.2387 -6.9417 5.2788
# 4 3.9896 -9.8341 -5.2387 25.6525 -1.7103 4.0279
# 5 1.2934 7.8508 -6.9417 -1.7103 24.1904 -2.1008
# 6 9.9689 9.2838 5.2788 4.0279 -2.1008 27.7516
#
#
#
# Elastic Compliance Matrix: (Units=1/GPa)
#
#
# Indices 1 2 3 4 5 6 
#
# 1 0.011968 -0.003014 -0.004612 -0.003743 -0.001422 -0.001978
# 2 -0.003014 0.021226 -0.004793 0.008170 -0.008125 -0.006907
# 3 -0.004612 -0.004793 0.013018 0.001771 0.005747 0.000962
# 4 -0.003743 0.008170 0.001771 0.044367 0.000488 -0.008128
# 5 -0.001422 -0.008125 0.005747 0.000488 0.046218 0.005564
# 6 -0.001978 -0.006907 0.000962 -0.008128 0.005564 0.040473
#
#
# Mechanical properties :
#
#
# Convention : Reuss Voigt Hill
#
# Bulk Modulus (GPa) = 46.78513 56.96918 51.87715
# Shear Modulus (GPa) = 23.89662 27.51616 25.70639
#
# Velocity S-wave (km/s) = 3.58378 3.84563 3.71701
# Velocity P-wave (km/s) = 6.50152 7.09487 6.80466
#
# Compressibility (1/GPa) = 0.02137431
#
# Stress axis : x y z
#
# Youngs Moduli (GPa) = 83.55623 47.11131 76.81398
#
# Poissons Ratio (x) = 0.14200 0.35429
# Poissons Ratio (y) = 0.25184 0.36816
# Poissons Ratio (z) = 0.38539 0.22580
#
# Static dielectric constant tensor:
#      x y z
#    x 1.615270 -0.008100 0.011500 
#    y -0.008100 1.677890 -0.000380 
#    z 0.011500 -0.000380 1.666230 
# 
# From -- ./inp_files/177141.got.cif
#   From: 2010.05.17/outbox.cif.g08.bks.cpg/sg2_89_cif.got.tgz:177141.got - 2010.06.03 11:33:40.
