data_PCOD9093111
_publ_section_title
;
Structure prediction by ZEFSAII (Michael W. Deem and Ramdas Pophale) SiO2 
 PCOD9093111
Probable space group: P -1
;
_chemical_formula_sum "Si O2"
_cell_formula_units_Z 14
_cell_length_a 10.190870
_cell_length_b 7.466465
_cell_length_c 8.675642
_cell_angle_alpha 52.227037
_cell_angle_beta 71.543518
_cell_angle_gamma 81.968071
_cell_volume 493.660659
_symmetry_space_group_name_H-M "P -1"
_symmetry_group_IT_number 2
_symmetry_cell_setting 'triclinic'
loop_
_space_group_symop_operation_xyz
x,y,z
-x,-y,-z
loop_
_atom_site_type_symbol
_atom_site_label
_atom_site_fract_x
_atom_site_fract_y
_atom_site_fract_z
Si Si1 0.558538 0.237649 0.432196
Si Si2 0.753551 0.179099 0.134610
Si Si3 0.100113 0.229427 0.342723
Si Si4 0.634973 0.569754 0.810699
Si Si5 0.149715 0.237098 0.977196
Si Si6 0.025875 0.191441 0.723269
Si Si7 0.441804 0.161496 0.811132
O O1 0.701492 0.271661 0.267536
O O2 0.438660 0.404011 0.337710
O O3 0.564371 0.256384 0.602647
O O4 0.500000 0.000000 0.500000
O O5 0.744636 0.386815 0.907999
O O6 0.880165 0.028718 0.197548
O O7 0.095052 0.319918 0.119359
O O8 0.061531 0.320269 0.481946
O O9 0.267113 0.204364 0.308592
O O10 0.000000 0.000000 0.500000
O O11 0.121640 0.957345 0.142765
O O12 0.500000 0.500000 0.000000
O O13 0.684889 0.712718 0.134440
O O14 0.926118 0.695378 0.190025
O O15 0.357785 0.001666 0.803345
O O16 0.500000 0.000000 0.000000
#
# Coordination Sequence:
#
# PCOD9093111 Si02
#       7
#     2   2   2   2   2   2   2
#     4   9  18  33  55  81 106 153 191 226 290 352
#     4   9  19  34  55  81 111 155 184 236 308 339
#     4  10  20  35  61  84 107 158 203 238 279 351
#     4  10  20  34  58  84 121 150 185 244 306 345
#     4   9  19  32  56  85 109 142 204 242 276 332
#     4   9  18  37  58  79 112 153 198 241 283 347
#     4  10  20  31  55  85 112 148 197 242 279 350
#
# _framework density 28.359562
#
# number of rings (size 3 to 8) (size 9 to 14) (size 15 to 20)
#    0.000    2.571    0.000    2.571    8.000    0.000 
#    0.000    3.571    6.286   30.857    0.000    0.000 
#    0.000    0.000    0.000    0.000    0.000    0.000 
#
# Total GULP energy -78064.554994 kJ/mol
# GULP energy per Si atom -5576.039642 kJ/mol
# Density = 2.829501 g / cm^3
# Si number density = 28.359562 Si / 1000 Ang^3
#
#
#
# Elastic Constant Matrix: (Units=GPa)
#
#
# Indices 1 2 3 4 5 6 
#
# 1 117.2333 21.0915 37.6531 15.5330 -4.9496 -2.1402
# 2 21.0915 112.6175 53.5434 39.0916 11.2742 -11.4170
# 3 37.6531 53.5434 239.9601 46.9584 15.9597 -15.8553
# 4 15.5330 39.0916 46.9584 45.6672 10.3242 15.7254
# 5 -4.9496 11.2742 15.9597 10.3242 52.2827 -9.9738
# 6 -2.1402 -11.4170 -15.8553 15.7254 -9.9738 41.0809
#
#
#
# Elastic Compliance Matrix: (Units=1/GPa)
#
#
# Indices 1 2 3 4 5 6 
#
# 1 0.009398 -0.000255 -0.000785 -0.003337 0.002211 0.001930
# 2 -0.000255 0.016650 0.001055 -0.020520 0.002697 0.013531
# 3 -0.000785 0.001055 0.006307 -0.009598 0.000925 0.006585
# 4 -0.003337 -0.020520 -0.009598 0.066732 -0.013463 -0.038394
# 5 0.002211 0.002697 0.000925 -0.013463 0.023432 0.012064
# 6 0.001930 0.013531 0.006585 -0.038394 0.012064 0.048371
#
#
# Mechanical properties :
#
#
# Convention : Reuss Voigt Hill
#
# Bulk Modulus (GPa) = 30.87612 77.15412 54.01512
# Shear Modulus (GPa) = 27.52466 51.64101 39.58284
#
# Velocity S-wave (km/s) = 3.11876 4.27187 3.74003
# Velocity P-wave (km/s) = 4.88671 7.18308 6.14315
#
# Compressibility (1/GPa) = 0.03238749
#
# Stress axis : x y z
#
# Youngs Moduli (GPa) = 106.40032 60.05835 158.55546
#
# Poissons Ratio (x) = 0.01530 0.12439
# Poissons Ratio (y) = 0.02710 -0.16728
# Poissons Ratio (z) = 0.08347 -0.06336
#
# Static dielectric constant tensor:
#      x y z
#    x 3.108800 -0.241290 0.147480 
#    y -0.241290 2.419310 -0.138400 
#    z 0.147480 -0.138400 2.711900 
# 
# From -- ./inp_files/237014.got.cif
#   From: 2010.05.17/outbox.cif.g08.bks.cpg/sg2_119_cif.got.tgz:237014.got - 2010.06.03 11:33:40.
