data_PCOD9093835
_publ_section_title
;
Structure prediction by ZEFSAII (Michael W. Deem and Ramdas Pophale) SiO2 
 PCOD9093835
Probable space group: P -1
;
_chemical_formula_sum "Si O2"
_cell_formula_units_Z 14
_cell_length_a 11.740456
_cell_length_b 11.355240
_cell_length_c 5.162727
_cell_angle_alpha 118.405511
_cell_angle_beta 79.104592
_cell_angle_gamma 80.782138
_cell_volume 569.025306
_symmetry_space_group_name_H-M "P -1"
_symmetry_group_IT_number 2
_symmetry_cell_setting 'triclinic'
loop_
_space_group_symop_operation_xyz
x,y,z
-x,-y,-z
loop_
_atom_site_type_symbol
_atom_site_label
_atom_site_fract_x
_atom_site_fract_y
_atom_site_fract_z
Si Si1 0.080229 0.940385 0.651278
Si Si2 0.252071 0.115784 0.653578
Si Si3 0.188933 0.474400 0.458669
Si Si4 0.025973 0.368986 0.044492
Si Si5 0.635952 0.796862 0.781704
Si Si6 0.576137 0.335035 0.273674
Si Si7 0.732571 0.329892 0.694171
O O1 0.131805 0.773524 0.455742
O O2 0.202970 0.987671 0.624863
O O3 0.000000 0.000000 0.500000
O O4 0.000000 0.000000 0.000000
O O5 0.122336 0.230337 0.757007
O O6 0.337836 0.107270 0.359016
O O7 0.319292 0.159211 0.916952
O O8 0.278472 0.361303 0.479060
O O9 0.258218 0.518302 0.235950
O O10 0.097800 0.397729 0.295853
O O11 0.109945 0.614590 0.781717
O O12 0.000000 0.500000 0.000000
O O13 0.506503 0.769264 0.825103
O O14 0.500000 0.500000 0.500000
O O15 0.658108 0.293443 0.448711
O O16 0.659955 0.326758 0.980462
#
# Coordination Sequence:
#
# PCOD9093835 Si02
#       7
#     2   2   2   2   2   2   2
#     4  12  27  49  74 102 143 189 235 284 340 425
#     4  11  24  42  67  96 139 180 231 279 351 403
#     4  10  22  35  59  96 133 169 218 280 349 413
#     4  10  20  33  58  92 130 166 219 272 349 407
#     4  11  23  42  67  98 133 180 221 295 343 410
#     4  12  26  45  71 105 142 180 236 293 357 411
#     4  12  27  44  71 102 140 183 239 282 356 411
#
# _framework density 24.603477000000002
#
# number of rings (size 3 to 8) (size 9 to 14) (size 15 to 20)
#    0.000    0.857    2.857    3.857    8.000    0.000 
#    0.000    4.286    0.000    0.000    0.000    0.000 
#    0.000    0.000    0.000    0.000    0.000    0.000 
#
# Total GULP energy -78319.172346 kJ/mol
# GULP energy per Si atom -5594.226596 kJ/mol
# Density = 2.454748 g / cm^3
# Si number density = 24.603477 Si / 1000 Ang^3
#
#
#
# Elastic Constant Matrix: (Units=GPa)
#
#
# Indices 1 2 3 4 5 6 
#
# 1 113.6948 20.6028 27.1453 -22.0373 10.5700 5.4218
# 2 20.6028 98.0089 47.3844 -23.4105 -1.8504 -2.1733
# 3 27.1453 47.3844 112.4947 -42.9494 -7.8666 -4.4540
# 4 -22.0373 -23.4105 -42.9494 43.3618 2.7192 -1.6658
# 5 10.5700 -1.8504 -7.8666 2.7192 31.4846 -11.1488
# 6 5.4218 -2.1733 -4.4540 -1.6658 -11.1488 47.8105
#
#
#
# Elastic Compliance Matrix: (Units=1/GPa)
#
#
# Indices 1 2 3 4 5 6 
#
# 1 0.010585 -0.000881 -0.001083 0.004058 -0.005070 -0.002382
# 2 -0.000881 0.013072 -0.004434 0.002238 -0.000120 0.000331
# 3 -0.001083 -0.004434 0.016464 0.013217 0.004091 0.002870
# 4 0.004058 0.002238 0.013217 0.039542 -0.000596 0.002112
# 5 -0.005070 -0.000120 0.004091 -0.000596 0.037997 0.009790
# 6 -0.002382 0.000331 0.002870 0.002112 0.009790 0.023825
#
#
# Mechanical properties :
#
#
# Convention : Reuss Voigt Hill
#
# Bulk Modulus (GPa) = 36.59669 57.16260 46.87964
# Shear Modulus (GPa) = 30.60171 39.80244 35.20208
#
# Velocity S-wave (km/s) = 3.53058 4.02650 3.78666
# Velocity P-wave (km/s) = 5.61488 6.70081 6.18174
#
# Compressibility (1/GPa) = 0.02732488
#
# Stress axis : x y z
#
# Youngs Moduli (GPa) = 94.47237 76.50051 60.73768
#
# Poissons Ratio (x) = 0.06739 0.06576
# Poissons Ratio (y) = 0.08322 0.26934
# Poissons Ratio (z) = 0.10229 0.33924
#
# Static dielectric constant tensor:
#      x y z
#    x 1.974450 0.041750 -0.018460 
#    y 0.041750 1.900050 -0.002670 
#    z -0.018460 -0.002670 1.979030 
# 
# From -- ./inp_files/72145.got.cif
#   From: 2010.05.17/outbox.cif.g08.bks.cpg/sg2_37_cif.got.tgz:72145.got - 2010.06.03 11:33:40.
