data_PCOD9093840
_publ_section_title
;
Structure prediction by ZEFSAII (Michael W. Deem and Ramdas Pophale) SiO2 
 PCOD9093840
Probable space group: P -1
;
_chemical_formula_sum "Si O2"
_cell_formula_units_Z 16
_cell_length_a 10.802905
_cell_length_b 20.481178
_cell_length_c 7.803182
_cell_angle_alpha 79.211056
_cell_angle_beta 56.100152
_cell_angle_gamma 34.153750
_cell_volume 650.290591
_symmetry_space_group_name_H-M "P -1"
_symmetry_group_IT_number 2
_symmetry_cell_setting 'triclinic'
loop_
_space_group_symop_operation_xyz
x,y,z
-x,-y,-z
loop_
_atom_site_type_symbol
_atom_site_label
_atom_site_fract_x
_atom_site_fract_y
_atom_site_fract_z
Si Si1 0.672952 0.700517 0.386368
Si Si2 0.232681 0.073995 0.393394
Si Si3 0.844156 0.297138 0.801959
Si Si4 0.277880 0.846068 0.276131
Si Si5 0.803848 0.219912 0.154626
Si Si6 0.098561 0.222393 0.119058
Si Si7 0.676960 0.093517 0.137604
Si Si8 0.749851 0.453924 0.059869
O O1 0.545920 0.746222 0.265681
O O2 0.488220 0.710474 0.598615
O O3 0.557916 0.802169 0.568403
O O4 0.054809 0.558106 0.140580
O O5 0.190005 0.130953 0.573301
O O6 0.926811 0.142808 0.589013
O O7 0.567586 0.904221 0.185297
O O8 0.217407 0.142623 0.240993
O O9 0.839917 0.362567 0.892298
O O10 0.695221 0.295851 0.024927
O O11 0.630637 0.391814 0.750190
O O12 0.000000 0.000000 0.500000
O O13 0.600338 0.165812 0.987467
O O14 0.865744 0.256843 0.212157
O O15 0.154863 0.043910 0.967687
O O16 0.893637 0.369789 0.168733
O O17 0.000000 0.000000 0.000000
#
# Coordination Sequence:
#
# PCOD9093840 Si02
#       8
#     2   2   2   2   2   2   2   2
#     4  11  22  38  64  91 129 164 202 268 316 369
#     4  11  22  38  63  95 121 167 205 261 313 378
#     4  10  24  43  65  83 127 166 218 253 313 380
#     4  12  20  36  61  96 136 160 200 265 322 372
#     4  10  20  37  58  90 122 158 205 257 305 378
#     4  10  22  37  62  91 126 155 209 254 319 367
#     4  10  20  33  58  95 125 163 198 247 327 366
#     4  10  24  44  61  90 120 174 206 262 317 372
#
# _framework density 24.604386000000002
#
# number of rings (size 3 to 8) (size 9 to 14) (size 15 to 20)
#    0.000    1.500    3.750    2.250    3.500    3.000 
#    0.000    0.625    0.000    0.000    0.000    0.000 
#    0.000    0.000    0.000    0.000    0.000    0.000 
#
# Total GULP energy -89082.022242 kJ/mol
# GULP energy per Si atom -5567.626390 kJ/mol
# Density = 2.454839 g / cm^3
# Si number density = 24.604386 Si / 1000 Ang^3
#
#
#
# Elastic Constant Matrix: (Units=GPa)
#
#
# Indices 1 2 3 4 5 6 
#
# 1 50.9267 7.5832 24.6381 -4.3932 -5.9708 7.1599
# 2 7.5832 90.7229 25.5608 -19.4807 -9.5174 -21.6433
# 3 24.6381 25.5608 63.8549 1.2648 -19.2189 -0.0239
# 4 -4.3932 -19.4807 1.2648 25.5612 -0.5603 -2.7604
# 5 -5.9708 -9.5174 -19.2189 -0.5603 33.0438 -5.0653
# 6 7.1599 -21.6433 -0.0239 -2.7604 -5.0653 30.2368
#
#
#
# Elastic Compliance Matrix: (Units=1/GPa)
#
#
# Indices 1 2 3 4 5 6 
#
# 1 0.025794 0.000141 -0.010835 0.004372 -0.002450 -0.006027
# 2 0.000141 0.022439 -0.007884 0.019643 0.005098 0.018669
# 3 -0.010835 -0.007884 0.026379 -0.009171 0.010634 -0.002113
# 4 0.004372 0.019643 -0.009171 0.057470 0.005017 0.019105
# 5 -0.002450 0.005098 0.010634 0.005017 0.039287 0.011277
# 6 -0.006027 0.018669 -0.002113 0.019105 0.011277 0.051494
#
#
# Mechanical properties :
#
#
# Convention : Reuss Voigt Hill
#
# Bulk Modulus (GPa) = 26.69936 35.67429 31.18683
# Shear Modulus (GPa) = 18.34821 27.61653 22.98237
#
# Velocity S-wave (km/s) = 2.73377 3.35389 3.05958
# Velocity P-wave (km/s) = 4.56505 5.43404 5.01839
#
# Compressibility (1/GPa) = 0.03745408
#
# Stress axis : x y z
#
# Youngs Moduli (GPa) = 38.76806 44.56606 37.90926
#
# Poissons Ratio (x) = -0.00626 0.41076
# Poissons Ratio (y) = -0.00545 0.29888
# Poissons Ratio (z) = 0.42006 0.35136
#
# Static dielectric constant tensor:
#      x y z
#    x 2.056900 0.027690 0.046330 
#    y 0.027690 1.841880 0.096280 
#    z 0.046330 0.096280 1.936240 
# 
# From -- ./inp_files/284789.got.cif
#   From: 2010.05.17/outbox.cif.g08.bks.cpg/sg2_143_cif.got.tgz:284789.got - 2010.06.03 11:33:40.
