data_PCOD9093612
_publ_section_title
;
Structure prediction by ZEFSAII (Michael W. Deem and Ramdas Pophale) SiO2 
 PCOD9093612
Probable space group: P -1
;
_chemical_formula_sum "Si O2"
_cell_formula_units_Z 14
_cell_length_a 5.624447
_cell_length_b 14.971850
_cell_length_c 18.923550
_cell_angle_alpha 149.412985
_cell_angle_beta 66.024907
_cell_angle_gamma 92.406644
_cell_volume 555.284076
_symmetry_space_group_name_H-M "P -1"
_symmetry_group_IT_number 2
_symmetry_cell_setting 'triclinic'
loop_
_space_group_symop_operation_xyz
x,y,z
-x,-y,-z
loop_
_atom_site_type_symbol
_atom_site_label
_atom_site_fract_x
_atom_site_fract_y
_atom_site_fract_z
Si Si1 0.573693 0.500664 0.799893
Si Si2 0.952232 0.662730 0.556434
Si Si3 0.654788 0.828122 0.957529
Si Si4 0.126920 0.862247 0.984873
Si Si5 0.671287 0.078615 0.440590
Si Si6 0.423470 0.752943 0.583688
Si Si7 0.028879 0.787102 0.324163
O O1 0.727286 0.256073 0.579105
O O2 0.621639 0.441128 0.836835
O O3 0.746044 0.615050 0.847085
O O4 0.233752 0.688529 0.920411
O O5 0.801059 0.631336 0.484943
O O6 0.000000 0.500000 0.500000
O O7 0.307691 0.613932 0.474979
O O8 0.653353 0.936140 0.801066
O O9 0.463250 0.834146 0.916252
O O10 0.969914 0.821057 0.912666
O O11 0.816749 0.113595 0.227355
O O12 0.667107 0.080949 0.358140
O O13 0.296445 0.178440 0.581600
O O14 0.954166 0.835867 0.282902
O O15 0.000000 0.000000 0.500000
#
# Coordination Sequence:
#
# PCOD9093612 Si02
#       7
#     2   2   2   2   2   2   2
#     4   9  17  31  56  75 111 146 193 208 274 328
#     4  10  20  37  60  84 111 142 182 228 280 336
#     4   8  16  30  53  78 101 141 183 212 265 334
#     4   8  16  31  50  76 103 139 184 215 263 325
#     4  10  20  33  54  82 115 143 187 230 272 317
#     4  10  21  35  58  86 112 139 184 231 277 320
#     4   9  19  33  51  79 111 154 185 221 267 325
#
# _framework density 25.212322
#
# number of rings (size 3 to 8) (size 9 to 14) (size 15 to 20)
#    0.857    2.000    0.000    1.286    4.000    0.000 
#    0.000    0.714    0.000   11.143    0.000    0.000 
#    0.000    0.000    0.000    0.000    0.000    0.000 
#
# Total GULP energy -78042.346250 kJ/mol
# GULP energy per Si atom -5574.453304 kJ/mol
# Density = 2.515494 g / cm^3
# Si number density = 25.212322 Si / 1000 Ang^3
#
#
#
# Elastic Constant Matrix: (Units=GPa)
#
#
# Indices 1 2 3 4 5 6 
#
# 1 216.0467 53.7111 34.9357 9.2167 11.2984 -28.7930
# 2 53.7111 137.7992 41.3391 28.2288 0.0947 -22.1180
# 3 34.9357 41.3391 71.6383 4.9819 -1.6497 7.6488
# 4 9.2167 28.2288 4.9819 37.1396 0.4143 -6.3135
# 5 11.2984 0.0947 -1.6497 0.4143 34.2591 10.6999
# 6 -28.7930 -22.1180 7.6488 -6.3135 10.6999 42.5625
#
#
#
# Elastic Compliance Matrix: (Units=1/GPa)
#
#
# Indices 1 2 3 4 5 6 
#
# 1 0.006271 -0.000579 -0.003439 0.000344 -0.003989 0.005613
# 2 -0.000579 0.012055 -0.006950 -0.006934 -0.002166 0.006638
# 3 -0.003439 -0.006950 0.020834 0.001434 0.005531 -0.010860
# 4 0.000344 -0.006934 0.001434 0.032157 -0.000836 0.001352
# 5 -0.003989 -0.002166 0.005531 -0.000836 0.035086 -0.013763
# 6 0.005613 0.006638 -0.010860 0.001352 -0.013763 0.036353
#
#
# Mechanical properties :
#
#
# Convention : Reuss Voigt Hill
#
# Bulk Modulus (GPa) = 58.06243 76.16180 67.11211
# Shear Modulus (GPa) = 29.33691 42.49214 35.91452
#
# Velocity S-wave (km/s) = 3.41485 4.10978 3.77833
# Velocity P-wave (km/s) = 6.21511 7.26596 6.76098
#
# Compressibility (1/GPa) = 0.01722284
#
# Stress axis : x y z
#
# Youngs Moduli (GPa) = 159.47174 82.95145 47.99886
#
# Poissons Ratio (x) = 0.04807 0.16505
# Poissons Ratio (y) = 0.09240 0.33361
# Poissons Ratio (z) = 0.54838 0.57654
#
# Static dielectric constant tensor:
#      x y z
#    x 2.047920 -0.025470 -0.015290 
#    y -0.025470 1.960630 0.004100 
#    z -0.015290 0.004100 2.058680 
# 
# From -- ./inp_files/80127.got.cif
#   From: 2010.05.17/outbox.cif.g08.bks.cpg/sg2_41_cif.got.tgz:80127.got - 2010.06.03 11:33:40.
