data_PCOD9093140
_publ_section_title
;
Structure prediction by ZEFSAII (Michael W. Deem and Ramdas Pophale) SiO2 
 PCOD9093140
Probable space group: P -1
;
_chemical_formula_sum "Si O2"
_cell_formula_units_Z 16
_cell_length_a 11.611051
_cell_length_b 7.789345
_cell_length_c 18.308314
_cell_angle_alpha 137.828087
_cell_angle_beta 130.947429
_cell_angle_gamma 84.003558
_cell_volume 553.619441
_symmetry_space_group_name_H-M "P -1"
_symmetry_group_IT_number 2
_symmetry_cell_setting 'triclinic'
loop_
_space_group_symop_operation_xyz
x,y,z
-x,-y,-z
loop_
_atom_site_type_symbol
_atom_site_label
_atom_site_fract_x
_atom_site_fract_y
_atom_site_fract_z
Si Si1 0.236427 0.961576 0.275019
Si Si2 0.446518 0.813042 0.111286
Si Si3 0.207063 0.772922 0.732478
Si Si4 0.225285 0.404643 0.022039
Si Si5 0.682753 0.669036 0.341828
Si Si6 0.229887 0.597845 0.282755
Si Si7 0.861658 0.374224 0.579822
Si Si8 0.568455 0.639222 0.723091
O O1 0.292322 0.788779 0.192689
O O2 0.119305 0.655528 0.198481
O O3 0.462116 0.408605 0.530381
O O4 0.037759 0.916453 0.160370
O O5 0.565360 0.853319 0.100534
O O6 0.655462 0.127675 0.355949
O O7 0.350323 0.974080 0.106778
O O8 0.253176 0.415065 0.948991
O O9 0.281103 0.584154 0.732095
O O10 0.000000 0.500000 0.500000
O O11 0.087057 0.743941 0.744755
O O12 0.435572 0.491238 0.164365
O O13 0.661457 0.673083 0.421198
O O14 0.868572 0.078588 0.508628
O O15 0.183759 0.576631 0.342221
O O16 0.225617 0.299645 0.160308
O O17 0.500000 0.000000 0.500000
#
# Coordination Sequence:
#
# PCOD9093140 Si02
#       8
#     2   2   2   2   2   2   2   2
#     4  10  19  32  52  80 110 135 179 208 249 325
#     4   9  19  32  51  78 109 132 169 219 264 298
#     4   9  19  31  49  80 103 129 175 230 253 294
#     4  10  20  33  53  77 108 145 168 207 266 313
#     4  10  16  31  55  76 102 136 176 214 257 307
#     4  10  16  29  51  76 105 130 173 217 256 301
#     4  10  17  29  50  80  99 133 176 217 255 301
#     4  10  17  31  55  79 106 134 169 220 259 300
#
# _framework density 28.900721000000001
#
# number of rings (size 3 to 8) (size 9 to 14) (size 15 to 20)
#    0.000    2.250    3.750    2.625    0.000    2.000 
#    0.000    0.625    5.500    1.500    0.000    0.000 
#    0.000    0.000    0.000    0.000    0.000    0.000 
#
# Total GULP energy -89342.558223 kJ/mol
# GULP energy per Si atom -5583.909889 kJ/mol
# Density = 2.883494 g / cm^3
# Si number density = 28.900721 Si / 1000 Ang^3
#
#
#
# Elastic Constant Matrix: (Units=GPa)
#
#
# Indices 1 2 3 4 5 6 
#
# 1 173.2913 52.6267 17.3757 -18.6933 28.4117 11.8893
# 2 52.6267 118.5448 7.5456 -9.9415 20.3888 15.8115
# 3 17.3757 7.5456 79.4104 -0.9282 19.3833 5.7870
# 4 -18.6933 -9.9415 -0.9282 32.7093 4.1803 19.7532
# 5 28.4117 20.3888 19.3833 4.1803 35.7230 8.4908
# 6 11.8893 15.8115 5.7870 19.7532 8.4908 73.5913
#
#
#
# Elastic Compliance Matrix: (Units=1/GPa)
#
#
# Indices 1 2 3 4 5 6 
#
# 1 0.007997 -0.001870 -0.000023 0.005799 -0.005529 -0.001807
# 2 -0.001870 0.010822 0.000863 0.004535 -0.005040 -0.002727
# 3 -0.000023 0.000863 0.014686 0.002346 -0.008483 -0.000988
# 4 0.005799 0.004535 0.002346 0.044415 -0.010631 -0.012791
# 5 -0.005529 -0.005040 -0.008483 -0.010631 0.040930 0.000774
# 6 -0.001807 -0.002727 -0.000988 -0.012791 0.000774 0.017888
#
#
# Mechanical properties :
#
#
# Convention : Reuss Voigt Hill
#
# Bulk Modulus (GPa) = 31.80285 58.48250 45.14267
# Shear Modulus (GPa) = 33.49419 47.98463 40.73941
#
# Velocity S-wave (km/s) = 3.40801 4.07913 3.75858
# Velocity P-wave (km/s) = 5.14919 6.51654 5.87280
#
# Compressibility (1/GPa) = 0.03144372
#
# Stress axis : x y z
#
# Youngs Moduli (GPa) = 125.04608 92.40517 68.09330
#
# Poissons Ratio (x) = 0.17283 0.00156
# Poissons Ratio (y) = 0.23388 -0.05875
# Poissons Ratio (z) = 0.00287 -0.07973
#
# Static dielectric constant tensor:
#      x y z
#    x 2.271970 -0.069030 -0.084630 
#    y -0.069030 2.569630 -0.018100 
#    z -0.084630 -0.018100 2.320710 
# 
# From -- ./inp_files/453328.got.cif
#   From: 2010.05.17/outbox.cif.g08.bks.cpg/sg2_227_cif.got.tgz:453328.got - 2010.06.03 11:33:40.
