data_PCOD9093893
_publ_section_title
;
Structure prediction by ZEFSAII (Michael W. Deem and Ramdas Pophale) SiO2 
 PCOD9093893
Probable space group: P -1
;
_chemical_formula_sum "Si O2"
_cell_formula_units_Z 16
_cell_length_a 11.704955
_cell_length_b 14.990952
_cell_length_c 9.513512
_cell_angle_alpha 96.641706
_cell_angle_beta 65.399337
_cell_angle_gamma 149.428267
_cell_volume 657.055357
_symmetry_space_group_name_H-M "P -1"
_symmetry_group_IT_number 2
_symmetry_cell_setting 'triclinic'
loop_
_space_group_symop_operation_xyz
x,y,z
-x,-y,-z
loop_
_atom_site_type_symbol
_atom_site_label
_atom_site_fract_x
_atom_site_fract_y
_atom_site_fract_z
Si Si1 0.791193 0.218998 0.032319
Si Si2 0.017739 0.715858 0.607304
Si Si3 0.519404 0.157131 0.929563
Si Si4 0.136085 0.353726 0.638356
Si Si5 0.184174 0.193053 0.708713
Si Si6 0.866922 0.371025 0.298488
Si Si7 0.706924 0.923710 0.392880
Si Si8 0.610924 0.762507 0.133281
O O1 0.569975 0.144341 0.054084
O O2 0.031596 0.348927 0.817565
O O3 0.920248 0.351063 0.124164
O O4 0.635630 0.023772 0.106316
O O5 0.198297 0.747623 0.575116
O O6 0.028060 0.732467 0.437799
O O7 0.690266 0.481985 0.776463
O O8 0.112864 0.870391 0.653421
O O9 0.356661 0.149125 0.999760
O O10 0.847134 0.392397 0.759620
O O11 0.076722 0.215088 0.699535
O O12 0.470902 0.579830 0.466964
O O13 0.106386 0.044646 0.660374
O O14 0.187722 0.181169 0.877131
O O15 0.582419 0.246636 0.402366
O O16 0.590642 0.823123 0.279529
#
# Coordination Sequence:
#
# PCOD9093893 Si02
#       8
#     2   2   2   2   2   2   2   2
#     4  11  24  36  58  83 122 153 179 233 286 345
#     4  10  21  34  62  85 113 148 193 234 277 337
#     4  10  22  37  57  81 120 154 187 221 287 348
#     4  10  20  39  60  86 112 151 191 233 285 328
#     4   8  19  38  62  83 111 148 191 243 275 323
#     4  11  23  37  57  88 120 148 183 234 287 341
#     4  10  20  33  60  87 111 145 189 237 278 325
#     4   8  19  37  57  83 114 147 188 238 276 331
#
# _framework density 24.351068999999999
#
# number of rings (size 3 to 8) (size 9 to 14) (size 15 to 20)
#    0.750    1.500    0.000    2.250    5.250    1.500 
#    0.000    0.625    0.000    7.500    0.000    0.000 
#    0.000    0.000    0.000    0.000    0.000    0.000 
#
# Total GULP energy -89315.971271 kJ/mol
# GULP energy per Si atom -5582.248204 kJ/mol
# Density = 2.429564 g / cm^3
# Si number density = 24.351069 Si / 1000 Ang^3
#
#
#
# Elastic Constant Matrix: (Units=GPa)
#
#
# Indices 1 2 3 4 5 6 
#
# 1 177.8742 19.7811 32.8278 -8.1414 9.4905 -20.2856
# 2 19.7811 115.4655 19.9346 2.5910 7.2609 -32.5901
# 3 32.8278 19.9346 60.5674 5.6130 12.9984 -9.4646
# 4 -8.1414 2.5910 5.6130 30.3559 -10.9197 9.0343
# 5 9.4905 7.2609 12.9984 -10.9197 38.4919 -10.5320
# 6 -20.2856 -32.5901 -9.4646 9.0343 -10.5320 40.7758
#
#
#
# Elastic Compliance Matrix: (Units=1/GPa)
#
#
# Indices 1 2 3 4 5 6 
#
# 1 0.006586 0.000018 -0.003586 0.002048 0.000768 0.002203
# 2 0.000018 0.011856 -0.002091 -0.003483 0.000162 0.009813
# 3 -0.003586 -0.002091 0.021824 -0.008102 -0.008025 0.001333
# 4 0.002048 -0.003483 -0.008102 0.042656 0.012273 -0.009926
# 5 0.000768 0.000162 -0.008025 0.012273 0.033183 0.004500
# 6 0.002203 0.009813 0.001333 -0.009926 0.004500 0.037135
#
#
# Mechanical properties :
#
#
# Convention : Reuss Voigt Hill
#
# Bulk Modulus (GPa) = 34.54326 55.44379 44.99353
# Shear Modulus (GPa) = 28.70180 40.68230 34.69205
#
# Velocity S-wave (km/s) = 3.43690 4.09180 3.77856
# Velocity P-wave (km/s) = 5.47412 6.71876 6.12812
#
# Compressibility (1/GPa) = 0.02894920
#
# Stress axis : x y z
#
# Youngs Moduli (GPa) = 151.84310 84.34404 45.82212
#
# Poissons Ratio (x) = -0.00156 0.16431
# Poissons Ratio (y) = -0.00281 0.09580
# Poissons Ratio (z) = 0.54448 0.17635
#
# Static dielectric constant tensor:
#      x y z
#    x 2.032810 0.025320 -0.005070 
#    y 0.025320 1.923940 -0.091580 
#    z -0.005070 -0.091580 1.986510 
# 
# From -- ./inp_files/432943.got.cif
#   From: 2010.05.17/outbox.cif.g08.bks.cpg/sg2_217_cif.got.tgz:432943.got - 2010.06.03 11:33:40.
