data_PCOD9093657
_publ_section_title
;
Structure prediction by ZEFSAII (Michael W. Deem and Ramdas Pophale) SiO2 
 PCOD9093657
Probable space group: P -1
;
_chemical_formula_sum "Si O2"
_cell_formula_units_Z 16
_cell_length_a 7.081328
_cell_length_b 17.435507
_cell_length_c 18.284430
_cell_angle_alpha 21.231052
_cell_angle_beta 88.939919
_cell_angle_gamma 102.971028
_cell_volume 608.577461
_symmetry_space_group_name_H-M "P -1"
_symmetry_group_IT_number 2
_symmetry_cell_setting 'triclinic'
loop_
_space_group_symop_operation_xyz
x,y,z
-x,-y,-z
loop_
_atom_site_type_symbol
_atom_site_label
_atom_site_fract_x
_atom_site_fract_y
_atom_site_fract_z
Si Si1 0.071002 0.458409 0.312761
Si Si2 0.293884 0.890626 0.820098
Si Si3 0.387212 0.257363 0.777651
Si Si4 0.244501 0.932351 0.476799
Si Si5 0.562807 0.527418 0.260651
Si Si6 0.547126 0.625552 0.021381
Si Si7 0.244936 0.967793 0.603006
Si Si8 0.115180 0.645638 0.292337
O O1 0.291295 0.447947 0.328796
O O2 0.959635 0.424918 0.422854
O O3 0.906381 0.268257 0.413263
O O4 0.178267 0.765526 0.011646
O O5 0.492436 0.229110 0.521910
O O6 0.120868 0.818879 0.814426
O O7 0.413323 0.750377 0.927258
O O8 0.500000 0.500000 0.500000
O O9 0.318968 0.321520 0.797316
O O10 0.616038 0.272876 0.785637
O O11 0.174698 0.939632 0.030932
O O12 0.499784 0.985813 0.437272
O O13 0.115699 0.829977 0.648482
O O14 0.310950 0.219167 0.193535
O O15 0.698527 0.693963 0.035345
O O16 0.350786 0.286145 0.318467
O O17 0.000000 0.500000 0.500000
#
# Coordination Sequence:
#
# PCOD9093657 Si02
#       8
#     2   2   2   2   2   2   2   2
#     4  10  21  36  55  83 116 148 182 239 297 341
#     4   9  18  36  56  78 110 147 188 235 277 344
#     4  10  21  40  64  87 119 168 198 249 313 363
#     4  10  20  33  55  82 115 148 186 234 289 339
#     4   9  19  36  57  79 110 148 198 227 283 360
#     4   9  18  34  55  77 108 148 188 231 279 336
#     4   9  19  36  54  82 110 149 195 230 276 349
#     4  10  23  41  61  92 127 154 205 258 301 370
#
# _framework density 26.29082
#
# number of rings (size 3 to 8) (size 9 to 14) (size 15 to 20)
#    0.000    2.500    0.000    1.125    1.750    3.000 
#    6.750    5.625    0.000    0.000    0.000    0.000 
#    0.000    0.000    0.000    0.000    0.000    0.000 
#
# Total GULP energy -89428.529839 kJ/mol
# GULP energy per Si atom -5589.283115 kJ/mol
# Density = 2.623098 g / cm^3
# Si number density = 26.290820 Si / 1000 Ang^3
#
#
#
# Elastic Constant Matrix: (Units=GPa)
#
#
# Indices 1 2 3 4 5 6 
#
# 1 80.8604 19.6448 3.2284 1.1328 21.9764 17.8217
# 2 19.6448 208.9310 47.6351 16.8165 3.4933 4.0922
# 3 3.2284 47.6351 132.4812 10.0852 33.2322 0.8977
# 4 1.1328 16.8165 10.0852 36.0770 -4.1194 -7.5790
# 5 21.9764 3.4933 33.2322 -4.1194 32.7055 4.5194
# 6 17.8217 4.0922 0.8977 -7.5790 4.5194 39.5414
#
#
#
# Elastic Compliance Matrix: (Units=1/GPa)
#
#
# Indices 1 2 3 4 5 6 
#
# 1 0.019059 -0.002140 0.005022 -0.004522 -0.017231 -0.007380
# 2 -0.002140 0.005678 -0.002747 -0.001465 0.003471 -0.000238
# 3 0.005022 -0.002747 0.012956 -0.004667 -0.016659 -0.001264
# 4 -0.004522 -0.001465 -0.004667 0.032640 0.011041 0.007290
# 5 -0.017231 0.003471 -0.016659 0.011041 0.059675 0.003080
# 6 -0.007380 -0.000238 -0.001264 0.007290 0.003080 0.029715
#
#
# Mechanical properties :
#
#
# Convention : Reuss Voigt Hill
#
# Bulk Modulus (GPa) = 26.34202 62.58771 44.46486
# Shear Modulus (GPa) = 29.05109 45.11572 37.08340
#
# Velocity S-wave (km/s) = 3.32775 4.14699 3.75975
# Velocity P-wave (km/s) = 4.98060 6.84015 5.98306
#
# Compressibility (1/GPa) = 0.03796217
#
# Stress axis : x y z
#
# Youngs Moduli (GPa) = 52.46760 176.10487 77.18272
#
# Poissons Ratio (x) = 0.37692 -0.38758
# Poissons Ratio (y) = 0.11230 0.21204
# Poissons Ratio (z) = -0.26347 0.48380
#
# Static dielectric constant tensor:
#      x y z
#    x 2.175870 -0.055450 -0.135590 
#    y -0.055450 2.076220 0.029720 
#    z -0.135590 0.029720 2.125530 
# 
# From -- ./inp_files/552796.got.cif
#   From: 2010.05.17/outbox.cif.g08.bks.cpg/sg2_277_cif.got.tgz:552796.got - 2010.06.03 11:33:40.
