data_PCOD9093198
_publ_section_title
;
Structure prediction by ZEFSAII (Michael W. Deem and Ramdas Pophale) SiO2 
 PCOD9093198
Probable space group: P -1
;
_chemical_formula_sum "Si O2"
_cell_formula_units_Z 12
_cell_length_a 9.551684
_cell_length_b 15.136178
_cell_length_c 10.322240
_cell_angle_alpha 39.599209
_cell_angle_beta 89.931462
_cell_angle_gamma 117.725317
_cell_volume 648.776376
_symmetry_space_group_name_H-M "P -1"
_symmetry_group_IT_number 2
_symmetry_cell_setting 'triclinic'
loop_
_space_group_symop_operation_xyz
x,y,z
-x,-y,-z
loop_
_atom_site_type_symbol
_atom_site_label
_atom_site_fract_x
_atom_site_fract_y
_atom_site_fract_z
Si Si1 0.231092 0.434698 0.368752
Si Si2 0.872620 0.935169 0.340734
Si Si3 0.655177 0.941716 0.542379
Si Si4 0.108398 0.927113 0.069392
Si Si5 0.798838 0.349740 0.082568
Si Si6 0.315021 0.149834 0.072081
O O1 0.196385 0.268670 0.473340
O O2 0.073881 0.310456 0.629198
O O3 0.179591 0.528451 0.173552
O O4 0.467993 0.616807 0.202396
O O5 0.774446 0.907754 0.506477
O O6 0.120321 0.108397 0.146273
O O7 0.806927 0.999962 0.157707
O O8 0.412143 0.759724 0.720340
O O9 0.675193 0.940395 0.699370
O O10 0.751007 0.157752 0.258118
O O11 0.265777 0.036347 0.065553
O O12 0.000000 0.000000 0.000000
O O13 0.000000 0.500000 0.000000
#
# Coordination Sequence:
#
# PCOD9093198 Si02
#       6
#     2   2   2   2   2   2
#     4   9  18  32  53  74  96 134 170 194 242 299
#     4  10  20  32  50  79 105 123 160 212 247 283
#     4  10  21  34  51  77 101 127 165 207 249 287
#     4   8  17  31  48  73 104 131 159 198 245 293
#     4  10  20  35  53  70  99 136 167 200 245 298
#     4   9  17  31  53  74 101 132 161 200 245 295
#
# _framework density 18.496358000000001
#
# number of rings (size 3 to 8) (size 9 to 14) (size 15 to 20)
#    0.000    3.000    0.000    2.500    0.000   10.000 
#    0.000    0.833    0.000   14.000    0.000    0.000 
#    0.000    0.000    0.000    0.000    0.000    0.000 
#
# Total GULP energy -66803.035349 kJ/mol
# GULP energy per Si atom -5566.919612 kJ/mol
# Density = 1.845426 g / cm^3
# Si number density = 18.496358 Si / 1000 Ang^3
#
#
#
# Elastic Constant Matrix: (Units=GPa)
#
#
# Indices 1 2 3 4 5 6 
#
# 1 25.4953 26.0535 6.9662 -3.1147 3.6081 25.4004
# 2 26.0535 72.2050 42.6226 0.2884 -8.9075 29.0796
# 3 6.9662 42.6226 111.5578 -4.3617 17.9845 20.1891
# 4 -3.1147 0.2884 -4.3617 23.4780 10.4260 -8.8878
# 5 3.6081 -8.9075 17.9845 10.4260 18.6273 -12.1454
# 6 25.4004 29.0796 20.1891 -8.8878 -12.1454 23.1512
#
#
#
# Elastic Compliance Matrix: (Units=1/GPa)
#
#
# Indices 1 2 3 4 5 6 
#
# 1 -0.005891 0.001147 -0.015579 -0.010030 0.048587 0.040247
# 2 0.001147 0.038630 -0.010274 -0.024706 0.013979 -0.042972
# 3 -0.015579 -0.010274 0.009860 0.009530 -0.000626 0.024728
# 4 -0.010030 -0.024706 0.009530 0.074422 -0.030564 0.046263
# 5 0.048587 0.013979 -0.000626 -0.030564 0.023056 -0.069958
# 6 0.040247 -0.042972 0.024728 0.046263 -0.069958 0.012508
#
#
# Mechanical properties :
#
#
# Convention : Reuss Voigt Hill
#
# Bulk Modulus (GPa) = -146.79890 40.06033 -53.36929
# Shear Modulus (GPa) = 25.03436 21.95902 23.49669
#
# Velocity S-wave (km/s) = 3.68295 3.44933 3.56805
# Velocity P-wave (km/s) = 7.83921 6.12938 3.45571
#
# Compressibility (1/GPa) = -0.00681204
#
# Stress axis : x y z
#
# Youngs Moduli (GPa) = -169.75240 25.88688 101.41607
#
# Poissons Ratio (x) = -0.02969 1.57996
# Poissons Ratio (y) = 0.19470 1.04190
# Poissons Ratio (z) = -2.64457 0.26595
#
# Static dielectric constant tensor:
#      x y z
#    x 1.641650 0.020260 -0.001860 
#    y 0.020260 1.686630 0.037100 
#    z -0.001860 0.037100 1.668870 
# 
# From -- ./inp_files/171914.got.cif
#   From: 2010.05.17/outbox.cif.g08.bks.cpg/sg2_86_cif.got.tgz:171914.got - 2010.06.03 11:33:40.
