data_PCOD9093480
_publ_section_title
;
Structure prediction by ZEFSAII (Michael W. Deem and Ramdas Pophale) SiO2 
 PCOD9093480
Probable space group: P -1
;
_chemical_formula_sum "Si O2"
_cell_formula_units_Z 16
_cell_length_a 26.346975
_cell_length_b 13.201250
_cell_length_c 26.365193
_cell_angle_alpha 26.002452
_cell_angle_beta 168.948544
_cell_angle_gamma 150.808936
_cell_volume 766.109340
_symmetry_space_group_name_H-M "P -1"
_symmetry_group_IT_number 2
_symmetry_cell_setting 'triclinic'
loop_
_space_group_symop_operation_xyz
x,y,z
-x,-y,-z
loop_
_atom_site_type_symbol
_atom_site_label
_atom_site_fract_x
_atom_site_fract_y
_atom_site_fract_z
Si Si1 0.736814 0.152252 0.151917
Si Si2 0.305252 0.785442 0.730087
Si Si3 0.230651 0.077119 0.809477
Si Si4 0.556582 0.765394 0.875792
Si Si5 0.948696 0.099197 0.751085
Si Si6 0.028613 0.465270 0.354267
Si Si7 0.796465 0.838034 0.809044
Si Si8 0.310239 0.693619 0.446368
O O1 0.763169 0.385972 0.103967
O O2 0.762063 0.147908 0.117933
O O3 0.000000 0.000000 0.500000
O O4 0.500000 0.000000 0.000000
O O5 0.429031 0.821776 0.780264
O O6 0.003622 0.897892 0.390278
O O7 0.489027 0.889549 0.905633
O O8 0.324505 0.506594 0.883330
O O9 0.144226 0.290941 0.589885
O O10 0.315818 0.800659 0.583569
O O11 0.795272 0.916104 0.027453
O O12 0.024767 0.285390 0.784001
O O13 0.878305 0.876618 0.813992
O O14 0.232283 0.483203 0.499185
O O15 0.571363 0.675575 0.676171
O O16 0.675087 0.092968 0.595906
O O17 0.058653 0.762407 0.132574
#
# Coordination Sequence:
#
# PCOD9093480 Si02
#       8
#     2   2   2   2   2   2   2   2
#     4  10  22  34  50  72 100 131 176 210 235 285
#     4  11  21  34  50  70 101 129 174 209 247 278
#     4  11  20  35  50  71 100 138 168 207 245 281
#     4  11  21  33  49  75  97 133 170 209 238 305
#     4  11  20  32  53  71 104 133 170 194 251 306
#     4  10  20  33  51  73  99 141 167 196 242 300
#     4   9  18  31  44  70  95 130 157 205 239 288
#     4   9  18  30  46  66  99 126 165 196 240 287
#
# _framework density 20.884747000000001
#
# number of rings (size 3 to 8) (size 9 to 14) (size 15 to 20)
#    0.000    1.750    2.500    3.000    0.000    8.000 
#    0.000    0.000    0.000    0.000    0.000    0.000 
#    0.000   20.000    0.000    0.000    0.000    0.000 
#
# Total GULP energy -89367.476023 kJ/mol
# GULP energy per Si atom -5585.467251 kJ/mol
# Density = 2.083721 g / cm^3
# Si number density = 20.884747 Si / 1000 Ang^3
#
#
#
# Elastic Constant Matrix: (Units=GPa)
#
#
# Indices 1 2 3 4 5 6 
#
# 1 93.2662 26.3153 12.1898 7.8809 13.6818 30.3618
# 2 26.3153 49.4401 23.8700 9.8039 1.9319 18.1583
# 3 12.1898 23.8700 70.5211 24.9528 16.7501 17.4200
# 4 7.8809 9.8039 24.9528 26.9816 6.1609 7.0278
# 5 13.6818 1.9319 16.7501 6.1609 32.8963 14.1880
# 6 30.3618 18.1583 17.4200 7.0278 14.1880 38.5171
#
#
#
# Elastic Compliance Matrix: (Units=1/GPa)
#
#
# Indices 1 2 3 4 5 6 
#
# 1 0.015700 -0.005859 0.003148 -0.002156 -0.003322 -0.009420
# 2 -0.005859 0.030897 -0.009116 -0.000846 0.009354 -0.009115
# 3 0.003148 -0.009116 0.026508 -0.019154 -0.009278 -0.003261
# 4 -0.002156 -0.000846 -0.019154 0.055546 0.000031 0.000615
# 5 -0.003322 0.009354 -0.009278 0.000031 0.041509 -0.012891
# 6 -0.009420 -0.009115 -0.003261 0.000615 -0.012891 0.043796
#
#
# Mechanical properties :
#
#
# Convention : Reuss Voigt Hill
#
# Bulk Modulus (GPa) = 20.22199 37.55308 28.88754
# Shear Modulus (GPa) = 19.67784 29.73582 24.70683
#
# Velocity S-wave (km/s) = 3.07288 3.77743 3.44322
# Velocity P-wave (km/s) = 4.72163 6.08650 5.44698
#
# Compressibility (1/GPa) = 0.04945111
#
# Stress axis : x y z
#
# Youngs Moduli (GPa) = 63.69454 32.36608 37.72447
#
# Poissons Ratio (x) = 0.18965 -0.11877
# Poissons Ratio (y) = 0.37321 0.34389
# Poissons Ratio (z) = -0.20054 0.29504
#
# Static dielectric constant tensor:
#      x y z
#    x 1.804460 0.009020 0.062650 
#    y 0.009020 1.837630 -0.003810 
#    z 0.062650 -0.003810 1.807230 
# 
# From -- ./inp_files/522715.got.cif
#   From: 2010.05.17/outbox.cif.g08.bks.cpg/sg2_262_cif.got.tgz:522715.got - 2010.06.03 11:33:40.
