data_PCOD9093818
_publ_section_title
;
Structure prediction by ZEFSAII (Michael W. Deem and Ramdas Pophale) SiO2 
 PCOD9093818
Probable space group: P -1
;
_chemical_formula_sum "Si O2"
_cell_formula_units_Z 16
_cell_length_a 11.601159
_cell_length_b 13.899089
_cell_length_c 12.182617
_cell_angle_alpha 121.544614
_cell_angle_beta 104.091046
_cell_angle_gamma 30.981475
_cell_volume 761.830573
_symmetry_space_group_name_H-M "P -1"
_symmetry_group_IT_number 2
_symmetry_cell_setting 'triclinic'
loop_
_space_group_symop_operation_xyz
x,y,z
-x,-y,-z
loop_
_atom_site_type_symbol
_atom_site_label
_atom_site_fract_x
_atom_site_fract_y
_atom_site_fract_z
Si Si1 0.045739 0.953567 0.661195
Si Si2 0.168613 0.471691 0.532849
Si Si3 0.326316 0.030633 0.546412
Si Si4 0.135954 0.712634 0.330938
Si Si5 0.728214 0.843075 0.039219
Si Si6 0.511757 0.263600 0.282925
Si Si7 0.788554 0.968697 0.717946
Si Si8 0.721414 0.706171 0.181100
O O1 0.863268 0.205269 0.723298
O O2 0.904489 0.993887 0.740455
O O3 0.113499 0.814533 0.491955
O O4 0.305952 0.790871 0.663926
O O5 0.402871 0.250831 0.534697
O O6 0.305884 0.395900 0.405652
O O7 0.000000 0.500000 0.500000
O O8 0.984759 0.725164 0.682678
O O9 0.226991 0.080937 0.434118
O O10 0.330088 0.158616 0.654747
O O11 0.122088 0.142865 0.646484
O O12 0.359582 0.438783 0.247194
O O13 0.709666 0.790432 0.117861
O O14 0.685734 0.010829 0.146960
O O15 0.006944 0.576593 0.903395
O O16 0.500000 0.000000 0.000000
O O17 0.500957 0.198745 0.826758
#
# Coordination Sequence:
#
# PCOD9093818 Si02
#       8
#     2   2   2   2   2   2   2   2
#     4  10  21  35  58  87 120 160 195 242 299 356
#     4  12  22  33  57  92 125 153 190 240 309 355
#     4  11  20  36  61  89 126 155 189 245 310 360
#     4  10  20  33  58  87 120 157 199 235 293 368
#     4  11  25  41  65  85 115 165 205 251 290 352
#     4  12  21  39  59  84 120 158 202 248 292 350
#     4  11  24  37  61  95 126 158 185 251 309 365
#     4  11  23  41  60  90 122 154 206 241 302 359
#
# _framework density 21.002046
#
# number of rings (size 3 to 8) (size 9 to 14) (size 15 to 20)
#    0.000    1.000    6.250    1.500    0.000    2.000 
#    0.000    0.625    0.000    1.500    0.000    0.000 
#    0.000    0.000    0.000    0.000    0.000    0.000 
#
# Total GULP energy -89423.030615 kJ/mol
# GULP energy per Si atom -5588.939413 kJ/mol
# Density = 2.095424 g / cm^3
# Si number density = 21.002046 Si / 1000 Ang^3
#
#
#
# Elastic Constant Matrix: (Units=GPa)
#
#
# Indices 1 2 3 4 5 6 
#
# 1 160.2551 48.5501 16.9320 22.9588 6.9922 -15.7355
# 2 48.5501 140.7816 36.1142 43.0800 3.2819 -6.7189
# 3 16.9320 36.1142 40.3479 25.5597 -0.6980 -2.4552
# 4 22.9588 43.0800 25.5597 38.1764 -1.7468 5.5857
# 5 6.9922 3.2819 -0.6980 -1.7468 15.5592 2.5953
# 6 -15.7355 -6.7189 -2.4552 5.5857 2.5953 39.5876
#
#
#
# Elastic Compliance Matrix: (Units=1/GPa)
#
#
# Indices 1 2 3 4 5 6 
#
# 1 0.007749 -0.001181 0.000977 -0.004752 -0.004373 0.003897
# 2 -0.001181 0.012053 -0.002725 -0.011737 -0.004006 0.003326
# 3 0.000977 -0.002725 0.045749 -0.029277 -0.002273 0.007043
# 4 -0.004752 -0.011737 -0.029277 0.064799 0.013192 -0.015704
# 5 -0.004373 -0.004006 -0.002273 0.013192 0.069962 -0.009007
# 6 0.003897 0.003326 0.007043 -0.015704 -0.009007 0.030617
#
#
# Mechanical properties :
#
#
# Convention : Reuss Voigt Hill
#
# Bulk Modulus (GPa) = 16.75221 60.50858 38.63039
# Shear Modulus (GPa) = 19.47918 34.65052 27.06485
#
# Velocity S-wave (km/s) = 3.04878 4.06626 3.59371
# Velocity P-wave (km/s) = 4.51521 7.13578 5.97103
#
# Compressibility (1/GPa) = 0.05969362
#
# Stress axis : x y z
#
# Youngs Moduli (GPa) = 129.05164 82.96670 21.85842
#
# Poissons Ratio (x) = 0.09797 -0.02135
# Poissons Ratio (y) = 0.15238 0.05956
# Poissons Ratio (z) = -0.12606 0.22606
#
# Static dielectric constant tensor:
#      x y z
#    x 1.793490 0.016590 -0.031640 
#    y 0.016590 1.767110 -0.008780 
#    z -0.031640 -0.008780 1.778810 
# 
# From -- ./inp_files/464701.got.cif
#   From: 2010.05.17/outbox.cif.g08.bks.cpg/sg2_233_cif.got.tgz:464701.got - 2010.06.03 11:33:40.
