data_PCOD9093843
_publ_section_title
;
Structure prediction by ZEFSAII (Michael W. Deem and Ramdas Pophale) SiO2 
 PCOD9093843
Probable space group: P -1
;
_chemical_formula_sum "Si O2"
_cell_formula_units_Z 16
_cell_length_a 10.655711
_cell_length_b 14.372411
_cell_length_c 13.026630
_cell_angle_alpha 42.009067
_cell_angle_beta 34.040468
_cell_angle_gamma 49.859050
_cell_volume 745.154317
_symmetry_space_group_name_H-M "P -1"
_symmetry_group_IT_number 2
_symmetry_cell_setting 'triclinic'
loop_
_space_group_symop_operation_xyz
x,y,z
-x,-y,-z
loop_
_atom_site_type_symbol
_atom_site_label
_atom_site_fract_x
_atom_site_fract_y
_atom_site_fract_z
Si Si1 0.229916 0.518855 0.186682
Si Si2 0.703127 0.009629 0.595602
Si Si3 0.640208 0.747043 0.460631
Si Si4 0.129931 0.076352 0.159639
Si Si5 0.772166 0.427918 0.615905
Si Si6 0.516781 0.167954 0.931232
Si Si7 0.071355 0.801908 0.012897
Si Si8 0.547549 0.858821 0.645507
O O1 0.205024 0.577419 0.271740
O O2 0.026312 0.414748 0.407396
O O3 0.500000 0.500000 0.000000
O O4 0.133804 0.640466 0.074884
O O5 0.591310 0.929942 0.829121
O O6 0.714754 0.891886 0.594063
O O7 0.544014 0.145763 0.555849
O O8 0.947428 0.067323 0.380259
O O9 0.663010 0.586532 0.540201
O O10 0.608470 0.749492 0.603483
O O11 0.872677 0.810546 0.221722
O O12 0.315869 0.184588 0.970660
O O13 0.003757 0.114811 0.106698
O O14 0.273090 0.928961 0.174393
O O15 0.612102 0.310376 0.786568
O O16 0.303948 0.840487 0.872560
O O17 0.500000 0.000000 0.500000
#
# Coordination Sequence:
#
# PCOD9093843 Si02
#       8
#     2   2   2   2   2   2   2   2
#     4  10  22  39  64  91 130 161 192 247 317 381
#     4  11  22  40  66  93 122 163 214 256 309 367
#     4  10  21  38  62  92 129 155 197 254 311 376
#     4  11  24  42  65  86 123 165 218 264 299 356
#     4  10  23  42  61  93 127 164 199 251 316 373
#     4  11  25  44  63  88 123 168 215 261 303 356
#     4  11  20  38  61  92 122 165 200 252 313 362
#     4  10  20  33  58  97 121 153 197 249 305 374
#
# _framework density 21.472062000000001
#
# number of rings (size 3 to 8) (size 9 to 14) (size 15 to 20)
#    0.000    1.500    3.750    1.875    0.000    8.000 
#    0.000    3.125    0.000    0.000    0.000    0.000 
#    0.000    0.000    0.000    0.000    0.000    0.000 
#
# Total GULP energy -89174.262597 kJ/mol
# GULP energy per Si atom -5573.391412 kJ/mol
# Density = 2.142319 g / cm^3
# Si number density = 21.472062 Si / 1000 Ang^3
#
#
#
# Elastic Constant Matrix: (Units=GPa)
#
#
# Indices 1 2 3 4 5 6 
#
# 1 38.8742 13.5433 14.2412 -3.5665 -15.9075 -4.3681
# 2 13.5433 93.5394 49.0204 4.5649 -15.8071 -8.6885
# 3 14.2412 49.0204 143.1921 11.7292 -21.1357 -10.7443
# 4 -3.5665 4.5649 11.7292 41.8014 2.8802 -10.5134
# 5 -15.9075 -15.8071 -21.1357 2.8802 39.8765 -1.7520
# 6 -4.3681 -8.6885 -10.7443 -10.5134 -1.7520 26.8591
#
#
#
# Elastic Compliance Matrix: (Units=1/GPa)
#
#
# Indices 1 2 3 4 5 6 
#
# 1 0.032650 -0.001942 -0.000647 0.004066 0.011917 0.006792
# 2 -0.001942 0.013730 -0.003894 -0.000077 0.002729 0.002715
# 3 -0.000647 -0.003894 0.009157 -0.001989 0.003271 0.001733
# 4 0.004066 -0.000077 -0.001989 0.027561 -0.000989 0.010565
# 5 0.011917 0.002729 0.003271 -0.000989 0.032977 0.005893
# 6 0.006792 0.002715 0.001733 0.010565 0.005893 0.044427
#
#
# Mechanical properties :
#
#
# Convention : Reuss Voigt Hill
#
# Bulk Modulus (GPa) = 23.49043 47.69062 35.59052
# Shear Modulus (GPa) = 26.64398 34.96076 30.80237
#
# Velocity S-wave (km/s) = 3.52642 4.03947 3.79163
# Velocity P-wave (km/s) = 5.24829 6.63439 5.98163
#
# Compressibility (1/GPa) = 0.04257053
#
# Stress axis : x y z
#
# Youngs Moduli (GPa) = 30.62760 72.83419 109.20658
#
# Poissons Ratio (x) = 0.14145 0.07064
# Poissons Ratio (y) = 0.05948 0.42528
# Poissons Ratio (z) = 0.01981 0.28364
#
# Static dielectric constant tensor:
#      x y z
#    x 1.820510 -0.020430 -0.004140 
#    y -0.020430 1.867590 -0.026350 
#    z -0.004140 -0.026350 1.873080 
# 
# From -- ./inp_files/521439.got.cif
#   From: 2010.05.17/outbox.cif.g08.bks.cpg/sg2_261_cif.got.tgz:521439.got - 2010.06.03 11:33:40.
