data_PCOD9093907
_publ_section_title
;
Structure prediction by ZEFSAII (Michael W. Deem and Ramdas Pophale) SiO2 
 PCOD9093907
Probable space group: P -1
;
_chemical_formula_sum "Si O2"
_cell_formula_units_Z 16
_cell_length_a 18.254105
_cell_length_b 11.029146
_cell_length_c 12.023751
_cell_angle_alpha 112.595785
_cell_angle_beta 161.747496
_cell_angle_gamma 66.036060
_cell_volume 692.815067
_symmetry_space_group_name_H-M "P -1"
_symmetry_group_IT_number 2
_symmetry_cell_setting 'triclinic'
loop_
_space_group_symop_operation_xyz
x,y,z
-x,-y,-z
loop_
_atom_site_type_symbol
_atom_site_label
_atom_site_fract_x
_atom_site_fract_y
_atom_site_fract_z
Si Si1 0.837645 0.455811 0.151091
Si Si2 0.120359 0.580088 0.440076
Si Si3 0.432979 0.938115 0.267962
Si Si4 0.242852 0.969814 0.409903
Si Si5 0.909472 0.966366 0.475397
Si Si6 0.779302 0.778024 0.370286
Si Si7 0.289392 0.774733 0.604508
Si Si8 0.506742 0.366625 0.813109
O O1 0.000000 0.500000 0.500000
O O2 0.880459 0.548066 0.140745
O O3 0.987276 0.313978 0.287524
O O4 0.593073 0.434238 0.848538
O O5 0.101837 0.686833 0.351403
O O6 0.275979 0.449137 0.565522
O O7 0.281761 0.631670 0.789953
O O8 0.522284 0.784441 0.311667
O O9 0.500000 0.000000 0.500000
O O10 0.533390 0.023893 0.345616
O O11 0.153995 0.947122 0.886116
O O12 0.258095 0.833682 0.456017
O O13 0.248424 0.093365 0.546077
O O14 0.000000 0.000000 0.000000
O O15 0.739778 0.091523 0.318082
O O16 0.804438 0.833758 0.301200
O O17 0.000000 0.000000 0.500000
O O18 0.548405 0.706315 0.995446
#
# Coordination Sequence:
#
# PCOD9093907 Si02
#       8
#     2   2   2   2   2   2   2   2
#     4  10  20  33  60  93 127 163 207 257 311 368
#     4  10  20  37  61  93 128 170 204 262 318 371
#     4  12  23  40  63  91 122 161 210 259 315 379
#     4  11  24  41  61  86 121 169 207 252 313 383
#     4  11  21  34  57  89 125 160 199 262 314 361
#     4  11  20  37  59  89 125 159 205 257 311 366
#     4  11  22  37  59  92 127 156 207 257 317 368
#     4  10  20  38  61  95 130 162 212 262 312 377
#
# _framework density 23.094186000000001
#
# number of rings (size 3 to 8) (size 9 to 14) (size 15 to 20)
#    0.000    1.250    1.250    9.000    1.750    0.000 
#    2.250    0.000    0.000    7.500    0.000    0.000 
#    0.000    0.000    0.000    0.000    0.000    0.000 
#
# Total GULP energy -89295.735861 kJ/mol
# GULP energy per Si atom -5580.983491 kJ/mol
# Density = 2.304162 g / cm^3
# Si number density = 23.094186 Si / 1000 Ang^3
#
#
#
# Elastic Constant Matrix: (Units=GPa)
#
#
# Indices 1 2 3 4 5 6 
#
# 1 149.4452 44.7726 22.3494 17.4425 18.7019 34.3004
# 2 44.7726 87.6879 9.7059 12.2486 -9.0733 6.8505
# 3 22.3494 9.7059 39.4168 2.1737 7.1393 5.2328
# 4 17.4425 12.2486 2.1737 15.2950 2.9569 10.5749
# 5 18.7019 -9.0733 7.1393 2.9569 30.3185 11.4914
# 6 34.3004 6.8505 5.2328 10.5749 11.4914 53.1736
#
#
#
# Elastic Compliance Matrix: (Units=1/GPa)
#
#
# Indices 1 2 3 4 5 6 
#
# 1 0.010647 -0.004757 -0.003143 -0.004104 -0.005344 -0.003974
# 2 -0.004757 0.016318 -0.002556 -0.009870 0.008907 0.001256
# 3 -0.003143 -0.002556 0.028678 0.002480 -0.005945 0.000326
# 4 -0.004104 -0.009870 0.002480 0.087280 -0.004719 -0.012663
# 5 -0.005344 0.008907 -0.005945 -0.004719 0.042867 -0.005441
# 6 -0.003974 0.001256 0.000326 -0.012663 -0.005441 0.024870
#
#
# Mechanical properties :
#
#
# Convention : Reuss Voigt Hill
#
# Bulk Modulus (GPa) = 28.79439 47.80065 38.29752
# Shear Modulus (GPa) = 20.56330 33.07221 26.81775
#
# Velocity S-wave (km/s) = 2.98721 3.78836 3.41139
# Velocity P-wave (km/s) = 4.93895 6.31495 5.66886
#
# Compressibility (1/GPa) = 0.03472899
#
# Stress axis : x y z
#
# Youngs Moduli (GPa) = 93.92485 61.28106 34.86964
#
# Poissons Ratio (x) = 0.29154 0.10961
# Poissons Ratio (y) = 0.44685 0.08914
# Poissons Ratio (z) = 0.29524 0.15665
#
# Static dielectric constant tensor:
#      x y z
#    x 1.929620 0.074650 0.012340 
#    y 0.074650 1.775400 -0.080890 
#    z 0.012340 -0.080890 1.801990 
# 
# From -- ./inp_files/464713.got.cif
#   From: 2010.05.17/outbox.cif.g08.bks.cpg/sg2_233_cif.got.tgz:464713.got - 2010.06.03 11:33:40.
