data_PCOD9093682
_publ_section_title
;
Structure prediction by ZEFSAII (Michael W. Deem and Ramdas Pophale) SiO2 
 PCOD9093682
Probable space group: P -1
;
_chemical_formula_sum "Si O2"
_cell_formula_units_Z 16
_cell_length_a 10.339311
_cell_length_b 10.570039
_cell_length_c 16.518093
_cell_angle_alpha 44.292104
_cell_angle_beta 41.838972
_cell_angle_gamma 40.975060
_cell_volume 739.511109
_symmetry_space_group_name_H-M "P -1"
_symmetry_group_IT_number 2
_symmetry_cell_setting 'triclinic'
loop_
_space_group_symop_operation_xyz
x,y,z
-x,-y,-z
loop_
_atom_site_type_symbol
_atom_site_label
_atom_site_fract_x
_atom_site_fract_y
_atom_site_fract_z
Si Si1 0.469392 0.146226 0.318429
Si Si2 0.860449 0.319062 0.236998
Si Si3 0.242297 0.229738 0.557438
Si Si4 0.516028 0.730030 0.292820
Si Si5 0.186626 0.657693 0.369213
Si Si6 0.388726 0.121630 0.080380
Si Si7 0.225841 0.929736 0.476343
Si Si8 0.434331 0.515599 0.858215
O O1 0.405903 0.192580 0.422438
O O2 0.542119 0.311396 0.179785
O O3 0.664484 0.914407 0.342939
O O4 0.274513 0.121669 0.377756
O O5 0.736202 0.534398 0.247554
O O6 0.789402 0.171203 0.386492
O O7 0.760180 0.373188 0.168749
O O8 0.124225 0.210881 0.161093
O O9 0.164087 0.467340 0.505313
O O10 0.050214 0.195799 0.623386
O O11 0.312224 0.730863 0.338058
O O12 0.433569 0.753238 0.412065
O O13 0.503243 0.946010 0.174917
O O14 0.343250 0.588105 0.250420
O O15 0.416463 0.323123 0.990403
O O16 0.500000 0.000000 0.000000
O O17 0.000000 0.000000 0.500000
#
# Coordination Sequence:
#
# PCOD9093682 Si02
#       8
#     2   2   2   2   2   2   2   2
#     4  10  20  33  55  86 119 159 201 251 308 360
#     4  11  23  40  65  97 124 159 208 261 313 364
#     4   9  17  31  54  84 121 149 194 257 317 356
#     4  11  23  39  62  92 127 165 206 251 309 369
#     4   9  17  32  53  86 117 151 196 254 311 362
#     4  12  23  40  65  94 125 162 210 258 308 363
#     4  12  23  40  63  91 129 169 206 250 311 378
#     4  10  22  37  59  93 122 157 203 260 307 358
#
# _framework density 21.635916999999999
#
# number of rings (size 3 to 8) (size 9 to 14) (size 15 to 20)
#    0.000    1.500    3.750    4.500    1.750    0.000 
#    0.000    0.625    0.000    0.750    0.000    0.000 
#    0.000    0.000    0.000    0.000    0.000    0.000 
#
# Total GULP energy -89250.407061 kJ/mol
# GULP energy per Si atom -5578.150441 kJ/mol
# Density = 2.158667 g / cm^3
# Si number density = 21.635917 Si / 1000 Ang^3
#
#
#
# Elastic Constant Matrix: (Units=GPa)
#
#
# Indices 1 2 3 4 5 6 
#
# 1 55.4848 41.8087 21.5454 -14.0007 -16.3572 5.0073
# 2 41.8087 100.9341 42.9680 -5.2375 -17.4524 -4.5055
# 3 21.5454 42.9680 83.6314 -15.7673 -23.9312 11.0136
# 4 -14.0007 -5.2375 -15.7673 42.0617 5.8158 -13.2567
# 5 -16.3572 -17.4524 -23.9312 5.8158 20.3972 -3.2996
# 6 5.0073 -4.5055 11.0136 -13.2567 -3.2996 26.1627
#
#
#
# Elastic Compliance Matrix: (Units=1/GPa)
#
#
# Indices 1 2 3 4 5 6 
#
# 1 0.033503 -0.012647 0.005500 0.007460 0.019619 -0.004651
# 2 -0.012647 0.018544 -0.008331 -0.002305 -0.002149 0.007682
# 3 0.005500 -0.008331 0.022725 0.004026 0.021618 -0.007287
# 4 0.007460 -0.002305 0.004026 0.031163 0.001872 0.012507
# 5 0.019619 -0.002149 0.021618 0.001872 0.087551 -0.001235
# 6 -0.004651 0.007682 -0.007287 0.012507 -0.001235 0.049684
#
#
# Mechanical properties :
#
#
# Convention : Reuss Voigt Hill
#
# Bulk Modulus (GPa) = 22.82247 50.29939 36.56093
# Shear Modulus (GPa) = 17.31709 26.63953 21.97831
#
# Velocity S-wave (km/s) = 2.83218 3.51274 3.19066
# Velocity P-wave (km/s) = 4.61154 6.30484 5.52347
#
# Compressibility (1/GPa) = 0.04381647
#
# Stress axis : x y z
#
# Youngs Moduli (GPa) = 29.84802 53.92552 44.00363
#
# Poissons Ratio (x) = 0.68199 -0.24200
# Poissons Ratio (y) = 0.37749 0.36658
# Poissons Ratio (z) = -0.16415 0.44923
#
# Static dielectric constant tensor:
#      x y z
#    x 1.831250 0.043000 -0.017010 
#    y 0.043000 1.929380 -0.040600 
#    z -0.017010 -0.040600 1.816690 
# 
# From -- ./inp_files/567864.got.cif
#   From: 2010.05.17/outbox.cif.g08.bks.cpg/sg2_284_cif.got.tgz:567864.got - 2010.06.03 11:33:40.
