data_PCOD9093446
_publ_section_title
;
Structure prediction by ZEFSAII (Michael W. Deem and Ramdas Pophale) SiO2 
 PCOD9093446
Probable space group: P -1
;
_chemical_formula_sum "Si O2"
_cell_formula_units_Z 12
_cell_length_a 8.237933
_cell_length_b 13.519530
_cell_length_c 7.146866
_cell_angle_alpha 131.923328
_cell_angle_beta 101.802849
_cell_angle_gamma 95.490744
_cell_volume 549.418130
_symmetry_space_group_name_H-M "P -1"
_symmetry_group_IT_number 2
_symmetry_cell_setting 'triclinic'
loop_
_space_group_symop_operation_xyz
x,y,z
-x,-y,-z
loop_
_atom_site_type_symbol
_atom_site_label
_atom_site_fract_x
_atom_site_fract_y
_atom_site_fract_z
Si Si1 0.566515 0.135834 0.932281
Si Si2 0.796690 0.448537 0.841133
Si Si3 0.515201 0.178823 0.423430
Si Si4 0.283570 0.355393 0.474103
Si Si5 0.407823 0.359129 0.078355
Si Si6 0.906689 0.349712 0.372982
O O1 0.537614 0.149616 0.168776
O O2 0.448192 0.212983 0.891413
O O3 0.770626 0.227096 0.070491
O O4 0.524731 0.971536 0.681331
O O5 0.678099 0.300226 0.708709
O O6 0.714210 0.574339 0.990660
O O7 0.793628 0.395331 0.560946
O O8 0.000000 0.500000 0.000000
O O9 0.366612 0.253254 0.474763
O O10 0.319192 0.345306 0.247054
O O11 0.404181 0.517305 0.738934
O O12 0.079438 0.311927 0.421942
O O13 0.000000 0.500000 0.500000
#
# Coordination Sequence:
#
# PCOD9093446 Si02
#       6
#     2   2   2   2   2   2
#     4   9  16  28  50  72  95 123 156 200 234 274
#     4  10  20  33  49  69  97 129 158 192 234 285
#     4   8  17  31  46  70  99 125 155 191 242 280
#     4   9  15  27  48  73  94 120 157 199 231 272
#     4   9  15  28  47  69  95 126 156 187 240 281
#     4  11  17  28  52  79  93 115 164 203 228 269
#
# _framework density 21.841287000000001
#
# number of rings (size 3 to 8) (size 9 to 14) (size 15 to 20)
#    0.000    2.667    3.333    2.000    0.000    0.667 
#    0.000    4.167    0.000    1.000    0.000    0.000 
#    0.000    0.000    0.000    0.000    0.000    0.000 
#
# Total GULP energy -66811.930798 kJ/mol
# GULP energy per Si atom -5567.660900 kJ/mol
# Density = 2.179158 g / cm^3
# Si number density = 21.841287 Si / 1000 Ang^3
#
#
#
# Elastic Constant Matrix: (Units=GPa)
#
#
# Indices 1 2 3 4 5 6 
#
# 1 104.7687 47.1607 53.7132 25.1759 11.9900 -31.3744
# 2 47.1607 124.9265 71.2971 43.0911 3.2411 -26.6294
# 3 53.7132 71.2971 103.7228 42.7952 4.8305 -28.6645
# 4 25.1759 43.0911 42.7952 45.0765 2.1177 -17.9804
# 5 11.9900 3.2411 4.8305 2.1177 38.6930 -12.3554
# 6 -31.3744 -26.6294 -28.6645 -17.9804 -12.3554 44.0534
#
#
#
# Elastic Compliance Matrix: (Units=1/GPa)
#
#
# Indices 1 2 3 4 5 6 
#
# 1 0.014690 -0.001531 -0.005029 0.000486 -0.001932 0.005921
# 2 -0.001531 0.014733 -0.006190 -0.006918 0.000768 0.001180
# 3 -0.005029 -0.006190 0.021641 -0.010838 0.000784 0.002555
# 4 0.000486 -0.006918 -0.010838 0.041298 0.001568 0.006408
# 5 -0.001932 0.000768 0.000784 0.001568 0.028855 0.008332
# 6 0.005921 0.001180 0.002555 0.006408 0.008332 0.034244
#
#
# Mechanical properties :
#
#
# Convention : Reuss Voigt Hill
#
# Bulk Modulus (GPa) = 39.11709 75.30667 57.21188
# Shear Modulus (GPa) = 26.38764 36.31437 31.35100
#
# Velocity S-wave (km/s) = 3.47962 4.08198 3.79278
# Velocity P-wave (km/s) = 5.83886 7.53463 6.74029
#
# Compressibility (1/GPa) = 0.02556427
#
# Stress axis : x y z
#
# Youngs Moduli (GPa) = 68.07545 67.87476 46.20775
#
# Poissons Ratio (x) = 0.10389 0.23239
# Poissons Ratio (y) = 0.10420 0.28602
# Poissons Ratio (z) = 0.34237 0.42014
#
# Static dielectric constant tensor:
#      x y z
#    x 2.060700 0.018720 -0.017550 
#    y 0.018720 2.021540 -0.021080 
#    z -0.017550 -0.021080 1.910520 
# 
# From -- ./inp_files/146489.got.cif
#   From: 2010.05.17/outbox.cif.g08.bks.cpg/sg2_74_cif.got.tgz:146489.got - 2010.06.03 11:33:40.
