data_PCOD9093347
_publ_section_title
;
Structure prediction by ZEFSAII (Michael W. Deem and Ramdas Pophale) SiO2 
 PCOD9093347
Probable space group: P -1
;
_chemical_formula_sum "Si O2"
_cell_formula_units_Z 16
_cell_length_a 18.933089
_cell_length_b 21.094372
_cell_length_c 12.297987
_cell_angle_alpha 150.454808
_cell_angle_beta 149.906058
_cell_angle_gamma 21.036542
_cell_volume 829.166993
_symmetry_space_group_name_H-M "P -1"
_symmetry_group_IT_number 2
_symmetry_cell_setting 'triclinic'
loop_
_space_group_symop_operation_xyz
x,y,z
-x,-y,-z
loop_
_atom_site_type_symbol
_atom_site_label
_atom_site_fract_x
_atom_site_fract_y
_atom_site_fract_z
Si Si1 0.708202 0.170228 0.906001
Si Si2 0.033706 0.326154 0.785102
Si Si3 0.832803 0.207851 0.724980
Si Si4 0.647420 0.618951 0.413771
Si Si5 0.490929 0.993916 0.848635
Si Si6 0.059345 0.783765 0.873452
Si Si7 0.621938 0.465884 0.359216
Si Si8 0.853998 0.914396 0.224370
O O1 0.488566 0.293396 0.744698
O O2 0.827113 0.965091 0.796444
O O3 0.691009 0.276061 0.142618
O O4 0.823904 0.179211 0.981754
O O5 0.822146 0.404442 0.578473
O O6 0.243412 0.154794 0.739407
O O7 0.070215 0.249674 0.841062
O O8 0.000000 0.500000 0.000000
O O9 0.593365 0.394851 0.657282
O O10 0.987891 0.163037 0.776637
O O11 0.847167 0.043838 0.486500
O O12 0.893422 0.221273 0.944667
O O13 0.567307 0.576143 0.337823
O O14 0.859617 0.408053 0.346804
O O15 0.610646 0.786014 0.660018
O O16 0.500000 0.000000 0.000000
O O17 0.628896 0.024043 0.041801
#
# Coordination Sequence:
#
# PCOD9093347 Si02
#       8
#     2   2   2   2   2   2   2   2
#     4  10  20  32  56  93 119 149 202 249 301 354
#     4  11  22  37  60  90 119 156 201 251 301 354
#     4  11  20  39  62  83 126 157 196 247 298 366
#     4  11  20  36  58  89 120 154 200 250 302 350
#     4  10  22  39  58  81 119 153 198 247 291 355
#     4  10  20  34  58  88 120 156 195 251 301 346
#     4  11  19  33  58  90 122 152 194 252 308 345
#     4  10  23  39  59  87 114 168 201 237 305 356
#
# _framework density 19.296475000000001
#
# number of rings (size 3 to 8) (size 9 to 14) (size 15 to 20)
#    0.000    1.500    2.500    5.250    5.250    0.500 
#    0.000    1.875    0.000    0.750    0.000    0.000 
#    0.000    0.000    0.000    0.000    0.000    0.000 
#
# Total GULP energy -89161.848752 kJ/mol
# GULP energy per Si atom -5572.615547 kJ/mol
# Density = 1.925256 g / cm^3
# Si number density = 19.296475 Si / 1000 Ang^3
#
#
#
# Elastic Constant Matrix: (Units=GPa)
#
#
# Indices 1 2 3 4 5 6 
#
# 1 36.4164 25.4722 13.3325 8.1047 5.5159 -14.2059
# 2 25.4722 119.3316 32.9647 -1.0839 3.0966 -3.8672
# 3 13.3325 32.9647 68.7845 16.0666 -2.7817 -4.6562
# 4 8.1047 -1.0839 16.0666 41.0279 -3.7156 2.3343
# 5 5.5159 3.0966 -2.7817 -3.7156 21.7647 -0.2074
# 6 -14.2059 -3.8672 -4.6562 2.3343 -0.2074 27.7175
#
#
#
# Elastic Compliance Matrix: (Units=1/GPa)
#
#
# Indices 1 2 3 4 5 6 
#
# 1 0.048136 -0.008944 -0.001169 -0.011825 -0.012865 0.024126
# 2 -0.008944 0.011583 -0.005093 0.004367 0.000673 -0.004186
# 3 -0.001169 -0.005093 0.019188 -0.007360 0.002241 0.002550
# 4 -0.011825 0.004367 -0.007360 0.030831 0.006610 -0.009235
# 5 -0.012865 0.000673 0.002241 0.006610 0.050465 -0.006302
# 6 0.024126 -0.004186 0.002550 -0.009235 -0.006302 0.049018
#
#
# Mechanical properties :
#
#
# Convention : Reuss Voigt Hill
#
# Bulk Modulus (GPa) = 20.62093 40.89681 30.75887
# Shear Modulus (GPa) = 19.54662 28.28624 23.91643
#
# Velocity S-wave (km/s) = 3.18616 3.83283 3.52436
# Velocity P-wave (km/s) = 4.92393 6.38963 5.70405
#
# Compressibility (1/GPa) = 0.04849441
#
# Stress axis : x y z
#
# Youngs Moduli (GPa) = 20.77455 86.33580 52.11549
#
# Poissons Ratio (x) = 0.77216 0.06092
# Poissons Ratio (y) = 0.18580 0.26545
# Poissons Ratio (z) = 0.02428 0.43975
#
# Static dielectric constant tensor:
#      x y z
#    x 1.662970 -0.022580 -0.009180 
#    y -0.022580 1.751030 -0.016660 
#    z -0.009180 -0.016660 1.716500 
# 
# From -- ./inp_files/467207.got.cif
#   From: 2010.05.17/outbox.cif.g08.bks.cpg/sg2_234_cif.got.tgz:467207.got - 2010.06.03 11:33:40.
