data_PCOD9093335
_publ_section_title
;
Structure prediction by ZEFSAII (Michael W. Deem and Ramdas Pophale) SiO2 
 PCOD9093335
Probable space group: P -1
;
_chemical_formula_sum "Si O2"
_cell_formula_units_Z 16
_cell_length_a 5.161131
_cell_length_b 15.556789
_cell_length_c 10.105373
_cell_angle_alpha 49.880750
_cell_angle_beta 104.423986
_cell_angle_gamma 85.707052
_cell_volume 569.745356
_symmetry_space_group_name_H-M "P -1"
_symmetry_group_IT_number 2
_symmetry_cell_setting 'triclinic'
loop_
_space_group_symop_operation_xyz
x,y,z
-x,-y,-z
loop_
_atom_site_type_symbol
_atom_site_label
_atom_site_fract_x
_atom_site_fract_y
_atom_site_fract_z
Si Si1 0.170298 0.719277 0.230198
Si Si2 0.611987 0.366780 0.030607
Si Si3 0.725621 0.109273 0.540730
Si Si4 0.253039 0.411865 0.702474
Si Si5 0.496855 0.054448 0.805209
Si Si6 0.979943 0.718541 0.499995
Si Si7 0.827315 0.111901 0.172938
Si Si8 0.221353 0.334785 0.224217
O O1 0.477415 0.636393 0.308919
O O2 0.156520 0.700094 0.406106
O O3 0.900716 0.683247 0.180654
O O4 0.140445 0.837010 0.021188
O O5 0.679526 0.229046 0.124384
O O6 0.436348 0.387821 0.123789
O O7 0.926983 0.372550 0.071535
O O8 0.398827 0.445729 0.816244
O O9 0.749763 0.072562 0.736617
O O10 0.891928 0.204487 0.460887
O O11 0.406704 0.192739 0.389217
O O12 0.885088 0.978405 0.636572
O O13 0.000000 0.500000 0.500000
O O14 0.309000 0.187995 0.675581
O O15 0.366605 0.972947 0.779033
O O16 0.500000 0.000000 0.000000
O O17 0.876565 0.633202 0.668155
#
# Coordination Sequence:
#
# PCOD9093335 Si02
#       8
#     2   2   2   2   2   2   2   2
#     4  11  24  40  74  97 128 164 209 273 320 391
#     4  11  24  41  66  89 125 172 216 259 318 391
#     4  10  21  37  54  90 135 179 220 261 290 352
#     4  11  26  48  73 102 123 152 202 274 347 389
#     4  10  20  32  56  83 137 174 217 272 303 347
#     4  10  22  39  59  95 130 177 221 249 313 365
#     4  10  23  36  56  97 128 174 227 260 313 357
#     4  11  23  41  61  91 131 185 210 257 301 366
#
# _framework density 28.082722
#
# number of rings (size 3 to 8) (size 9 to 14) (size 15 to 20)
#    0.000    1.500    1.250    3.375   12.250    3.000 
#    0.000    0.000    0.000    4.500    0.000    0.000 
#    0.000    0.000    0.000    0.000    0.000    0.000 
#
# Total GULP energy -89342.624993 kJ/mol
# GULP energy per Si atom -5583.914062 kJ/mol
# Density = 2.801880 g / cm^3
# Si number density = 28.082722 Si / 1000 Ang^3
#
#
#
# Elastic Constant Matrix: (Units=GPa)
#
#
# Indices 1 2 3 4 5 6 
#
# 1 167.7369 39.4199 66.2178 5.3514 -6.0782 -21.5630
# 2 39.4199 77.0624 40.0226 5.8814 -0.8781 -14.1986
# 3 66.2178 40.0226 169.1197 11.5714 6.9753 -31.0215
# 4 5.3514 5.8814 11.5714 43.7625 -13.8324 -2.3217
# 5 -6.0782 -0.8781 6.9753 -13.8324 67.4999 -1.2986
# 6 -21.5630 -14.1986 -31.0215 -2.3217 -1.2986 57.2503
#
#
#
# Elastic Compliance Matrix: (Units=1/GPa)
#
#
# Indices 1 2 3 4 5 6 
#
# 1 0.007607 -0.002547 -0.002249 0.000372 0.000981 0.001052
# 2 -0.002547 0.015909 -0.002392 -0.001097 0.000032 0.001646
# 3 -0.002249 -0.002392 0.008059 -0.001823 -0.001386 0.002821
# 4 0.000372 -0.001097 -0.001823 0.025129 0.005358 0.000021
# 5 0.000981 0.000032 -0.001386 0.005358 0.016149 0.000210
# 6 0.001052 0.001646 0.002821 0.000021 0.000210 0.019806
#
#
# Mechanical properties :
#
#
# Convention : Reuss Voigt Hill
#
# Bulk Modulus (GPa) = 58.13957 78.35995 68.24976
# Shear Modulus (GPa) = 44.33942 51.58644 47.96293
#
# Velocity S-wave (km/s) = 3.97783 4.29061 4.13718
# Velocity P-wave (km/s) = 6.46880 7.24635 6.86859
#
# Compressibility (1/GPa) = 0.01719999
#
# Stress axis : x y z
#
# Youngs Moduli (GPa) = 131.46040 62.85784 124.08727
#
# Poissons Ratio (x) = 0.16008 0.27903
# Poissons Ratio (y) = 0.33479 0.29682
# Poissons Ratio (z) = 0.29561 0.15036
#
# Static dielectric constant tensor:
#      x y z
#    x 2.168900 -0.038000 0.031170 
#    y -0.038000 2.382490 -0.024620 
#    z 0.031170 -0.024620 2.272080 
# 
# From -- ./inp_files/370034.got.cif
#   From: 2010.05.17/outbox.cif.g08.bks.cpg/sg2_186_cif.got.tgz:370034.got - 2010.06.03 11:33:40.
