data_PCOD9093853
_publ_section_title
;
Structure prediction by ZEFSAII (Michael W. Deem and Ramdas Pophale) SiO2 
 PCOD9093853
Probable space group: P -1
;
_chemical_formula_sum "Si O2"
_cell_formula_units_Z 14
_cell_length_a 7.152350
_cell_length_b 15.748799
_cell_length_c 9.028651
_cell_angle_alpha 87.016753
_cell_angle_beta 124.925703
_cell_angle_gamma 125.887236
_cell_volume 610.900980
_symmetry_space_group_name_H-M "P -1"
_symmetry_group_IT_number 2
_symmetry_cell_setting 'triclinic'
loop_
_space_group_symop_operation_xyz
x,y,z
-x,-y,-z
loop_
_atom_site_type_symbol
_atom_site_label
_atom_site_fract_x
_atom_site_fract_y
_atom_site_fract_z
Si Si1 0.953617 0.486512 0.657141
Si Si2 0.826270 0.111617 0.214923
Si Si3 0.634225 0.654011 0.940971
Si Si4 0.254357 0.722454 0.257336
Si Si5 0.968380 0.658432 0.825721
Si Si6 0.919274 0.882389 0.946902
Si Si7 0.534546 0.964021 0.362823
O O1 0.301978 0.549630 0.866178
O O2 0.878637 0.558019 0.690076
O O3 0.000000 0.500000 0.500000
O O4 0.728977 0.357018 0.629718
O O5 0.879606 0.225428 0.207412
O O6 0.083299 0.132606 0.227517
O O7 0.802614 0.073037 0.374634
O O8 0.500000 0.000000 0.000000
O O9 0.691088 0.628122 0.804355
O O10 0.649138 0.760671 0.915035
O O11 0.931934 0.691204 0.158521
O O12 0.524718 0.860395 0.378058
O O13 0.200913 0.688368 0.061705
O O14 0.215732 0.905617 0.138644
O O15 0.000000 0.000000 0.000000
O O16 0.500000 0.000000 0.500000
#
# Coordination Sequence:
#
# PCOD9093853 Si02
#       7
#     2   2   2   2   2   2   2
#     4  12  24  34  61  88 107 149 193 238 287 320
#     4   9  16  34  55  83 106 150 183 220 281 340
#     4   8  20  38  56  77 117 150 187 227 273 340
#     4   9  20  41  52  82 116 150 193 219 280 347
#     4   9  20  38  58  79 113 151 192 223 277 346
#     4   9  18  33  57  83 109 147 194 219 270 346
#     4  10  20  33  59  84 116 143 176 242 281 323
#
# _framework density 22.916968000000001
#
# number of rings (size 3 to 8) (size 9 to 14) (size 15 to 20)
#    0.857    1.714    2.857    0.857    6.000    0.571 
#    0.000    0.714    0.000    0.000    0.000    0.000 
#    0.000    0.000    0.000    0.000    0.000    0.000 
#
# Total GULP energy -78023.586297 kJ/mol
# GULP energy per Si atom -5573.113307 kJ/mol
# Density = 2.286481 g / cm^3
# Si number density = 22.916968 Si / 1000 Ang^3
#
#
#
# Elastic Constant Matrix: (Units=GPa)
#
#
# Indices 1 2 3 4 5 6 
#
# 1 41.9287 34.8141 14.8898 2.7175 -10.4666 -11.5671
# 2 34.8141 218.8264 44.0895 -11.8419 -37.7976 -20.9539
# 3 14.8898 44.0895 81.2850 -12.8410 -25.8906 -7.4329
# 4 2.7175 -11.8419 -12.8410 24.3920 0.2321 -7.9242
# 5 -10.4666 -37.7976 -25.8906 0.2321 42.3991 4.4723
# 6 -11.5671 -20.9539 -7.4329 -7.9242 4.4723 36.5805
#
#
#
# Elastic Compliance Matrix: (Units=1/GPa)
#
#
# Indices 1 2 3 4 5 6 
#
# 1 0.030310 -0.003605 -0.003375 -0.005126 0.001653 0.005521
# 2 -0.003605 0.006484 -0.000614 0.004105 0.004195 0.002826
# 3 -0.003375 -0.000614 0.018235 0.010715 0.009331 0.003467
# 4 -0.005126 0.004105 0.010715 0.053561 0.007206 0.013629
# 5 0.001653 0.004195 0.009331 0.007206 0.033146 0.002331
# 6 0.005521 0.002826 0.003467 0.013629 0.002331 0.034073
#
#
# Mechanical properties :
#
#
# Convention : Reuss Voigt Hill
#
# Bulk Modulus (GPa) = 25.09936 58.84744 41.97340
# Shear Modulus (GPa) = 24.47633 37.22411 30.85022
#
# Velocity S-wave (km/s) = 3.27164 4.03464 3.67300
# Velocity P-wave (km/s) = 5.02470 6.88757 6.02853
#
# Compressibility (1/GPa) = 0.03984165
#
# Stress axis : x y z
#
# Youngs Moduli (GPa) = 32.99231 154.21442 54.83903
#
# Poissons Ratio (x) = 0.55601 0.18509
# Poissons Ratio (y) = 0.11895 0.03365
# Poissons Ratio (z) = 0.11135 0.09462
#
# Static dielectric constant tensor:
#      x y z
#    x 1.906460 0.064840 0.045530 
#    y 0.064840 1.859550 -0.081620 
#    z 0.045530 -0.081620 1.862360 
# 
# From -- ./inp_files/196970.got.cif
#   From: 2010.05.17/outbox.cif.g08.bks.cpg/sg2_99_cif.got.tgz:196970.got - 2010.06.03 11:33:40.
