data_PCOD9093731
_publ_section_title
;
Structure prediction by ZEFSAII (Michael W. Deem and Ramdas Pophale) SiO2 
 PCOD9093731
Probable space group: P -1
;
_chemical_formula_sum "Si O2"
_cell_formula_units_Z 16
_cell_length_a 11.957877
_cell_length_b 8.896767
_cell_length_c 13.930265
_cell_angle_alpha 105.296619
_cell_angle_beta 59.122823
_cell_angle_gamma 141.954296
_cell_volume 755.794619
_symmetry_space_group_name_H-M "P -1"
_symmetry_group_IT_number 2
_symmetry_cell_setting 'triclinic'
loop_
_space_group_symop_operation_xyz
x,y,z
-x,-y,-z
loop_
_atom_site_type_symbol
_atom_site_label
_atom_site_fract_x
_atom_site_fract_y
_atom_site_fract_z
Si Si1 0.638168 0.898724 0.857285
Si Si2 0.365286 0.370446 0.803385
Si Si3 0.418321 0.121663 0.628532
Si Si4 0.849140 0.351633 0.449908
Si Si5 0.986013 0.729114 0.112166
Si Si6 0.497754 0.665803 0.079427
Si Si7 0.155951 0.729856 0.853009
Si Si8 0.201835 0.635958 0.193825
O O1 0.540304 0.668650 0.798233
O O2 0.639030 0.069465 0.838752
O O3 0.518788 0.788850 0.993677
O O4 0.875191 0.092969 0.826768
O O5 0.405261 0.292324 0.684374
O O6 0.144674 0.250672 0.867385
O O7 0.366692 0.257302 0.875321
O O8 0.657095 0.291632 0.534605
O O9 0.272358 0.923363 0.571766
O O10 0.322556 0.942182 0.735364
O O11 0.000000 0.500000 0.500000
O O12 0.010403 0.528647 0.321685
O O13 0.830932 0.441327 0.159238
O O14 0.141070 0.804486 0.974111
O O15 0.296329 0.571621 0.192608
O O16 0.500000 0.500000 0.000000
O O17 0.921241 0.528790 0.876694
#
# Coordination Sequence:
#
# PCOD9093731 Si02
#       8
#     2   2   2   2   2   2   2   2
#     4  10  22  37  57  86 122 160 192 225 282 357
#     4  11  23  36  56  89 126 153 186 236 290 346
#     4  10  22  39  60  86 112 146 196 248 289 336
#     4  10  22  40  63  84 106 145 200 249 293 338
#     4  10  21  36  57  89 124 158 189 227 283 350
#     4  10  20  33  56  91 125 153 187 232 286 343
#     4   9  19  37  60  86 119 157 198 234 277 344
#     4  10  20  38  63  85 114 158 199 239 288 346
#
# _framework density 21.169771999999998
#
# number of rings (size 3 to 8) (size 9 to 14) (size 15 to 20)
#    0.000    2.000    0.000    3.375    0.000   11.000 
#    0.000    0.625    0.000   18.750    0.000    0.000 
#    0.000    0.000    0.000    0.000    0.000    0.000 
#
# Total GULP energy -89098.677920 kJ/mol
# GULP energy per Si atom -5568.667370 kJ/mol
# Density = 2.112159 g / cm^3
# Si number density = 21.169772 Si / 1000 Ang^3
#
#
#
# Elastic Constant Matrix: (Units=GPa)
#
#
# Indices 1 2 3 4 5 6 
#
# 1 93.2786 28.9610 32.3158 1.8757 -17.4379 3.9823
# 2 28.9610 104.4483 34.0152 23.2212 -11.8364 2.7075
# 3 32.3158 34.0152 65.4883 13.3507 -22.3364 -2.2179
# 4 1.8757 23.2212 13.3507 36.3769 3.5078 9.5958
# 5 -17.4379 -11.8364 -22.3364 3.5078 23.5935 6.4116
# 6 3.9823 2.7075 -2.2179 9.5958 6.4116 32.1537
#
#
#
# Elastic Compliance Matrix: (Units=1/GPa)
#
#
# Indices 1 2 3 4 5 6 
#
# 1 0.014197 -0.002360 -0.004623 0.002956 0.005544 -0.003866
# 2 -0.002360 0.013265 -0.003170 -0.007634 0.002865 0.000664
# 3 -0.004623 -0.003170 0.030040 -0.011524 0.024762 0.001413
# 4 0.002956 -0.007634 -0.011524 0.040464 -0.016016 -0.009400
# 5 0.005544 0.002865 0.024762 -0.016016 0.076371 -0.009669
# 6 -0.003866 0.000664 0.001413 -0.009400 -0.009669 0.036354
#
#
# Mechanical properties :
#
#
# Convention : Reuss Voigt Hill
#
# Bulk Modulus (GPa) = 26.88308 50.42214 38.65261
# Shear Modulus (GPa) = 20.54269 29.61968 25.08119
#
# Velocity S-wave (km/s) = 3.11847 3.74458 3.44577
# Velocity P-wave (km/s) = 5.06881 6.52423 5.84202
#
# Compressibility (1/GPa) = 0.03719811
#
# Stress axis : x y z
#
# Youngs Moduli (GPa) = 70.43918 75.38387 33.28862
#
# Poissons Ratio (x) = 0.17789 0.15388
# Poissons Ratio (y) = 0.16622 0.10552
# Poissons Ratio (z) = 0.32561 0.23896
#
# Static dielectric constant tensor:
#      x y z
#    x 1.753390 -0.016700 0.077760 
#    y -0.016700 1.839030 0.056650 
#    z 0.077760 0.056650 1.729680 
# 
# From -- ./inp_files/515881.got.cif
#   From: 2010.05.17/outbox.cif.g08.bks.cpg/sg2_258_cif.got.tgz:515881.got - 2010.06.03 11:33:40.
