data_PCOD9093241
_publ_section_title
;
Structure prediction by ZEFSAII (Michael W. Deem and Ramdas Pophale) SiO2 
 PCOD9093241
Probable space group: P -1
;
_chemical_formula_sum "Si O2"
_cell_formula_units_Z 16
_cell_length_a 12.882585
_cell_length_b 12.736946
_cell_length_c 5.381573
_cell_angle_alpha 83.824907
_cell_angle_beta 100.689700
_cell_angle_gamma 109.794285
_cell_volume 815.484254
_symmetry_space_group_name_H-M "P -1"
_symmetry_group_IT_number 2
_symmetry_cell_setting 'triclinic'
loop_
_space_group_symop_operation_xyz
x,y,z
-x,-y,-z
loop_
_atom_site_type_symbol
_atom_site_label
_atom_site_fract_x
_atom_site_fract_y
_atom_site_fract_z
Si Si1 0.589712 0.262750 0.633063
Si Si2 0.807829 0.195897 0.781461
Si Si3 0.251567 0.936001 0.730293
Si Si4 0.932868 0.451407 0.732478
Si Si5 0.631482 0.838161 0.124908
Si Si6 0.521474 0.092960 0.274479
Si Si7 0.294871 0.487237 0.388770
Si Si8 0.373872 0.408710 0.951343
O O1 0.696079 0.229705 0.769382
O O2 0.478230 0.194462 0.741911
O O3 0.574362 0.221035 0.354614
O O4 0.610829 0.392063 0.632767
O O5 0.790188 0.122783 0.538924
O O6 0.900297 0.316771 0.754644
O O7 0.819985 0.130066 0.051883
O O8 0.377979 0.929247 0.821747
O O9 0.267972 0.068182 0.717473
O O10 0.821089 0.486770 0.673349
O O11 0.000000 0.500000 0.500000
O O12 0.000000 0.500000 0.000000
O O13 0.636589 0.720433 0.063859
O O14 0.597688 0.906448 0.871570
O O15 0.500000 0.000000 0.500000
O O16 0.315705 0.440972 0.675428
O O17 0.311783 0.417168 0.178707
O O18 0.500000 0.500000 0.000000
#
# Coordination Sequence:
#
# PCOD9093241 Si02
#       8
#     2   2   2   2   2   2   2   2
#     4  10  20  32  52  76 119 163 203 244 288 357
#     4  10  22  36  56  88 121 145 186 256 324 363
#     4  11  21  34  51  82 121 165 200 249 291 357
#     4  11  23  44  74  98 117 149 201 271 346 386
#     4  12  22  32  54  78 120 178 219 229 286 355
#     4  11  20  31  48  76 115 164 219 246 284 335
#     4  11  25  42  59  91 126 162 211 265 306 365
#     4  12  25  39  58  86 132 183 219 241 286 357
#
# _framework density 19.620245000000001
#
# number of rings (size 3 to 8) (size 9 to 14) (size 15 to 20)
#    0.000    1.000    3.750    4.500    1.750    2.000 
#    0.000    0.000    0.000    0.000    0.000   17.500 
#    0.000    0.000    0.000    0.000    0.000    0.000 
#
# Total GULP energy -89227.870735 kJ/mol
# GULP energy per Si atom -5576.741921 kJ/mol
# Density = 1.957559 g / cm^3
# Si number density = 19.620245 Si / 1000 Ang^3
#
#
#
# Elastic Constant Matrix: (Units=GPa)
#
#
# Indices 1 2 3 4 5 6 
#
# 1 49.3104 37.6857 27.9970 2.5874 -13.1441 2.4447
# 2 37.6857 174.5690 65.7762 23.6902 -18.0271 -5.0481
# 3 27.9970 65.7762 115.2887 -4.0645 -4.7961 -2.6848
# 4 2.5874 23.6902 -4.0645 24.8126 -0.1668 -12.3519
# 5 -13.1441 -18.0271 -4.7961 -0.1668 28.6665 -1.8826
# 6 2.4447 -5.0481 -2.6848 -12.3519 -1.8826 32.9498
#
#
#
# Elastic Compliance Matrix: (Units=1/GPa)
#
#
# Indices 1 2 3 4 5 6 
#
# 1 0.028331 -0.002975 -0.004930 -0.002509 0.010062 -0.003325
# 2 -0.002975 0.010407 -0.005537 -0.011942 0.003995 -0.002884
# 3 -0.004930 -0.005537 0.013350 0.010053 -0.003175 0.004192
# 4 -0.002509 -0.011942 0.010053 0.065189 -0.005067 0.023324
# 5 0.010062 0.003995 -0.003175 -0.005067 0.041454 0.000076
# 6 -0.003325 -0.002884 0.004192 0.023324 0.000076 0.039243
#
#
# Mechanical properties :
#
#
# Convention : Reuss Voigt Hill
#
# Bulk Modulus (GPa) = 39.67643 66.89845 53.28744
# Shear Modulus (GPa) = 21.43548 31.13305 26.28427
#
# Velocity S-wave (km/s) = 3.30891 3.98776 3.66409
# Velocity P-wave (km/s) = 5.90463 7.44135 6.71708
#
# Compressibility (1/GPa) = 0.02520388
#
# Stress axis : x y z
#
# Youngs Moduli (GPa) = 35.29699 96.09323 74.90666
#
# Poissons Ratio (x) = 0.28590 0.36928
# Poissons Ratio (y) = 0.10502 0.41474
# Poissons Ratio (z) = 0.17401 0.53205
#
# Static dielectric constant tensor:
#      x y z
#    x 1.676960 0.004880 -0.025260 
#    y 0.004880 1.747540 0.023900 
#    z -0.025260 0.023900 1.836480 
# 
# From -- ./inp_files/70055.got.cif
#   From: 2010.05.17/outbox.cif.g08.bks.cpg/sg2_36_cif.got.tgz:70055.got - 2010.06.03 11:33:40.
