data_PCOD9093029
_publ_section_title
;
Structure prediction by ZEFSAII (Michael W. Deem and Ramdas Pophale) SiO2 
 PCOD9093029
Probable space group: P -1
;
_chemical_formula_sum "Si O2"
_cell_formula_units_Z 14
_cell_length_a 18.606921
_cell_length_b 5.165781
_cell_length_c 15.622966
_cell_angle_alpha 72.913694
_cell_angle_beta 156.257941
_cell_angle_gamma 102.417628
_cell_volume 572.218070
_symmetry_space_group_name_H-M "P -1"
_symmetry_group_IT_number 2
_symmetry_cell_setting 'triclinic'
loop_
_space_group_symop_operation_xyz
x,y,z
-x,-y,-z
loop_
_atom_site_type_symbol
_atom_site_label
_atom_site_fract_x
_atom_site_fract_y
_atom_site_fract_z
Si Si1 0.358588 0.838408 0.192561
Si Si2 0.059219 0.967844 0.970722
Si Si3 0.487460 0.631292 0.839271
Si Si4 0.180659 0.335431 0.561571
Si Si5 0.274918 0.135541 0.487124
Si Si6 0.156327 0.415023 0.917574
Si Si7 0.343697 0.962382 0.900973
O O1 0.565997 0.744831 0.403124
O O2 0.237885 0.670511 0.018688
O O3 0.309615 0.162498 0.089077
O O4 0.263662 0.823684 0.184427
O O5 0.054219 0.268768 0.894995
O O6 0.910479 0.830070 0.769720
O O7 0.000000 0.000000 0.000000
O O8 0.328524 0.525797 0.734528
O O9 0.354208 0.812336 0.610470
O O10 0.619082 0.347587 0.995285
O O11 0.608438 0.837248 0.992740
O O12 0.243274 0.228980 0.543283
O O13 0.986560 0.505285 0.319930
O O14 0.176477 0.092882 0.648641
O O15 0.500000 0.000000 0.000000
#
# Coordination Sequence:
#
# PCOD9093029 Si02
#       7
#     2   2   2   2   2   2   2
#     4  10  25  42  64 100 131 168 215 269 320 387
#     4  10  24  45  69  98 130 168 217 267 325 390
#     4  11  20  34  55 100 126 163 224 261 313 381
#     4  11  20  36  67  93 124 177 221 256 330 375
#     4  12  23  40  71  96 129 178 215 263 333 386
#     4  10  22  44  62  95 131 170 210 271 315 386
#     4  10  20  30  56  96 128 160 222 273 297 380
#
# _framework density 24.466196
#
# number of rings (size 3 to 8) (size 9 to 14) (size 15 to 20)
#    0.857    0.571    5.714    1.714    2.000    1.143 
#    0.000    0.714    0.000    5.143    0.000    0.000 
#    0.000    0.000    0.000    0.000    0.000    0.000 
#
# Total GULP energy -78042.166066 kJ/mol
# GULP energy per Si atom -5574.440433 kJ/mol
# Density = 2.441051 g / cm^3
# Si number density = 24.466196 Si / 1000 Ang^3
#
#
#
# Elastic Constant Matrix: (Units=GPa)
#
#
# Indices 1 2 3 4 5 6 
#
# 1 116.6308 -22.2872 20.9783 9.5929 14.5511 -12.9515
# 2 -22.2872 59.4939 11.2747 5.1337 0.2821 -37.9216
# 3 20.9783 11.2747 56.1543 8.9292 22.3139 0.3792
# 4 9.5929 5.1337 8.9292 8.3323 0.0569 -7.5405
# 5 14.5511 0.2821 22.3139 0.0569 36.5496 4.7407
# 6 -12.9515 -37.9216 0.3792 -7.5405 4.7407 20.2711
#
#
#
# Elastic Compliance Matrix: (Units=1/GPa)
#
#
# Indices 1 2 3 4 5 6 
#
# 1 0.006763 -0.007387 0.003824 -0.023235 -0.002652 -0.017592
# 2 -0.007387 -0.015025 0.010915 -0.036771 0.002588 -0.047314
# 3 0.003824 0.010915 0.024936 -0.020143 -0.019318 0.019420
# 4 -0.023235 -0.036771 -0.020143 0.166084 0.025121 -0.027352
# 5 -0.002652 0.002588 -0.019318 0.025121 0.039687 0.003571
# 6 -0.017592 -0.047314 0.019420 -0.027352 0.003571 -0.061793
#
#
# Mechanical properties :
#
#
# Convention : Reuss Voigt Hill
#
# Bulk Modulus (GPa) = 31.86940 28.02341 29.94641
# Shear Modulus (GPa) = 31.96740 27.85147 29.90943
#
# Velocity S-wave (km/s) = 3.61861 3.37763 3.50019
# Velocity P-wave (km/s) = 5.52388 5.16623 5.34805
#
# Compressibility (1/GPa) = 0.03137806
#
# Stress axis : x y z
#
# Youngs Moduli (GPa) = 147.86034 -66.55745 40.10216
#
# Poissons Ratio (x) = -0.49165 -0.15334
# Poissons Ratio (y) = 1.09221 -0.43770
# Poissons Ratio (z) = -0.56539 0.72645
#
# Static dielectric constant tensor:
#      x y z
#    x 2.113790 0.041960 -0.003080 
#    y 0.041960 2.017170 -0.051100 
#    z -0.003080 -0.051100 1.978540 
# 
# From -- ./inp_files/576705.got.cif
#   From: 2010.05.17/outbox.cif.g08.bks.cpg/sg2_289_cif.got.tgz:576705.got - 2010.06.03 11:33:40.
