data_PCOD9093664
_publ_section_title
;
Structure prediction by ZEFSAII (Michael W. Deem and Ramdas Pophale) SiO2 
 PCOD9093664
Probable space group: P -1
;
_chemical_formula_sum "Si O2"
_cell_formula_units_Z 16
_cell_length_a 6.785311
_cell_length_b 10.840694
_cell_length_c 12.979696
_cell_angle_alpha 64.582054
_cell_angle_beta 62.553569
_cell_angle_gamma 61.999130
_cell_volume 719.981961
_symmetry_space_group_name_H-M "P -1"
_symmetry_group_IT_number 2
_symmetry_cell_setting 'triclinic'
loop_
_space_group_symop_operation_xyz
x,y,z
-x,-y,-z
loop_
_atom_site_type_symbol
_atom_site_label
_atom_site_fract_x
_atom_site_fract_y
_atom_site_fract_z
Si Si1 0.896715 0.233263 0.673995
Si Si2 0.182624 0.509642 0.038063
Si Si3 0.953245 0.935524 0.877513
Si Si4 0.646486 0.361510 0.882676
Si Si5 0.136851 0.221444 0.219175
Si Si6 0.220792 0.398779 0.551908
Si Si7 0.620952 0.069271 0.077944
Si Si8 0.758987 0.335260 0.438701
O O1 0.899530 0.077304 0.767090
O O2 0.724127 0.351245 0.750794
O O3 0.811675 0.267602 0.565269
O O4 0.147240 0.255781 0.628583
O O5 0.151769 0.633209 0.086918
O O6 0.207146 0.365444 0.150765
O O7 0.418580 0.494135 0.922173
O O8 0.000000 0.500000 0.000000
O O9 0.998759 0.796194 0.845488
O O10 0.741132 0.950128 0.004405
O O11 0.175102 0.938495 0.888013
O O12 0.580028 0.219519 0.973115
O O13 0.382493 0.088017 0.190711
O O14 0.960710 0.236811 0.350341
O O15 0.490833 0.355612 0.463638
O O16 0.221327 0.503159 0.611514
O O17 0.000000 0.500000 0.500000
#
# Coordination Sequence:
#
# PCOD9093664 Si02
#       8
#     2   2   2   2   2   2   2   2
#     4  10  21  37  57  80 111 150 188 228 273 332
#     4  10  20  33  55  84 110 139 179 234 288 331
#     4  10  21  37  59  83 110 148 190 229 276 335
#     4   9  19  35  55  82 110 140 185 230 279 337
#     4  11  22  36  56  83 115 147 182 230 283 332
#     4   9  20  39  58  79 109 146 187 228 275 326
#     4   9  20  39  58  80 112 148 186 232 281 329
#     4  10  22  38  58  85 113 146 187 230 279 337
#
# _framework density 22.22278
#
# number of rings (size 3 to 8) (size 9 to 14) (size 15 to 20)
#    0.000    2.250    0.000    1.875    0.000    7.500 
#    0.000    3.750    0.000    0.000    0.000    0.000 
#    0.000    0.000    0.000    0.000    0.000    0.000 
#
# Total GULP energy -89163.322404 kJ/mol
# GULP energy per Si atom -5572.707650 kJ/mol
# Density = 2.217220 g / cm^3
# Si number density = 22.222780 Si / 1000 Ang^3
#
#
#
# Elastic Constant Matrix: (Units=GPa)
#
#
# Indices 1 2 3 4 5 6 
#
# 1 137.0275 25.0705 63.6280 13.4111 -17.7347 2.6287
# 2 25.0705 63.2772 41.2591 12.9332 -9.7296 10.6384
# 3 63.6280 41.2591 140.6737 49.6856 -8.7072 -13.1921
# 4 13.4111 12.9332 49.6856 35.2233 0.7718 -2.4622
# 5 -17.7347 -9.7296 -8.7072 0.7718 25.8502 3.1186
# 6 2.6287 10.6384 -13.1921 -2.4622 3.1186 35.4130
#
#
#
# Elastic Compliance Matrix: (Units=1/GPa)
#
#
# Indices 1 2 3 4 5 6 
#
# 1 0.010592 0.000628 -0.006639 0.004727 0.005561 -0.003609
# 2 0.000628 0.023698 -0.008551 0.002193 0.007717 -0.010878
# 3 -0.006639 -0.008551 0.022408 -0.025248 -0.000643 0.009710
# 4 0.004727 0.002193 -0.025248 0.061125 -0.005576 -0.005674
# 5 0.005561 0.007717 -0.000643 -0.005576 0.046251 -0.007431
# 6 -0.003609 -0.010878 0.009710 -0.005674 -0.007431 0.035651
#
#
# Mechanical properties :
#
#
# Convention : Reuss Voigt Hill
#
# Bulk Modulus (GPa) = 36.26765 66.76596 51.51681
# Shear Modulus (GPa) = 21.00482 33.36535 27.18508
#
# Velocity S-wave (km/s) = 3.07773 3.87900 3.50136
# Velocity P-wave (km/s) = 5.38381 7.08317 6.29113
#
# Compressibility (1/GPa) = 0.02757278
#
# Stress axis : x y z
#
# Youngs Moduli (GPa) = 94.41114 42.19781 44.62719
#
# Poissons Ratio (x) = -0.02650 0.29627
# Poissons Ratio (y) = -0.05928 0.38163
# Poissons Ratio (z) = 0.62678 0.36085
#
# Static dielectric constant tensor:
#      x y z
#    x 1.916190 -0.011410 -0.005490 
#    y -0.011410 1.894440 -0.015550 
#    z -0.005490 -0.015550 1.843980 
# 
# From -- ./inp_files/71999.got.cif
#   From: 2010.05.17/outbox.cif.g08.bks.cpg/sg2_36_cif.got.tgz:71999.got - 2010.06.03 11:33:40.
