data_PCOD9093869
_publ_section_title
;
Structure prediction by ZEFSAII (Michael W. Deem and Ramdas Pophale) SiO2 
 PCOD9093869
Probable space group: P -1
;
_chemical_formula_sum "Si O2"
_cell_formula_units_Z 16
_cell_length_a 14.177913
_cell_length_b 9.286367
_cell_length_c 7.580793
_cell_angle_alpha 78.714640
_cell_angle_beta 59.507830
_cell_angle_gamma 48.057343
_cell_volume 623.494046
_symmetry_space_group_name_H-M "P -1"
_symmetry_group_IT_number 2
_symmetry_cell_setting 'triclinic'
loop_
_space_group_symop_operation_xyz
x,y,z
-x,-y,-z
loop_
_atom_site_type_symbol
_atom_site_label
_atom_site_fract_x
_atom_site_fract_y
_atom_site_fract_z
Si Si1 0.616854 0.444504 0.054067
Si Si2 0.660095 0.756610 0.513676
Si Si3 0.164068 0.670758 0.422157
Si Si4 0.918322 0.022505 0.358348
Si Si5 0.664228 0.905762 0.818796
Si Si6 0.658545 0.082833 0.103663
Si Si7 0.270519 0.391781 0.900419
Si Si8 0.953730 0.826652 0.025698
O O1 0.659548 0.247954 0.136284
O O2 0.613375 0.580894 0.164770
O O3 0.500000 0.500000 0.000000
O O4 0.750941 0.385175 0.825340
O O5 0.790375 0.524366 0.496506
O O6 0.684506 0.870615 0.598414
O O7 0.500734 0.834224 0.705280
O O8 0.662425 0.749522 0.301701
O O9 0.997199 0.859223 0.478611
O O10 0.209730 0.761595 0.488834
O O11 0.898269 0.929964 0.242783
O O12 0.014974 0.063731 0.160098
O O13 0.752801 0.699976 0.892666
O O14 0.500000 0.000000 0.000000
O O15 0.672496 0.049986 0.885153
O O16 0.812260 0.872201 0.072040
O O17 0.109946 0.604072 0.953801
#
# Coordination Sequence:
#
# PCOD9093869 Si02
#       8
#     2   2   2   2   2   2   2   2
#     4  12  21  38  64  96 126 159 207 268 316 359
#     4  11  23  42  68  93 122 172 218 254 311 378
#     4  11  19  35  60  93 123 170 209 254 309 374
#     4  10  20  33  59  88 132 168 203 252 319 385
#     4  10  23  47  66  88 127 173 210 258 315 377
#     4  11  24  38  63  93 131 162 207 268 315 364
#     4  12  24  42  71  91 126 171 212 255 316 385
#     4  11  20  38  58  92 126 166 208 256 319 375
#
# _framework density 25.661832
#
# number of rings (size 3 to 8) (size 9 to 14) (size 15 to 20)
#    0.000    1.000    6.250    1.500    0.000    4.000 
#    0.000    1.875    0.000    0.000    0.000    0.000 
#    0.000    0.000    0.000    0.000    0.000    0.000 
#
# Total GULP energy -89258.107559 kJ/mol
# GULP energy per Si atom -5578.631722 kJ/mol
# Density = 2.560342 g / cm^3
# Si number density = 25.661832 Si / 1000 Ang^3
#
#
#
# Elastic Constant Matrix: (Units=GPa)
#
#
# Indices 1 2 3 4 5 6 
#
# 1 104.3069 27.7536 49.1819 3.6018 24.6159 7.2284
# 2 27.7536 96.4208 5.7718 1.1574 7.4188 -8.0842
# 3 49.1819 5.7718 106.6349 12.0187 43.9448 20.7382
# 4 3.6018 1.1574 12.0187 28.2205 13.2559 4.8151
# 5 24.6159 7.4188 43.9448 13.2559 43.2439 5.3636
# 6 7.2284 -8.0842 20.7382 4.8151 5.3636 52.0630
#
#
#
# Elastic Compliance Matrix: (Units=1/GPa)
#
#
# Indices 1 2 3 4 5 6 
#
# 1 0.013460 -0.003428 -0.005245 0.001756 -0.002251 -0.000242
# 2 -0.003428 0.011563 0.001176 -0.000213 -0.001406 0.001968
# 3 -0.005245 0.001176 0.019532 0.001060 -0.016739 -0.005243
# 4 0.001756 -0.000213 0.001060 0.042143 -0.014575 -0.003095
# 5 -0.002251 -0.001406 -0.016739 -0.014575 0.045704 0.003401
# 6 -0.000242 0.001968 -0.005243 -0.003095 0.003401 0.021571
#
#
# Mechanical properties :
#
#
# Convention : Reuss Voigt Hill
#
# Bulk Modulus (GPa) = 33.82956 52.53081 43.18018
# Shear Modulus (GPa) = 27.96098 39.68250 33.82174
#
# Velocity S-wave (km/s) = 3.30448 3.93665 3.63434
# Velocity P-wave (km/s) = 5.26981 6.41699 5.87149
#
# Compressibility (1/GPa) = 0.02955995
#
# Stress axis : x y z
#
# Youngs Moduli (GPa) = 74.29378 86.48007 51.19889
#
# Poissons Ratio (x) = 0.29649 0.26856
# Poissons Ratio (y) = 0.25471 -0.06022
# Poissons Ratio (z) = 0.38970 -0.10172
#
# Static dielectric constant tensor:
#      x y z
#    x 2.111270 -0.029030 0.077490 
#    y -0.029030 2.161610 -0.027500 
#    z 0.077490 -0.027500 2.041960 
# 
# From -- ./inp_files/295495.got.cif
#   From: 2010.05.17/outbox.cif.g08.bks.cpg/sg2_148_cif.got.tgz:295495.got - 2010.06.03 11:33:40.
