data_PCOD9093793
_publ_section_title
;
Structure prediction by ZEFSAII (Michael W. Deem and Ramdas Pophale) SiO2 
 PCOD9093793
Probable space group: P -1
;
_chemical_formula_sum "Si O2"
_cell_formula_units_Z 16
_cell_length_a 26.266710
_cell_length_b 5.458536
_cell_length_c 17.627246
_cell_angle_alpha 111.649570
_cell_angle_beta 158.830302
_cell_angle_gamma 77.122357
_cell_volume 791.126862
_symmetry_space_group_name_H-M "P -1"
_symmetry_group_IT_number 2
_symmetry_cell_setting 'triclinic'
loop_
_space_group_symop_operation_xyz
x,y,z
-x,-y,-z
loop_
_atom_site_type_symbol
_atom_site_label
_atom_site_fract_x
_atom_site_fract_y
_atom_site_fract_z
Si Si1 0.844613 0.831828 0.804564
Si Si2 0.750569 0.324961 0.164711
Si Si3 0.895506 0.990151 0.426291
Si Si4 0.277838 0.540471 0.286221
Si Si5 0.428099 0.554069 0.305764
Si Si6 0.455018 0.169276 0.655296
Si Si7 0.192307 0.770725 0.065942
Si Si8 0.848849 0.029455 0.128361
O O1 0.814247 0.539882 0.772537
O O2 0.701336 0.779557 0.544487
O O3 0.828209 0.007574 0.876847
O O4 0.000000 0.000000 0.000000
O O5 0.796566 0.662501 0.268005
O O6 0.829203 0.242483 0.190167
O O7 0.804320 0.187983 0.295948
O O8 0.570621 0.188603 0.884927
O O9 0.016807 0.076703 0.672543
O O10 0.000000 0.000000 0.500000
O O11 0.403764 0.403074 0.427524
O O12 0.161665 0.509792 0.052952
O O13 0.391564 0.860655 0.494334
O O14 0.451613 0.614173 0.255362
O O15 0.354190 0.766041 0.261994
O O16 0.306780 0.240291 0.113912
O O17 0.121025 0.812789 0.892567
#
# Coordination Sequence:
#
# PCOD9093793 Si02
#       8
#     2   2   2   2   2   2   2   2
#     4  10  24  42  55  78 108 141 193 243 290 344
#     4  11  20  36  52  83 119 162 195 226 277 341
#     4  10  22  32  53  78 122 164 194 227 276 332
#     4  10  21  35  53  78 109 146 180 238 281 344
#     4  11  19  32  50  79 122 146 189 222 277 343
#     4  10  20  33  58  80 110 152 187 230 284 336
#     4  11  22  33  55  79 110 152 188 224 292 335
#     4  11  21  32  51  82 120 157 184 228 272 342
#
# _framework density 20.224315000000001
#
# number of rings (size 3 to 8) (size 9 to 14) (size 15 to 20)
#    0.000    1.500    2.500    4.125    3.500    9.000 
#    0.000    0.000    0.000    0.000    0.000    1.750 
#    0.000    0.000    0.000    0.000    0.000    0.000 
#
# Total GULP energy -89089.808414 kJ/mol
# GULP energy per Si atom -5568.113026 kJ/mol
# Density = 2.017828 g / cm^3
# Si number density = 20.224315 Si / 1000 Ang^3
#
#
#
# Elastic Constant Matrix: (Units=GPa)
#
#
# Indices 1 2 3 4 5 6 
#
# 1 51.5335 28.6481 53.1092 -10.1219 1.1952 20.6901
# 2 28.6481 90.4614 43.4043 -13.7069 -8.2882 32.9770
# 3 53.1092 43.4043 116.8567 -24.5665 -5.5511 33.4560
# 4 -10.1219 -13.7069 -24.5665 34.5495 9.0602 -19.8059
# 5 1.1952 -8.2882 -5.5511 9.0602 25.8230 -5.0704
# 6 20.6901 32.9770 33.4560 -19.8059 -5.0704 26.8014
#
#
#
# Elastic Compliance Matrix: (Units=1/GPa)
#
#
# Indices 1 2 3 4 5 6 
#
# 1 0.041976 -0.000359 -0.015156 -0.008907 -0.006278 -0.020814
# 2 -0.000359 0.023214 -0.000584 -0.013645 0.004921 -0.036708
# 3 -0.015156 -0.000584 0.018815 0.003645 0.001699 -0.008053
# 4 -0.008907 -0.013645 0.003645 0.063256 -0.012926 0.063415
# 5 -0.006278 0.004921 0.001699 -0.012926 0.044624 -0.004439
# 6 -0.020814 -0.036708 -0.008053 0.063415 -0.004439 0.154622
#
#
# Mechanical properties :
#
#
# Convention : Reuss Voigt Hill
#
# Bulk Modulus (GPa) = 19.30239 56.57499 37.93869
# Shear Modulus (GPa) = 12.62711 26.34744 19.48728
#
# Velocity S-wave (km/s) = 2.50142 3.61329 3.10749
# Velocity P-wave (km/s) = 4.23174 6.74109 5.62805
#
# Compressibility (1/GPa) = 0.05180705
#
# Stress axis : x y z
#
# Youngs Moduli (GPa) = 23.82291 43.07830 53.14884
#
# Poissons Ratio (x) = 0.01545 0.80552
# Poissons Ratio (y) = 0.00854 0.03106
# Poissons Ratio (z) = 0.36106 0.02518
#
# Static dielectric constant tensor:
#      x y z
#    x 1.730860 0.054590 -0.047180 
#    y 0.054590 2.021560 -0.013150 
#    z -0.047180 -0.013150 1.775080 
# 
# From -- ./inp_files/563814.got.cif
#   From: 2010.05.17/outbox.cif.g08.bks.cpg/sg2_282_cif.got.tgz:563814.got - 2010.06.03 11:33:40.
