data_PCOD9093662
_publ_section_title
;
Structure prediction by ZEFSAII (Michael W. Deem and Ramdas Pophale) SiO2 
 PCOD9093662
Probable space group: P -1
;
_chemical_formula_sum "Si O2"
_cell_formula_units_Z 12
_cell_length_a 15.698678
_cell_length_b 15.313003
_cell_length_c 8.961441
_cell_angle_alpha 44.586988
_cell_angle_beta 44.889119
_cell_angle_gamma 18.355839
_cell_volume 471.061882
_symmetry_space_group_name_H-M "P -1"
_symmetry_group_IT_number 2
_symmetry_cell_setting 'triclinic'
loop_
_space_group_symop_operation_xyz
x,y,z
-x,-y,-z
loop_
_atom_site_type_symbol
_atom_site_label
_atom_site_fract_x
_atom_site_fract_y
_atom_site_fract_z
Si Si1 0.141292 0.787443 0.823339
Si Si2 0.314427 0.598468 0.430090
Si Si3 0.279089 0.520348 0.247475
Si Si4 0.646654 0.700158 0.141646
Si Si5 0.800206 0.740013 0.146643
Si Si6 0.212995 0.097371 0.766482
O O1 0.435423 0.539214 0.690226
O O2 0.210819 0.709284 0.008633
O O3 0.959847 0.069129 0.650554
O O4 0.957982 0.832276 0.989475
O O5 0.356604 0.491965 0.348102
O O6 0.305358 0.490223 0.682184
O O7 0.519438 0.223483 0.226968
O O8 0.998671 0.700350 0.355269
O O9 0.879273 0.549237 0.935184
O O10 0.357063 0.007950 0.060352
O O11 0.683608 0.724529 0.231475
O O12 0.736822 0.825545 0.293855
#
# Coordination Sequence:
#
# PCOD9093662 Si02
#       6
#     2   2   2   2   2   2
#     4  10  20  33  55  83 115 148 169 218 275 322
#     4  12  20  35  55  88 112 136 190 218 266 325
#     4  10  20  33  56  85 112 149 169 218 276 323
#     4  10  23  38  63  78 102 148 184 235 262 312
#     4  10  21  44  58  76 106 145 193 220 272 321
#     4  10  20  35  58  80 107 155 175 213 275 331
#
# _framework density 25.474359
#
# number of rings (size 3 to 8) (size 9 to 14) (size 15 to 20)
#    1.000    0.667    1.667    4.000    0.000    0.000 
#    0.000    6.667    0.000    0.000    0.000    0.000 
#    0.000    0.000    0.000    0.000    0.000    0.000 
#
# Total GULP energy -67081.027998 kJ/mol
# GULP energy per Si atom -5590.085667 kJ/mol
# Density = 2.541638 g / cm^3
# Si number density = 25.474359 Si / 1000 Ang^3
#
#
#
# Elastic Constant Matrix: (Units=GPa)
#
#
# Indices 1 2 3 4 5 6 
#
# 1 154.5518 33.7987 10.9032 2.1600 11.8660 8.8602
# 2 33.7987 114.6855 0.5753 -10.5009 25.2577 -18.9985
# 3 10.9032 0.5753 62.4077 -11.6929 -12.6656 0.3451
# 4 2.1600 -10.5009 -11.6929 22.9420 20.4792 -5.1978
# 5 11.8660 25.2577 -12.6656 20.4792 -6.2162 23.0757
# 6 8.8602 -18.9985 0.3451 -5.1978 23.0757 15.4094
#
#
#
# Elastic Compliance Matrix: (Units=1/GPa)
#
#
# Indices 1 2 3 4 5 6 
#
# 1 0.007454 -0.002081 -0.001987 -0.000736 -0.002865 -0.002765
# 2 -0.002081 0.007193 0.001266 -0.002728 0.007247 -0.001735
# 3 -0.001987 0.001266 0.018419 0.008928 0.001971 0.002352
# 4 -0.000736 -0.002728 0.008928 0.030492 0.014682 -0.014841
# 5 -0.002865 0.007247 0.001971 0.014682 -0.005342 0.023490
# 6 -0.002765 -0.001735 0.002352 -0.014841 0.023490 0.024111
#
#
# Mechanical properties :
#
#
# Convention : Reuss Voigt Hill
#
# Bulk Modulus (GPa) = 36.41312 46.91105 41.66209
# Shear Modulus (GPa) = 51.50115 25.51821 38.50968
#
# Velocity S-wave (km/s) = 4.50119 3.16843 3.89228
# Velocity P-wave (km/s) = 6.42957 5.64272 6.04895
#
# Compressibility (1/GPa) = 0.02746263
#
# Stress axis : x y z
#
# Youngs Moduli (GPa) = 134.14804 139.01766 54.29196
#
# Poissons Ratio (x) = 0.28933 0.10789
# Poissons Ratio (y) = 0.27919 -0.06876
# Poissons Ratio (z) = 0.26659 -0.17606
#
# Static dielectric constant tensor:
#      x y z
#    x 2.030260 0.004610 0.020080 
#    y 0.004610 1.909220 0.002800 
#    z 0.020080 0.002800 2.047990 
# 
# From -- ./inp_files/32101.got.cif
#   From: 2010.05.17/outbox.cif.g08.bks.cpg/sg2_17_cif.got.tgz:32101.got - 2010.06.03 11:33:40.
