data_PCOD9093366
_publ_section_title
;
Structure prediction by ZEFSAII (Michael W. Deem and Ramdas Pophale) SiO2 
 PCOD9093366
Probable space group: P -1
;
_chemical_formula_sum "Si O2"
_cell_formula_units_Z 16
_cell_length_a 11.016143
_cell_length_b 9.415453
_cell_length_c 11.472762
_cell_angle_alpha 56.844698
_cell_angle_beta 39.000481
_cell_angle_gamma 57.036217
_cell_volume 610.735789
_symmetry_space_group_name_H-M "P -1"
_symmetry_group_IT_number 2
_symmetry_cell_setting 'triclinic'
loop_
_space_group_symop_operation_xyz
x,y,z
-x,-y,-z
loop_
_atom_site_type_symbol
_atom_site_label
_atom_site_fract_x
_atom_site_fract_y
_atom_site_fract_z
Si Si1 0.214774 0.451678 0.704828
Si Si2 0.698979 0.013062 0.691072
Si Si3 0.043502 0.994848 0.106549
Si Si4 0.803757 0.671916 0.631360
Si Si5 0.023767 0.195848 0.244963
Si Si6 0.519449 0.630641 0.254758
Si Si7 0.750265 0.332706 0.779604
Si Si8 0.686966 0.838064 0.424484
O O1 0.015467 0.604124 0.774637
O O2 0.372383 0.535798 0.478190
O O3 0.275046 0.450560 0.797018
O O4 0.248035 0.262738 0.700733
O O5 0.690902 0.842322 0.703851
O O6 0.786849 0.933120 0.783592
O O7 0.851817 0.111281 0.468076
O O8 0.512092 0.167443 0.775970
O O9 0.855819 0.920445 0.317037
O O10 0.223344 0.843166 0.085471
O O11 0.026669 0.167481 0.117137
O O12 0.000000 0.000000 0.000000
O O13 0.764184 0.489921 0.786134
O O14 0.695535 0.685321 0.579674
O O15 0.040065 0.671975 0.447737
O O16 0.435717 0.640999 0.180817
O O17 0.500000 0.000000 0.500000
#
# Coordination Sequence:
#
# PCOD9093366 Si02
#       8
#     2   2   2   2   2   2   2   2
#     4  10  21  30  53  89 122 153 182 252 309 349
#     4  10  16  29  52  84 115 141 193 253 301 338
#     4  11  24  41  60  84 121 165 202 240 297 368
#     4  10  18  28  53  85 116 138 191 253 300 327
#     4  10  19  32  54  85 115 153 197 244 298 351
#     4  10  18  30  50  84 122 147 186 237 308 352
#     4  10  18  32  52  80 109 152 193 248 285 347
#     4  11  22  37  58  90 125 153 194 251 309 349
#
# _framework density 26.197908000000002
#
# number of rings (size 3 to 8) (size 9 to 14) (size 15 to 20)
#    0.000    1.750    5.000    2.250    7.000    0.000 
#    0.000    0.625    0.000    3.750    0.000    0.000 
#    0.000    0.000    0.000    0.000    0.000    0.000 
#
# Total GULP energy -89220.043708 kJ/mol
# GULP energy per Si atom -5576.252732 kJ/mol
# Density = 2.613828 g / cm^3
# Si number density = 26.197908 Si / 1000 Ang^3
#
#
#
# Elastic Constant Matrix: (Units=GPa)
#
#
# Indices 1 2 3 4 5 6 
#
# 1 101.8913 33.0250 27.6462 -3.2314 39.9548 6.3442
# 2 33.0250 145.7267 12.2670 8.6583 6.9569 20.2855
# 3 27.6462 12.2670 73.3166 9.6158 13.2412 6.0353
# 4 -3.2314 8.6583 9.6158 2.3136 10.7992 12.4010
# 5 39.9548 6.9569 13.2412 10.7992 42.0853 0.1706
# 6 6.3442 20.2855 6.0353 12.4010 0.1706 42.9947
#
#
#
# Elastic Compliance Matrix: (Units=1/GPa)
#
#
# Indices 1 2 3 4 5 6 
#
# 1 0.008466 -0.001251 0.000480 -0.032017 0.000199 0.008507
# 2 -0.001251 0.007629 -0.000927 0.005719 -0.001230 -0.004929
# 3 0.000480 -0.000927 0.013756 0.013367 -0.008038 -0.005388
# 4 -0.032017 0.005719 0.013367 -0.111057 0.053613 0.031969
# 5 0.000199 -0.001230 -0.008038 0.053613 0.012604 -0.013834
# 6 0.008507 -0.004929 -0.005388 0.031969 -0.013834 0.015919
#
#
# Mechanical properties :
#
#
# Convention : Reuss Voigt Hill
#
# Bulk Modulus (GPa) = 37.80017 51.86790 44.83404
# Shear Modulus (GPa) = -123.55282 34.01179 -44.77052
#
# Velocity S-wave (km/s) = -6.87486 3.60705 -4.13841
# Velocity P-wave (km/s) = 6.96838 6.09830 2.38422
#
# Compressibility (1/GPa) = 0.02645491
#
# Stress axis : x y z
#
# Youngs Moduli (GPa) = 118.11291 131.08420 72.69634
#
# Poissons Ratio (x) = 0.16393 -0.03486
# Poissons Ratio (y) = 0.14770 0.06739
# Poissons Ratio (z) = -0.05664 0.12152
#
# Static dielectric constant tensor:
#      x y z
#    x 2.077550 -0.075070 0.082700 
#    y -0.075070 2.281260 -0.222300 
#    z 0.082700 -0.222300 2.446380 
# 
# From -- ./inp_files/414441.got.cif
#   From: 2010.05.17/outbox.cif.g08.bks.cpg/sg2_208_cif.got.tgz:414441.got - 2010.06.03 11:33:40.
