data_PCOD9093399
_publ_section_title
;
Structure prediction by ZEFSAII (Michael W. Deem and Ramdas Pophale) SiO2 
 PCOD9093399
Probable space group: P -1
;
_chemical_formula_sum "Si O2"
_cell_formula_units_Z 14
_cell_length_a 9.113735
_cell_length_b 8.902945
_cell_length_c 10.479824
_cell_angle_alpha 106.011800
_cell_angle_beta 116.938445
_cell_angle_gamma 56.216050
_cell_volume 629.724038
_symmetry_space_group_name_H-M "P -1"
_symmetry_group_IT_number 2
_symmetry_cell_setting 'triclinic'
loop_
_space_group_symop_operation_xyz
x,y,z
-x,-y,-z
loop_
_atom_site_type_symbol
_atom_site_label
_atom_site_fract_x
_atom_site_fract_y
_atom_site_fract_z
Si Si1 0.849253 0.419045 0.296472
Si Si2 0.604940 0.391186 0.865774
Si Si3 0.563313 0.031317 0.230714
Si Si4 0.125913 0.285292 0.141320
Si Si5 0.487788 0.761493 0.985681
Si Si6 0.085005 0.237520 0.582999
Si Si7 0.074083 0.683355 0.187493
O O1 0.621705 0.503899 0.222561
O O2 0.874228 0.595063 0.360686
O O3 0.980666 0.309193 0.201894
O O4 0.939126 0.287926 0.422386
O O5 0.637961 0.551765 0.967987
O O6 0.736848 0.314047 0.778258
O O7 0.646231 0.248916 0.961132
O O8 0.714628 0.948681 0.383810
O O9 0.346577 0.141469 0.218826
O O10 0.591547 0.150417 0.161870
O O11 0.582847 0.863546 0.114860
O O12 0.115107 0.478491 0.169671
O O13 0.066386 0.238251 0.971255
O O14 0.001872 0.229324 0.685622
#
# Coordination Sequence:
#
# PCOD9093399 Si02
#       7
#     2   2   2   2   2   2   2
#     4  10  22  40  61  85 120 165 202 233 290 368
#     4  11  20  37  59  92 119 157 190 257 288 354
#     4  11  20  37  59  92 119 157 190 257 288 354
#     4  10  20  35  61  90 116 156 202 239 292 359
#     4  10  20  32  60  88 122 148 190 242 314 326
#     4  10  22  40  61  85 120 165 202 233 290 368
#     4  10  20  35  61  90 116 156 202 239 292 359
#
# _framework density 22.231957999999999
#
# number of rings (size 3 to 8) (size 9 to 14) (size 15 to 20)
#    0.000    1.714    2.857    3.429    4.000    1.143 
#    0.000    7.143    0.000    0.000    0.000    0.000 
#    0.000    0.000    0.000    0.000    0.000    0.000 
#
# Total GULP energy -78177.288293 kJ/mol
# GULP energy per Si atom -5584.092021 kJ/mol
# Density = 2.218136 g / cm^3
# Si number density = 22.231958 Si / 1000 Ang^3
#
#
#
# Elastic Constant Matrix: (Units=GPa)
#
#
# Indices 1 2 3 4 5 6 
#
# 1 146.2751 25.5579 57.8596 -17.8070 -15.8269 -33.9632
# 2 25.5579 51.5325 21.2789 -25.3138 0.7726 -7.6155
# 3 57.8596 21.2789 85.7383 -34.4901 -7.0475 -26.0761
# 4 -17.8070 -25.3138 -34.4901 34.5484 -4.7557 9.2199
# 5 -15.8269 0.7726 -7.0475 -4.7557 26.9820 -6.4375
# 6 -33.9632 -7.6155 -26.0761 9.2199 -6.4375 42.8161
#
#
#
# Elastic Compliance Matrix: (Units=1/GPa)
#
#
# Indices 1 2 3 4 5 6 
#
# 1 0.011680 -0.004427 -0.005775 -0.003914 0.006394 0.006765
# 2 -0.004427 0.033212 0.007252 0.029543 0.003797 0.001021
# 3 -0.005775 0.007252 0.030943 0.032160 0.012669 0.010533
# 4 -0.003914 0.029543 0.032160 0.081660 0.021410 0.007371
# 5 0.006394 0.003797 0.012669 0.021410 0.051755 0.016634
# 6 0.006765 0.001021 0.010533 0.007371 0.016634 0.036232
#
#
# Mechanical properties :
#
#
# Convention : Reuss Voigt Hill
#
# Bulk Modulus (GPa) = 14.29903 54.77094 34.53499
# Shear Modulus (GPa) = 18.20200 32.79260 25.49730
#
# Velocity S-wave (km/s) = 2.86445 3.84477 3.39023
# Velocity P-wave (km/s) = 4.16963 6.66328 5.55811
#
# Compressibility (1/GPa) = 0.06993480
#
# Stress axis : x y z
#
# Youngs Moduli (GPa) = 85.61381 30.10920 32.31745
#
# Poissons Ratio (x) = 0.13330 0.18664
# Poissons Ratio (y) = 0.37902 -0.23436
# Poissons Ratio (z) = 0.49443 -0.21834
#
# Static dielectric constant tensor:
#      x y z
#    x 1.861110 0.001950 0.017950 
#    y 0.001950 1.841520 -0.002590 
#    z 0.017950 -0.002590 1.848600 
# 
# From -- ./inp_files/158780.got.cif
#   From: 2010.05.17/outbox.cif.g08.bks.cpg/sg2_80_cif.got.tgz:158780.got - 2010.06.03 11:33:40.
