data_PCOD9093861
_publ_section_title
;
Structure prediction by ZEFSAII (Michael W. Deem and Ramdas Pophale) SiO2 
 PCOD9093861
Probable space group: P -1
;
_chemical_formula_sum "Si O2"
_cell_formula_units_Z 14
_cell_length_a 5.455768
_cell_length_b 13.726290
_cell_length_c 15.053296
_cell_angle_alpha 134.904895
_cell_angle_beta 105.362375
_cell_angle_gamma 49.508765
_cell_volume 566.706088
_symmetry_space_group_name_H-M "P -1"
_symmetry_group_IT_number 2
_symmetry_cell_setting 'triclinic'
loop_
_space_group_symop_operation_xyz
x,y,z
-x,-y,-z
loop_
_atom_site_type_symbol
_atom_site_label
_atom_site_fract_x
_atom_site_fract_y
_atom_site_fract_z
Si Si1 0.620890 0.157770 0.184248
Si Si2 0.283839 0.780948 0.945781
Si Si3 0.178607 0.621807 0.984309
Si Si4 0.520080 0.998096 0.807740
Si Si5 0.280777 0.296721 0.737142
Si Si6 0.202835 0.786412 0.404903
Si Si7 0.929051 0.914463 0.648661
O O1 0.549799 0.287071 0.180081
O O2 0.825195 0.140778 0.278629
O O3 0.351954 0.157584 0.207010
O O4 0.870721 0.961595 0.027609
O O5 0.309644 0.636259 0.913417
O O6 0.405376 0.874107 0.069165
O O7 0.072538 0.501121 0.890002
O O8 0.500000 0.500000 0.000000
O O9 0.892703 0.833167 0.128367
O O10 0.676671 0.899916 0.665382
O O11 0.435559 0.306959 0.667748
O O12 0.032138 0.256108 0.678946
O O13 0.624841 0.128031 0.718752
O O14 0.169970 0.785057 0.507309
O O15 0.000000 0.000000 0.500000
#
# Coordination Sequence:
#
# PCOD9093861 Si02
#       7
#     2   2   2   2   2   2   2
#     4   9  18  33  56  83 116 151 199 250 303 350
#     4   9  19  35  52  84 119 155 195 244 300 369
#     4  11  24  38  57  87 126 163 195 241 306 382
#     4  10  20  33  59  86 119 152 198 244 314 359
#     4  11  24  39  63  89 128 164 201 247 310 368
#     4  10  23  41  62  89 123 162 208 257 300 356
#     4  10  21  35  60  88 115 150 202 255 300 353
#
# _framework density 24.704163999999999
#
# number of rings (size 3 to 8) (size 9 to 14) (size 15 to 20)
#    0.000    2.000    0.000    4.714   10.000    2.286 
#    0.000    0.000    0.000    1.714    0.000    0.000 
#    0.000    0.000    0.000    0.000    0.000    0.000 
#
# Total GULP energy -77948.205671 kJ/mol
# GULP energy per Si atom -5567.728976 kJ/mol
# Density = 2.464794 g / cm^3
# Si number density = 24.704164 Si / 1000 Ang^3
#
#
#
# Elastic Constant Matrix: (Units=GPa)
#
#
# Indices 1 2 3 4 5 6 
#
# 1 101.9202 20.5471 26.8336 -8.1558 6.7983 27.6292
# 2 20.5471 86.8030 17.5838 -29.6495 6.3461 29.3760
# 3 26.8336 17.5838 41.0955 -17.2066 9.0208 11.9541
# 4 -8.1558 -29.6495 -17.2066 38.4363 8.9311 -3.1709
# 5 6.7983 6.3461 9.0208 8.9311 48.3734 -5.6108
# 6 27.6292 29.3760 11.9541 -3.1709 -5.6108 45.4029
#
#
#
# Elastic Compliance Matrix: (Units=1/GPa)
#
#
# Indices 1 2 3 4 5 6 
#
# 1 0.013452 0.000810 -0.006526 0.000355 -0.001677 -0.007174
# 2 0.000810 0.024835 0.006110 0.023110 -0.010854 -0.017897
# 3 -0.006526 0.006110 0.042528 0.024620 -0.013654 -0.011147
# 4 0.000355 0.023110 0.024620 0.058096 -0.020737 -0.020156
# 5 -0.001677 -0.010854 -0.013654 -0.020737 0.030324 0.013937
# 6 -0.007174 -0.017897 -0.011147 -0.020156 0.013937 0.041220
#
#
# Mechanical properties :
#
#
# Convention : Reuss Voigt Hill
#
# Bulk Modulus (GPa) = 12.25465 39.97196 26.11330
# Shear Modulus (GPa) = 21.10875 37.43280 29.27078
#
# Velocity S-wave (km/s) = 2.92629 3.89683 3.44590
# Velocity P-wave (km/s) = 4.04832 6.03842 5.14059
#
# Compressibility (1/GPa) = 0.08160170
#
# Stress axis : x y z
#
# Youngs Moduli (GPa) = 74.34065 40.26564 23.51370
#
# Poissons Ratio (x) = -0.03260 0.15345
# Poissons Ratio (y) = -0.06019 -0.14366
# Poissons Ratio (z) = 0.48515 -0.24601
#
# Static dielectric constant tensor:
#      x y z
#    x 2.341240 -0.002320 -0.015150 
#    y -0.002320 2.082460 -0.048350 
#    z -0.015150 -0.048350 1.976170 
# 
# From -- ./inp_files/81703.got.cif
#   From: 2010.05.17/outbox.cif.g08.bks.cpg/sg2_41_cif.got.tgz:81703.got - 2010.06.03 11:33:40.
