data_PCOD9093807
_publ_section_title
;
Structure prediction by ZEFSAII (Michael W. Deem and Ramdas Pophale) SiO2 
 PCOD9093807
Probable space group: P -1
;
_chemical_formula_sum "Si O2"
_cell_formula_units_Z 16
_cell_length_a 14.556202
_cell_length_b 9.038626
_cell_length_c 12.247194
_cell_angle_alpha 66.249871
_cell_angle_beta 84.469916
_cell_angle_gamma 132.513253
_cell_volume 910.654162
_symmetry_space_group_name_H-M "P -1"
_symmetry_group_IT_number 2
_symmetry_cell_setting 'triclinic'
loop_
_space_group_symop_operation_xyz
x,y,z
-x,-y,-z
loop_
_atom_site_type_symbol
_atom_site_label
_atom_site_fract_x
_atom_site_fract_y
_atom_site_fract_z
Si Si1 0.858094 0.474265 0.475608
Si Si2 0.126759 0.045666 0.367488
Si Si3 0.156297 0.452870 0.190357
Si Si4 0.669061 0.223813 0.372997
Si Si5 0.684540 0.419044 0.082298
Si Si6 0.674858 0.752582 0.923971
Si Si7 0.653471 0.082131 0.815620
Si Si8 0.875192 0.221975 0.387831
O O1 0.767645 0.431865 0.398827
O O2 0.743948 0.249819 0.645269
O O3 0.929600 0.417702 0.421278
O O4 0.972150 0.754492 0.432274
O O5 0.120590 0.230080 0.315786
O O6 0.244324 0.164287 0.224785
O O7 0.171767 0.010110 0.481149
O O8 0.296761 0.719628 0.159673
O O9 0.013495 0.370752 0.250562
O O10 0.200038 0.486344 0.049791
O O11 0.688955 0.338478 0.221727
O O12 0.737617 0.135907 0.382009
O O13 0.500000 0.000000 0.500000
O O14 0.519739 0.166079 0.123896
O O15 0.714148 0.652124 0.022704
O O16 0.703957 0.976364 0.887137
O O17 0.500000 0.500000 0.000000
#
# Coordination Sequence:
#
# PCOD9093807 Si02
#       8
#     2   2   2   2   2   2   2   2
#     4  10  20  33  65  83 108 143 197 241 272 321
#     4  11  19  36  55  93 115 138 192 239 284 324
#     4  11  23  33  58  86 121 148 176 234 294 342
#     4  10  21  38  61  83 106 152 197 231 278 333
#     4  10  21  38  55  83 119 149 184 232 282 345
#     4   9  19  32  57  82 111 145 186 238 275 322
#     4  11  18  36  60  87 112 144 192 235 289 321
#     4  10  20  33  58  85 111 146 185 233 279 330
#
# _framework density 17.569787999999999
#
# number of rings (size 3 to 8) (size 9 to 14) (size 15 to 20)
#    0.750    1.000    3.750    1.875    1.750    0.500 
#    0.000    2.500    2.750    1.500    0.000    0.000 
#    0.000    0.000    0.000    0.000    0.000    0.000 
#
# Total GULP energy -89110.246515 kJ/mol
# GULP energy per Si atom -5569.390407 kJ/mol
# Density = 1.752980 g / cm^3
# Si number density = 17.569788 Si / 1000 Ang^3
#
#
#
# Elastic Constant Matrix: (Units=GPa)
#
#
# Indices 1 2 3 4 5 6 
#
# 1 100.9842 31.0169 62.5712 2.5643 7.1180 0.0464
# 2 31.0169 59.2225 28.9749 -7.5301 14.2954 -12.8848
# 3 62.5712 28.9749 133.3763 4.1452 14.3244 -0.2021
# 4 2.5643 -7.5301 4.1452 24.9159 6.5619 2.9924
# 5 7.1180 14.2954 14.3244 6.5619 33.0115 -2.0596
# 6 0.0464 -12.8848 -0.2021 2.9924 -2.0596 24.2164
#
#
#
# Elastic Compliance Matrix: (Units=1/GPa)
#
#
# Indices 1 2 3 4 5 6 
#
# 1 0.015677 -0.006983 -0.006034 -0.003039 0.002667 -0.003194
# 2 -0.006983 0.028469 -0.002015 0.011111 -0.011358 0.012805
# 3 -0.006034 -0.002015 0.011064 -0.001048 -0.002484 -0.001050
# 4 -0.003039 0.011111 -0.001048 0.047596 -0.013231 -0.001098
# 5 0.002667 -0.011358 -0.002484 -0.013231 0.038270 -0.001179
# 6 -0.003194 0.012805 -0.001050 -0.001098 -0.001179 0.048140
#
#
# Mechanical properties :
#
#
# Convention : Reuss Voigt Hill
#
# Bulk Modulus (GPa) = 39.76877 59.85657 49.81267
# Shear Modulus (GPa) = 21.96225 27.83010 24.89618
#
# Velocity S-wave (km/s) = 3.53937 3.98424 3.76837
# Velocity P-wave (km/s) = 6.27589 7.43689 6.88092
#
# Compressibility (1/GPa) = 0.02514536
#
# Stress axis : x y z
#
# Youngs Moduli (GPa) = 63.78745 35.12608 90.38324
#
# Poissons Ratio (x) = 0.24529 0.54541
# Poissons Ratio (y) = 0.44544 0.18209
# Poissons Ratio (z) = 0.38492 0.07077
#
# Static dielectric constant tensor:
#      x y z
#    x 1.653210 -0.008630 -0.006790 
#    y -0.008630 1.594210 -0.008560 
#    z -0.006790 -0.008560 1.612610 
# 
# From -- ./inp_files/344512.got.cif
#   From: 2010.05.17/outbox.cif.g08.bks.cpg/sg2_173_cif.got.tgz:344512.got - 2010.06.03 11:33:40.
