data_PCOD9093349
_publ_section_title
;
Structure prediction by ZEFSAII (Michael W. Deem and Ramdas Pophale) SiO2 
 PCOD9093349
Probable space group: P -1
;
_chemical_formula_sum "Si O2"
_cell_formula_units_Z 14
_cell_length_a 10.912645
_cell_length_b 24.267900
_cell_length_c 5.408751
_cell_angle_alpha 106.433389
_cell_angle_beta 69.191609
_cell_angle_gamma 154.106589
_cell_volume 582.353782
_symmetry_space_group_name_H-M "P -1"
_symmetry_group_IT_number 2
_symmetry_cell_setting 'triclinic'
loop_
_space_group_symop_operation_xyz
x,y,z
-x,-y,-z
loop_
_atom_site_type_symbol
_atom_site_label
_atom_site_fract_x
_atom_site_fract_y
_atom_site_fract_z
Si Si1 0.203666 0.415774 0.041722
Si Si2 0.294448 0.976267 0.153702
Si Si3 0.267528 0.359618 0.548156
Si Si4 0.377787 0.778462 0.651229
Si Si5 0.683363 0.436772 0.220560
Si Si6 0.835619 0.112578 0.365265
Si Si7 0.647628 0.300734 0.908816
O O1 0.956277 0.334653 0.307692
O O2 0.500000 0.500000 0.000000
O O3 0.064622 0.312982 0.828790
O O4 0.282931 0.504578 0.952193
O O5 0.089953 0.883090 0.413479
O O6 0.453412 0.096587 0.268108
O O7 0.147561 0.922540 0.923368
O O8 0.500000 0.000000 0.000000
O O9 0.500000 0.500000 0.500000
O O10 0.480268 0.390194 0.502317
O O11 0.056012 0.251691 0.354194
O O12 0.479277 0.781229 0.344292
O O13 0.375752 0.744192 0.873792
O O14 0.011998 0.555569 0.220112
O O15 0.542795 0.323510 0.080274
O O16 0.500000 0.000000 0.500000
#
# Coordination Sequence:
#
# PCOD9093349 Si02
#       7
#     2   2   2   2   2   2   2
#     4  10  20  32  56  94 132 160 199 261 326 376
#     4  10  21  36  58  85 116 154 200 249 308 370
#     4  10  21  37  59  94 128 158 201 258 317 371
#     4  11  22  39  63  89 120 164 213 259 306 374
#     4   9  21  37  58  89 127 170 211 258 313 371
#     4  10  21  37  58  86 124 161 195 241 310 381
#     4  10  22  40  62  88 124 169 218 258 302 368
#
# _framework density 24.040367
#
# number of rings (size 3 to 8) (size 9 to 14) (size 15 to 20)
#    0.000    2.000    0.000    3.429    0.000   20.000 
#    0.000    0.000    0.000    5.143    0.000    0.000 
#    0.000    0.000    0.000    0.000    0.000    0.000 
#
# Total GULP energy -78080.885337 kJ/mol
# GULP energy per Si atom -5577.206096 kJ/mol
# Density = 2.398565 g / cm^3
# Si number density = 24.040367 Si / 1000 Ang^3
#
#
#
# Elastic Constant Matrix: (Units=GPa)
#
#
# Indices 1 2 3 4 5 6 
#
# 1 56.1668 19.2245 29.7631 9.1662 -20.9023 -26.0268
# 2 19.2245 123.8291 39.8531 27.6294 -7.5349 -15.8198
# 3 29.7631 39.8531 173.4299 29.5389 -2.8197 -29.5199
# 4 9.1662 27.6294 29.5389 43.3033 -10.2521 -8.5458
# 5 -20.9023 -7.5349 -2.8197 -10.2521 37.0273 12.1300
# 6 -26.0268 -15.8198 -29.5199 -8.5458 12.1300 32.2994
#
#
#
# Elastic Compliance Matrix: (Units=1/GPa)
#
#
# Indices 1 2 3 4 5 6 
#
# 1 0.032777 -0.001677 -0.002080 0.002329 0.012185 0.019730
# 2 -0.001677 0.009949 -0.000805 -0.005342 -0.001040 0.001763
# 3 -0.002080 -0.000805 0.007888 -0.004232 -0.003678 0.005401
# 4 0.002329 -0.005342 -0.004232 0.030956 0.008327 0.000456
# 5 0.012185 -0.001040 -0.003678 0.008327 0.037663 -0.005994
# 6 0.019730 0.001763 0.005401 0.000456 -0.005994 0.055029
#
#
# Mechanical properties :
#
#
# Convention : Reuss Voigt Hill
#
# Bulk Modulus (GPa) = 24.10246 59.01192 41.55719
# Shear Modulus (GPa) = 25.35269 40.16502 32.75885
#
# Velocity S-wave (km/s) = 3.25097 4.09189 3.69543
# Velocity P-wave (km/s) = 4.91318 6.85019 5.96089
#
# Compressibility (1/GPa) = 0.04148953
#
# Stress axis : x y z
#
# Youngs Moduli (GPa) = 30.50906 100.51232 126.77028
#
# Poissons Ratio (x) = 0.16855 0.26369
# Poissons Ratio (y) = 0.05116 0.10211
# Poissons Ratio (z) = 0.06346 0.08096
#
# Static dielectric constant tensor:
#      x y z
#    x 1.950000 -0.001870 0.073900 
#    y -0.001870 1.949910 0.020530 
#    z 0.073900 0.020530 2.147200 
# 
# From -- ./inp_files/83868.got.cif
#   From: 2010.05.17/outbox.cif.g08.bks.cpg/sg2_42_cif.got.tgz:83868.got - 2010.06.03 11:33:40.
