data_PCOD9093753
_publ_section_title
;
Structure prediction by ZEFSAII (Michael W. Deem and Ramdas Pophale) SiO2 
 PCOD9093753
Probable space group: P -1
;
_chemical_formula_sum "Si O2"
_cell_formula_units_Z 16
_cell_length_a 15.522546
_cell_length_b 5.566415
_cell_length_c 23.283455
_cell_angle_alpha 114.046689
_cell_angle_beta 152.585373
_cell_angle_gamma 55.258442
_cell_volume 734.968133
_symmetry_space_group_name_H-M "P -1"
_symmetry_group_IT_number 2
_symmetry_cell_setting 'triclinic'
loop_
_space_group_symop_operation_xyz
x,y,z
-x,-y,-z
loop_
_atom_site_type_symbol
_atom_site_label
_atom_site_fract_x
_atom_site_fract_y
_atom_site_fract_z
Si Si1 0.198372 0.009695 0.007164
Si Si2 0.178720 0.733283 0.116072
Si Si3 0.207047 0.882168 0.481536
Si Si4 0.682812 0.148480 0.576332
Si Si5 0.677903 0.625812 0.948778
Si Si6 0.662227 0.779495 0.320568
Si Si7 0.576694 0.195445 0.638329
Si Si8 0.214506 0.912132 0.679529
O O1 0.200223 0.689475 0.975826
O O2 0.411988 0.910205 0.164976
O O3 0.233172 0.142058 0.981552
O O4 0.973874 0.281762 0.926172
O O5 0.307947 0.476005 0.120900
O O6 0.317240 0.854545 0.242134
O O7 0.000000 0.000000 0.000000
O O8 0.152730 0.933160 0.386577
O O9 0.413955 0.552222 0.575960
O O10 0.285108 0.097798 0.578474
O O11 0.008633 0.903779 0.401638
O O12 0.500000 0.500000 0.500000
O O13 0.743964 0.097580 0.674495
O O14 0.559376 0.967551 0.469693
O O15 0.427566 0.812871 0.834218
O O16 0.761780 0.418309 0.351284
O O17 0.763302 0.898073 0.341753
#
# Coordination Sequence:
#
# PCOD9093753 Si02
#       8
#     2   2   2   2   2   2   2   2
#     4   9  18  32  47  76 110 153 181 222 277 338
#     4  10  20  33  57  85 113 153 187 233 297 352
#     4  11  22  32  59  80 112 161 195 233 292 349
#     4   9  22  40  57  80 110 153 197 248 290 338
#     4   9  18  32  48  76 122 146 182 221 277 346
#     4  10  21  33  52  83 129 153 191 232 289 354
#     4  10  21  40  58  81 119 147 198 245 290 346
#     4  10  21  34  50  85 120 162 190 232 287 356
#
# _framework density 21.769653000000002
#
# number of rings (size 3 to 8) (size 9 to 14) (size 15 to 20)
#    0.000    2.250    0.000    2.625    8.750    0.000 
#    6.750    0.000    0.000    0.000    0.000   11.375 
#    0.000    0.000    0.000    0.000    0.000    0.000 
#
# Total GULP energy -89142.366359 kJ/mol
# GULP energy per Si atom -5571.397897 kJ/mol
# Density = 2.172010 g / cm^3
# Si number density = 21.769653 Si / 1000 Ang^3
#
#
#
# Elastic Constant Matrix: (Units=GPa)
#
#
# Indices 1 2 3 4 5 6 
#
# 1 97.1066 28.0170 20.6637 5.8272 20.6294 4.9360
# 2 28.0170 50.4132 -1.3991 12.1567 0.2041 22.2050
# 3 20.6637 -1.3991 42.2492 -7.4560 8.1161 -7.9405
# 4 5.8272 12.1567 -7.4560 15.9004 0.3149 5.3995
# 5 20.6294 0.2041 8.1161 0.3149 33.4843 -0.3090
# 6 4.9360 22.2050 -7.9405 5.3995 -0.3090 37.5612
#
#
#
# Elastic Compliance Matrix: (Units=1/GPa)
#
#
# Indices 1 2 3 4 5 6 
#
# 1 0.016306 -0.009747 -0.006640 -0.002315 -0.008333 0.002480
# 2 -0.009747 0.038495 -0.002393 -0.020670 0.006370 -0.018959
# 3 -0.006640 -0.002393 0.031778 0.017020 -0.003697 0.006528
# 4 -0.002315 -0.020670 0.017020 0.086340 -0.003352 0.003682
# 5 -0.008333 0.006370 -0.003697 -0.003352 0.035863 -0.002675
# 6 0.002480 -0.018959 0.006528 0.003682 -0.002675 0.038334
#
#
# Mechanical properties :
#
#
# Convention : Reuss Voigt Hill
#
# Bulk Modulus (GPa) = 20.39922 31.59248 25.99585
# Shear Modulus (GPa) = 16.61054 26.88834 21.74944
#
# Velocity S-wave (km/s) = 2.76527 3.51825 3.16424
# Velocity P-wave (km/s) = 4.42566 5.57206 5.03161
#
# Compressibility (1/GPa) = 0.04902147
#
# Stress axis : x y z
#
# Youngs Moduli (GPa) = 61.32755 25.97721 31.46824
#
# Poissons Ratio (x) = 0.25319 0.20894
# Poissons Ratio (y) = 0.59773 0.07530
# Poissons Ratio (z) = 0.40719 0.06216
#
# Static dielectric constant tensor:
#      x y z
#    x 1.884230 0.069550 0.088640 
#    y 0.069550 1.789140 -0.029960 
#    z 0.088640 -0.029960 1.822740 
# 
# From -- ./inp_files/611206.got.cif
#   From: 2010.05.17/outbox.cif.g08.bks.cpg/sg2_306_cif.got.tgz:611206.got - 2010.06.03 11:33:40.
