data_PCOD9093700
_publ_section_title
;
Structure prediction by ZEFSAII (Michael W. Deem and Ramdas Pophale) SiO2 
 PCOD9093700
Probable space group: P -1
;
_chemical_formula_sum "Si O2"
_cell_formula_units_Z 16
_cell_length_a 8.615839
_cell_length_b 11.336148
_cell_length_c 11.354781
_cell_angle_alpha 133.737040
_cell_angle_beta 77.359816
_cell_angle_gamma 73.393185
_cell_volume 613.474140
_symmetry_space_group_name_H-M "P -1"
_symmetry_group_IT_number 2
_symmetry_cell_setting 'triclinic'
loop_
_space_group_symop_operation_xyz
x,y,z
-x,-y,-z
loop_
_atom_site_type_symbol
_atom_site_label
_atom_site_fract_x
_atom_site_fract_y
_atom_site_fract_z
Si Si1 0.519327 0.989024 0.332019
Si Si2 0.330015 0.756607 0.538892
Si Si3 0.277909 0.994030 0.188774
Si Si4 0.844415 0.724336 0.264872
Si Si5 0.061553 0.881131 0.283788
Si Si6 0.160077 0.533659 0.417118
Si Si7 0.768047 0.190500 0.142974
Si Si8 0.902957 0.457932 0.293250
O O1 0.530634 0.179248 0.474201
O O2 0.453815 0.989375 0.211796
O O3 0.327831 0.055431 0.488665
O O4 0.720472 0.775452 0.200175
O O5 0.318914 0.572519 0.375119
O O6 0.339347 0.739602 0.665969
O O7 0.114594 0.965629 0.675444
O O8 0.062495 0.230851 0.393925
O O9 0.253008 0.848892 0.175368
O O10 0.312445 0.898441 0.989450
O O11 0.043128 0.700918 0.184316
O O12 0.884927 0.571136 0.254215
O O13 0.000000 0.000000 0.500000
O O14 0.191205 0.477048 0.511625
O O15 0.125227 0.388482 0.251124
O O16 0.804092 0.348026 0.194887
O O17 0.000000 0.000000 0.000000
#
# Coordination Sequence:
#
# PCOD9093700 Si02
#       8
#     2   2   2   2   2   2   2   2
#     4  10  20  33  55  82 114 147 178 216 272 333
#     4   9  19  33  54  83 111 140 183 221 270 331
#     4  11  19  35  59  84 105 148 186 219 271 326
#     4  10  19  33  52  81 113 145 176 226 274 314
#     4  10  16  29  55  82 105 133 191 229 254 309
#     4   9  17  32  57  82 103 135 187 239 265 301
#     4  11  20  37  58  81 108 144 181 230 275 323
#     4  10  18  33  57  81 109 137 182 234 273 309
#
# _framework density 26.080966
#
# number of rings (size 3 to 8) (size 9 to 14) (size 15 to 20)
#    0.000    2.000    6.250    0.750    0.000    0.500 
#    0.000    3.750    0.000    0.000    0.000    0.000 
#    0.000    0.000    0.000    0.000    0.000    0.000 
#
# Total GULP energy -89123.187952 kJ/mol
# GULP energy per Si atom -5570.199247 kJ/mol
# Density = 2.602160 g / cm^3
# Si number density = 26.080966 Si / 1000 Ang^3
#
#
#
# Elastic Constant Matrix: (Units=GPa)
#
#
# Indices 1 2 3 4 5 6 
#
# 1 107.7107 35.6010 29.0582 -0.5295 36.2491 17.5800
# 2 35.6010 165.5766 23.7057 -2.9963 10.5893 21.4797
# 3 29.0582 23.7057 57.7845 -12.5702 16.6301 -22.1508
# 4 -0.5295 -2.9963 -12.5702 25.9909 -7.1817 11.6623
# 5 36.2491 10.5893 16.6301 -7.1817 38.7623 -7.2298
# 6 17.5800 21.4797 -22.1508 11.6623 -7.2298 45.6895
#
#
#
# Elastic Compliance Matrix: (Units=1/GPa)
#
#
# Indices 1 2 3 4 5 6 
#
# 1 0.021587 0.000534 -0.012940 -0.003287 -0.018548 -0.016927
# 2 0.000534 0.007722 -0.005500 0.000992 -0.001365 -0.006971
# 3 -0.012940 -0.005500 0.035440 0.006745 0.004063 0.023667
# 4 -0.003287 0.000992 0.006745 0.046827 0.007331 -0.006724
# 5 -0.018548 -0.001365 0.004063 0.007331 0.045957 0.015149
# 6 -0.016927 -0.006971 0.023667 -0.006724 0.015149 0.047265
#
#
# Mechanical properties :
#
#
# Convention : Reuss Voigt Hill
#
# Bulk Modulus (GPa) = 34.55859 56.42241 45.49050
# Shear Modulus (GPa) = 19.97950 38.26900 29.12425
#
# Velocity S-wave (km/s) = 2.77078 3.83471 3.34531
# Velocity P-wave (km/s) = 4.84928 6.42551 5.69222
#
# Compressibility (1/GPa) = 0.02893637
#
# Stress axis : x y z
#
# Youngs Moduli (GPa) = 46.32324 129.50419 28.21692
#
# Poissons Ratio (x) = -0.06911 0.36513
# Poissons Ratio (y) = -0.02472 0.15518
# Poissons Ratio (z) = 0.59944 0.71223
#
# Static dielectric constant tensor:
#      x y z
#    x 2.126460 0.006300 0.077300 
#    y 0.006300 2.091380 0.017700 
#    z 0.077300 0.017700 2.041900 
# 
# From -- ./inp_files/388437.got.cif
#   From: 2010.05.17/outbox.cif.g08.bks.cpg/sg2_195_cif.got.tgz:388437.got - 2010.06.03 11:33:40.
