data_PCOD9093751
_publ_section_title
;
Structure prediction by ZEFSAII (Michael W. Deem and Ramdas Pophale) SiO2 
 PCOD9093751
Probable space group: P -1
;
_chemical_formula_sum "Si O2"
_cell_formula_units_Z 12
_cell_length_a 12.221244
_cell_length_b 6.996368
_cell_length_c 10.851125
_cell_angle_alpha 108.316322
_cell_angle_beta 133.541835
_cell_angle_gamma 46.020082
_cell_volume 459.380156
_symmetry_space_group_name_H-M "P -1"
_symmetry_group_IT_number 2
_symmetry_cell_setting 'triclinic'
loop_
_space_group_symop_operation_xyz
x,y,z
-x,-y,-z
loop_
_atom_site_type_symbol
_atom_site_label
_atom_site_fract_x
_atom_site_fract_y
_atom_site_fract_z
Si Si1 0.856544 0.426621 0.522588
Si Si2 0.566739 0.572848 0.885100
Si Si3 0.725474 0.254046 0.698085
Si Si4 0.055644 0.287664 0.896889
Si Si5 0.212656 0.979777 0.529060
Si Si6 0.453373 0.273259 0.846571
O O1 0.812208 0.239559 0.502058
O O2 0.660179 0.710433 0.359464
O O3 0.959617 0.436348 0.721099
O O4 0.021625 0.255204 0.505952
O O5 0.690822 0.320185 0.830254
O O6 0.424120 0.839326 0.738566
O O7 0.431180 0.530735 0.842637
O O8 0.644086 0.637497 0.072587
O O9 0.500000 0.500000 0.500000
O O10 0.788907 0.001546 0.615731
O O11 0.919279 0.222190 0.818192
O O12 0.000000 0.500000 0.000000
O O13 0.302010 0.012456 0.018045
#
# Coordination Sequence:
#
# PCOD9093751 Si02
#       6
#     2   2   2   2   2   2
#     4   9  17  32  53  79 109 146 184 225 274 330
#     4   9  17  32  54  88 113 137 187 240 283 323
#     4   9  19  35  58  88 114 144 185 241 283 319
#     4  11  23  39  58  81 115 156 189 224 280 345
#     4   8  14  29  54  79 112 140 176 232 281 320
#     4  10  20  33  57  85 112 151 186 230 281 340
#
# _framework density 26.122153999999998
#
# number of rings (size 3 to 8) (size 9 to 14) (size 15 to 20)
#    0.000    2.667    1.667    1.000    7.000    1.333 
#    0.000    0.833    0.000    1.000    0.000    0.000 
#    0.000    0.000    0.000    0.000    0.000    0.000 
#
# Total GULP energy -66860.333253 kJ/mol
# GULP energy per Si atom -5571.694438 kJ/mol
# Density = 2.606270 g / cm^3
# Si number density = 26.122154 Si / 1000 Ang^3
#
#
#
# Elastic Constant Matrix: (Units=GPa)
#
#
# Indices 1 2 3 4 5 6 
#
# 1 62.8455 40.2173 36.7421 -7.2357 -9.0921 -7.7312
# 2 40.2173 90.4427 94.1971 9.1869 -28.9049 -13.7358
# 3 36.7421 94.1971 241.2553 15.0901 -34.5166 -17.9278
# 4 -7.2357 9.1869 15.0901 46.3432 -10.9615 -19.6652
# 5 -9.0921 -28.9049 -34.5166 -10.9615 38.9130 8.4676
# 6 -7.7312 -13.7358 -17.9278 -19.6652 8.4676 49.2982
#
#
#
# Elastic Compliance Matrix: (Units=1/GPa)
#
#
# Indices 1 2 3 4 5 6 
#
# 1 0.024416 -0.012184 0.000646 0.007278 -0.001558 0.003840
# 2 -0.012184 0.027734 -0.007287 -0.002359 0.010535 0.000416
# 3 0.000646 -0.007287 0.007059 -0.000421 0.000808 0.000331
# 4 0.007278 -0.002359 -0.000421 0.029307 0.005417 0.011091
# 5 -0.001558 0.010535 0.000808 0.005417 0.035614 -0.000971
# 6 0.003840 0.000416 0.000331 0.011091 -0.000971 0.025714
#
#
# Mechanical properties :
#
#
# Convention : Reuss Voigt Hill
#
# Bulk Modulus (GPa) = 46.38585 81.87295 64.12940
# Shear Modulus (GPa) = 25.68295 41.80335 33.74315
#
# Velocity S-wave (km/s) = 3.13898 4.00472 3.59798
# Velocity P-wave (km/s) = 5.56178 7.26595 6.47022
#
# Compressibility (1/GPa) = 0.02155830
#
# Stress axis : x y z
#
# Youngs Moduli (GPa) = 40.95613 36.05638 141.67280
#
# Poissons Ratio (x) = 0.43931 -0.09150
# Poissons Ratio (y) = 0.49901 1.03243
# Poissons Ratio (z) = -0.02645 0.26276
#
# Static dielectric constant tensor:
#      x y z
#    x 2.182870 0.103060 0.118980 
#    y 0.103060 2.144250 0.124500 
#    z 0.118980 0.124500 2.362670 
# 
# From -- ./inp_files/421865.got.cif
#   From: 2010.05.17/outbox.cif.g08.bks.cpg/sg2_211_cif.got.tgz:421865.got - 2010.06.03 11:33:40.
