data_PCOD9093004
_publ_section_title
;
Structure prediction by ZEFSAII (Michael W. Deem and Ramdas Pophale) SiO2 
 PCOD9093004
Probable space group: P -1
;
_chemical_formula_sum "Si O2"
_cell_formula_units_Z 16
_cell_length_a 14.900401
_cell_length_b 14.994596
_cell_length_c 12.285947
_cell_angle_alpha 149.856149
_cell_angle_beta 131.510531
_cell_angle_gamma 37.853461
_cell_volume 844.092435
_symmetry_space_group_name_H-M "P -1"
_symmetry_group_IT_number 2
_symmetry_cell_setting 'triclinic'
loop_
_space_group_symop_operation_xyz
x,y,z
-x,-y,-z
loop_
_atom_site_type_symbol
_atom_site_label
_atom_site_fract_x
_atom_site_fract_y
_atom_site_fract_z
Si Si1 0.113698 0.262658 0.797180
Si Si2 0.493973 0.623066 0.965006
Si Si3 0.661231 0.428532 0.694966
Si Si4 0.368490 0.110188 0.685188
Si Si5 0.497562 0.085378 0.970002
Si Si6 0.300779 0.814339 0.196204
Si Si7 0.924516 0.078978 0.695332
Si Si8 0.763547 0.031842 0.209214
O O1 0.208210 0.257344 0.767211
O O2 0.045862 0.135091 0.565796
O O3 0.212616 0.118773 0.827261
O O4 0.000000 0.500000 0.000000
O O5 0.566784 0.758162 0.163879
O O6 0.335145 0.766222 0.045009
O O7 0.521212 0.519012 0.757447
O O8 0.594932 0.415249 0.902293
O O9 0.627043 0.654577 0.862476
O O10 0.802363 0.279984 0.731824
O O11 0.683645 0.271144 0.450345
O O12 0.355809 0.962808 0.434049
O O13 0.469131 0.980704 0.734984
O O14 0.657357 0.039199 0.042279
O O15 0.500000 0.000000 0.000000
O O16 0.146754 0.904958 0.227510
O O17 0.075216 0.056200 0.795469
#
# Coordination Sequence:
#
# PCOD9093004 Si02
#       8
#     2   2   2   2   2   2   2   2
#     4  10  20  30  50  76 107 138 172 215 267 313
#     4   9  18  30  57  78 102 135 175 227 272 298
#     4   9  19  35  52  77 104 136 177 214 263 308
#     4  10  20  34  51  77 112 136 176 219 268 307
#     4  11  22  33  47  77 110 149 172 207 264 323
#     4   9  18  35  52  82 102 131 184 225 263 310
#     4   9  20  33  54  74 106 140 174 223 265 307
#     4  11  21  33  51  76 112 145 172 212 263 327
#
# _framework density 18.955269999999999
#
# number of rings (size 3 to 8) (size 9 to 14) (size 15 to 20)
#    0.000    2.250    1.250    3.000    8.750    0.000 
#    0.000    0.000    0.000    3.000    0.000    7.875 
#    0.000    0.125    0.000    0.000    0.000    0.000 
#
# Total GULP energy -89099.465172 kJ/mol
# GULP energy per Si atom -5568.716573 kJ/mol
# Density = 1.891213 g / cm^3
# Si number density = 18.955270 Si / 1000 Ang^3
#
#
#
# Elastic Constant Matrix: (Units=GPa)
#
#
# Indices 1 2 3 4 5 6 
#
# 1 207.4312 60.3121 16.2799 -32.1280 12.6914 21.7479
# 2 60.3121 60.5995 13.7791 -9.1828 13.3332 5.6339
# 3 16.2799 13.7791 47.0356 16.0061 -13.7169 -10.6119
# 4 -32.1280 -9.1828 16.0061 43.1112 -6.8227 0.9452
# 5 12.6914 13.3332 -13.7169 -6.8227 38.3401 12.0128
# 6 21.7479 5.6339 -10.6119 0.9452 12.0128 36.2891
#
#
#
# Elastic Compliance Matrix: (Units=1/GPa)
#
#
# Indices 1 2 3 4 5 6 
#
# 1 0.008668 -0.005999 -0.004887 0.007236 0.000668 -0.006102
# 2 -0.005999 0.027802 -0.010512 0.003672 -0.010679 -0.000356
# 3 -0.004887 -0.010512 0.038634 -0.018614 0.011896 0.012405
# 4 0.007236 0.003672 -0.018614 0.036474 -0.000336 -0.011189
# 5 0.000668 -0.010679 0.011896 -0.000336 0.036021 -0.007179
# 6 -0.006102 -0.000356 0.012405 -0.011189 -0.007179 0.037564
#
#
# Mechanical properties :
#
#
# Convention : Reuss Voigt Hill
#
# Bulk Modulus (GPa) = 30.95269 55.08983 43.02126
# Shear Modulus (GPa) = 20.94426 38.52777 29.73602
#
# Velocity S-wave (km/s) = 3.32766 4.51329 3.96504
# Velocity P-wave (km/s) = 5.57935 7.50239 6.61116
#
# Compressibility (1/GPa) = 0.03230737
#
# Stress axis : x y z
#
# Youngs Moduli (GPa) = 115.36085 35.96901 25.88388
#
# Poissons Ratio (x) = 0.21579 0.12650
# Poissons Ratio (y) = 0.69207 0.27209
# Poissons Ratio (z) = 0.56380 0.37811
#
# Static dielectric constant tensor:
#      x y z
#    x 1.766490 -0.004030 0.008260 
#    y -0.004030 1.664470 -0.001950 
#    z 0.008260 -0.001950 1.692000 
# 
# From -- ./inp_files/456061.got.cif
#   From: 2010.05.17/outbox.cif.g08.bks.cpg/sg2_229_cif.got.tgz:456061.got - 2010.06.03 11:33:40.
