data_PCOD9093936
_publ_section_title
;
Structure prediction by ZEFSAII (Michael W. Deem and Ramdas Pophale) SiO2 
 PCOD9093936
Probable space group: P -1
;
_chemical_formula_sum "Si O2"
_cell_formula_units_Z 14
_cell_length_a 5.018143
_cell_length_b 16.578514
_cell_length_c 8.602890
_cell_angle_alpha 76.936526
_cell_angle_beta 60.517028
_cell_angle_gamma 67.694882
_cell_volume 575.719691
_symmetry_space_group_name_H-M "P -1"
_symmetry_group_IT_number 2
_symmetry_cell_setting 'triclinic'
loop_
_space_group_symop_operation_xyz
x,y,z
-x,-y,-z
loop_
_atom_site_type_symbol
_atom_site_label
_atom_site_fract_x
_atom_site_fract_y
_atom_site_fract_z
Si Si1 0.803665 0.716751 0.872967
Si Si2 0.313489 0.623549 0.150929
Si Si3 0.217153 0.212774 0.832524
Si Si4 0.456909 0.868232 0.679512
Si Si5 0.413682 0.022522 0.836017
Si Si6 0.738678 0.451924 0.141441
Si Si7 0.136440 0.883984 0.443538
O O1 0.605371 0.779408 0.770929
O O2 0.096466 0.633843 0.766128
O O3 0.577180 0.672924 0.053036
O O4 0.884505 0.772640 0.964412
O O5 0.432628 0.532238 0.249569
O O6 0.979605 0.699683 0.239271
O O7 0.324757 0.589996 0.983856
O O8 0.166240 0.120328 0.845980
O O9 0.597934 0.189721 0.700649
O O10 0.232377 0.860864 0.605751
O O11 0.775797 0.887390 0.511049
O O12 0.317727 0.948694 0.803435
O O13 0.744352 0.033296 0.665528
O O14 0.500000 0.000000 0.000000
O O15 0.000000 0.500000 0.000000
#
# Coordination Sequence:
#
# PCOD9093936 Si02
#       7
#     2   2   2   2   2   2   2
#     4  10  20  33  62  89 120 157 206 253 303 359
#     4   9  17  33  58  89 118 149 204 257 301 354
#     4   9  21  36  58  88 117 159 209 248 304 350
#     4  12  23  43  59  90 129 165 203 252 304 371
#     4  10  21  42  61  90 118 165 210 258 295 359
#     4   8  16  32  55  90 117 150 193 259 304 354
#     4  10  26  40  62  85 127 168 205 247 313 357
#
# _framework density 24.317388000000001
#
# number of rings (size 3 to 8) (size 9 to 14) (size 15 to 20)
#    0.857    1.429    1.429    0.857    6.000    0.000 
#    2.571    2.143    0.000    1.714    0.000    0.000 
#    0.000    0.000    0.000    0.000    0.000    0.000 
#
# Total GULP energy -78138.421565 kJ/mol
# GULP energy per Si atom -5581.315826 kJ/mol
# Density = 2.426204 g / cm^3
# Si number density = 24.317388 Si / 1000 Ang^3
#
#
#
# Elastic Constant Matrix: (Units=GPa)
#
#
# Indices 1 2 3 4 5 6 
#
# 1 61.7222 16.5484 14.6546 6.3044 2.4589 -8.3590
# 2 16.5484 188.0068 33.9810 5.9726 17.5847 -34.3440
# 3 14.6546 33.9810 68.5536 -2.8491 18.4615 4.0052
# 4 6.3044 5.9726 -2.8491 14.9119 -12.0149 -1.5972
# 5 2.4589 17.5847 18.4615 -12.0149 33.6447 -5.9976
# 6 -8.3590 -34.3440 4.0052 -1.5972 -5.9976 36.0331
#
#
#
# Elastic Compliance Matrix: (Units=1/GPa)
#
#
# Indices 1 2 3 4 5 6 
#
# 1 0.018851 0.000477 -0.004407 -0.010150 -0.002026 0.004530
# 2 0.000477 0.007704 -0.003880 -0.005297 -0.002535 0.007228
# 3 -0.004407 -0.003880 0.021092 -0.003219 -0.012015 -0.009208
# 4 -0.010150 -0.005297 -0.003219 0.110170 0.045587 0.005425
# 5 -0.002026 -0.002535 -0.012015 0.045587 0.055807 0.009759
# 6 0.004530 0.007228 -0.009208 0.005425 0.009759 0.038581
#
#
# Mechanical properties :
#
#
# Convention : Reuss Voigt Hill
#
# Bulk Modulus (GPa) = 31.22449 49.85008 40.53728
# Shear Modulus (GPa) = 17.95316 33.79118 25.87217
#
# Velocity S-wave (km/s) = 2.72009 3.73176 3.26534
# Velocity P-wave (km/s) = 4.76796 6.25399 5.56084
#
# Compressibility (1/GPa) = 0.03202614
#
# Stress axis : x y z
#
# Youngs Moduli (GPa) = 53.04727 129.79957 47.41040
#
# Poissons Ratio (x) = -0.06188 0.20894
# Poissons Ratio (y) = -0.02529 0.18397
# Poissons Ratio (z) = 0.23379 0.50368
#
# Static dielectric constant tensor:
#      x y z
#    x 2.102090 0.022420 -0.006610 
#    y 0.022420 2.100010 0.047320 
#    z -0.006610 0.047320 1.969620 
# 
# From -- ./inp_files/134309.got.cif
#   From: 2010.05.17/outbox.cif.g08.bks.cpg/sg2_68_cif.got.tgz:134309.got - 2010.06.03 11:33:40.
