data_PCOD9093120
_publ_section_title
;
Structure prediction by ZEFSAII (Michael W. Deem and Ramdas Pophale) SiO2 
 PCOD9093120
Probable space group: P -1
;
_chemical_formula_sum "Si O2"
_cell_formula_units_Z 16
_cell_length_a 10.859390
_cell_length_b 8.712903
_cell_length_c 8.963223
_cell_angle_alpha 57.002544
_cell_angle_beta 71.461133
_cell_angle_gamma 72.087777
_cell_volume 664.660959
_symmetry_space_group_name_H-M "P -1"
_symmetry_group_IT_number 2
_symmetry_cell_setting 'triclinic'
loop_
_space_group_symop_operation_xyz
x,y,z
-x,-y,-z
loop_
_atom_site_type_symbol
_atom_site_label
_atom_site_fract_x
_atom_site_fract_y
_atom_site_fract_z
Si Si1 0.213319 0.678024 0.140810
Si Si2 0.916152 0.741123 0.273961
Si Si3 0.420170 0.937272 0.925829
Si Si4 0.847745 0.122734 0.261878
Si Si5 0.082419 0.290370 0.066528
Si Si6 0.398248 0.621297 0.676605
Si Si7 0.657511 0.666821 0.401805
Si Si8 0.346874 0.349591 0.096628
O O1 0.284528 0.468959 0.196619
O O2 0.071964 0.690096 0.264405
O O3 0.314154 0.810417 0.087733
O O4 0.178506 0.758854 0.944319
O O5 0.809941 0.609811 0.416809
O O6 0.869034 0.914756 0.307455
O O7 0.903275 0.767961 0.082828
O O8 0.529753 0.813273 0.845777
O O9 0.357121 0.124411 0.768242
O O10 0.500000 0.000000 0.000000
O O11 0.719576 0.202743 0.364365
O O12 0.985610 0.167729 0.246322
O O13 0.224198 0.282913 0.092260
O O14 0.000000 0.500000 0.000000
O O15 0.537972 0.673811 0.557637
O O16 0.366518 0.479830 0.636889
O O17 0.399920 0.498957 0.889581
#
# Coordination Sequence:
#
# PCOD9093120 Si02
#       8
#     2   2   2   2   2   2   2   2
#     4  10  21  35  56  88 115 148 185 244 282 328
#     4  11  19  33  56  87 116 141 194 242 281 326
#     4  12  23  37  57  86 119 148 190 230 290 341
#     4  10  20  31  56  86 116 140 187 246 280 329
#     4  11  16  31  57  88 111 141 186 241 285 319
#     4  10  21  38  55  86 116 149 191 228 288 341
#     4  11  22  37  59  86 113 152 188 236 285 341
#     4  11  21  37  60  87 116 148 185 235 286 342
#
# _framework density 24.072423000000001
#
# number of rings (size 3 to 8) (size 9 to 14) (size 15 to 20)
#    0.000    1.250    7.500    1.875    1.750    0.500 
#    0.000    0.000    0.000    1.500    0.000    0.000 
#    0.000    0.000    0.000    0.000    0.000    0.000 
#
# Total GULP energy -89456.943028 kJ/mol
# GULP energy per Si atom -5591.058939 kJ/mol
# Density = 2.401763 g / cm^3
# Si number density = 24.072423 Si / 1000 Ang^3
#
#
#
# Elastic Constant Matrix: (Units=GPa)
#
#
# Indices 1 2 3 4 5 6 
#
# 1 147.8518 59.6251 63.8850 -3.8564 -57.1397 -0.4865
# 2 59.6251 141.7548 30.3816 22.1403 -23.7489 -11.5876
# 3 63.8850 30.3816 73.2298 25.6120 -40.6848 -4.6261
# 4 -3.8564 22.1403 25.6120 27.7302 -10.6925 -16.0422
# 5 -57.1397 -23.7489 -40.6848 -10.6925 47.3070 -1.7164
# 6 -0.4865 -11.5876 -4.6261 -16.0422 -1.7164 41.4933
#
#
#
# Elastic Compliance Matrix: (Units=1/GPa)
#
#
# Indices 1 2 3 4 5 6 
#
# 1 0.053747 -0.019065 -0.055613 0.104267 0.032202 0.030750
# 2 -0.019065 0.015192 0.019942 -0.042453 -0.008226 -0.010511
# 3 -0.055613 0.019942 0.094696 -0.135685 -0.007742 -0.037304
# 4 0.104267 -0.042453 -0.135685 0.279611 0.054203 0.084585
# 5 0.032202 -0.008226 -0.007742 0.054203 0.062250 0.020748
# 6 0.030750 -0.010511 -0.037304 0.084585 0.020748 0.050927
#
#
# Mechanical properties :
#
#
# Convention : Reuss Voigt Hill
#
# Bulk Modulus (GPa) = 18.46215 74.51331 46.48773
# Shear Modulus (GPa) = 7.31047 37.23573 22.27310
#
# Velocity S-wave (km/s) = 1.74455 3.93723 3.04510
# Velocity P-wave (km/s) = 3.42695 7.18958 5.63179
#
# Compressibility (1/GPa) = 0.05416487
#
# Stress axis : x y z
#
# Youngs Moduli (GPa) = 18.60555 65.82209 10.56008
#
# Poissons Ratio (x) = 1.25487 0.58728
# Poissons Ratio (y) = 0.35471 -0.21059
# Poissons Ratio (z) = 1.03471 -1.31263
#
# Static dielectric constant tensor:
#      x y z
#    x 2.002270 -0.018130 -0.003800 
#    y -0.018130 1.963610 -0.009930 
#    z -0.003800 -0.009930 1.957620 
# 
# From -- ./inp_files/257534.got.cif
#   From: 2010.05.17/outbox.cif.g08.bks.cpg/sg2_129_cif.got.tgz:257534.got - 2010.06.03 11:33:40.
