data_PCOD9093258
_publ_section_title
;
Structure prediction by ZEFSAII (Michael W. Deem and Ramdas Pophale) SiO2 
 PCOD9093258
Probable space group: P -1
;
_chemical_formula_sum "Si O2"
_cell_formula_units_Z 16
_cell_length_a 6.992425
_cell_length_b 11.237119
_cell_length_c 9.170500
_cell_angle_alpha 95.510891
_cell_angle_beta 108.483763
_cell_angle_gamma 97.248462
_cell_volume 670.812199
_symmetry_space_group_name_H-M "P -1"
_symmetry_group_IT_number 2
_symmetry_cell_setting 'triclinic'
loop_
_space_group_symop_operation_xyz
x,y,z
-x,-y,-z
loop_
_atom_site_type_symbol
_atom_site_label
_atom_site_fract_x
_atom_site_fract_y
_atom_site_fract_z
Si Si1 0.660347 0.748592 0.893772
Si Si2 0.359961 0.815503 0.286409
Si Si3 0.190344 0.408483 0.498964
Si Si4 0.600245 0.327786 0.453805
Si Si5 0.078166 0.745704 0.808527
Si Si6 0.230589 0.979568 0.029694
Si Si7 0.198390 0.595763 0.058416
Si Si8 0.632588 0.654035 0.193028
O O1 0.476930 0.706011 0.731449
O O2 0.868386 0.743510 0.851814
O O3 0.676833 0.677737 0.038988
O O4 0.651492 0.886844 0.955265
O O5 0.363930 0.790608 0.457379
O O6 0.185220 0.705682 0.178038
O O7 0.564311 0.775550 0.260693
O O8 0.311932 0.928523 0.195031
O O9 0.401592 0.368219 0.488299
O O10 0.225558 0.551442 0.484606
O O11 0.008084 0.315934 0.369449
O O12 0.200462 0.390723 0.672474
O O13 0.204169 0.879696 0.882094
O O14 0.208961 0.657515 0.911092
O O15 0.000000 0.000000 0.000000
O O16 0.416973 0.561030 0.145391
O O17 0.000000 0.500000 0.000000
#
# Coordination Sequence:
#
# PCOD9093258 Si02
#       8
#     2   2   2   2   2   2   2   2
#     4  10  20  32  53  80 112 136 174 226 264 305
#     4   8  17  32  52  76 100 137 183 211 253 317
#     4   9  17  32  54  77 106 139 183 209 256 327
#     4   9  17  30  52  79 103 137 175 217 258 310
#     4   9  18  34  57  74  99 145 183 216 255 317
#     4   9  18  34  54  78 103 139 183 218 263 310
#     4   9  17  31  53  74 102 139 180 212 256 320
#     4   9  20  33  51  83 109 135 177 220 266 313
#
# _framework density 23.851685
#
# number of rings (size 3 to 8) (size 9 to 14) (size 15 to 20)
#    0.750    2.250    0.000    0.750    3.500    1.500 
#    0.000    0.625    8.250    1.500    0.000    0.000 
#    0.000    0.000    0.000    0.000    0.000    0.000 
#
# Total GULP energy -89246.373627 kJ/mol
# GULP energy per Si atom -5577.898352 kJ/mol
# Density = 2.379740 g / cm^3
# Si number density = 23.851685 Si / 1000 Ang^3
#
#
#
# Elastic Constant Matrix: (Units=GPa)
#
#
# Indices 1 2 3 4 5 6 
#
# 1 70.0642 7.6709 28.7660 3.8569 10.0565 -4.3197
# 2 7.6709 68.4189 51.6199 5.6594 -1.3850 -4.3399
# 3 28.7660 51.6199 182.5081 -8.9472 11.4806 6.6904
# 4 3.8569 5.6594 -8.9472 36.5515 1.8980 10.7700
# 5 10.0565 -1.3850 11.4806 1.8980 37.7768 -4.4685
# 6 -4.3197 -4.3399 6.6904 10.7700 -4.4685 21.9081
#
#
#
# Elastic Compliance Matrix: (Units=1/GPa)
#
#
# Indices 1 2 3 4 5 6 
#
# 1 0.016434 0.001331 -0.003262 -0.004442 -0.002378 0.006199
# 2 0.001331 0.021850 -0.007596 -0.009291 0.004693 0.012435
# 3 -0.003262 -0.007596 0.009005 0.006504 -0.003516 -0.008812
# 4 -0.004442 -0.009291 0.006504 0.038492 -0.006008 -0.024851
# 5 -0.002378 0.004693 -0.003516 -0.006008 0.029899 0.010586
# 6 0.006199 0.012435 -0.008812 -0.024851 0.010586 0.066398
#
#
# Mechanical properties :
#
#
# Convention : Reuss Voigt Hill
#
# Bulk Modulus (GPa) = 35.41758 55.23386 45.32572
# Shear Modulus (GPa) = 23.74791 34.77625 29.26208
#
# Velocity S-wave (km/s) = 3.15881 3.82255 3.50642
# Velocity P-wave (km/s) = 5.30900 6.53376 5.95296
#
# Compressibility (1/GPa) = 0.02823456
#
# Stress axis : x y z
#
# Youngs Moduli (GPa) = 60.84844 45.76631 111.04999
#
# Poissons Ratio (x) = -0.06092 0.36226
# Poissons Ratio (y) = -0.08100 0.84358
# Poissons Ratio (z) = 0.19850 0.34766
#
# Static dielectric constant tensor:
#      x y z
#    x 2.284920 0.195460 0.371790 
#    y 0.195460 2.113520 0.339250 
#    z 0.371790 0.339250 2.569970 
# 
# From -- ./inp_files/253760.got.cif
#   From: 2010.05.17/outbox.cif.g08.bks.cpg/sg2_127_cif.got.tgz:253760.got - 2010.06.03 11:33:40.
