data_PCOD9093917
_publ_section_title
;
Structure prediction by ZEFSAII (Michael W. Deem and Ramdas Pophale) SiO2 
 PCOD9093917
Probable space group: P -1
;
_chemical_formula_sum "Si O2"
_cell_formula_units_Z 14
_cell_length_a 10.319793
_cell_length_b 7.549498
_cell_length_c 17.275055
_cell_angle_alpha 50.005521
_cell_angle_beta 138.808306
_cell_angle_gamma 99.836115
_cell_volume 532.787620
_symmetry_space_group_name_H-M "P -1"
_symmetry_group_IT_number 2
_symmetry_cell_setting 'triclinic'
loop_
_space_group_symop_operation_xyz
x,y,z
-x,-y,-z
loop_
_atom_site_type_symbol
_atom_site_label
_atom_site_fract_x
_atom_site_fract_y
_atom_site_fract_z
Si Si1 0.990633 0.754142 0.598898
Si Si2 0.641277 0.649381 0.746859
Si Si3 0.493589 0.501885 0.405861
Si Si4 0.498663 0.316081 0.870388
Si Si5 0.748046 0.384192 0.092086
Si Si6 0.216693 0.161528 0.115074
Si Si7 0.253032 0.343808 0.610131
O O1 0.251492 0.446285 0.773863
O O2 0.020850 0.761178 0.702771
O O3 0.769409 0.801804 0.434925
O O4 0.000000 0.000000 0.500000
O O5 0.576177 0.676836 0.620312
O O6 0.486541 0.572672 0.748075
O O7 0.641308 0.883750 0.728233
O O8 0.929169 0.353575 0.957713
O O9 0.500000 0.500000 0.500000
O O10 0.737687 0.416532 0.495855
O O11 0.305108 0.856124 0.204493
O O12 0.466205 0.169680 0.822670
O O13 0.723432 0.207441 0.062357
O O14 0.500000 0.500000 0.000000
O O15 0.748258 0.635213 0.979516
O O16 0.000000 0.500000 0.500000
#
# Coordination Sequence:
#
# PCOD9093917 Si02
#       7
#     2   2   2   2   2   2   2
#     4  10  20  33  61  89 118 155 208 256 307 374
#     4   9  20  40  60  88 127 159 211 260 308 378
#     4  11  24  39  66  95 126 163 216 263 316 382
#     4   8  17  38  57  77 124 158 195 256 303 369
#     4   9  19  35  60  87 117 157 213 250 297 379
#     4  10  21  40  67  85 124 172 206 258 320 369
#     4   9  20  39  59  84 129 165 193 260 325 366
#
# _framework density 26.276885
#
# number of rings (size 3 to 8) (size 9 to 14) (size 15 to 20)
#    0.000    2.571    0.000    0.429    8.000    0.571 
#    0.000   13.571   15.714    0.000    0.000    0.000 
#    0.000    0.000    0.000    0.000    0.000    0.000 
#
# Total GULP energy -77995.230725 kJ/mol
# GULP energy per Si atom -5571.087909 kJ/mol
# Density = 2.621708 g / cm^3
# Si number density = 26.276885 Si / 1000 Ang^3
#
#
#
# Elastic Constant Matrix: (Units=GPa)
#
#
# Indices 1 2 3 4 5 6 
#
# 1 117.2034 16.1058 38.0142 6.4174 -5.7137 -23.5435
# 2 16.1058 156.6858 82.7629 67.1043 -16.0555 -22.3939
# 3 38.0142 82.7629 113.4408 43.3318 -38.2373 -17.0161
# 4 6.4174 67.1043 43.3318 67.2661 -20.5737 -11.7061
# 5 -5.7137 -16.0555 -38.2373 -20.5737 43.0386 5.3191
# 6 -23.5435 -22.3939 -17.0161 -11.7061 5.3191 40.2421
#
#
#
# Elastic Compliance Matrix: (Units=1/GPa)
#
#
# Indices 1 2 3 4 5 6 
#
# 1 0.011073 0.002179 -0.005708 0.000457 -0.003292 0.005845
# 2 0.002179 0.016595 -0.010861 -0.011990 -0.009354 0.003666
# 3 -0.005708 -0.010861 0.023792 0.001024 0.016974 -0.001269
# 4 0.000457 -0.011990 0.001024 0.029541 0.010466 0.001238
# 5 -0.003292 -0.009354 0.016974 0.010466 0.039658 -0.002151
# 6 0.005845 0.003666 -0.001269 0.001238 -0.002151 0.030417
#
#
# Mechanical properties :
#
#
# Convention : Reuss Voigt Hill
#
# Bulk Modulus (GPa) = 44.08964 73.45508 58.77236
# Shear Modulus (GPa) = 26.67880 46.80584 36.74232
#
# Velocity S-wave (km/s) = 3.18983 4.22507 3.74341
# Velocity P-wave (km/s) = 5.51198 7.19837 6.41087
#
# Compressibility (1/GPa) = 0.02268107
#
# Stress axis : x y z
#
# Youngs Moduli (GPa) = 90.31278 60.25765 42.03175
#
# Poissons Ratio (x) = -0.13130 0.23990
# Poissons Ratio (y) = -0.19679 0.45649
# Poissons Ratio (z) = 0.51547 0.65444
#
# Static dielectric constant tensor:
#      x y z
#    x 2.097520 0.016030 0.037580 
#    y 0.016030 2.131480 0.087590 
#    z 0.037580 0.087590 2.134710 
# 
# From -- ./inp_files/295410.got.cif
#   From: 2010.05.17/outbox.cif.g08.bks.cpg/sg2_148_cif.got.tgz:295410.got - 2010.06.03 11:33:40.
