data_PCOD9093715
_publ_section_title
;
Structure prediction by ZEFSAII (Michael W. Deem and Ramdas Pophale) SiO2 
 PCOD9093715
Probable space group: P -1
;
_chemical_formula_sum "Si O2"
_cell_formula_units_Z 16
_cell_length_a 11.010716
_cell_length_b 14.089184
_cell_length_c 21.347630
_cell_angle_alpha 151.110012
_cell_angle_beta 155.848257
_cell_angle_gamma 30.299318
_cell_volume 618.816970
_symmetry_space_group_name_H-M "P -1"
_symmetry_group_IT_number 2
_symmetry_cell_setting 'triclinic'
loop_
_space_group_symop_operation_xyz
x,y,z
-x,-y,-z
loop_
_atom_site_type_symbol
_atom_site_label
_atom_site_fract_x
_atom_site_fract_y
_atom_site_fract_z
Si Si1 0.239692 0.617737 0.307385
Si Si2 0.343255 0.243549 0.047931
Si Si3 0.116541 0.778441 0.802670
Si Si4 0.762859 0.672359 0.766282
Si Si5 0.475993 0.125676 0.852348
Si Si6 0.801142 0.954156 0.439412
Si Si7 0.893967 0.568372 0.330109
Si Si8 0.166233 0.785820 0.132852
O O1 0.362419 0.432560 0.209505
O O2 0.359197 0.506735 0.366103
O O3 0.327929 0.824103 0.460747
O O4 0.855601 0.712242 0.186272
O O5 0.544478 0.266458 0.096908
O O6 0.979342 0.257317 0.894176
O O7 0.500000 0.000000 0.000000
O O8 0.997985 0.583622 0.647186
O O9 0.217300 0.839180 0.953935
O O10 0.894497 0.970671 0.769268
O O11 0.982265 0.567879 0.751975
O O12 0.517606 0.891581 0.759013
O O13 0.958866 0.725385 0.946402
O O14 0.447828 0.122747 0.762018
O O15 0.955437 0.782174 0.464770
O O16 0.000000 0.000000 0.500000
O O17 0.520419 0.648423 0.211224
#
# Coordination Sequence:
#
# PCOD9093715 Si02
#       8
#     2   2   2   2   2   2   2   2
#     4  10  20  41  59  80 118 156 192 238 276 338
#     4   9  19  41  65  84 114 147 195 237 289 340
#     4  10  22  35  57  91 115 144 189 247 287 335
#     4  10  20  33  56  86 115 151 189 231 290 344
#     4  10  21  35  57  89 118 150 186 232 292 347
#     4  10  22  40  54  81 120 160 193 224 286 346
#     4  12  22  33  57  84 120 154 191 233 288 341
#     4   9  21  35  56  85 117 147 187 238 292 338
#
# _framework density 25.855789999999999
#
# number of rings (size 3 to 8) (size 9 to 14) (size 15 to 20)
#    0.000    2.000    2.500    2.625    3.500    3.500 
#    0.000    0.625    0.000    3.000    0.000    0.000 
#    0.000    0.000    0.000    0.000    0.000    0.000 
#
# Total GULP energy -89298.572670 kJ/mol
# GULP energy per Si atom -5581.160792 kJ/mol
# Density = 2.579694 g / cm^3
# Si number density = 25.855790 Si / 1000 Ang^3
#
#
#
# Elastic Constant Matrix: (Units=GPa)
#
#
# Indices 1 2 3 4 5 6 
#
# 1 112.2365 48.3534 25.0938 35.2917 30.6140 9.7958
# 2 48.3534 186.2820 37.7391 34.8960 8.3135 6.7194
# 3 25.0938 37.7391 48.5518 28.2381 13.8339 -1.0334
# 4 35.2917 34.8960 28.2381 54.7478 5.1676 12.4553
# 5 30.6140 8.3135 13.8339 5.1676 35.9572 18.9492
# 6 9.7958 6.7194 -1.0334 12.4553 18.9492 37.4227
#
#
#
# Elastic Compliance Matrix: (Units=1/GPa)
#
#
# Indices 1 2 3 4 5 6 
#
# 1 0.017807 -0.003000 0.007837 -0.014250 -0.021654 0.011801
# 2 -0.003000 0.007098 -0.005818 0.000712 0.004796 -0.003315
# 3 0.007837 -0.005818 0.048473 -0.029355 -0.034210 0.027424
# 4 -0.014250 0.000712 -0.029355 0.045617 0.031693 -0.028439
# 5 -0.021654 0.004796 -0.034210 0.031693 0.078112 -0.046239
# 6 0.011801 -0.003315 0.027424 -0.028439 -0.046239 0.057864
#
#
# Mechanical properties :
#
#
# Convention : Reuss Voigt Hill
#
# Bulk Modulus (GPa) = 14.00242 63.27142 38.63692
# Shear Modulus (GPa) = 17.81030 41.35114 29.58072
#
# Velocity S-wave (km/s) = 2.62741 4.00346 3.38607
# Velocity P-wave (km/s) = 3.82514 6.77453 5.50118
#
# Compressibility (1/GPa) = 0.07141624
#
# Stress axis : x y z
#
# Youngs Moduli (GPa) = 56.15770 140.89150 20.63024
#
# Poissons Ratio (x) = 0.42264 -0.16168
# Poissons Ratio (y) = 0.16846 0.12002
# Poissons Ratio (z) = -0.44011 0.81967
#
# Static dielectric constant tensor:
#      x y z
#    x 2.080960 0.025270 0.064530 
#    y 0.025270 2.077460 -0.021000 
#    z 0.064530 -0.021000 2.190370 
# 
# From -- ./inp_files/610540.got.cif
#   From: 2010.05.17/outbox.cif.g08.bks.cpg/sg2_306_cif.got.tgz:610540.got - 2010.06.03 11:33:40.
