data_PCOD9093200
_publ_section_title
;
Structure prediction by ZEFSAII (Michael W. Deem and Ramdas Pophale) SiO2 
 PCOD9093200
Probable space group: P -1
;
_chemical_formula_sum "Si O2"
_cell_formula_units_Z 16
_cell_length_a 8.859100
_cell_length_b 9.604285
_cell_length_c 10.212985
_cell_angle_alpha 55.934861
_cell_angle_beta 124.032206
_cell_angle_gamma 110.498051
_cell_volume 595.712091
_symmetry_space_group_name_H-M "P -1"
_symmetry_group_IT_number 2
_symmetry_cell_setting 'triclinic'
loop_
_space_group_symop_operation_xyz
x,y,z
-x,-y,-z
loop_
_atom_site_type_symbol
_atom_site_label
_atom_site_fract_x
_atom_site_fract_y
_atom_site_fract_z
Si Si1 0.132037 0.623821 0.710856
Si Si2 0.386652 0.051817 0.789964
Si Si3 0.474921 0.411432 0.692387
Si Si4 0.894471 0.407372 0.876511
Si Si5 0.967627 0.123522 0.242200
Si Si6 0.477621 0.291655 0.053300
Si Si7 0.305523 0.747804 0.476827
Si Si8 0.322394 0.102387 0.280315
O O1 0.062439 0.761993 0.705641
O O2 0.344765 0.597343 0.868237
O O3 0.151445 0.691745 0.537683
O O4 0.996941 0.464827 0.763703
O O5 0.432261 0.244126 0.675113
O O6 0.171599 0.034230 0.722304
O O7 0.439699 0.897821 0.805280
O O8 0.500000 0.000000 0.000000
O O9 0.688123 0.459443 0.758030
O O10 0.364242 0.575965 0.532124
O O11 0.439015 0.347991 0.857985
O O12 0.896053 0.216138 0.027893
O O13 0.000000 0.500000 0.000000
O O14 0.177665 0.103198 0.327764
O O15 0.306893 0.247480 0.087586
O O16 0.483645 0.830587 0.597820
O O17 0.270365 0.916781 0.291332
#
# Coordination Sequence:
#
# PCOD9093200 Si02
#       8
#     2   2   2   2   2   2   2   2
#     4   9  18  31  53  81 107 135 175 220 268 317
#     4   9  17  36  54  80 106 137 180 223 262 309
#     4  11  19  34  58  79 109 137 175 225 266 310
#     4  10  16  29  51  84 103 128 171 222 263 309
#     4  10  18  33  54  78 107 142 175 219 264 313
#     4   9  18  34  56  80 104 142 176 216 269 316
#     4  10  22  36  51  81 113 142 173 217 269 320
#     4  10  22  36  54  78 112 143 176 216 267 322
#
# _framework density 26.858612000000001
#
# number of rings (size 3 to 8) (size 9 to 14) (size 15 to 20)
#    0.000    2.250    5.000    1.500    1.750    1.500 
#    0.000    7.500    0.000    0.000    0.000    0.000 
#    0.000    0.000    0.000    0.000    0.000    0.000 
#
# Total GULP energy -89437.097069 kJ/mol
# GULP energy per Si atom -5589.818567 kJ/mol
# Density = 2.679748 g / cm^3
# Si number density = 26.858612 Si / 1000 Ang^3
#
#
#
# Elastic Constant Matrix: (Units=GPa)
#
#
# Indices 1 2 3 4 5 6 
#
# 1 112.1258 32.4349 31.3046 -12.7831 -16.5639 33.5340
# 2 32.4349 87.3004 39.4665 -26.8385 -1.5253 6.7834
# 3 31.3046 39.4665 95.1284 -30.6627 -25.8873 7.8415
# 4 -12.7831 -26.8385 -30.6627 46.6393 3.3096 -6.3304
# 5 -16.5639 -1.5253 -25.8873 3.3096 48.0496 -13.9101
# 6 33.5340 6.7834 7.8415 -6.3304 -13.9101 37.8664
#
#
#
# Elastic Compliance Matrix: (Units=1/GPa)
#
#
# Indices 1 2 3 4 5 6 
#
# 1 0.013925 -0.003564 -0.002632 -0.001514 0.000081 -0.011371
# 2 -0.003564 0.016627 -0.004895 0.005739 -0.003481 0.000872
# 3 -0.002632 -0.004895 0.018359 0.008442 0.009493 0.004305
# 4 -0.001514 0.005739 0.008442 0.030296 0.003550 0.004934
# 5 0.000081 -0.003481 0.009493 0.003550 0.028380 0.009604
# 6 -0.011371 0.000872 0.004305 0.004934 0.009604 0.039784
#
#
# Mechanical properties :
#
#
# Convention : Reuss Voigt Hill
#
# Bulk Modulus (GPa) = 37.41316 55.66294 46.53805
# Shear Modulus (GPa) = 28.01709 39.26764 33.64237
#
# Velocity S-wave (km/s) = 3.23326 3.82778 3.54301
# Velocity P-wave (km/s) = 5.28191 6.34864 5.83968
#
# Compressibility (1/GPa) = 0.02672856
#
# Stress axis : x y z
#
# Youngs Moduli (GPa) = 71.81509 60.14216 54.46998
#
# Poissons Ratio (x) = 0.21434 0.14338
# Poissons Ratio (y) = 0.25595 0.26662
# Poissons Ratio (z) = 0.18904 0.29438
#
# Static dielectric constant tensor:
#      x y z
#    x 2.188960 -0.041810 0.098960 
#    y -0.041810 2.111200 -0.076820 
#    z 0.098960 -0.076820 2.256910 
# 
# From -- ./inp_files/256626.got.cif
#   From: 2010.05.17/outbox.cif.g08.bks.cpg/sg2_129_cif.got.tgz:256626.got - 2010.06.03 11:33:40.
