data_PCOD9093130
_publ_section_title
;
Structure prediction by ZEFSAII (Michael W. Deem and Ramdas Pophale) SiO2 
 PCOD9093130
Probable space group: P -1
;
_chemical_formula_sum "Si O2"
_cell_formula_units_Z 16
_cell_length_a 11.767162
_cell_length_b 5.442663
_cell_length_c 16.725108
_cell_angle_alpha 75.147705
_cell_angle_beta 135.329793
_cell_angle_gamma 106.843238
_cell_volume 718.729562
_symmetry_space_group_name_H-M "P -1"
_symmetry_group_IT_number 2
_symmetry_cell_setting 'triclinic'
loop_
_space_group_symop_operation_xyz
x,y,z
-x,-y,-z
loop_
_atom_site_type_symbol
_atom_site_label
_atom_site_fract_x
_atom_site_fract_y
_atom_site_fract_z
Si Si1 0.074224 0.102897 0.402008
Si Si2 0.459445 0.854163 0.909832
Si Si3 0.189331 0.083470 0.117784
Si Si4 0.755404 0.621839 0.125300
Si Si5 0.012232 0.063259 0.187600
Si Si6 0.165287 0.568118 0.524700
Si Si7 0.726325 0.798572 0.279405
Si Si8 0.820803 0.369387 0.952892
O O1 0.180979 0.870694 0.488791
O O2 0.898260 0.987619 0.364537
O O3 0.140128 0.377404 0.451748
O O4 0.055582 0.129279 0.295039
O O5 0.286827 0.677543 0.856088
O O6 0.424018 0.044801 0.807356
O O7 0.607029 0.692839 0.990758
O O8 0.500000 0.000000 0.000000
O O9 0.259361 0.372807 0.099885
O O10 0.164194 0.094795 0.199822
O O11 0.259257 0.845062 0.132760
O O12 0.000000 0.000000 0.000000
O O13 0.743131 0.722085 0.201599
O O14 0.924981 0.765175 0.165344
O O15 0.871625 0.220521 0.069396
O O16 0.293931 0.451827 0.654664
O O17 0.000000 0.500000 0.500000
O O18 0.000000 0.500000 0.000000
#
# Coordination Sequence:
#
# PCOD9093130 Si02
#       8
#     2   2   2   2   2   2   2   2
#     4  10  21  28  43  68  86 109 157 187 214 253
#     4   9  18  32  41  60  82 108 155 190 228 262
#     4   8  15  28  42  63  88 118 142 162 210 274
#     4   9  18  30  44  62  83 110 158 187 218 259
#     4   9  17  29  44  67  88 124 142 185 214 254
#     4  10  20  32  42  62  85 112 151 194 217 264
#     4   9  18  29  45  54  78 121 142 183 232 255
#     4   8  15  28  42  63  88 118 142 162 210 274
#
# _framework density 22.261500999999999
#
# number of rings (size 3 to 8) (size 9 to 14) (size 15 to 20)
#    0.000    3.250    0.000    1.500    7.000    4.000 
#   18.000    0.000    0.000    0.000    0.000    0.000 
#    0.000    0.000    0.000   60.750    0.000    0.000 
#
# Total GULP energy -89146.185554 kJ/mol
# GULP energy per Si atom -5571.636597 kJ/mol
# Density = 2.221083 g / cm^3
# Si number density = 22.261501 Si / 1000 Ang^3
#
#
#
# Elastic Constant Matrix: (Units=GPa)
#
#
# Indices 1 2 3 4 5 6 
#
# 1 72.4692 28.7422 24.2808 -1.3730 -24.0139 -5.2556
# 2 28.7422 145.1110 29.7700 -10.4685 -9.6061 -22.3514
# 3 24.2808 29.7700 88.3438 -24.3745 -17.7044 -8.4939
# 4 -1.3730 -10.4685 -24.3745 27.7652 -1.1966 -3.1685
# 5 -24.0139 -9.6061 -17.7044 -1.1966 26.3397 2.0514
# 6 -5.2556 -22.3514 -8.4939 -3.1685 2.0514 19.2111
#
#
#
# Elastic Compliance Matrix: (Units=1/GPa)
#
#
# Indices 1 2 3 4 5 6 
#
# 1 0.021093 -0.002783 -0.001654 -0.000739 0.017081 -0.000145
# 2 -0.002783 0.009503 -0.000032 0.004687 0.000261 0.011026
# 3 -0.001654 -0.000032 0.020833 0.019954 0.012559 0.010671
# 4 -0.000739 0.004687 0.019954 0.058446 0.015384 0.022070
# 5 0.017081 0.000261 0.012559 0.015384 0.062274 0.006417
# 6 -0.000145 0.011026 0.010671 0.022070 0.006417 0.072515
#
#
# Mechanical properties :
#
#
# Convention : Reuss Voigt Hill
#
# Bulk Modulus (GPa) = 23.53486 52.39000 37.96243
# Shear Modulus (GPa) = 18.67314 29.53860 24.10587
#
# Velocity S-wave (km/s) = 2.89936 3.64660 3.29424
# Velocity P-wave (km/s) = 4.66941 6.42770 5.61777
#
# Compressibility (1/GPa) = 0.04249016
#
# Stress axis : x y z
#
# Youngs Moduli (GPa) = 47.40997 105.23231 48.00084
#
# Poissons Ratio (x) = 0.29291 0.07939
# Poissons Ratio (y) = 0.13196 0.00152
# Poissons Ratio (z) = 0.07841 0.00334
#
# Static dielectric constant tensor:
#      x y z
#    x 1.932450 -0.076690 0.012670 
#    y -0.076690 1.959650 -0.057420 
#    z 0.012670 -0.057420 1.894880 
# 
# From -- ./inp_files/571528.got.cif
#   From: 2010.05.17/outbox.cif.g08.bks.cpg/sg2_286_cif.got.tgz:571528.got - 2010.06.03 11:33:40.
