data_PCOD9093578
_publ_section_title
;
Structure prediction by ZEFSAII (Michael W. Deem and Ramdas Pophale) SiO2 
 PCOD9093578
Probable space group: P -1
;
_chemical_formula_sum "Si O2"
_cell_formula_units_Z 16
_cell_length_a 10.875515
_cell_length_b 11.541680
_cell_length_c 10.142775
_cell_angle_alpha 58.030938
_cell_angle_beta 118.947469
_cell_angle_gamma 74.188459
_cell_volume 663.395804
_symmetry_space_group_name_H-M "P -1"
_symmetry_group_IT_number 2
_symmetry_cell_setting 'triclinic'
loop_
_space_group_symop_operation_xyz
x,y,z
-x,-y,-z
loop_
_atom_site_type_symbol
_atom_site_label
_atom_site_fract_x
_atom_site_fract_y
_atom_site_fract_z
Si Si1 0.755296 0.685571 0.493768
Si Si2 0.314566 0.080555 0.041241
Si Si3 0.308290 0.383180 0.764714
Si Si4 0.465694 0.531610 0.621982
Si Si5 0.952804 0.793113 0.428516
Si Si6 0.879618 0.067465 0.665323
Si Si7 0.125922 0.633860 0.057028
Si Si8 0.713357 0.922106 0.665808
O O1 0.818628 0.583081 0.446500
O O2 0.820620 0.798071 0.457395
O O3 0.831510 0.520126 0.731320
O O4 0.515723 0.853811 0.272324
O O5 0.240673 0.115121 0.130636
O O6 0.376054 0.195518 0.977834
O O7 0.161809 0.139447 0.813107
O O8 0.458203 0.389071 0.774961
O O9 0.161469 0.567109 0.671441
O O10 0.500000 0.500000 0.500000
O O11 0.248838 0.751076 0.408848
O O12 0.652655 0.485279 0.808695
O O13 0.015159 0.907073 0.400408
O O14 0.710256 0.079639 0.519348
O O15 0.047693 0.841121 0.935888
O O16 0.919201 0.725929 0.825458
O O17 0.500000 0.000000 0.500000
#
# Coordination Sequence:
#
# PCOD9093578 Si02
#       8
#     2   2   2   2   2   2   2   2
#     4  11  20  34  53  91 123 159 192 232 301 380
#     4  11  22  33  59  85 122 158 201 242 301 354
#     4  10  20  33  53  86 127 163 182 236 296 378
#     4  11  21  35  57  94 129 152 192 233 297 377
#     4  10  20  36  56  87 125 155 190 233 312 370
#     4   9  24  37  60  85 120 155 197 243 304 347
#     4  10  22  36  60  80 120 159 195 243 295 341
#     4  10  23  42  62  80 113 161 213 252 289 339
#
# _framework density 24.118331999999999
#
# number of rings (size 3 to 8) (size 9 to 14) (size 15 to 20)
#    0.750    1.000    1.250    5.250    5.250    1.000 
#    0.000    2.500    0.000    9.750    0.000    0.000 
#    0.000    0.000    0.000    0.000    0.000    0.000 
#
# Total GULP energy -89085.528210 kJ/mol
# GULP energy per Si atom -5567.845513 kJ/mol
# Density = 2.406344 g / cm^3
# Si number density = 24.118332 Si / 1000 Ang^3
#
#
#
# Elastic Constant Matrix: (Units=GPa)
#
#
# Indices 1 2 3 4 5 6 
#
# 1 160.7422 6.5007 33.7297 -4.8371 5.9238 37.1360
# 2 6.5007 32.5480 27.8839 -13.8907 -8.4819 4.6405
# 3 33.7297 27.8839 98.9862 -29.4700 8.8234 8.9434
# 4 -4.8371 -13.8907 -29.4700 36.7209 4.1385 -3.7326
# 5 5.9238 -8.4819 8.8234 4.1385 39.6755 -11.2734
# 6 37.1360 4.6405 8.9434 -3.7326 -11.2734 31.0432
#
#
#
# Elastic Compliance Matrix: (Units=1/GPa)
#
#
# Indices 1 2 3 4 5 6 
#
# 1 0.009767 0.000014 -0.002131 -0.001217 -0.004507 -0.012855
# 2 0.000014 0.047518 -0.012803 0.006454 0.012908 0.002032
# 3 -0.002131 -0.012803 0.018524 0.010416 -0.008382 -0.002665
# 4 -0.001217 0.006454 0.010416 0.038440 -0.004644 0.000426
# 5 -0.004507 0.012908 -0.008382 -0.004644 0.036236 0.018478
# 6 -0.012855 0.002032 -0.002665 0.000426 0.018478 0.054817
#
#
# Mechanical properties :
#
#
# Convention : Reuss Voigt Hill
#
# Bulk Modulus (GPa) = 21.75410 47.61165 34.68288
# Shear Modulus (GPa) = 19.96281 36.43206 28.19743
#
# Velocity S-wave (km/s) = 2.88010 3.89080 3.42296
# Velocity P-wave (km/s) = 4.48323 6.32204 5.48030
#
# Compressibility (1/GPa) = 0.04596834
#
# Stress axis : x y z
#
# Youngs Moduli (GPa) = 102.38286 21.04477 53.98304
#
# Poissons Ratio (x) = -0.00029 0.11505
# Poissons Ratio (y) = -0.00142 0.69115
# Poissons Ratio (z) = 0.21821 0.26944
#
# Static dielectric constant tensor:
#      x y z
#    x 1.980860 0.033150 0.045240 
#    y 0.033150 2.032040 0.023650 
#    z 0.045240 0.023650 1.906210 
# 
# From -- ./inp_files/431108.got.cif
#   From: 2010.05.17/outbox.cif.g08.bks.cpg/sg2_216_cif.got.tgz:431108.got - 2010.06.03 11:33:40.
