data_PCOD9093279
_publ_section_title
;
Structure prediction by ZEFSAII (Michael W. Deem and Ramdas Pophale) SiO2 
 PCOD9093279
Probable space group: P -1
;
_chemical_formula_sum "Si O2"
_cell_formula_units_Z 14
_cell_length_a 7.711847
_cell_length_b 14.682893
_cell_length_c 9.054376
_cell_angle_alpha 57.650409
_cell_angle_beta 131.314166
_cell_angle_gamma 142.630530
_cell_volume 467.270461
_symmetry_space_group_name_H-M "P -1"
_symmetry_group_IT_number 2
_symmetry_cell_setting 'triclinic'
loop_
_space_group_symop_operation_xyz
x,y,z
-x,-y,-z
loop_
_atom_site_type_symbol
_atom_site_label
_atom_site_fract_x
_atom_site_fract_y
_atom_site_fract_z
Si Si1 0.040730 0.010400 0.336620
Si Si2 0.036009 0.607953 0.135567
Si Si3 0.233259 0.775133 0.802053
Si Si4 0.797278 0.728866 0.343893
Si Si5 0.585378 0.718407 0.837648
Si Si6 0.312028 0.545855 0.552128
Si Si7 0.341110 0.890380 0.274045
O O1 0.063998 0.114045 0.140183
O O2 0.408439 0.081838 0.489150
O O3 0.754271 0.840141 0.266876
O O4 0.000000 0.000000 0.500000
O O5 0.247253 0.570663 0.330579
O O6 0.176939 0.747957 0.199098
O O7 0.663464 0.456676 0.092895
O O8 0.086990 0.660560 0.952804
O O9 0.960294 0.737067 0.577449
O O10 0.432135 0.759785 0.821773
O O11 0.444259 0.946713 0.817848
O O12 0.050292 0.833488 0.262293
O O13 0.650741 0.569511 0.337646
O O14 0.569737 0.682275 0.683811
O O15 0.000000 0.500000 0.500000
#
# Coordination Sequence:
#
# PCOD9093279 Si02
#       7
#     2   2   2   2   2   2   2
#     4  11  22  35  56  78 102 139 184 217 253 311
#     4  11  19  29  51  87 111 127 169 222 269 304
#     4  11  19  27  51  88 107 131 168 223 262 309
#     4  11  18  35  55  78 105 137 177 218 260 302
#     4  11  18  33  53  76 108 137 169 215 262 301
#     4  10  16  29  52  75 108 133 161 217 263 297
#     4  11  18  36  55  77 107 136 176 221 261 303
#
# _framework density 29.961234000000001
#
# number of rings (size 3 to 8) (size 9 to 14) (size 15 to 20)
#    0.000    1.143   10.000    1.714    0.000    0.000 
#    0.000    0.714    0.000    4.286    0.000    0.000 
#    0.000    0.000    0.000    0.000    0.000    0.000 
#
# Total GULP energy -78109.213240 kJ/mol
# GULP energy per Si atom -5579.229517 kJ/mol
# Density = 2.989304 g / cm^3
# Si number density = 29.961234 Si / 1000 Ang^3
#
#
#
# Elastic Constant Matrix: (Units=GPa)
#
#
# Indices 1 2 3 4 5 6 
#
# 1 69.7324 52.7165 27.9200 1.1363 -5.6916 -16.8672
# 2 52.7165 226.7162 74.1368 -32.6052 2.8922 -17.0438
# 3 27.9200 74.1368 217.2322 -33.7024 -21.8015 7.4667
# 4 1.1363 -32.6052 -33.7024 52.4541 7.5665 -14.5231
# 5 -5.6916 2.8922 -21.8015 7.5665 47.0316 1.1194
# 6 -16.8672 -17.0438 7.4667 -14.5231 1.1194 44.6521
#
#
#
# Elastic Compliance Matrix: (Units=1/GPa)
#
#
# Indices 1 2 3 4 5 6 
#
# 1 0.019497 -0.004104 -0.001496 -0.002859 0.002258 0.005063
# 2 -0.004104 0.006698 -0.001397 0.004453 -0.002338 0.002747
# 3 -0.001496 -0.001397 0.005899 0.002228 0.002315 -0.001418
# 4 -0.002859 0.004453 0.002228 0.026381 -0.004044 0.008929
# 5 0.002258 -0.002338 0.002315 -0.004044 0.023458 -0.002330
# 6 0.005063 0.002747 -0.001418 0.008929 -0.002330 0.028556
#
#
# Mechanical properties :
#
#
# Convention : Reuss Voigt Hill
#
# Bulk Modulus (GPa) = 55.24443 91.46972 73.35708
# Shear Modulus (GPa) = 38.30894 52.75472 45.53183
#
# Velocity S-wave (km/s) = 3.57965 4.20070 3.90255
# Velocity P-wave (km/s) = 5.96355 7.35687 6.69654
#
# Compressibility (1/GPa) = 0.01810137
#
# Stress axis : x y z
#
# Youngs Moduli (GPa) = 51.28917 149.28719 169.51763
#
# Poissons Ratio (x) = 0.61260 0.25366
# Poissons Ratio (y) = 0.21047 0.23679
# Poissons Ratio (z) = 0.07675 0.20853
#
# Static dielectric constant tensor:
#      x y z
#    x 2.732080 -0.021260 0.097370 
#    y -0.021260 2.319050 0.009610 
#    z 0.097370 0.009610 2.465900 
# 
# From -- ./inp_files/195682.got.cif
#   From: 2010.05.17/outbox.cif.g08.bks.cpg/sg2_98_cif.got.tgz:195682.got - 2010.06.03 11:33:40.
