data_PCOD9093743
_publ_section_title
;
Structure prediction by ZEFSAII (Michael W. Deem and Ramdas Pophale) SiO2 
 PCOD9093743
Probable space group: P -1
;
_chemical_formula_sum "Si O2"
_cell_formula_units_Z 14
_cell_length_a 10.965006
_cell_length_b 15.818518
_cell_length_c 13.972383
_cell_angle_alpha 141.724473
_cell_angle_beta 30.078222
_cell_angle_gamma 150.373306
_cell_volume 595.149009
_symmetry_space_group_name_H-M "P -1"
_symmetry_group_IT_number 2
_symmetry_cell_setting 'triclinic'
loop_
_space_group_symop_operation_xyz
x,y,z
-x,-y,-z
loop_
_atom_site_type_symbol
_atom_site_label
_atom_site_fract_x
_atom_site_fract_y
_atom_site_fract_z
Si Si1 0.734170 0.023109 0.784353
Si Si2 0.151126 0.335124 0.108745
Si Si3 0.162499 0.238482 0.232176
Si Si4 0.736803 0.237019 0.822217
Si Si5 0.015970 0.579894 0.366025
Si Si6 0.348290 0.151574 0.718629
Si Si7 0.355219 0.089965 0.456279
O O1 0.862589 0.200910 0.797991
O O2 0.003576 0.023675 0.644418
O O3 0.589809 0.882883 0.671460
O O4 0.500000 0.000000 0.000000
O O5 0.124975 0.272318 0.178028
O O6 0.960346 0.405485 0.280065
O O7 0.500000 0.500000 0.000000
O O8 0.114290 0.196498 0.938594
O O9 0.195072 0.382644 0.404502
O O10 0.457139 0.240969 0.040347
O O11 0.857166 0.051641 0.304085
O O12 0.972843 0.395083 0.733173
O O13 0.616347 0.064106 0.689725
O O14 0.363461 0.732309 0.303345
O O15 0.486416 0.200750 0.561895
#
# Coordination Sequence:
#
# PCOD9093743 Si02
#       7
#     2   2   2   2   2   2   2
#     4   9  18  35  54  81 115 137 186 238 293 322
#     4  10  22  37  51  79 123 159 182 221 281 346
#     4  12  20  34  59  82 112 156 190 228 275 328
#     4  10  20  33  57  82 111 146 186 230 280 334
#     4  11  23  38  53  85 123 153 183 227 285 345
#     4  11  21  36  58  86 119 144 194 235 274 335
#     4   9  20  34  53  86 112 144 178 247 280 321
#
# _framework density 23.523520000000001
#
# number of rings (size 3 to 8) (size 9 to 14) (size 15 to 20)
#    0.857    0.857    4.286    2.143    0.000    0.000 
#    0.000    0.000    0.000    0.857    0.000    2.000 
#    0.000    0.000    0.000    0.000    0.000    0.000 
#
# Total GULP energy -78123.068343 kJ/mol
# GULP energy per Si atom -5580.219167 kJ/mol
# Density = 2.346998 g / cm^3
# Si number density = 23.523520 Si / 1000 Ang^3
#
#
#
# Elastic Constant Matrix: (Units=GPa)
#
#
# Indices 1 2 3 4 5 6 
#
# 1 54.9360 23.3161 22.3546 -7.8617 -0.3191 -17.7255
# 2 23.3161 24.3532 17.7574 -5.8443 -0.0824 -13.1586
# 3 22.3546 17.7574 194.3635 2.8890 -11.3413 -14.1922
# 4 -7.8617 -5.8443 2.8890 39.5627 -18.4393 -0.5023
# 5 -0.3191 -0.0824 -11.3413 -18.4393 40.1471 -6.0047
# 6 -17.7255 -13.1586 -14.1922 -0.5023 -6.0047 25.9162
#
#
#
# Elastic Compliance Matrix: (Units=1/GPa)
#
#
# Indices 1 2 3 4 5 6 
#
# 1 0.032896 -0.023798 -0.000639 0.005086 0.004028 0.011098
# 2 -0.023798 0.083195 -0.002566 0.012234 0.008893 0.026857
# 3 -0.000639 -0.002566 0.005693 -0.000036 0.001852 0.001806
# 4 0.005086 0.012234 -0.000036 0.037345 0.019436 0.014898
# 5 0.004028 0.008893 0.001852 0.019436 0.036985 0.017230
# 6 0.011098 0.026857 0.001806 0.014898 0.017230 0.065082
#
#
# Mechanical properties :
#
#
# Convention : Reuss Voigt Hill
#
# Bulk Modulus (GPa) = 14.75405 44.50099 29.62752
# Shear Modulus (GPa) = 14.80185 35.14017 24.97101
#
# Velocity S-wave (km/s) = 2.51118 3.86920 3.26165
# Velocity P-wave (km/s) = 3.83323 6.23857 5.17752
#
# Compressibility (1/GPa) = 0.06777800
#
# Stress axis : x y z
#
# Youngs Moduli (GPa) = 30.39909 12.01994 175.64172
#
# Poissons Ratio (x) = 0.28605 0.11232
# Poissons Ratio (y) = 0.72344 0.45063
# Poissons Ratio (z) = 0.01944 0.03084
#
# Static dielectric constant tensor:
#      x y z
#    x 1.903800 -0.004080 -0.018010 
#    y -0.004080 1.938800 0.007720 
#    z -0.018010 0.007720 1.932030 
# 
# From -- ./inp_files/520981.got.cif
#   From: 2010.05.17/outbox.cif.g08.bks.cpg/sg2_261_cif.got.tgz:520981.got - 2010.06.03 11:33:40.
