data_PCOD9093332
_publ_section_title
;
Structure prediction by ZEFSAII (Michael W. Deem and Ramdas Pophale) SiO2 
 PCOD9093332
Probable space group: P -1
;
_chemical_formula_sum "Si O2"
_cell_formula_units_Z 14
_cell_length_a 9.553651
_cell_length_b 17.743408
_cell_length_c 19.263170
_cell_angle_alpha 156.784260
_cell_angle_beta 151.147174
_cell_angle_gamma 33.208192
_cell_volume 612.440436
_symmetry_space_group_name_H-M "P -1"
_symmetry_group_IT_number 2
_symmetry_cell_setting 'triclinic'
loop_
_space_group_symop_operation_xyz
x,y,z
-x,-y,-z
loop_
_atom_site_type_symbol
_atom_site_label
_atom_site_fract_x
_atom_site_fract_y
_atom_site_fract_z
Si Si1 0.027255 0.164588 0.229497
Si Si2 0.196151 0.369051 0.832972
Si Si3 0.274293 0.738487 0.108658
Si Si4 0.992043 0.712614 0.818792
Si Si5 0.339308 0.739416 0.562643
Si Si6 0.789282 0.108551 0.219355
Si Si7 0.678519 0.971835 0.310596
O O1 0.911808 0.308792 0.238244
O O2 0.388532 0.106753 0.333022
O O3 0.868852 0.222917 0.282538
O O4 0.945479 0.949000 0.002308
O O5 0.249879 0.586261 0.029606
O O6 0.313962 0.251781 0.854006
O O7 0.861152 0.362226 0.661710
O O8 0.392871 0.247657 0.754840
O O9 0.163396 0.655640 0.916666
O O10 0.067927 0.937391 0.202091
O O11 0.678043 0.648939 0.632889
O O12 0.234479 0.759428 0.612028
O O13 0.324901 0.957568 0.709907
O O14 0.500000 0.000000 0.000000
O O15 0.000000 0.000000 0.500000
#
# Coordination Sequence:
#
# PCOD9093332 Si02
#       7
#     2   2   2   2   2   2   2
#     4   9  16  29  53  74 102 131 177 218 248 299
#     4  10  20  35  52  78 107 141 173 209 258 320
#     4  10  20  34  54  76 109 140 169 211 267 313
#     4   9  16  31  52  77  95 139 177 212 248 302
#     4  10  20  32  56  82 102 131 182 222 253 298
#     4  11  19  33  52  84 105 133 173 222 264 297
#     4   9  17  33  52  78 101 136 178 216 248 306
#
# _framework density 22.859365
#
# number of rings (size 3 to 8) (size 9 to 14) (size 15 to 20)
#    0.000    2.286    5.714    0.000    0.000    1.143 
#    0.000    0.714    0.000    0.857    0.000    0.000 
#    0.000    0.000    0.000    0.000    0.000    0.000 
#
# Total GULP energy -77954.063198 kJ/mol
# GULP energy per Si atom -5568.147371 kJ/mol
# Density = 2.280734 g / cm^3
# Si number density = 22.859365 Si / 1000 Ang^3
#
#
#
# Elastic Constant Matrix: (Units=GPa)
#
#
# Indices 1 2 3 4 5 6 
#
# 1 132.5744 22.4865 8.0921 6.3239 13.7253 26.1081
# 2 22.4865 62.4448 28.0043 0.6740 7.7074 20.9751
# 3 8.0921 28.0043 42.9849 -24.4477 18.0317 -5.2861
# 4 6.3239 0.6740 -24.4477 40.8981 -2.4747 13.7187
# 5 13.7253 7.7074 18.0317 -2.4747 21.0711 -5.5236
# 6 26.1081 20.9751 -5.2861 13.7187 -5.5236 38.6811
#
#
#
# Elastic Compliance Matrix: (Units=1/GPa)
#
#
# Indices 1 2 3 4 5 6 
#
# 1 0.010296 -0.002241 0.006353 0.004212 -0.012982 -0.008214
# 2 -0.002241 0.046734 -0.060295 -0.028781 0.027896 -0.017878
# 3 0.006353 -0.060295 0.150677 0.082160 -0.099911 0.005592
# 4 0.004212 -0.028781 0.082160 0.073353 -0.056558 -0.010100
# 5 -0.012982 0.027896 -0.099911 -0.056558 0.129422 0.018522
# 6 -0.008214 -0.017878 0.005592 -0.010100 0.018522 0.048082
#
#
# Mechanical properties :
#
#
# Convention : Reuss Voigt Hill
#
# Bulk Modulus (GPa) = 10.48859 39.46330 24.97595
# Shear Modulus (GPa) = 8.29587 32.09146 20.19366
#
# Velocity S-wave (km/s) = 1.90708 3.75088 2.97541
# Velocity P-wave (km/s) = 3.07369 6.00498 4.77008
#
# Compressibility (1/GPa) = 0.09534171
#
# Stress axis : x y z
#
# Youngs Moduli (GPa) = 97.12659 21.39776 6.63670
#
# Poissons Ratio (x) = 0.04795 -0.04216
# Poissons Ratio (y) = 0.21765 0.40016
# Poissons Ratio (z) = -0.61705 1.29017
#
# Static dielectric constant tensor:
#      x y z
#    x 1.954280 0.040380 0.017420 
#    y 0.040380 1.881610 -0.018240 
#    z 0.017420 -0.018240 1.920550 
# 
# From -- ./inp_files/182667.got.cif
#   From: 2010.05.17/outbox.cif.g08.bks.cpg/sg2_92_cif.got.tgz:182667.got - 2010.06.03 11:33:40.
