data_PCOD9093047
_publ_section_title
;
Structure prediction by ZEFSAII (Michael W. Deem and Ramdas Pophale) SiO2 
 PCOD9093047
Probable space group: P -1
;
_chemical_formula_sum "Si O2"
_cell_formula_units_Z 16
_cell_length_a 11.375966
_cell_length_b 19.360402
_cell_length_c 12.786072
_cell_angle_alpha 41.951015
_cell_angle_beta 115.157202
_cell_angle_gamma 146.563198
_cell_volume 879.101118
_symmetry_space_group_name_H-M "P -1"
_symmetry_group_IT_number 2
_symmetry_cell_setting 'triclinic'
loop_
_space_group_symop_operation_xyz
x,y,z
-x,-y,-z
loop_
_atom_site_type_symbol
_atom_site_label
_atom_site_fract_x
_atom_site_fract_y
_atom_site_fract_z
Si Si1 0.104897 0.953346 0.580405
Si Si2 0.550529 0.918619 0.026462
Si Si3 0.574606 0.504554 0.910140
Si Si4 0.109448 0.663590 0.281351
Si Si5 0.196420 0.075118 0.252635
Si Si6 0.301627 0.461751 0.685653
Si Si7 0.083567 0.942076 0.132020
Si Si8 0.723569 0.902273 0.298952
O O1 0.871781 0.718173 0.770775
O O2 0.203755 0.016794 0.428634
O O3 0.286344 0.064949 0.622351
O O4 0.000000 0.000000 0.500000
O O5 0.257739 0.724126 0.166917
O O6 0.684043 0.963300 0.130719
O O7 0.674594 0.115835 0.832836
O O8 0.649941 0.910410 0.983681
O O9 0.449665 0.489376 0.789820
O O10 0.500000 0.500000 0.000000
O O11 0.459411 0.312935 0.070552
O O12 0.000000 0.500000 0.500000
O O13 0.876752 0.581946 0.268045
O O14 0.110732 0.957236 0.249739
O O15 0.989213 0.026112 0.242632
O O16 0.504551 0.668370 0.467815
O O17 0.124096 0.275943 0.750283
O O18 0.000000 0.000000 0.000000
#
# Coordination Sequence:
#
# PCOD9093047 Si02
#       8
#     2   2   2   2   2   2   2   2
#     4  10  20  31  48  76 108 144 178 221 267 321
#     4  10  21  36  54  80 111 141 182 230 270 325
#     4  12  19  32  54  78 113 143 178 225 276 322
#     4  10  20  36  55  78 110 142 187 228 271 315
#     4  11  20  35  48  75 118 146 178 213 269 336
#     4  11  21  33  54  84 110 148 182 220 281 326
#     4  11  21  34  52  79 118 153 175 216 279 340
#     4  11  18  34  53  78 113 138 180 230 269 319
#
# _framework density 18.200407999999999
#
# number of rings (size 3 to 8) (size 9 to 14) (size 15 to 20)
#    0.000    1.250    8.750    0.750    0.000    0.500 
#    2.250    0.000    0.000    0.000    0.000   11.375 
#    0.000    0.500    0.000    0.000    0.000    0.000 
#
# Total GULP energy -89216.276152 kJ/mol
# GULP energy per Si atom -5576.017259 kJ/mol
# Density = 1.815898 g / cm^3
# Si number density = 18.200408 Si / 1000 Ang^3
#
#
#
# Elastic Constant Matrix: (Units=GPa)
#
#
# Indices 1 2 3 4 5 6 
#
# 1 52.8940 10.6015 19.2572 0.5132 -9.0853 -13.5321
# 2 10.6015 89.8756 32.0066 6.1584 3.5903 -22.9368
# 3 19.2572 32.0066 118.5743 -14.6091 3.5943 -11.1676
# 4 0.5132 6.1584 -14.6091 42.5196 -0.3621 -7.8171
# 5 -9.0853 3.5903 3.5943 -0.3621 14.7545 2.5234
# 6 -13.5321 -22.9368 -11.1676 -7.8171 2.5234 15.0737
#
#
#
# Elastic Compliance Matrix: (Units=1/GPa)
#
#
# Indices 1 2 3 4 5 6 
#
# 1 0.029050 0.004839 -0.003003 0.003741 0.012213 0.031112
# 2 0.004839 0.021085 -0.002343 0.002915 -0.007928 0.037531
# 3 -0.003003 -0.002343 0.010788 0.004979 -0.004656 0.005092
# 4 0.003741 0.002915 0.004979 0.029793 -0.003597 0.027535
# 5 0.012213 -0.007928 -0.004656 -0.003597 0.081708 -0.020093
# 6 0.031112 0.037531 0.005092 0.027535 -0.020093 0.172796
#
#
# Mechanical properties :
#
#
# Convention : Reuss Voigt Hill
#
# Bulk Modulus (GPa) = 16.69220 42.78605 29.73913
# Shear Modulus (GPa) = 13.65355 27.76814 20.71084
#
# Velocity S-wave (km/s) = 2.74191 3.91024 3.37699
# Velocity P-wave (km/s) = 4.38353 6.62918 5.61967
#
# Compressibility (1/GPa) = 0.05990821
#
# Stress axis : x y z
#
# Youngs Moduli (GPa) = 34.42302 47.42650 92.69657
#
# Poissons Ratio (x) = -0.22948 0.27838
# Poissons Ratio (y) = -0.16656 0.21720
# Poissons Ratio (z) = 0.10338 0.11112
#
# Static dielectric constant tensor:
#      x y z
#    x 1.660580 0.002170 -0.012220 
#    y 0.002170 1.629680 -0.011670 
#    z -0.012220 -0.011670 1.670510 
# 
# From -- ./inp_files/436631.got.cif
#   From: 2010.05.17/outbox.cif.g08.bks.cpg/sg2_219_cif.got.tgz:436631.got - 2010.06.03 11:33:40.
