data_PCOD9093588
_publ_section_title
;
Structure prediction by ZEFSAII (Michael W. Deem and Ramdas Pophale) SiO2 
 PCOD9093588
Probable space group: P -1
;
_chemical_formula_sum "Si O2"
_cell_formula_units_Z 16
_cell_length_a 10.335160
_cell_length_b 11.751041
_cell_length_c 10.802688
_cell_angle_alpha 136.736963
_cell_angle_beta 113.881152
_cell_angle_gamma 43.408856
_cell_volume 596.035602
_symmetry_space_group_name_H-M "P -1"
_symmetry_group_IT_number 2
_symmetry_cell_setting 'triclinic'
loop_
_space_group_symop_operation_xyz
x,y,z
-x,-y,-z
loop_
_atom_site_type_symbol
_atom_site_label
_atom_site_fract_x
_atom_site_fract_y
_atom_site_fract_z
Si Si1 0.120265 0.150588 0.148482
Si Si2 0.701998 0.083715 0.213970
Si Si3 0.202436 0.816777 0.084778
Si Si4 0.463417 0.405523 0.719289
Si Si5 0.663542 0.735704 0.636021
Si Si6 0.889512 0.374453 0.910962
Si Si7 0.189160 0.756171 0.434959
Si Si8 0.445624 0.165576 0.723760
O O1 0.137390 0.336219 0.302123
O O2 0.131915 0.057914 0.216036
O O3 0.941521 0.199919 0.054600
O O4 0.283372 0.962734 0.961485
O O5 0.484688 0.218676 0.283999
O O6 0.875864 0.826626 0.137741
O O7 0.772351 0.214740 0.385765
O O8 0.384895 0.640463 0.925451
O O9 0.190098 0.735585 0.146895
O O10 0.630248 0.297660 0.600499
O O11 0.520072 0.269231 0.762113
O O12 0.317296 0.407525 0.583969
O O13 0.549695 0.987383 0.734286
O O14 0.832931 0.405441 0.767644
O O15 0.768522 0.610050 0.128249
O O16 0.000000 0.000000 0.500000
O O17 0.500000 0.000000 0.500000
#
# Coordination Sequence:
#
# PCOD9093588 Si02
#       8
#     2   2   2   2   2   2   2   2
#     4  10  20  35  56  77 109 144 187 222 270 318
#     4   9  19  37  52  77 113 149 180 220 266 322
#     4   9  20  35  55  83 104 139 183 234 269 317
#     4   9  19  35  54  79 112 137 178 230 276 318
#     4  10  20  33  54  78 108 148 179 218 273 327
#     4   9  18  33  59  81 108 141 179 226 279 323
#     4   9  18  32  54  80 107 141 177 217 272 325
#     4   9  19  33  52  83 110 137 175 231 275 321
#
# _framework density 26.844033
#
# number of rings (size 3 to 8) (size 9 to 14) (size 15 to 20)
#    0.000    2.750    0.000    0.375    3.500    2.000 
#    0.000    2.500    2.750    0.000    0.000    0.000 
#    0.000    0.000    0.000    0.000    0.000    0.000 
#
# Total GULP energy -89077.823205 kJ/mol
# GULP energy per Si atom -5567.363950 kJ/mol
# Density = 2.678293 g / cm^3
# Si number density = 26.844033 Si / 1000 Ang^3
#
#
#
# Elastic Constant Matrix: (Units=GPa)
#
#
# Indices 1 2 3 4 5 6 
#
# 1 64.4711 -2.3485 16.5812 4.1633 -4.2677 -8.0868
# 2 -2.3485 33.8849 15.1128 -11.7242 6.1781 5.4495
# 3 16.5812 15.1128 168.2553 -15.0185 -2.3674 -5.3760
# 4 4.1633 -11.7242 -15.0185 41.8372 -4.7293 -8.0221
# 5 -4.2677 6.1781 -2.3674 -4.7293 30.8989 -0.2478
# 6 -8.0868 5.4495 -5.3760 -8.0221 -0.2478 30.6297
#
#
#
# Elastic Compliance Matrix: (Units=1/GPa)
#
#
# Indices 1 2 3 4 5 6 
#
# 1 0.016621 0.000536 -0.001645 -0.001166 0.001914 0.003715
# 2 0.000536 0.035171 -0.002809 0.007188 -0.006112 -0.004776
# 3 -0.001645 -0.002809 0.006633 0.002244 0.001201 0.001827
# 4 -0.001166 0.007188 0.002244 0.028374 0.002967 0.006263
# 5 0.001914 -0.006112 0.001201 0.002967 0.034419 0.002859
# 6 0.003715 -0.004776 0.001827 0.006263 0.002859 0.036462
#
#
# Mechanical properties :
#
#
# Convention : Reuss Voigt Hill
#
# Bulk Modulus (GPa) = 19.76668 36.14469 27.95569
# Shear Modulus (GPa) = 27.41536 36.49089 31.95312
#
# Velocity S-wave (km/s) = 3.19922 3.69096 3.45385
# Velocity P-wave (km/s) = 4.58543 5.62656 5.13246
#
# Compressibility (1/GPa) = 0.05059019
#
# Stress axis : x y z
#
# Youngs Moduli (GPa) = 60.16416 28.43255 150.75533
#
# Poissons Ratio (x) = -0.01523 0.24792
# Poissons Ratio (y) = -0.03224 0.42346
# Poissons Ratio (z) = 0.09894 0.07986
#
# Static dielectric constant tensor:
#      x y z
#    x 1.919770 0.260990 -0.177150 
#    y 0.260990 1.611260 0.365870 
#    z -0.177150 0.365870 1.868570 
# 
# From -- ./inp_files/314263.got.cif
#   From: 2010.05.17/outbox.cif.g08.bks.cpg/sg2_158_cif.got.tgz:314263.got - 2010.06.03 11:33:40.
