data_PCOD9093466
_publ_section_title
;
Structure prediction by ZEFSAII (Michael W. Deem and Ramdas Pophale) SiO2 
 PCOD9093466
Probable space group: P -1
;
_chemical_formula_sum "Si O2"
_cell_formula_units_Z 16
_cell_length_a 7.609103
_cell_length_b 7.417132
_cell_length_c 13.773355
_cell_angle_alpha 93.823259
_cell_angle_beta 99.429514
_cell_angle_gamma 110.557316
_cell_volume 711.481037
_symmetry_space_group_name_H-M "P -1"
_symmetry_group_IT_number 2
_symmetry_cell_setting 'triclinic'
loop_
_space_group_symop_operation_xyz
x,y,z
-x,-y,-z
loop_
_atom_site_type_symbol
_atom_site_label
_atom_site_fract_x
_atom_site_fract_y
_atom_site_fract_z
Si Si1 0.271273 0.375373 0.854575
Si Si2 0.216175 0.337152 0.379468
Si Si3 0.471976 0.692573 0.744981
Si Si4 0.947785 0.695223 0.987544
Si Si5 0.264325 0.905419 0.165512
Si Si6 0.150156 0.441414 0.573135
Si Si7 0.971072 0.916388 0.306452
Si Si8 0.896776 0.492518 0.797145
O O1 0.445513 0.540957 0.825496
O O2 0.238266 0.331771 0.964310
O O3 0.217086 0.177060 0.781264
O O4 0.093230 0.451306 0.822260
O O5 0.377046 0.316062 0.322560
O O6 0.276845 0.401298 0.496441
O O7 0.149290 0.484768 0.316694
O O8 0.036228 0.132370 0.359913
O O9 0.276233 0.610674 0.662728
O O10 0.545034 0.906647 0.805864
O O11 0.127172 0.870645 0.056469
O O12 0.918742 0.684866 0.869145
O O13 0.000000 0.500000 0.000000
O O14 0.139501 0.924165 0.247246
O O15 0.271077 0.693415 0.178064
O O16 0.000000 0.500000 0.500000
O O17 0.059162 0.241821 0.617753
#
# Coordination Sequence:
#
# PCOD9093466 Si02
#       8
#     2   2   2   2   2   2   2   2
#     4   8  15  33  53  71  99 136 170 203 242 294
#     4  11  20  33  51  76 104 129 162 211 255 293
#     4  10  20  33  50  76 104 129 159 211 264 292
#     4   7  13  29  54  75  97 134 173 205 237 287
#     4   8  15  32  52  75 102 132 167 209 247 287
#     4  11  21  37  56  73  94 133 174 205 244 305
#     4   8  17  32  51  72  97 129 163 201 249 297
#     4   9  17  33  54  76 100 136 175 201 236 301
#
# _framework density 22.488302000000001
#
# number of rings (size 3 to 8) (size 9 to 14) (size 15 to 20)
#    0.000    3.500    0.000    3.000    0.000    0.000 
#    0.000   23.750    0.000    0.000    0.000    0.000 
#    0.000    0.000    0.000    0.000    0.000    0.000 
#
# Total GULP energy -89071.769384 kJ/mol
# GULP energy per Si atom -5566.985586 kJ/mol
# Density = 2.243712 g / cm^3
# Si number density = 22.488302 Si / 1000 Ang^3
#
#
#
# Elastic Constant Matrix: (Units=GPa)
#
#
# Indices 1 2 3 4 5 6 
#
# 1 35.5104 15.8962 3.3529 5.8530 0.8257 7.1723
# 2 15.8962 110.1864 34.2905 25.9946 10.1465 28.3363
# 3 3.3529 34.2905 123.0445 17.8385 -5.7314 15.6443
# 4 5.8530 25.9946 17.8385 33.4126 1.8673 3.1235
# 5 0.8257 10.1465 -5.7314 1.8673 26.7424 -1.3114
# 6 7.1723 28.3363 15.6443 3.1235 -1.3114 23.6004
#
#
#
# Elastic Compliance Matrix: (Units=1/GPa)
#
#
# Indices 1 2 3 4 5 6 
#
# 1 0.031070 -0.002120 0.001206 -0.003765 0.000013 -0.007198
# 2 -0.002120 0.017799 -0.001298 -0.010620 -0.007149 -0.018857
# 3 0.001206 -0.001298 0.009759 -0.004129 0.002610 -0.004585
# 4 -0.003765 -0.010620 -0.004129 0.039931 0.001032 0.011405
# 5 0.000013 -0.007149 0.002610 0.001032 0.041034 0.008993
# 6 -0.007198 -0.018857 -0.004585 0.011405 0.008993 0.069231
#
#
# Mechanical properties :
#
#
# Convention : Reuss Voigt Hill
#
# Bulk Modulus (GPa) = 18.44899 41.75784 30.10341
# Shear Modulus (GPa) = 21.61547 31.09784 26.35666
#
# Velocity S-wave (km/s) = 3.10367 3.72270 3.42719
# Velocity P-wave (km/s) = 4.58969 6.08991 5.39223
#
# Compressibility (1/GPa) = 0.05420351
#
# Stress axis : x y z
#
# Youngs Moduli (GPa) = 32.18563 56.18432 102.46701
#
# Poissons Ratio (x) = 0.11908 -0.12354
# Poissons Ratio (y) = 0.06822 0.13302
# Poissons Ratio (z) = -0.03880 0.07294
#
# Static dielectric constant tensor:
#      x y z
#    x 1.942220 -0.012140 -0.021160 
#    y -0.012140 1.892670 0.020890 
#    z -0.021160 0.020890 1.921770 
# 
# From -- ./inp_files/493195.got.cif
#   From: 2010.05.17/outbox.cif.g08.bks.cpg/sg2_247_cif.got.tgz:493195.got - 2010.06.03 11:33:40.
