data_PCOD9093672
_publ_section_title
;
Structure prediction by ZEFSAII (Michael W. Deem and Ramdas Pophale) SiO2 
 PCOD9093672
Probable space group: P -1
;
_chemical_formula_sum "Si O2"
_cell_formula_units_Z 16
_cell_length_a 8.282370
_cell_length_b 11.462523
_cell_length_c 8.036848
_cell_angle_alpha 99.284385
_cell_angle_beta 101.508685
_cell_angle_gamma 125.228329
_cell_volume 573.153903
_symmetry_space_group_name_H-M "P -1"
_symmetry_group_IT_number 2
_symmetry_cell_setting 'triclinic'
loop_
_space_group_symop_operation_xyz
x,y,z
-x,-y,-z
loop_
_atom_site_type_symbol
_atom_site_label
_atom_site_fract_x
_atom_site_fract_y
_atom_site_fract_z
Si Si1 0.675972 0.236930 0.038115
Si Si2 0.789441 0.243257 0.561251
Si Si3 0.049590 0.318285 0.327552
Si Si4 0.790618 0.565724 0.131539
Si Si5 0.046257 0.000424 0.742613
Si Si6 0.601451 0.900502 0.376932
Si Si7 0.673328 0.871829 0.833977
Si Si8 0.570254 0.555371 0.751766
O O1 0.898341 0.275724 0.128357
O O2 0.716167 0.395877 0.070158
O O3 0.527438 0.144856 0.148573
O O4 0.544044 0.144923 0.827477
O O5 0.936697 0.339952 0.455938
O O6 0.576237 0.219184 0.554143
O O7 0.959772 0.322571 0.762824
O O8 0.702127 0.071912 0.479887
O O9 0.022026 0.167140 0.324239
O O10 0.293803 0.451795 0.361090
O O11 0.669553 0.571974 0.265445
O O12 0.704500 0.591298 0.956840
O O13 0.834852 0.977448 0.742976
O O14 0.206932 0.097365 0.645614
O O15 0.187694 0.071863 0.954979
O O16 0.595352 0.703974 0.749751
#
# Coordination Sequence:
#
# PCOD9093672 Si02
#       8
#     2   2   2   2   2   2   2   2
#     4  10  20  35  59  85 109 145 188 225 267 329
#     4  10  21  35  53  81 117 146 176 227 282 323
#     4  10  20  33  55  85 113 144 182 224 276 330
#     4  10  21  38  59  81 109 145 186 231 274 322
#     4   8  15  30  52  76 108 141 174 220 269 316
#     4   9  19  35  54  77 111 147 181 221 271 322
#     4   8  15  30  54  81 106 134 181 231 264 308
#     4   9  19  36  58  81 105 144 192 227 267 329
#
# _framework density 27.915713
#
# number of rings (size 3 to 8) (size 9 to 14) (size 15 to 20)
#    0.000    2.750    0.000    0.750    0.000    7.500 
#    0.000    6.250    0.000   36.000    0.000    0.000 
#    0.000    0.000    0.000    0.000    0.000    0.000 
#
# Total GULP energy -89583.117848 kJ/mol
# GULP energy per Si atom -5598.944865 kJ/mol
# Density = 2.785218 g / cm^3
# Si number density = 27.915713 Si / 1000 Ang^3
#
#
#
# Elastic Constant Matrix: (Units=GPa)
#
#
# Indices 1 2 3 4 5 6 
#
# 1 130.5226 75.8991 22.8766 -7.3052 9.9267 46.7864
# 2 75.8991 112.7789 49.4157 6.0071 -16.5600 4.0695
# 3 22.8766 49.4157 92.5041 -1.5119 0.7295 -7.8926
# 4 -7.3052 6.0071 -1.5119 52.0800 16.5367 -10.1571
# 5 9.9267 -16.5600 0.7295 16.5367 47.8185 -8.9471
# 6 46.7864 4.0695 -7.8926 -10.1571 -8.9471 68.3631
#
#
#
# Elastic Compliance Matrix: (Units=1/GPa)
#
#
# Indices 1 2 3 4 5 6 
#
# 1 0.034636 -0.029390 0.005585 0.012185 -0.025951 -0.022896
# 2 -0.029390 0.038076 -0.011987 -0.014160 0.027733 0.017989
# 3 0.005585 -0.011987 0.015835 0.004692 -0.007467 -0.001561
# 4 0.012185 -0.014160 0.004692 0.027356 -0.017945 -0.005239
# 5 -0.025951 0.027733 -0.007467 -0.017945 0.045697 0.018562
# 6 -0.022896 0.017989 -0.001561 -0.005239 0.018562 0.030697
#
#
# Mechanical properties :
#
#
# Convention : Reuss Voigt Hill
#
# Bulk Modulus (GPa) = 58.95470 70.24317 64.59894
# Shear Modulus (GPa) = 18.55045 46.15993 32.35519
#
# Velocity S-wave (km/s) = 2.58062 4.07079 3.40815
# Velocity P-wave (km/s) = 5.48125 6.87840 6.21918
#
# Compressibility (1/GPa) = 0.01696217
#
# Stress axis : x y z
#
# Youngs Moduli (GPa) = 28.87180 26.26341 63.15108
#
# Poissons Ratio (x) = 0.77189 -0.35270
# Poissons Ratio (y) = 0.84855 0.75699
# Poissons Ratio (z) = -0.16125 0.31482
#
# Static dielectric constant tensor:
#      x y z
#    x 2.141770 0.104140 -0.045950 
#    y 0.104140 2.075360 -0.076920 
#    z -0.045950 -0.076920 2.260900 
# 
# From -- ./inp_files/203154.got.cif
#   From: 2010.05.17/outbox.cif.g08.bks.cpg/sg2_102_cif.got.tgz:203154.got - 2010.06.03 11:33:40.
