data_PCOD9093124
_publ_section_title
;
Structure prediction by ZEFSAII (Michael W. Deem and Ramdas Pophale) SiO2 
 PCOD9093124
Probable space group: P -1
;
_chemical_formula_sum "Si O2"
_cell_formula_units_Z 16
_cell_length_a 8.761276
_cell_length_b 11.697289
_cell_length_c 12.582144
_cell_angle_alpha 52.203170
_cell_angle_beta 61.834393
_cell_angle_gamma 35.785763
_cell_volume 594.934651
_symmetry_space_group_name_H-M "P -1"
_symmetry_group_IT_number 2
_symmetry_cell_setting 'triclinic'
loop_
_space_group_symop_operation_xyz
x,y,z
-x,-y,-z
loop_
_atom_site_type_symbol
_atom_site_label
_atom_site_fract_x
_atom_site_fract_y
_atom_site_fract_z
Si Si1 0.989620 0.776829 0.090504
Si Si2 0.969755 0.552857 0.355545
Si Si3 0.486379 0.610416 0.126202
Si Si4 0.319390 0.528006 0.623309
Si Si5 0.196217 0.384054 0.100759
Si Si6 0.445257 0.864336 0.592628
Si Si7 0.957075 0.091646 0.208512
Si Si8 0.199410 0.048908 0.355638
O O1 0.834887 0.786700 0.228539
O O2 0.222538 0.704887 0.119866
O O3 0.065922 0.588660 0.100269
O O4 0.930355 0.933393 0.929213
O O5 0.279524 0.372060 0.327907
O O6 0.000000 0.500000 0.500000
O O7 0.819871 0.518377 0.364069
O O8 0.534590 0.601027 0.240789
O O9 0.720414 0.353469 0.160835
O O10 0.537863 0.719610 0.976135
O O11 0.500000 0.500000 0.500000
O O12 0.083187 0.780003 0.593365
O O13 0.230067 0.202497 0.238525
O O14 0.000000 0.500000 0.000000
O O15 0.198255 0.961070 0.687208
O O16 0.500000 0.000000 0.500000
O O17 0.393448 0.865871 0.484152
O O18 0.173586 0.987558 0.286407
#
# Coordination Sequence:
#
# PCOD9093124 Si02
#       8
#     2   2   2   2   2   2   2   2
#     4  11  19  35  60  90 123 155 213 261 307 361
#     4  12  25  41  65  93 126 164 211 258 314 380
#     4  10  20  31  57  89 123 154 206 261 309 350
#     4  11  22  38  57  88 126 163 200 249 310 374
#     4  11  16  32  58  92 123 152 203 267 304 358
#     4  12  24  41  63  93 131 163 205 260 320 370
#     4  10  21  35  60  92 125 160 204 262 309 368
#     4  11  22  38  62  93 128 162 206 257 318 367
#
# _framework density 26.893709999999999
#
# number of rings (size 3 to 8) (size 9 to 14) (size 15 to 20)
#    0.000    1.000    7.500    2.625    3.500    0.000 
#    0.000    0.000    0.000    3.000    0.000    0.000 
#    0.000    0.000    0.000    0.000    0.000    0.000 
#
# Total GULP energy -89595.912904 kJ/mol
# GULP energy per Si atom -5599.744557 kJ/mol
# Density = 2.683250 g / cm^3
# Si number density = 26.893710 Si / 1000 Ang^3
#
#
#
# Elastic Constant Matrix: (Units=GPa)
#
#
# Indices 1 2 3 4 5 6 
#
# 1 187.0195 21.4184 64.5112 -12.6257 5.1443 6.3061
# 2 21.4184 66.5703 17.1858 -5.7046 3.7482 7.0871
# 3 64.5112 17.1858 173.8243 -13.4157 -12.1087 6.9296
# 4 -12.6257 -5.7046 -13.4157 41.2171 -10.0972 5.8942
# 5 5.1443 3.7482 -12.1087 -10.0972 73.4489 -4.2751
# 6 6.3061 7.0871 6.9296 5.8942 -4.2751 28.4500
#
#
#
# Elastic Compliance Matrix: (Units=1/GPa)
#
#
# Indices 1 2 3 4 5 6 
#
# 1 0.006356 -0.001268 -0.002164 0.001034 -0.000646 -0.000877
# 2 -0.001268 0.016311 -0.000888 0.001956 -0.000860 -0.004100
# 3 -0.002164 -0.000888 0.006955 0.002028 0.001554 -0.001180
# 4 0.001034 0.001956 0.002028 0.027283 0.003544 -0.006330
# 5 -0.000646 -0.000860 0.001554 0.003544 0.014531 0.001428
# 6 -0.000877 -0.004100 -0.001180 -0.006330 0.001428 0.038179
#
#
# Mechanical properties :
#
#
# Convention : Reuss Voigt Hill
#
# Bulk Modulus (GPa) = 47.65472 70.40499 59.02985
# Shear Modulus (GPa) = 39.92089 50.24311 45.08200
#
# Velocity S-wave (km/s) = 3.85696 4.32697 4.09871
# Velocity P-wave (km/s) = 6.13131 7.15537 6.66305
#
# Compressibility (1/GPa) = 0.02098428
#
# Stress axis : x y z
#
# Youngs Moduli (GPa) = 157.33747 61.30695 143.77238
#
# Poissons Ratio (x) = 0.07773 0.31107
# Poissons Ratio (y) = 0.19949 0.12761
# Poissons Ratio (z) = 0.34042 0.05441
#
# Static dielectric constant tensor:
#      x y z
#    x 2.103680 0.023770 -0.089010 
#    y 0.023770 2.271540 0.005750 
#    z -0.089010 0.005750 2.227880 
# 
# From -- ./inp_files/396997.got.cif
#   From: 2010.05.17/outbox.cif.g08.bks.cpg/sg2_199_cif.got.tgz:396997.got - 2010.06.03 11:33:40.
