data_PCOD9093918
_publ_section_title
;
Structure prediction by ZEFSAII (Michael W. Deem and Ramdas Pophale) SiO2 
 PCOD9093918
Probable space group: P -1
;
_chemical_formula_sum "Si O2"
_cell_formula_units_Z 15
_cell_length_a 8.514040
_cell_length_b 16.537072
_cell_length_c 10.998720
_cell_angle_alpha 145.347169
_cell_angle_beta 87.331327
_cell_angle_gamma 66.771191
_cell_volume 569.776368
_symmetry_space_group_name_H-M "P -1"
_symmetry_group_IT_number 2
_symmetry_cell_setting 'triclinic'
loop_
_space_group_symop_operation_xyz
x,y,z
-x,-y,-z
loop_
_atom_site_type_symbol
_atom_site_label
_atom_site_fract_x
_atom_site_fract_y
_atom_site_fract_z
Si Si1 0.958216 0.659224 0.290214
Si Si2 0.644053 0.156267 0.645985
Si Si3 0.268220 0.022308 0.833702
Si Si4 0.492135 0.674928 0.724196
Si Si5 0.000000 0.000000 0.000000
Si Si6 0.751557 0.635864 0.459933
Si Si7 0.440156 0.161178 0.871756
Si Si8 0.174154 0.676358 0.111631
O O1 0.950008 0.609938 0.368464
O O2 0.146111 0.643476 0.211409
O O3 0.692873 0.905107 0.574463
O O4 0.000000 0.500000 0.000000
O O5 0.645350 0.138947 0.480153
O O6 0.447862 0.195239 0.771399
O O7 0.646223 0.315918 0.887738
O O8 0.908117 0.914639 0.376919
O O9 0.068565 0.076200 0.985013
O O10 0.495459 0.887199 0.747481
O O11 0.238034 0.193959 0.975197
O O12 0.500000 0.500000 0.500000
O O13 0.234783 0.889508 0.936629
O O14 0.708175 0.602741 0.552402
O O15 0.526295 0.714568 0.904937
O O16 0.765881 0.488894 0.189017
#
# Coordination Sequence:
#
# PCOD9093918 Si02
#       8
#     2   2   2   2   1   2   2   2
#     4   8  16  32  55  87 123 153 209 252 308 388
#     4  10  20  33  61  90 120 163 207 266 317 379
#     4  10  22  39  59  89 129 163 209 269 315 384
#     4  11  24  43  70  90 131 173 216 271 319 385
#     4  10  26  42  64  98 130 166 222 268 314 378
#     4   9  19  36  56  86 121 163 205 256 321 377
#     4  10  21  39  65  91 126 177 209 256 338 380
#     4   9  18  32  56  91 116 158 211 254 323 371
#
# _framework density 26.326117
#
# number of rings (size 3 to 8) (size 9 to 14) (size 15 to 20)
#    0.000    2.400    0.000    1.200    7.467    5.333 
#    0.000    0.667   14.667    0.000    0.000    0.000 
#    0.000    0.000    0.000    0.000    0.000    0.000 
#
# Total GULP energy -83603.364362 kJ/mol
# GULP energy per Si atom -5573.557624 kJ/mol
# Density = 2.626620 g / cm^3
# Si number density = 26.326117 Si / 1000 Ang^3
#
#
#
# Elastic Constant Matrix: (Units=GPa)
#
#
# Indices 1 2 3 4 5 6 
#
# 1 123.4217 46.1952 34.6211 -17.5234 -11.0564 23.8788
# 2 46.1952 132.2635 23.0019 -20.8952 -1.3134 36.5681
# 3 34.6211 23.0019 50.7981 -7.5218 8.4839 3.0091
# 4 -17.5234 -20.8952 -7.5218 27.4216 1.6635 -11.6313
# 5 -11.0564 -1.3134 8.4839 1.6635 48.8009 -4.4599
# 6 23.8788 36.5681 3.0091 -11.6313 -4.4599 61.7265
#
#
#
# Elastic Compliance Matrix: (Units=1/GPa)
#
#
# Indices 1 2 3 4 5 6 
#
# 1 0.012080 -0.001720 -0.007461 0.003105 0.003659 -0.002441
# 2 -0.001720 0.010597 -0.002682 0.004262 -0.000213 -0.004694
# 3 -0.007461 -0.002682 0.027198 0.002363 -0.006284 0.003140
# 4 0.003105 0.004262 0.002363 0.044278 -0.000695 0.004452
# 5 0.003659 -0.000213 -0.006284 -0.000695 0.022477 0.000510
# 6 -0.002441 -0.004694 0.003140 0.004452 0.000510 0.020648
#
#
# Mechanical properties :
#
#
# Convention : Reuss Voigt Hill
#
# Bulk Modulus (GPa) = 38.24029 57.12440 47.68234
# Shear Modulus (GPa) = 29.46037 41.10080 35.28058
#
# Velocity S-wave (km/s) = 3.34886 3.95551 3.66476
# Velocity P-wave (km/s) = 5.43234 6.52743 6.00490
#
# Compressibility (1/GPa) = 0.02615043
#
# Stress axis : x y z
#
# Youngs Moduli (GPa) = 82.78346 94.36948 36.76701
#
# Poissons Ratio (x) = 0.16229 0.27431
# Poissons Ratio (y) = 0.14237 0.09859
# Poissons Ratio (z) = 0.61763 0.25306
#
# Static dielectric constant tensor:
#      x y z
#    x 2.007160 0.005050 -0.059770 
#    y 0.005050 2.175970 0.115320 
#    z -0.059770 0.115320 2.119000 
# 
# From -- ./inp_files/376744.got.cif
#   From: 2010.05.17/outbox.cif.g08.bks.cpg/sg2_189_cif.got.tgz:376744.got - 2010.06.03 11:33:40.
