data_PCOD9093656
_publ_section_title
;
Structure prediction by ZEFSAII (Michael W. Deem and Ramdas Pophale) SiO2 
 PCOD9093656
Probable space group: P -1
;
_chemical_formula_sum "Si O2"
_cell_formula_units_Z 14
_cell_length_a 12.287626
_cell_length_b 17.409886
_cell_length_c 9.239059
_cell_angle_alpha 127.854462
_cell_angle_beta 120.330261
_cell_angle_gamma 21.392632
_cell_volume 553.896209
_symmetry_space_group_name_H-M "P -1"
_symmetry_group_IT_number 2
_symmetry_cell_setting 'triclinic'
loop_
_space_group_symop_operation_xyz
x,y,z
-x,-y,-z
loop_
_atom_site_type_symbol
_atom_site_label
_atom_site_fract_x
_atom_site_fract_y
_atom_site_fract_z
Si Si1 0.298100 0.571064 0.261902
Si Si2 0.689744 0.111123 0.539341
Si Si3 0.368144 0.779911 0.679254
Si Si4 0.270695 0.218494 0.292496
Si Si5 0.154787 0.286121 0.870853
Si Si6 0.986851 0.440327 0.647891
Si Si7 0.203991 0.820212 0.064940
O O1 0.506685 0.393427 0.334009
O O2 0.040559 0.828029 0.434302
O O3 0.091307 0.621585 0.141689
O O4 0.525229 0.431751 0.119027
O O5 0.649703 0.214536 0.499558
O O6 0.480362 0.163212 0.426740
O O7 0.655043 0.189166 0.759005
O O8 0.652544 0.653111 0.732738
O O9 0.051285 0.042469 0.837173
O O10 0.050761 0.418853 0.254027
O O11 0.059736 0.339566 0.426571
O O12 0.516262 0.963932 0.126068
O O13 0.216245 0.232586 0.676533
O O14 0.000000 0.500000 0.000000
O O15 0.000000 0.000000 0.000000
#
# Coordination Sequence:
#
# PCOD9093656 Si02
#       7
#     2   2   2   2   2   2   2
#     4   9  21  39  55  84 116 149 188 237 285 334
#     4  10  20  37  62  81 113 154 188 231 289 339
#     4   9  19  37  57  82 114 149 189 231 277 339
#     4   9  19  35  57  82 108 151 186 227 284 338
#     4  10  20  33  55  82 114 145 185 232 284 336
#     4   9  18  35  56  78 116 143 186 231 272 344
#     4  10  21  37  60  85 116 145 192 240 282 337
#
# _framework density 25.275492
#
# number of rings (size 3 to 8) (size 9 to 14) (size 15 to 20)
#    0.000    2.571    0.000    0.857    2.000    3.429 
#    0.000    2.857    3.143    0.000    0.000    0.000 
#    0.000    0.000    0.000    0.000    0.000    0.000 
#
# Total GULP energy -78053.293802 kJ/mol
# GULP energy per Si atom -5575.235272 kJ/mol
# Density = 2.521796 g / cm^3
# Si number density = 25.275492 Si / 1000 Ang^3
#
#
#
# Elastic Constant Matrix: (Units=GPa)
#
#
# Indices 1 2 3 4 5 6 
#
# 1 59.1286 14.2859 30.3487 7.6371 -11.1978 -6.7791
# 2 14.2859 117.9690 37.7087 13.7686 -5.6747 7.5709
# 3 30.3487 37.7087 103.4371 12.9737 -12.0695 4.2808
# 4 7.6371 13.7686 12.9737 57.9052 -2.4503 -4.5965
# 5 -11.1978 -5.6747 -12.0695 -2.4503 38.6764 -1.2860
# 6 -6.7791 7.5709 4.2808 -4.5965 -1.2860 33.9168
#
#
#
# Elastic Compliance Matrix: (Units=1/GPa)
#
#
# Indices 1 2 3 4 5 6 
#
# 1 0.021552 -0.000848 -0.005611 -0.000775 0.004491 0.005270
# 2 -0.000848 0.009901 -0.003042 -0.001734 0.000074 -0.002228
# 3 -0.005611 -0.003042 0.012915 -0.001530 0.001789 -0.002212
# 4 -0.000775 -0.001734 -0.001530 0.018372 0.000305 0.002927
# 5 0.004491 0.000074 0.001789 0.000305 0.027802 0.001751
# 6 0.005270 -0.002228 -0.002212 0.002927 0.001751 0.031777
#
#
# Mechanical properties :
#
#
# Convention : Reuss Voigt Hill
#
# Bulk Modulus (GPa) = 39.42394 49.46903 44.44649
# Shear Modulus (GPa) = 33.38279 39.31243 36.34761
#
# Velocity S-wave (km/s) = 3.63817 3.94808 3.79629
# Velocity P-wave (km/s) = 5.76887 6.35591 6.06949
#
# Compressibility (1/GPa) = 0.02536530
#
# Stress axis : x y z
#
# Youngs Moduli (GPa) = 46.39945 101.00062 77.42744
#
# Poissons Ratio (x) = 0.08565 0.43446
# Poissons Ratio (y) = 0.03935 0.23556
# Poissons Ratio (z) = 0.26035 0.30727
#
# Static dielectric constant tensor:
#      x y z
#    x 2.018230 -0.015810 0.008930 
#    y -0.015810 2.057710 -0.096780 
#    z 0.008930 -0.096780 2.157030 
# 
# From -- ./inp_files/319438.got.cif
#   From: 2010.05.17/outbox.cif.g08.bks.cpg/sg2_160_cif.got.tgz:319438.got - 2010.06.03 11:33:40.
