data_PCOD9093883
_publ_section_title
;
Structure prediction by ZEFSAII (Michael W. Deem and Ramdas Pophale) SiO2 
 PCOD9093883
Probable space group: P -1
;
_chemical_formula_sum "Si O2"
_cell_formula_units_Z 16
_cell_length_a 10.429553
_cell_length_b 10.431200
_cell_length_c 11.581312
_cell_angle_alpha 76.568833
_cell_angle_beta 128.052571
_cell_angle_gamma 136.723934
_cell_volume 623.042261
_symmetry_space_group_name_H-M "P -1"
_symmetry_group_IT_number 2
_symmetry_cell_setting 'triclinic'
loop_
_space_group_symop_operation_xyz
x,y,z
-x,-y,-z
loop_
_atom_site_type_symbol
_atom_site_label
_atom_site_fract_x
_atom_site_fract_y
_atom_site_fract_z
Si Si1 0.798151 0.482471 0.429554
Si Si2 0.616778 0.225895 0.591254
Si Si3 0.569803 0.565504 0.170705
Si Si4 0.110418 0.998352 0.734475
Si Si5 0.440719 0.350640 0.589471
Si Si6 0.215209 0.806329 0.985750
Si Si7 0.289781 0.932992 0.663258
Si Si8 0.890359 0.548975 0.086165
O O1 0.602657 0.292857 0.448553
O O2 0.658347 0.469869 0.250323
O O3 0.000000 0.500000 0.500000
O O4 0.000950 0.706462 0.555881
O O5 0.636169 0.354399 0.670841
O O6 0.881770 0.315842 0.724752
O O7 0.392567 0.004456 0.573319
O O8 0.539945 0.576174 0.289527
O O9 0.777390 0.798520 0.194721
O O10 0.313046 0.463619 0.997121
O O11 0.132850 0.882581 0.850356
O O12 0.273399 0.059534 0.698695
O O13 0.834399 0.860022 0.565596
O O14 0.500000 0.500000 0.500000
O O15 0.219519 0.668222 0.947874
O O16 0.026551 0.670207 0.016236
O O17 0.490461 0.003501 0.155601
#
# Coordination Sequence:
#
# PCOD9093883 Si02
#       8
#     2   2   2   2   2   2   2   2
#     4  12  28  46  64  87 122 172 222 264 304 360
#     4  11  23  40  67  90 127 167 200 260 319 375
#     4  12  22  36  60  95 129 157 202 256 310 379
#     4  12  21  32  61 101 134 156 196 255 322 382
#     4  12  19  33  57  93 126 160 193 250 317 373
#     4  10  20  33  59  96 137 167 185 248 321 392
#     4  11  21  40  63  92 125 166 209 251 311 380
#     4  10  20  37  58  95 131 162 203 240 321 392
#
# _framework density 25.680441999999999
#
# number of rings (size 3 to 8) (size 9 to 14) (size 15 to 20)
#    0.000    0.750    5.000    5.250    1.750    0.500 
#    0.000    0.625    0.000    1.500    0.000    0.000 
#    0.000    0.000    0.000    0.000    0.000    0.000 
#
# Total GULP energy -89460.857661 kJ/mol
# GULP energy per Si atom -5591.303604 kJ/mol
# Density = 2.562199 g / cm^3
# Si number density = 25.680442 Si / 1000 Ang^3
#
#
#
# Elastic Constant Matrix: (Units=GPa)
#
#
# Indices 1 2 3 4 5 6 
#
# 1 47.6948 18.0666 28.4915 -10.5472 8.9595 0.4074
# 2 18.0666 101.0753 49.6344 -31.2677 -8.1584 19.5206
# 3 28.4915 49.6344 185.4588 -26.9843 23.1249 7.8140
# 4 -10.5472 -31.2677 -26.9843 49.4066 4.8275 1.7932
# 5 8.9595 -8.1584 23.1249 4.8275 46.7355 -7.6454
# 6 0.4074 19.5206 7.8140 1.7932 -7.6454 36.1531
#
#
#
# Elastic Compliance Matrix: (Units=1/GPa)
#
#
# Indices 1 2 3 4 5 6 
#
# 1 0.024782 -0.003118 -0.002082 0.002582 -0.004402 0.000795
# 2 -0.003118 0.015942 -0.002605 0.008037 0.002552 -0.007869
# 3 -0.002082 -0.002605 0.007308 0.002340 -0.004099 -0.001132
# 4 0.002582 0.008037 0.002340 0.027836 -0.004297 -0.007164
# 5 -0.004402 0.002552 -0.004099 -0.004297 0.026021 0.005273
# 6 0.000795 -0.007869 -0.001132 -0.007164 0.005273 0.033615
#
#
# Mechanical properties :
#
#
# Convention : Reuss Voigt Hill
#
# Bulk Modulus (GPa) = 30.84164 58.51266 44.67715
# Shear Modulus (GPa) = 30.87931 42.32814 36.60372
#
# Velocity S-wave (km/s) = 3.47139 4.06429 3.77948
# Velocity P-wave (km/s) = 5.30125 6.69768 6.03996
#
# Compressibility (1/GPa) = 0.03242370
#
# Stress axis : x y z
#
# Youngs Moduli (GPa) = 40.35159 62.72757 136.83059
#
# Poissons Ratio (x) = 0.19556 0.28487
# Poissons Ratio (y) = 0.12580 0.35643
# Poissons Ratio (z) = 0.08401 0.16340
#
# Static dielectric constant tensor:
#      x y z
#    x 2.163500 -0.091430 -0.008770 
#    y -0.091430 2.209240 -0.049060 
#    z -0.008770 -0.049060 2.029460 
# 
# From -- ./inp_files/519633.got.cif
#   From: 2010.05.17/outbox.cif.g08.bks.cpg/sg2_260_cif.got.tgz:519633.got - 2010.06.03 11:33:40.
