data_PCOD9093756
_publ_section_title
;
Structure prediction by ZEFSAII (Michael W. Deem and Ramdas Pophale) SiO2 
 PCOD9093756
Probable space group: P -1
;
_chemical_formula_sum "Si O2"
_cell_formula_units_Z 16
_cell_length_a 8.210437
_cell_length_b 25.262027
_cell_length_c 18.883603
_cell_angle_alpha 19.618977
_cell_angle_beta 146.296190
_cell_angle_gamma 139.676016
_cell_volume 724.988671
_symmetry_space_group_name_H-M "P -1"
_symmetry_group_IT_number 2
_symmetry_cell_setting 'triclinic'
loop_
_space_group_symop_operation_xyz
x,y,z
-x,-y,-z
loop_
_atom_site_type_symbol
_atom_site_label
_atom_site_fract_x
_atom_site_fract_y
_atom_site_fract_z
Si Si1 0.846790 0.641639 0.431630
Si Si2 0.165477 0.494557 0.863306
Si Si3 0.196137 0.973122 0.383325
Si Si4 0.748111 0.279646 0.807046
Si Si5 0.166082 0.642109 0.414853
Si Si6 0.784551 0.486770 0.872257
Si Si7 0.332558 0.151173 0.387064
Si Si8 0.017467 0.849499 0.609195
O O1 0.799198 0.460901 0.617584
O O2 0.554026 0.734793 0.241976
O O3 0.953541 0.722519 0.297443
O O4 0.075685 0.602155 0.628197
O O5 0.173789 0.304746 0.095132
O O6 0.942563 0.532939 0.799397
O O7 0.500000 0.500000 0.000000
O O8 0.500000 0.000000 0.500000
O O9 0.331691 0.889857 0.465821
O O10 0.016150 0.862638 0.507288
O O11 0.003485 0.140886 0.093316
O O12 0.732966 0.269208 0.729455
O O13 0.000000 0.500000 0.500000
O O14 0.460784 0.575537 0.647162
O O15 0.755691 0.298956 0.097091
O O16 0.000000 0.500000 0.000000
O O17 0.274940 0.173030 0.422944
O O18 0.148102 0.007920 0.480529
#
# Coordination Sequence:
#
# PCOD9093756 Si02
#       8
#     2   2   2   2   2   2   2   2
#     4  10  20  36  57  85 125 163 206 255 312 370
#     4  11  22  38  63  93 130 166 211 263 319 376
#     4  10  20  33  57  85 120 158 200 252 308 373
#     4  10  21  37  55  91 125 159 207 259 314 374
#     4  10  22  36  59  91 125 167 209 263 317 371
#     4  11  23  39  63  96 133 166 211 266 317 382
#     4   9  20  35  55  88 120 156 203 260 308 366
#     4   9  20  36  56  88 121 156 204 257 312 362
#
# _framework density 22.069310000000002
#
# number of rings (size 3 to 8) (size 9 to 14) (size 15 to 20)
#    0.000    2.000    1.250    2.250   10.500    1.000 
#    0.000    0.000    0.000    3.000    0.000    5.250 
#    0.000    0.000    0.000    0.000    0.000    0.000 
#
# Total GULP energy -89218.032827 kJ/mol
# GULP energy per Si atom -5576.127052 kJ/mol
# Density = 2.201908 g / cm^3
# Si number density = 22.069310 Si / 1000 Ang^3
#
#
#
# Elastic Constant Matrix: (Units=GPa)
#
#
# Indices 1 2 3 4 5 6 
#
# 1 219.5283 3.2183 57.8080 10.6719 12.2053 -0.9751
# 2 3.2183 30.3449 8.0022 12.7594 -1.9078 -4.7575
# 3 57.8080 8.0022 101.1718 15.1222 16.8179 -2.7653
# 4 10.6719 12.7594 15.1222 26.8304 3.0674 -0.9518
# 5 12.2053 -1.9078 16.8179 3.0674 30.1690 6.3123
# 6 -0.9751 -4.7575 -2.7653 -0.9518 6.3123 16.4950
#
#
#
# Elastic Compliance Matrix: (Units=1/GPa)
#
#
# Indices 1 2 3 4 5 6 
#
# 1 0.005379 0.000462 -0.002932 -0.000650 -0.000467 0.000101
# 2 0.000462 0.043463 -0.000887 -0.020340 0.003013 0.010087
# 3 -0.002932 -0.000887 0.013653 -0.005178 -0.006827 0.004173
# 4 -0.000650 -0.020340 -0.005178 0.050323 -0.002656 -0.002852
# 5 -0.000467 0.003013 -0.006827 -0.002656 0.040979 -0.016138
# 6 0.000101 0.010087 0.004173 -0.002852 -0.016138 0.070250
#
#
# Mechanical properties :
#
#
# Convention : Reuss Voigt Hill
#
# Bulk Modulus (GPa) = 17.92742 54.34467 36.13604
# Shear Modulus (GPa) = 20.05185 33.49999 26.77592
#
# Velocity S-wave (km/s) = 3.01754 3.90031 3.48697
# Velocity P-wave (km/s) = 4.50351 6.70531 5.71152
#
# Compressibility (1/GPa) = 0.05578048
#
# Stress axis : x y z
#
# Youngs Moduli (GPa) = 185.92181 23.00824 73.24507
#
# Poissons Ratio (x) = -0.01064 0.21478
# Poissons Ratio (y) = -0.08598 0.06496
# Poissons Ratio (z) = 0.54518 0.02041
#
# Static dielectric constant tensor:
#      x y z
#    x 1.949000 -0.067870 -0.024440 
#    y -0.067870 2.127110 0.063230 
#    z -0.024440 0.063230 1.804090 
# 
# From -- ./inp_files/471093.got.cif
#   From: 2010.05.17/outbox.cif.g08.bks.cpg/sg2_236_cif.got.tgz:471093.got - 2010.06.03 11:33:40.
