data_PCOD9093625
_publ_section_title
;
Structure prediction by ZEFSAII (Michael W. Deem and Ramdas Pophale) SiO2 
 PCOD9093625
Probable space group: P -1
;
_chemical_formula_sum "Si O2"
_cell_formula_units_Z 14
_cell_length_a 10.039603
_cell_length_b 11.985572
_cell_length_c 13.017637
_cell_angle_alpha 58.686637
_cell_angle_beta 33.676033
_cell_angle_gamma 68.763048
_cell_volume 733.843631
_symmetry_space_group_name_H-M "P -1"
_symmetry_group_IT_number 2
_symmetry_cell_setting 'triclinic'
loop_
_space_group_symop_operation_xyz
x,y,z
-x,-y,-z
loop_
_atom_site_type_symbol
_atom_site_label
_atom_site_fract_x
_atom_site_fract_y
_atom_site_fract_z
Si Si1 0.416546 0.420648 0.952087
Si Si2 0.448738 0.177051 0.385733
Si Si3 0.808203 0.641453 0.679067
Si Si4 0.729991 0.966130 0.232605
Si Si5 0.103119 0.607255 0.970092
Si Si6 0.672270 0.434084 0.573059
Si Si7 0.353186 0.319591 0.653213
O O1 0.659708 0.500811 0.806046
O O2 0.220147 0.521002 0.020678
O O3 0.482798 0.389575 0.807969
O O4 0.299137 0.319029 0.161221
O O5 0.267895 0.259414 0.403995
O O6 0.293607 0.078677 0.611792
O O7 0.672183 0.274881 0.250767
O O8 0.582933 0.089081 0.263141
O O9 0.082844 0.617838 0.526542
O O10 0.623056 0.830624 0.310833
O O11 0.000000 0.000000 0.000000
O O12 0.000000 0.500000 0.000000
O O13 0.881744 0.668426 0.131805
O O14 0.582947 0.379044 0.545536
O O15 0.681706 0.591236 0.468218
#
# Coordination Sequence:
#
# PCOD9093625 Si02
#       7
#     2   2   2   2   2   2   2
#     4  10  20  33  54  86 120 155 188 233 304 358
#     4  10  24  41  62  89 119 158 200 245 292 351
#     4  10  21  36  56  84 121 155 192 239 301 354
#     4  11  23  42  63  87 115 159 206 245 287 350
#     4  11  19  36  61  93 125 149 192 250 300 350
#     4  11  22  36  57  91 122 153 190 250 303 350
#     4  11  22  36  61  90 121 155 200 245 299 349
#
# _framework density 19.077634
#
# number of rings (size 3 to 8) (size 9 to 14) (size 15 to 20)
#    0.000    1.429    4.286    2.143    2.000    1.143 
#    0.000    0.714    0.000    1.714    0.000    0.000 
#    0.000    0.000    0.000    0.000    0.000    0.000 
#
# Total GULP energy -78003.944769 kJ/mol
# GULP energy per Si atom -5571.710341 kJ/mol
# Density = 1.903421 g / cm^3
# Si number density = 19.077634 Si / 1000 Ang^3
#
#
#
# Elastic Constant Matrix: (Units=GPa)
#
#
# Indices 1 2 3 4 5 6 
#
# 1 90.3046 32.0839 21.1591 7.9759 -12.2805 -16.4080
# 2 32.0839 93.8392 19.2122 12.2130 -14.3276 4.4044
# 3 21.1591 19.2122 71.2225 11.5415 2.9783 -7.2954
# 4 7.9759 12.2130 11.5415 30.0992 -1.7604 -2.0238
# 5 -12.2805 -14.3276 2.9783 -1.7604 31.1827 9.2231
# 6 -16.4080 4.4044 -7.2954 -2.0238 9.2231 26.6080
#
#
#
# Elastic Compliance Matrix: (Units=1/GPa)
#
#
# Indices 1 2 3 4 5 6 
#
# 1 0.015212 -0.004924 -0.002227 -0.000495 0.001214 0.009127
# 2 -0.004924 0.015168 -0.003327 -0.003748 0.007946 -0.009498
# 3 -0.002227 -0.003327 0.017171 -0.004616 -0.005963 0.005601
# 4 -0.000495 -0.003748 -0.004616 0.036772 0.000060 0.001826
# 5 0.001214 0.007946 -0.005963 0.000060 0.041695 -0.016650
# 6 0.009127 -0.009498 0.005601 0.001826 -0.016650 0.052229
#
#
# Mechanical properties :
#
#
# Convention : Reuss Voigt Hill
#
# Bulk Modulus (GPa) = 37.59968 44.47519 41.03743
# Shear Modulus (GPa) = 24.03093 29.77205 26.90149
#
# Velocity S-wave (km/s) = 3.55299 3.95470 3.75921
# Velocity P-wave (km/s) = 6.04841 6.64952 6.35607
#
# Compressibility (1/GPa) = 0.02659597
#
# Stress axis : x y z
#
# Youngs Moduli (GPa) = 65.73893 65.92930 58.23937
#
# Poissons Ratio (x) = 0.32461 0.12969
# Poissons Ratio (y) = 0.32368 0.19374
# Poissons Ratio (z) = 0.14638 0.21932
#
# Static dielectric constant tensor:
#      x y z
#    x 1.672530 0.032960 0.022030 
#    y 0.032960 1.707720 0.005400 
#    z 0.022030 0.005400 1.753320 
# 
# From -- ./inp_files/257337.got.cif
#   From: 2010.05.17/outbox.cif.g08.bks.cpg/sg2_129_cif.got.tgz:257337.got - 2010.06.03 11:33:40.
