data_PCOD9093530
_publ_section_title
;
Structure prediction by ZEFSAII (Michael W. Deem and Ramdas Pophale) SiO2 
 PCOD9093530
Probable space group: P -1
;
_chemical_formula_sum "Si O2"
_cell_formula_units_Z 16
_cell_length_a 10.965084
_cell_length_b 9.240758
_cell_length_c 13.245101
_cell_angle_alpha 75.003996
_cell_angle_beta 145.693642
_cell_angle_gamma 94.917409
_cell_volume 710.165984
_symmetry_space_group_name_H-M "P -1"
_symmetry_group_IT_number 2
_symmetry_cell_setting 'triclinic'
loop_
_space_group_symop_operation_xyz
x,y,z
-x,-y,-z
loop_
_atom_site_type_symbol
_atom_site_label
_atom_site_fract_x
_atom_site_fract_y
_atom_site_fract_z
Si Si1 0.246107 0.514242 0.642371
Si Si2 0.515610 0.724423 0.301384
Si Si3 0.374810 0.363979 0.058009
Si Si4 0.133036 0.028894 0.271820
Si Si5 0.577174 0.950125 0.726128
Si Si6 0.745571 0.522924 0.665808
Si Si7 0.011368 0.716527 0.271126
Si Si8 0.893482 0.361803 0.034714
O O1 0.383135 0.350866 0.721036
O O2 0.389411 0.590970 0.804098
O O3 0.000000 0.500000 0.500000
O O4 0.196337 0.636392 0.492726
O O5 0.706448 0.653547 0.526431
O O6 0.448768 0.906136 0.240866
O O7 0.290354 0.659148 0.169099
O O8 0.400077 0.211267 0.172136
O O9 0.226338 0.327300 0.870063
O O10 0.234893 0.512094 0.996914
O O11 0.222372 0.046786 0.215817
O O12 0.972364 0.189834 0.162874
O O13 0.353634 0.983969 0.499406
O O14 0.006632 0.893376 0.222916
O O15 0.500000 0.500000 0.500000
O O16 0.900015 0.367038 0.757499
O O17 0.867759 0.592835 0.826277
#
# Coordination Sequence:
#
# PCOD9093530 Si02
#       8
#     2   2   2   2   2   2   2   2
#     4  10  22  42  66  90 116 152 201 259 315 360
#     4  10  21  38  58  82 118 154 194 247 298 353
#     4  10  22  40  62  88 122 158 203 248 299 359
#     4  11  22  36  60  89 127 167 200 236 287 355
#     4  11  22  37  59  90 127 165 201 237 290 355
#     4  10  20  33  52  82 117 154 196 235 286 347
#     4  10  21  37  60  87 121 159 194 249 296 351
#     4  10  22  36  55  83 118 161 200 241 284 345
#
# _framework density 22.529944
#
# number of rings (size 3 to 8) (size 9 to 14) (size 15 to 20)
#    0.000    1.750    2.500    1.500    1.750    5.500 
#    0.000    0.625    0.000    3.750    0.000    0.000 
#    0.000    0.000    0.000    0.000    0.000    0.000 
#
# Total GULP energy -89245.659448 kJ/mol
# GULP energy per Si atom -5577.853716 kJ/mol
# Density = 2.247866 g / cm^3
# Si number density = 22.529944 Si / 1000 Ang^3
#
#
#
# Elastic Constant Matrix: (Units=GPa)
#
#
# Indices 1 2 3 4 5 6 
#
# 1 26.5293 24.6754 3.2180 7.2611 18.1828 4.9770
# 2 24.6754 194.8478 55.6512 0.2501 19.5888 10.6512
# 3 3.2180 55.6512 126.7214 23.4875 4.8220 1.8026
# 4 7.2611 0.2501 23.4875 57.9359 10.0971 7.9031
# 5 18.1828 19.5888 4.8220 10.0971 32.9542 7.5817
# 6 4.9770 10.6512 1.8026 7.9031 7.5817 17.3799
#
#
#
# Elastic Compliance Matrix: (Units=1/GPa)
#
#
# Indices 1 2 3 4 5 6 
#
# 1 0.065896 -0.005941 0.002864 -0.003826 -0.032127 0.000228
# 2 -0.005941 0.007071 -0.003374 0.002610 -0.000482 -0.003259
# 3 0.002864 -0.003374 0.010155 -0.004765 -0.000160 0.002431
# 4 -0.003826 0.002610 -0.004765 0.021378 -0.003395 -0.008250
# 5 -0.032127 -0.000482 -0.000160 -0.003395 0.052108 -0.011675
# 6 0.000228 -0.003259 0.002431 -0.008250 -0.011675 0.068062
#
#
# Mechanical properties :
#
#
# Convention : Reuss Voigt Hill
#
# Bulk Modulus (GPa) = 14.24066 57.24307 35.74187
# Shear Modulus (GPa) = 19.15869 39.29094 29.22482
#
# Velocity S-wave (km/s) = 2.91927 4.18058 3.60551
# Velocity P-wave (km/s) = 4.20682 6.98325 5.76468
#
# Compressibility (1/GPa) = 0.07022146
#
# Stress axis : x y z
#
# Youngs Moduli (GPa) = 15.17539 141.41487 98.47464
#
# Poissons Ratio (x) = 0.84011 -0.28203
# Poissons Ratio (y) = 0.09015 0.33223
# Poissons Ratio (z) = -0.04346 0.47710
#
# Static dielectric constant tensor:
#      x y z
#    x 2.105190 0.105840 0.080840 
#    y 0.105840 1.839370 0.077680 
#    z 0.080840 0.077680 2.008540 
# 
# From -- ./inp_files/245863.got.cif
#   From: 2010.05.17/outbox.cif.g08.bks.cpg/sg2_123_cif.got.tgz:245863.got - 2010.06.03 11:33:40.
