data_PCOD9093649
_publ_section_title
;
Structure prediction by ZEFSAII (Michael W. Deem and Ramdas Pophale) SiO2 
 PCOD9093649
Probable space group: P -1
;
_chemical_formula_sum "Si O2"
_cell_formula_units_Z 16
_cell_length_a 13.085033
_cell_length_b 9.964042
_cell_length_c 9.391565
_cell_angle_alpha 124.308120
_cell_angle_beta 49.627260
_cell_angle_gamma 142.299783
_cell_volume 567.026107
_symmetry_space_group_name_H-M "P -1"
_symmetry_group_IT_number 2
_symmetry_cell_setting 'triclinic'
loop_
_space_group_symop_operation_xyz
x,y,z
-x,-y,-z
loop_
_atom_site_type_symbol
_atom_site_label
_atom_site_fract_x
_atom_site_fract_y
_atom_site_fract_z
Si Si1 0.992694 0.055924 0.380067
Si Si2 0.502171 0.323445 0.145497
Si Si3 0.099768 0.828503 0.830296
Si Si4 0.615515 0.423006 0.509911
Si Si5 0.675376 0.019291 0.681004
Si Si6 0.261186 0.292189 0.044029
Si Si7 0.661631 0.218389 0.572070
Si Si8 0.137337 0.381351 0.842841
O O1 0.879788 0.127947 0.529004
O O2 0.875506 0.825618 0.263079
O O3 0.000000 0.000000 0.500000
O O4 0.188576 0.204202 0.217630
O O5 0.436124 0.430552 0.355451
O O6 0.369436 0.069474 0.168895
O O7 0.692902 0.422038 0.100988
O O8 0.568283 0.461046 0.019247
O O9 0.166250 0.737754 0.618273
O O10 0.918079 0.758353 0.885186
O O11 0.045747 0.718151 0.970651
O O12 0.245328 0.095856 0.874781
O O13 0.458570 0.197966 0.430249
O O14 0.650573 0.385176 0.613956
O O15 0.801819 0.537469 0.323940
O O16 0.647226 0.172912 0.726327
O O17 0.500000 0.000000 0.500000
#
# Coordination Sequence:
#
# PCOD9093649 Si02
#       8
#     2   2   2   2   2   2   2   2
#     4  11  19  30  49  71  97 127 163 199 233 276
#     4  10  16  29  55  72  95 123 155 202 249 281
#     4   9  16  27  45  69 103 123 150 199 244 287
#     4  10  17  28  50  76 101 125 151 194 248 294
#     4  10  17  31  46  71  99 122 158 196 236 285
#     4   9  17  28  47  71  94 126 158 196 243 278
#     4  10  19  26  44  75 105 126 148 188 253 295
#     4   9  17  30  49  72  98 126 158 200 242 282
#
# _framework density 28.217396000000001
#
# number of rings (size 3 to 8) (size 9 to 14) (size 15 to 20)
#    0.000    2.250    3.750    3.000    0.000    0.500 
#    0.000    0.625    0.000    0.750    0.000   21.875 
#    0.000    0.000    0.000    0.000    0.000    0.000 
#
# Total GULP energy -89416.601728 kJ/mol
# GULP energy per Si atom -5588.537608 kJ/mol
# Density = 2.815317 g / cm^3
# Si number density = 28.217396 Si / 1000 Ang^3
#
#
#
# Elastic Constant Matrix: (Units=GPa)
#
#
# Indices 1 2 3 4 5 6 
#
# 1 98.3760 17.6912 50.6322 -13.7896 30.5653 -37.5561
# 2 17.6912 72.0307 44.8397 -3.5191 -0.4557 -16.1960
# 3 50.6322 44.8397 164.8885 -55.4059 33.8464 -18.5485
# 4 -13.7896 -3.5191 -55.4059 40.1542 -13.0198 13.9515
# 5 30.5653 -0.4557 33.8464 -13.0198 52.2154 -12.9745
# 6 -37.5561 -16.1960 -18.5485 13.9515 -12.9745 45.8837
#
#
#
# Elastic Compliance Matrix: (Units=1/GPa)
#
#
# Indices 1 2 3 4 5 6 
#
# 1 0.019742 0.002820 -0.007490 -0.010546 -0.005377 0.015813
# 2 0.002820 0.022804 -0.012386 -0.016501 0.005419 0.011901
# 3 -0.007490 -0.012386 0.020624 0.027240 -0.005266 -0.011937
# 4 -0.010546 -0.016501 0.027240 0.065232 -0.001234 -0.023628
# 5 -0.005377 0.005419 -0.005266 -0.001234 0.026242 0.003178
# 6 0.015813 0.011901 -0.011937 -0.023628 0.003178 0.042195
#
#
# Mechanical properties :
#
#
# Convention : Reuss Voigt Hill
#
# Bulk Modulus (GPa) = 34.41229 62.40236 48.40733
# Shear Modulus (GPa) = 20.77809 42.45948 31.61879
#
# Velocity S-wave (km/s) = 2.71653 3.88329 3.35108
# Velocity P-wave (km/s) = 4.69695 6.50150 5.67145
#
# Compressibility (1/GPa) = 0.02905939
#
# Stress axis : x y z
#
# Youngs Moduli (GPa) = 50.65350 43.85101 48.48657
#
# Poissons Ratio (x) = -0.12366 0.36317
# Poissons Ratio (y) = -0.14285 0.60054
# Poissons Ratio (z) = 0.37940 0.54312
#
# Static dielectric constant tensor:
#      x y z
#    x 2.249480 -0.012220 0.074620 
#    y -0.012220 2.217900 -0.087550 
#    z 0.074620 -0.087550 2.306890 
# 
# From -- ./inp_files/435071.got.cif
#   From: 2010.05.17/outbox.cif.g08.bks.cpg/sg2_218_cif.got.tgz:435071.got - 2010.06.03 11:33:40.
