data_PCOD9093768
_publ_section_title
;
Structure prediction by ZEFSAII (Michael W. Deem and Ramdas Pophale) SiO2 
 PCOD9093768
Probable space group: P -1
;
_chemical_formula_sum "Si O2"
_cell_formula_units_Z 14
_cell_length_a 15.618156
_cell_length_b 6.171543
_cell_length_c 26.501975
_cell_angle_alpha 135.983715
_cell_angle_beta 16.229508
_cell_angle_gamma 133.569368
_cell_volume 496.079493
_symmetry_space_group_name_H-M "P -1"
_symmetry_group_IT_number 2
_symmetry_cell_setting 'triclinic'
loop_
_space_group_symop_operation_xyz
x,y,z
-x,-y,-z
loop_
_atom_site_type_symbol
_atom_site_label
_atom_site_fract_x
_atom_site_fract_y
_atom_site_fract_z
Si Si1 0.293454 0.281695 0.964936
Si Si2 0.363999 0.091640 0.644944
Si Si3 0.826908 0.228368 0.796360
Si Si4 0.201356 0.333513 0.506596
Si Si5 0.162555 0.573613 0.473419
Si Si6 0.642574 0.159238 0.053112
Si Si7 0.319462 0.034616 0.767160
O O1 0.166074 0.542698 0.121626
O O2 0.423119 0.517517 0.887790
O O3 0.028703 0.075920 0.051816
O O4 0.452901 0.023034 0.869642
O O5 0.572175 0.386101 0.585005
O O6 0.007901 0.167156 0.853788
O O7 0.500000 0.000000 0.500000
O O8 0.396491 0.888830 0.643247
O O9 0.974040 0.389511 0.690643
O O10 0.014709 0.898750 0.632770
O O11 0.488168 0.102668 0.955401
O O12 0.447776 0.083904 0.342797
O O13 0.060668 0.317760 0.528668
O O14 0.000000 0.500000 0.500000
O O15 0.535828 0.616703 0.260156
#
# Coordination Sequence:
#
# PCOD9093768 Si02
#       7
#     2   2   2   2   2   2   2
#     4  11  23  39  63  97 136 174 208 254 323 395
#     4  10  20  33  57  87 129 167 208 252 303 386
#     4  11  25  37  62  95 132 173 209 266 324 385
#     4  10  20  36  61  84 120 160 215 261 320 373
#     4  10  24  42  65  93 122 164 223 279 327 379
#     4  11  24  39  61  95 143 175 209 257 321 392
#     4   9  20  36  59  92 122 164 215 260 319 377
#
# _framework density 28.221281000000001
#
# number of rings (size 3 to 8) (size 9 to 14) (size 15 to 20)
#    0.000    1.714    1.429    2.571   10.000    5.143 
#    0.000    0.000    0.000    8.571    0.000    0.000 
#    0.000    0.000    0.000    0.000    0.000    0.000 
#
# Total GULP energy -77956.340537 kJ/mol
# GULP energy per Si atom -5568.310038 kJ/mol
# Density = 2.815705 g / cm^3
# Si number density = 28.221281 Si / 1000 Ang^3
#
#
#
# Elastic Constant Matrix: (Units=GPa)
#
#
# Indices 1 2 3 4 5 6 
#
# 1 189.3773 77.6395 44.0227 6.5926 9.8226 -35.9873
# 2 77.6395 160.8761 54.5431 -16.9157 1.9644 -14.4272
# 3 44.0227 54.5431 102.6076 -12.5873 5.2187 -12.4043
# 4 6.5926 -16.9157 -12.5873 53.5517 3.1298 -1.9463
# 5 9.8226 1.9644 5.2187 3.1298 61.8387 -13.1735
# 6 -35.9873 -14.4272 -12.4043 -1.9463 -13.1735 34.3519
#
#
#
# Elastic Compliance Matrix: (Units=1/GPa)
#
#
# Indices 1 2 3 4 5 6 
#
# 1 0.008228 -0.003133 -0.001312 -0.002088 0.000478 0.006895
# 2 -0.003133 0.009039 -0.003223 0.002453 0.000272 -0.000407
# 3 -0.001312 -0.003223 0.012523 0.002178 -0.000488 0.001731
# 4 -0.002088 0.002453 0.002178 0.020284 -0.000861 0.000448
# 5 0.000478 0.000272 -0.000488 -0.000861 0.017700 0.007178
# 6 0.006895 -0.000407 0.001731 0.000448 0.007178 0.039566
#
#
# Mechanical properties :
#
#
# Convention : Reuss Voigt Hill
#
# Bulk Modulus (GPa) = 69.18017 89.47463 79.32740
# Shear Modulus (GPa) = 39.21772 48.39218 43.80495
#
# Velocity S-wave (km/s) = 3.73185 4.14543 3.94407
# Velocity P-wave (km/s) = 6.56777 7.39502 6.99364
#
# Compressibility (1/GPa) = 0.01445501
#
# Stress axis : x y z
#
# Youngs Moduli (GPa) = 121.53427 110.63431 79.85387
#
# Poissons Ratio (x) = 0.34665 0.10473
# Poissons Ratio (y) = 0.38081 0.25733
# Poissons Ratio (z) = 0.15939 0.35652
#
# Static dielectric constant tensor:
#      x y z
#    x -1.098380 -0.442090 0.018660 
#    y -0.442090 2.188170 0.033020 
#    z 0.018660 0.033020 2.221540 
# 
# From -- ./inp_files/619041.got.cif
#   From: 2010.05.17/outbox.cif.g08.bks.cpg/sg2_310_cif.got.tgz:619041.got - 2010.06.03 11:33:40.
