data_PCOD9093899
_publ_section_title
;
Structure prediction by ZEFSAII (Michael W. Deem and Ramdas Pophale) SiO2 
 PCOD9093899
Probable space group: P -1
;
_chemical_formula_sum "Si O2"
_cell_formula_units_Z 16
_cell_length_a 10.320220
_cell_length_b 13.803552
_cell_length_c 6.938803
_cell_angle_alpha 102.176272
_cell_angle_beta 59.006109
_cell_angle_gamma 124.872110
_cell_volume 690.266514
_symmetry_space_group_name_H-M "P -1"
_symmetry_group_IT_number 2
_symmetry_cell_setting 'triclinic'
loop_
_space_group_symop_operation_xyz
x,y,z
-x,-y,-z
loop_
_atom_site_type_symbol
_atom_site_label
_atom_site_fract_x
_atom_site_fract_y
_atom_site_fract_z
Si Si1 0.347665 0.528532 0.107774
Si Si2 0.175479 0.613259 0.810544
Si Si3 0.261140 0.891470 0.258022
Si Si4 0.456797 0.770432 0.989428
Si Si5 0.954441 0.801882 0.149404
Si Si6 0.698706 0.533814 0.328169
Si Si7 0.205274 0.086760 0.456767
Si Si8 0.994011 0.293246 0.307843
O O1 0.408702 0.665455 0.134277
O O2 0.169625 0.417506 0.293250
O O3 0.500000 0.500000 0.000000
O O4 0.297365 0.502524 0.909385
O O5 0.273114 0.555768 0.612793
O O6 0.119077 0.672703 0.723746
O O7 0.306832 0.708370 0.908203
O O8 0.000000 0.500000 0.000000
O O9 0.429687 0.875864 0.114804
O O10 0.151864 0.875041 0.134129
O O11 0.117836 0.784360 0.459464
O O12 0.289270 0.008057 0.387726
O O13 0.653526 0.817626 0.767050
O O14 0.847490 0.672609 0.279625
O O15 0.831921 0.853626 0.311833
O O16 0.960922 0.778864 0.908350
O O17 0.500000 0.500000 0.500000
O O18 0.000000 0.000000 0.500000
#
# Coordination Sequence:
#
# PCOD9093899 Si02
#       8
#     2   2   2   2   2   2   2   2
#     4  10  23  36  59 100 137 160 209 266 322 399
#     4  11  18  40  62  94 132 167 209 256 326 402
#     4  11  24  40  67  94 124 174 220 265 319 379
#     4  11  21  42  68  91 134 173 210 268 327 382
#     4  10  20  42  63  88 129 171 209 270 316 372
#     4  10  20  33  60  89 124 172 205 250 327 384
#     4  10  24  42  68  91 122 179 226 267 319 374
#     4  11  23  39  67 101 132 167 215 262 331 396
#
# _framework density 23.179452999999999
#
# number of rings (size 3 to 8) (size 9 to 14) (size 15 to 20)
#    0.000    1.500    5.000    1.875    5.250    2.000 
#    0.000    0.625    0.000    0.000    0.000    0.000 
#    0.000    0.000    0.000    0.000    0.000    0.000 
#
# Total GULP energy -89308.865298 kJ/mol
# GULP energy per Si atom -5581.804081 kJ/mol
# Density = 2.312670 g / cm^3
# Si number density = 23.179453 Si / 1000 Ang^3
#
#
#
# Elastic Constant Matrix: (Units=GPa)
#
#
# Indices 1 2 3 4 5 6 
#
# 1 71.5843 21.4320 20.0685 12.6313 -16.0505 -12.2609
# 2 21.4320 60.4785 3.6459 12.5925 -13.9569 -9.5009
# 3 20.0685 3.6459 81.6983 3.8994 -20.8080 6.9675
# 4 12.6313 12.5925 3.8994 52.9385 -10.6040 -14.4163
# 5 -16.0505 -13.9569 -20.8080 -10.6040 38.7158 10.3945
# 6 -12.2609 -9.5009 6.9675 -14.4163 10.3945 24.4561
#
#
#
# Elastic Compliance Matrix: (Units=1/GPa)
#
#
# Indices 1 2 3 4 5 6 
#
# 1 0.018370 -0.004598 -0.004657 -0.000553 0.001176 0.007925
# 2 -0.004598 0.019963 0.001513 -0.002344 0.005063 0.001485
# 3 -0.004657 0.001513 0.017138 -0.001689 0.010622 -0.012140
# 4 -0.000553 -0.002344 -0.001689 0.023346 0.001024 0.012620
# 5 0.001176 0.005063 0.010622 0.001024 0.038487 -0.016224
# 6 0.007925 0.001485 -0.012140 0.012620 -0.016224 0.063233
#
#
# Mechanical properties :
#
#
# Convention : Reuss Voigt Hill
#
# Bulk Modulus (GPa) = 25.00771 33.78378 29.39574
# Shear Modulus (GPa) = 23.88342 34.46305 29.17323
#
# Velocity S-wave (km/s) = 3.21342 3.86008 3.55150
# Velocity P-wave (km/s) = 4.95785 5.87141 5.43386
#
# Compressibility (1/GPa) = 0.03998767
#
# Stress axis : x y z
#
# Youngs Moduli (GPa) = 54.43555 50.09340 58.34957
#
# Poissons Ratio (x) = 0.23031 0.27175
# Poissons Ratio (y) = 0.25028 -0.08829
# Poissons Ratio (z) = 0.25352 -0.07580
#
# Static dielectric constant tensor:
#      x y z
#    x 1.959040 -0.057150 -0.132140 
#    y -0.057150 1.975310 0.062650 
#    z -0.132140 0.062650 2.102800 
# 
# From -- ./inp_files/270616.got.cif
#   From: 2010.05.17/outbox.cif.g08.bks.cpg/sg2_136_cif.got.tgz:270616.got - 2010.06.03 11:33:40.
