data_PCOD9093827
_publ_section_title
;
Structure prediction by ZEFSAII (Michael W. Deem and Ramdas Pophale) SiO2 
 PCOD9093827
Probable space group: P -1
;
_chemical_formula_sum "Si O2"
_cell_formula_units_Z 14
_cell_length_a 9.662159
_cell_length_b 9.491748
_cell_length_c 12.057409
_cell_angle_alpha 64.239332
_cell_angle_beta 106.877948
_cell_angle_gamma 55.424047
_cell_volume 565.521060
_symmetry_space_group_name_H-M "P -1"
_symmetry_group_IT_number 2
_symmetry_cell_setting 'triclinic'
loop_
_space_group_symop_operation_xyz
x,y,z
-x,-y,-z
loop_
_atom_site_type_symbol
_atom_site_label
_atom_site_fract_x
_atom_site_fract_y
_atom_site_fract_z
Si Si1 0.537240 0.770609 0.458462
Si Si2 0.283184 0.485044 0.881063
Si Si3 0.767652 0.927102 0.132305
Si Si4 0.086518 0.753960 0.960925
Si Si5 0.145241 0.367902 0.218402
Si Si6 0.341339 0.309660 0.736780
Si Si7 0.246979 0.700298 0.248552
O O1 0.714993 0.698875 0.615302
O O2 0.648105 0.665819 0.397587
O O3 0.524910 0.602535 0.558531
O O4 0.306312 0.087790 0.299864
O O5 0.188988 0.684253 0.884810
O O6 0.252565 0.525062 0.726310
O O7 0.112517 0.483219 0.863981
O O8 0.565898 0.196744 0.064822
O O9 0.798838 0.731241 0.262181
O O10 0.013289 0.804709 0.204627
O O11 0.610158 0.043552 0.942643
O O12 0.113817 0.549150 0.073992
O O13 0.239073 0.706075 0.111095
O O14 0.824134 0.065328 0.807333
#
# Coordination Sequence:
#
# PCOD9093827 Si02
#       7
#     2   2   2   2   2   2   2
#     4  10  21  37  58  86 119 147 182 242 288 330
#     4  10  20  33  58  90 107 145 197 237 273 326
#     4   9  20  35  58  89 108 151 194 228 282 336
#     4  10  21  37  60  83 114 153 193 231 274 342
#     4  10  21  35  61  87 113 146 193 237 281 329
#     4   9  19  34  56  89 110 147 191 230 288 326
#     4  10  22  39  58  85 116 151 189 230 288 339
#
# _framework density 24.755928000000001
#
# number of rings (size 3 to 8) (size 9 to 14) (size 15 to 20)
#    0.857    1.429    0.000    3.000    2.000    2.857 
#    0.000    1.429    6.286    0.000    0.000    0.000 
#    0.000    0.000    0.000    0.000    0.000    0.000 
#
# Total GULP energy -78140.097894 kJ/mol
# GULP energy per Si atom -5581.435564 kJ/mol
# Density = 2.469958 g / cm^3
# Si number density = 24.755928 Si / 1000 Ang^3
#
#
#
# Elastic Constant Matrix: (Units=GPa)
#
#
# Indices 1 2 3 4 5 6 
#
# 1 93.7642 17.0970 9.9772 -6.0736 1.0617 6.1873
# 2 17.0970 229.1640 58.6874 11.0675 -22.7428 -2.1591
# 3 9.9772 58.6874 132.8272 5.2978 -18.4813 -1.5697
# 4 -6.0736 11.0675 5.2978 52.0214 -8.8231 -14.4814
# 5 1.0617 -22.7428 -18.4813 -8.8231 31.6993 -2.9710
# 6 6.1873 -2.1591 -1.5697 -14.4814 -2.9710 32.8265
#
#
#
# Elastic Compliance Matrix: (Units=1/GPa)
#
#
# Indices 1 2 3 4 5 6 
#
# 1 0.011087 -0.000836 -0.000705 0.000769 -0.001353 -0.001962
# 2 -0.000836 0.005181 -0.001843 -0.000449 0.002587 0.000446
# 3 -0.000705 -0.001843 0.008966 0.000367 0.004123 0.000976
# 4 0.000769 -0.000449 0.000367 0.023696 0.007490 0.010975
# 5 -0.001353 0.002587 0.004123 0.007490 0.038632 0.007423
# 6 -0.001962 0.000446 0.000976 0.010975 0.007423 0.036422
#
#
# Mechanical properties :
#
#
# Convention : Reuss Voigt Hill
#
# Bulk Modulus (GPa) = 54.15692 69.69763 61.92727
# Shear Modulus (GPa) = 36.52055 47.97569 42.24812
#
# Velocity S-wave (km/s) = 3.84503 4.40699 4.13557
# Velocity P-wave (km/s) = 6.45261 7.35598 6.91905
#
# Compressibility (1/GPa) = 0.01846486
#
# Stress axis : x y z
#
# Youngs Moduli (GPa) = 90.19431 193.02289 111.52816
#
# Poissons Ratio (x) = 0.16144 0.07866
# Poissons Ratio (y) = 0.07544 0.20555
# Poissons Ratio (z) = 0.06361 0.35575
#
# Static dielectric constant tensor:
#      x y z
#    x 2.000950 0.043240 0.040530 
#    y 0.043240 2.073110 0.014190 
#    z 0.040530 0.014190 1.990320 
# 
# From -- ./inp_files/414519.got.cif
#   From: 2010.05.17/outbox.cif.g08.bks.cpg/sg2_208_cif.got.tgz:414519.got - 2010.06.03 11:33:40.
