data_PCOD9093288
_publ_section_title
;
Structure prediction by ZEFSAII (Michael W. Deem and Ramdas Pophale) SiO2 
 PCOD9093288
Probable space group: P -1
;
_chemical_formula_sum "Si O2"
_cell_formula_units_Z 15
_cell_length_a 13.979858
_cell_length_b 13.676105
_cell_length_c 10.589330
_cell_angle_alpha 129.974244
_cell_angle_beta 65.661860
_cell_angle_gamma 149.845668
_cell_volume 723.285431
_symmetry_space_group_name_H-M "P -1"
_symmetry_group_IT_number 2
_symmetry_cell_setting 'triclinic'
loop_
_space_group_symop_operation_xyz
x,y,z
-x,-y,-z
loop_
_atom_site_type_symbol
_atom_site_label
_atom_site_fract_x
_atom_site_fract_y
_atom_site_fract_z
Si Si1 0.500000 0.500000 0.500000
Si Si2 0.187376 0.261562 0.726424
Si Si3 0.895942 0.843518 0.725028
Si Si4 0.170433 0.620625 0.415894
Si Si5 0.047338 0.852763 0.880539
Si Si6 0.486481 0.338882 0.921206
Si Si7 0.762791 0.923437 0.601167
Si Si8 0.574785 0.910151 0.485545
O O1 0.676170 0.611561 0.589764
O O2 0.631915 0.778624 0.678459
O O3 0.303801 0.297918 0.585334
O O4 0.337841 0.489145 0.926706
O O5 0.070667 0.026924 0.673555
O O6 0.004594 0.159054 0.688770
O O7 0.920625 0.762720 0.750220
O O8 0.951537 0.032132 0.924890
O O9 0.055914 0.383914 0.212650
O O10 0.369436 0.776549 0.513455
O O11 0.000000 0.500000 0.500000
O O12 0.260128 0.819962 0.438720
O O13 0.276458 0.085608 0.895513
O O14 0.494774 0.259766 0.728321
O O15 0.500000 0.500000 0.000000
O O16 0.681585 0.941163 0.563690
#
# Coordination Sequence:
#
# PCOD9093288 Si02
#       8
#     1   2   2   2   2   2   2   2
#     4  10  20  32  54  84 124 144 198 234 318 378
#     4  10  20  33  55  86 128 150 190 235 319 371
#     4  10  20  33  55  91 114 158 182 259 309 364
#     4  11  24  41  60  92 118 167 219 255 293 359
#     4  11  21  35  60  87 125 148 207 251 305 361
#     4  12  20  34  59  94 122 156 192 253 317 366
#     4  10  20  37  54  87 121 164 189 246 310 373
#     4  11  23  41  65  86 126 165 205 256 305 359
#
# _framework density 20.738700999999999
#
# number of rings (size 3 to 8) (size 9 to 14) (size 15 to 20)
#    0.000    1.333    4.000    2.400    1.867    0.000 
#    2.400    0.000    0.000   15.200    0.000    0.000 
#    0.000    0.000    0.000    0.000    0.000    0.000 
#
# Total GULP energy -83584.529158 kJ/mol
# GULP energy per Si atom -5572.301944 kJ/mol
# Density = 2.069150 g / cm^3
# Si number density = 20.738701 Si / 1000 Ang^3
#
#
#
# Elastic Constant Matrix: (Units=GPa)
#
#
# Indices 1 2 3 4 5 6 
#
# 1 142.1122 55.4960 42.0467 20.2076 25.9877 -8.8820
# 2 55.4960 112.1660 26.8457 24.8467 5.0902 8.6880
# 3 42.0467 26.8457 67.1445 19.2955 15.9340 -7.9275
# 4 20.2076 24.8467 19.2955 35.4094 1.3352 -0.8122
# 5 25.9877 5.0902 15.9340 1.3352 43.9277 6.7344
# 6 -8.8820 8.6880 -7.9275 -0.8122 6.7344 32.8780
#
#
#
# Elastic Compliance Matrix: (Units=1/GPa)
#
#
# Indices 1 2 3 4 5 6 
#
# 1 0.011252 -0.004713 -0.002889 -0.001215 -0.005752 0.004737
# 2 -0.004713 0.013385 -0.002221 -0.005752 0.003158 -0.006134
# 3 -0.002889 -0.002221 0.022467 -0.008628 -0.006906 0.006425
# 4 -0.001215 -0.005752 -0.008628 0.037526 0.003478 -0.000674
# 5 -0.005752 0.003158 -0.006906 0.003478 0.029743 -0.010060
# 6 0.004737 -0.006134 0.006425 -0.000674 -0.010060 0.036909
#
#
# Mechanical properties :
#
#
# Convention : Reuss Voigt Hill
#
# Bulk Modulus (GPa) = 36.41734 63.35552 49.88643
# Shear Modulus (GPa) = 27.76532 35.57863 31.67198
#
# Velocity S-wave (km/s) = 3.66295 4.14643 3.91217
# Velocity P-wave (km/s) = 5.95717 7.31708 6.67186
#
# Compressibility (1/GPa) = 0.02745945
#
# Stress axis : x y z
#
# Youngs Moduli (GPa) = 88.86946 74.71268 44.50943
#
# Poissons Ratio (x) = 0.35210 0.12857
# Poissons Ratio (y) = 0.41881 0.09886
# Poissons Ratio (z) = 0.25672 0.16594
#
# Static dielectric constant tensor:
#      x y z
#    x 1.772340 0.007860 -0.006100 
#    y 0.007860 2.777380 -0.130770 
#    z -0.006100 -0.130770 1.777760 
# 
# From -- ./inp_files/423053.got.cif
#   From: 2010.05.17/outbox.cif.g08.bks.cpg/sg2_212_cif.got.tgz:423053.got - 2010.06.03 11:33:40.
