data_PCOD9093227
_publ_section_title
;
Structure prediction by ZEFSAII (Michael W. Deem and Ramdas Pophale) SiO2 
 PCOD9093227
Probable space group: P -1
;
_chemical_formula_sum "Si O2"
_cell_formula_units_Z 16
_cell_length_a 7.462056
_cell_length_b 10.742769
_cell_length_c 10.484483
_cell_angle_alpha 65.368030
_cell_angle_beta 131.034432
_cell_angle_gamma 94.312110
_cell_volume 551.627825
_symmetry_space_group_name_H-M "P -1"
_symmetry_group_IT_number 2
_symmetry_cell_setting 'triclinic'
loop_
_space_group_symop_operation_xyz
x,y,z
-x,-y,-z
loop_
_atom_site_type_symbol
_atom_site_label
_atom_site_fract_x
_atom_site_fract_y
_atom_site_fract_z
Si Si1 0.733699 0.881130 0.985238
Si Si2 0.531809 0.623693 0.284284
Si Si3 0.861526 0.379419 0.680376
Si Si4 0.853953 0.293246 0.226855
Si Si5 0.446634 0.797404 0.530612
Si Si6 0.366513 0.428113 0.093442
Si Si7 0.316308 0.134995 0.650821
Si Si8 0.030132 0.055878 0.199428
O O1 0.860825 0.907025 0.899528
O O2 0.444993 0.967272 0.803398
O O3 0.855255 0.712795 0.134903
O O4 0.848542 0.963800 0.110393
O O5 0.777720 0.534484 0.513536
O O6 0.296773 0.624739 0.264102
O O7 0.491813 0.534283 0.184163
O O8 0.575338 0.778042 0.230082
O O9 0.737894 0.291955 0.561270
O O10 0.579979 0.340449 0.136873
O O11 0.028646 0.202522 0.458804
O O12 0.907124 0.190746 0.172302
O O13 0.872715 0.452529 0.125884
O O14 0.647248 0.695843 0.761140
O O15 0.571661 0.824525 0.446706
O O16 0.267356 0.948992 0.427739
#
# Coordination Sequence:
#
# PCOD9093227 Si02
#       8
#     2   2   2   2   2   2   2   2
#     4   9  16  30  54  78  98 126 167 209 249 294
#     4   9  16  31  53  73  99 134 170 204 241 291
#     4   8  14  27  53  81  97 123 169 211 244 289
#     4  11  23  34  48  75 107 134 164 204 252 298
#     4   8  17  33  54  76  96 126 170 208 244 294
#     4  10  21  37  52  68  99 143 174 195 240 307
#     4  10  20  32  51  81 104 123 163 217 255 282
#     4   9  17  32  53  75 100 131 165 201 247 304
#
# _framework density 29.005064000000001
#
# number of rings (size 3 to 8) (size 9 to 14) (size 15 to 20)
#    0.000    2.750    0.000    4.500    0.000    3.500 
#    0.000    1.250    0.000    6.750    0.000    0.000 
#    0.000    0.000    0.000    0.000    0.000    0.000 
#
# Total GULP energy -89667.912205 kJ/mol
# GULP energy per Si atom -5604.244513 kJ/mol
# Density = 2.893905 g / cm^3
# Si number density = 29.005064 Si / 1000 Ang^3
#
#
#
# Elastic Constant Matrix: (Units=GPa)
#
#
# Indices 1 2 3 4 5 6 
#
# 1 109.2391 47.7526 41.1225 -11.4901 8.4103 -36.6673
# 2 47.7526 158.1770 41.9541 -17.2284 20.7031 -34.1525
# 3 41.1225 41.9541 184.0702 -27.7205 45.3461 -8.9323
# 4 -11.4901 -17.2284 -27.7205 61.9873 -11.4881 9.0263
# 5 8.4103 20.7031 45.3461 -11.4881 40.7030 -4.4249
# 6 -36.6673 -34.1525 -8.9323 9.0263 -4.4249 40.1155
#
#
#
# Elastic Compliance Matrix: (Units=1/GPa)
#
#
# Indices 1 2 3 4 5 6 
#
# 1 0.014664 -0.001399 -0.002969 -0.000320 0.002188 0.011865
# 2 -0.001399 0.008473 -0.000643 0.000549 -0.002564 0.005385
# 3 -0.002969 -0.000643 0.008417 0.001913 -0.008192 -0.002721
# 4 -0.000320 0.000549 0.001913 0.017987 0.002387 -0.003184
# 5 0.002188 -0.002564 -0.008192 0.002387 0.035368 0.001358
# 6 0.011865 0.005385 -0.002721 -0.003184 0.001358 0.040618
#
#
# Mechanical properties :
#
#
# Convention : Reuss Voigt Hill
#
# Bulk Modulus (GPa) = 46.44316 79.23829 62.84072
# Shear Modulus (GPa) = 35.03239 49.93829 42.48534
#
# Velocity S-wave (km/s) = 3.47912 4.15385 3.83137
# Velocity P-wave (km/s) = 5.67326 7.09817 6.42534
#
# Compressibility (1/GPa) = 0.02153170
#
# Stress axis : x y z
#
# Youngs Moduli (GPa) = 68.19588 118.02101 118.81108
#
# Poissons Ratio (x) = 0.16512 0.35272
# Poissons Ratio (y) = 0.09541 0.07640
# Poissons Ratio (z) = 0.20245 0.07590
#
# Static dielectric constant tensor:
#      x y z
#    x 2.232600 0.028660 -0.035860 
#    y 0.028660 2.210240 0.016980 
#    z -0.035860 0.016980 2.369300 
# 
# From -- ./inp_files/516829.got.cif
#   From: 2010.05.17/outbox.cif.g08.bks.cpg/sg2_259_cif.got.tgz:516829.got - 2010.06.03 11:33:40.
