data_PCOD9094306
_publ_section_title
;
Structure prediction by ZEFSAII (Michael W. Deem and Ramdas Pophale) SiO2 
 PCOD9094306
Probable space group: P -1
;
_chemical_formula_sum "Si O2"
_cell_formula_units_Z 12
_cell_length_a 5.374380
_cell_length_b 14.082762
_cell_length_c 17.820222
_cell_angle_alpha 158.511420
_cell_angle_beta 90.058712
_cell_angle_gamma 85.233093
_cell_volume 481.481887
_symmetry_space_group_name_H-M "P -1"
_symmetry_group_IT_number 2
_symmetry_cell_setting 'triclinic'
loop_
_space_group_symop_operation_xyz
x,y,z
-x,-y,-z
loop_
_atom_site_type_symbol
_atom_site_label
_atom_site_fract_x
_atom_site_fract_y
_atom_site_fract_z
Si Si1 0.422059 0.869647 0.216770
Si Si2 0.838149 0.370041 0.820339
Si Si3 0.683970 0.023134 0.448948
Si Si4 0.196462 0.875833 0.065261
Si Si5 0.612110 0.691067 0.695238
Si Si6 0.719796 0.745694 0.894686
O O1 0.298166 0.757220 0.205775
O O2 0.222046 0.915300 0.183144
O O3 0.539645 0.093258 0.422308
O O4 0.671387 0.664880 0.034408
O O5 0.832895 0.231635 0.636763
O O6 0.131831 0.272526 0.772202
O O7 0.500000 0.000000 0.500000
O O8 0.189556 0.164202 0.240562
O O9 0.471601 0.709873 0.914048
O O10 0.976247 0.736187 0.934559
O O11 0.500000 0.500000 0.500000
O O12 0.733695 0.592488 0.703087
O O13 0.368978 0.936796 0.892343
#
# Coordination Sequence:
#
# PCOD9094306 Si02
#       6
#     2   2   2   2   2   2
#     4  10  20  34  56  82 112 155 199 241 297 351
#     4   9  19  35  57  77 113 154 198 240 296 349
#     4   9  18  35  53  80 107 152 194 243 289 347
#     4  10  21  39  59  88 123 152 192 252 295 347
#     4   9  20  39  65  85 116 158 195 234 301 359
#     4   9  21  40  57  87 121 152 189 249 293 356
#
# _framework density 24.923055999999999
#
# number of rings (size 3 to 8) (size 9 to 14) (size 15 to 20)
#    1.000    1.667    0.000    1.000    2.333    0.667 
#    3.000    0.000    0.000    0.000    0.000    0.000 
#    0.000    0.000    0.000    0.000    0.000    0.000 
#
# Total GULP energy -66883.641753 kJ/mol
# GULP energy per Si atom -5573.636813 kJ/mol
# Density = 2.486633 g / cm^3
# Si number density = 24.923056 Si / 1000 Ang^3
#
#
#
# Elastic Constant Matrix: (Units=GPa)
#
#
# Indices 1 2 3 4 5 6 
#
# 1 158.0071 42.8220 49.3276 -25.9912 16.7769 -27.0178
# 2 42.8220 75.0732 42.2988 -39.4148 22.5751 -14.4967
# 3 49.3276 42.2988 116.5181 -35.4299 25.4716 -15.3554
# 4 -25.9912 -39.4148 -35.4299 50.1012 -22.2356 18.9431
# 5 16.7769 22.5751 25.4716 -22.2356 49.2208 -13.6207
# 6 -27.0178 -14.4967 -15.3554 18.9431 -13.6207 37.3427
#
#
#
# Elastic Compliance Matrix: (Units=1/GPa)
#
#
# Indices 1 2 3 4 5 6 
#
# 1 0.008534 -0.003702 -0.002258 -0.001677 0.000544 0.004858
# 2 -0.003702 0.025751 -0.002598 0.016510 -0.002596 -0.003072
# 3 -0.002258 -0.002598 0.012359 0.004732 -0.002543 -0.000888
# 4 -0.001677 0.016510 0.004732 0.042978 0.006572 -0.012262
# 5 0.000544 -0.002596 -0.002543 0.006572 0.026944 0.004834
# 6 0.004858 -0.003072 -0.000888 -0.012262 0.004834 0.036720
#
#
# Mechanical properties :
#
#
# Convention : Reuss Voigt Hill
#
# Bulk Modulus (GPa) = 33.86463 68.72167 51.29315
# Shear Modulus (GPa) = 27.74004 41.67628 34.70816
#
# Velocity S-wave (km/s) = 3.33983 4.09369 3.73582
# Velocity P-wave (km/s) = 5.33758 7.06950 6.26369
#
# Compressibility (1/GPa) = 0.02952933
#
# Stress axis : x y z
#
# Youngs Moduli (GPa) = 117.17963 38.83284 80.91268
#
# Poissons Ratio (x) = 0.14374 0.18267
# Poissons Ratio (y) = 0.43375 0.21023
# Poissons Ratio (z) = 0.26455 0.10090
#
# Static dielectric constant tensor:
#      x y z
#    x 2.016850 -0.021980 0.046790 
#    y -0.021980 2.064700 0.031780 
#    z 0.046790 0.031780 2.035820 
# 
# From -- ./inp_files/484624.got.cif
#   From: 2010.05.17/outbox.cif.g08.bks.cpg/sg2_243_cif.got.tgz:484624.got - 2010.06.03 11:33:40.
