data_PCOD9094364
_publ_section_title
;
Structure prediction by ZEFSAII (Michael W. Deem and Ramdas Pophale) SiO2 
 PCOD9094364
Probable space group: P -1
;
_chemical_formula_sum "Si O2"
_cell_formula_units_Z 16
_cell_length_a 11.985894
_cell_length_b 14.802174
_cell_length_c 5.165203
_cell_angle_alpha 70.485242
_cell_angle_beta 95.542394
_cell_angle_gamma 76.433901
_cell_volume 824.209331
_symmetry_space_group_name_H-M "P -1"
_symmetry_group_IT_number 2
_symmetry_cell_setting 'triclinic'
loop_
_space_group_symop_operation_xyz
x,y,z
-x,-y,-z
loop_
_atom_site_type_symbol
_atom_site_label
_atom_site_fract_x
_atom_site_fract_y
_atom_site_fract_z
Si Si1 0.810138 0.057650 0.537562
Si Si2 0.880552 0.715414 0.504427
Si Si3 0.113238 0.864426 0.026839
Si Si4 0.310208 0.739560 0.503742
Si Si5 0.852185 0.388189 0.287571
Si Si6 0.205734 0.479637 0.337197
Si Si7 0.862720 0.836351 0.892774
Si Si8 0.527190 0.557589 0.698948
O O1 0.856233 0.067082 0.253703
O O2 0.699478 0.154041 0.468637
O O3 0.899719 0.080113 0.750935
O O4 0.795955 0.950496 0.700304
O O5 0.841195 0.616090 0.553561
O O6 0.830147 0.796526 0.194433
O O7 0.021204 0.682995 0.544299
O O8 0.848784 0.763521 0.731548
O O9 0.228815 0.771529 0.197965
O O10 0.999419 0.834606 0.945188
O O11 0.237904 0.677226 0.706884
O O12 0.438784 0.668521 0.565302
O O13 0.805908 0.463088 0.445992
O O14 0.863728 0.446283 0.972507
O O15 0.338115 0.446382 0.292972
O O16 0.500000 0.500000 0.500000
O O17 0.500000 0.500000 0.000000
#
# Coordination Sequence:
#
# PCOD9094364 Si02
#       8
#     2   2   2   2   2   2   2   2
#     4  10  22  34  58  89 123 153 192 243 298 360
#     4  12  25  38  61  86 122 167 197 238 285 356
#     4  10  20  34  56  88 124 148 194 237 304 342
#     4  10  23  35  63  87 122 149 195 242 308 336
#     4  12  22  40  61  88 124 155 197 241 298 360
#     4  12  25  42  59  87 122 160 203 240 290 355
#     4  12  21  38  59  87 123 158 199 239 293 350
#     4  12  24  40  63  88 117 154 197 250 299 343
#
# _framework density 19.412545000000001
#
# number of rings (size 3 to 8) (size 9 to 14) (size 15 to 20)
#    0.750    0.000    3.750    5.250    3.500    0.000 
#    0.000    0.000    0.000    1.500    0.000    0.000 
#    0.000    0.000    0.000    0.000    0.000    0.000 
#
# Total GULP energy -89386.140468 kJ/mol
# GULP energy per Si atom -5586.633779 kJ/mol
# Density = 1.936836 g / cm^3
# Si number density = 19.412545 Si / 1000 Ang^3
#
#
#
# Elastic Constant Matrix: (Units=GPa)
#
#
# Indices 1 2 3 4 5 6 
#
# 1 15.2524 8.8830 -12.9837 0.7714 2.7733 -7.5574
# 2 8.8830 75.7174 8.6738 -10.6740 14.4883 -10.9542
# 3 -12.9837 8.6738 101.5502 -4.7959 -0.4856 3.4890
# 4 0.7714 -10.6740 -4.7959 37.3469 0.0249 -0.7453
# 5 2.7733 14.4883 -0.4856 0.0249 13.4152 -5.9635
# 6 -7.5574 -10.9542 3.4890 -0.7453 -5.9635 25.3378
#
#
#
# Elastic Compliance Matrix: (Units=1/GPa)
#
#
# Indices 1 2 3 4 5 6 
#
# 1 0.091826 -0.009627 0.011689 -0.002711 0.001582 0.021909
# 2 -0.009627 0.019092 -0.002753 0.005347 -0.017989 0.001685
# 3 0.011689 -0.002753 0.011570 0.000478 0.001444 0.001057
# 4 -0.002711 0.005347 0.000478 0.028448 -0.004735 0.001160
# 5 0.001582 -0.017989 0.001444 -0.004735 0.100859 0.016095
# 6 0.021909 0.001685 0.001057 0.001160 0.016095 0.050406
#
#
# Mechanical properties :
#
#
# Convention : Reuss Voigt Hill
#
# Bulk Modulus (GPa) = 8.25716 22.40736 15.33226
# Shear Modulus (GPa) = 14.53694 27.74979 21.14336
#
# Velocity S-wave (km/s) = 2.73947 3.78494 3.30382
# Velocity P-wave (km/s) = 3.77743 5.53795 4.74014
#
# Compressibility (1/GPa) = 0.12110698
#
# Stress axis : x y z
#
# Youngs Moduli (GPa) = 10.89013 52.37930 86.42910
#
# Poissons Ratio (x) = 0.50426 -1.01031
# Poissons Ratio (y) = 0.10484 0.23793
# Poissons Ratio (z) = -0.12730 0.14420
#
# Static dielectric constant tensor:
#      x y z
#    x 1.654470 -0.031710 0.018050 
#    y -0.031710 1.706470 -0.013760 
#    z 0.018050 -0.013760 1.693570 
# 
# From -- ./inp_files/77132.got.cif
#   From: 2010.05.17/outbox.cif.g08.bks.cpg/sg2_39_cif.got.tgz:77132.got - 2010.06.03 11:33:40.
