data_PCOD9094288
_publ_section_title
;
Structure prediction by ZEFSAII (Michael W. Deem and Ramdas Pophale) SiO2 
 PCOD9094288
Probable space group: P -1
;
_chemical_formula_sum "Si O2"
_cell_formula_units_Z 16
_cell_length_a 5.239969
_cell_length_b 5.274290
_cell_length_c 23.439270
_cell_angle_alpha 91.782924
_cell_angle_beta 108.448954
_cell_angle_gamma 89.304826
_cell_volume 614.201812
_symmetry_space_group_name_H-M "P -1"
_symmetry_group_IT_number 2
_symmetry_cell_setting 'triclinic'
loop_
_space_group_symop_operation_xyz
x,y,z
-x,-y,-z
loop_
_atom_site_type_symbol
_atom_site_label
_atom_site_fract_x
_atom_site_fract_y
_atom_site_fract_z
Si Si1 0.821660 0.169699 0.947345
Si Si2 0.939938 0.043326 0.381090
Si Si3 0.639911 0.582196 0.597522
Si Si4 0.849124 0.298772 0.706410
Si Si5 0.598335 0.876029 0.261828
Si Si6 0.807244 0.274795 0.507162
Si Si7 0.735417 0.622964 0.091948
Si Si8 0.386685 0.883725 0.850965
O O1 0.556947 0.305778 0.955856
O O2 0.014467 0.375288 0.932904
O O3 0.684788 0.972491 0.891880
O O4 0.000000 0.000000 0.000000
O O5 0.662898 0.983599 0.330318
O O6 0.055281 0.323859 0.391056
O O7 0.126279 0.915539 0.343001
O O8 0.010577 0.924585 0.446263
O O9 0.656578 0.503030 0.663403
O O10 0.616046 0.357121 0.548069
O O11 0.407942 0.767650 0.559542
O O12 0.700031 0.228081 0.753240
O O13 0.170061 0.334123 0.736674
O O14 0.628675 0.090780 0.217902
O O15 0.000000 0.500000 0.500000
O O16 0.696925 0.374777 0.126112
O O17 0.780254 0.876802 0.134641
#
# Coordination Sequence:
#
# PCOD9094288 Si02
#       8
#     2   2   2   2   2   2   2   2
#     4  10  24  44  71 105 141 185 231 283 339 402
#     4   9  21  37  55  86 113 151 203 247 311 377
#     4  10  20  36  57  83 112 154 193 255 311 375
#     4   9  22  40  57  86 116 153 204 249 314 376
#     4  10  22  42  62  86 123 161 208 259 315 384
#     4  10  20  34  56  80 116 148 193 248 311 377
#     4  10  25  42  70 102 141 181 232 279 344 397
#     4  10  26  44  69 100 142 182 233 282 342 399
#
# _framework density 26.050070000000002
#
# number of rings (size 3 to 8) (size 9 to 14) (size 15 to 20)
#    1.500    0.750    0.000    1.500    3.500    3.500 
#    2.250    0.000    0.000    0.000    0.000    0.000 
#    0.000    0.000    0.000    0.000    0.000    0.000 
#
# Total GULP energy -89173.515224 kJ/mol
# GULP energy per Si atom -5573.344702 kJ/mol
# Density = 2.599078 g / cm^3
# Si number density = 26.050070 Si / 1000 Ang^3
#
#
#
# Elastic Constant Matrix: (Units=GPa)
#
#
# Indices 1 2 3 4 5 6 
#
# 1 142.2860 22.8006 29.9090 -10.5647 1.0076 11.1617
# 2 22.8006 79.7963 30.0981 -25.2716 -1.5341 11.2124
# 3 29.9090 30.0981 112.6844 -24.7958 16.3523 4.7559
# 4 -10.5647 -25.2716 -24.7958 37.0064 4.2508 -4.6584
# 5 1.0076 -1.5341 16.3523 4.2508 33.3417 -10.2256
# 6 11.1617 11.2124 4.7559 -4.6584 -10.2256 41.4927
#
#
#
# Elastic Compliance Matrix: (Units=1/GPa)
#
#
# Indices 1 2 3 4 5 6 
#
# 1 0.007707 -0.001387 -0.001624 -0.000029 0.000042 -0.001505
# 2 -0.001387 0.017134 -0.001882 0.009707 -0.000421 -0.003055
# 3 -0.001624 -0.001882 0.012606 0.007379 -0.007637 -0.001553
# 4 -0.000029 0.009707 0.007379 0.039426 -0.008548 -0.001141
# 5 0.000042 -0.000421 -0.007637 -0.008548 0.037659 0.009299
# 6 -0.001505 -0.003055 -0.001553 -0.001141 0.009299 0.027673
#
#
# Mechanical properties :
#
#
# Convention : Reuss Voigt Hill
#
# Bulk Modulus (GPa) = 36.15275 55.59801 45.87538
# Shear Modulus (GPa) = 31.01539 39.16542 35.09040
#
# Velocity S-wave (km/s) = 3.45426 3.88166 3.67418
# Velocity P-wave (km/s) = 5.46054 6.44041 5.97061
#
# Compressibility (1/GPa) = 0.02766041
#
# Stress axis : x y z
#
# Youngs Moduli (GPa) = 129.74632 58.36511 79.32887
#
# Poissons Ratio (x) = 0.08092 0.12886
# Poissons Ratio (y) = 0.17989 0.14932
# Poissons Ratio (z) = 0.21075 0.10986
#
# Static dielectric constant tensor:
#      x y z
#    x 2.210500 -0.052520 -0.003600 
#    y -0.052520 2.222000 0.036630 
#    z -0.003600 0.036630 2.079140 
# 
# From -- ./inp_files/614679.got.cif
#   From: 2010.05.17/outbox.cif.g08.bks.cpg/sg2_308_cif.got.tgz:614679.got - 2010.06.03 11:33:40.
