data_PCOD9094225
_publ_section_title
;
Structure prediction by ZEFSAII (Michael W. Deem and Ramdas Pophale) SiO2 
 PCOD9094225
Probable space group: P -1
;
_chemical_formula_sum "Si O2"
_cell_formula_units_Z 14
_cell_length_a 13.212775
_cell_length_b 5.362515
_cell_length_c 11.468479
_cell_angle_alpha 60.627741
_cell_angle_beta 102.592914
_cell_angle_gamma 87.442041
_cell_volume 680.029953
_symmetry_space_group_name_H-M "P -1"
_symmetry_group_IT_number 2
_symmetry_cell_setting 'triclinic'
loop_
_space_group_symop_operation_xyz
x,y,z
-x,-y,-z
loop_
_atom_site_type_symbol
_atom_site_label
_atom_site_fract_x
_atom_site_fract_y
_atom_site_fract_z
Si Si1 0.796774 0.036962 0.204857
Si Si2 0.743950 0.511040 0.232074
Si Si3 0.280434 0.515701 0.227512
Si Si4 0.068400 0.725045 0.016494
Si Si5 0.659615 0.844802 0.909094
Si Si6 0.563846 0.762221 0.484456
Si Si7 0.422276 0.065182 0.812981
O O1 0.797389 0.185922 0.295598
O O2 0.867514 0.154947 0.100266
O O3 0.813753 0.689750 0.285622
O O4 0.669717 0.102812 0.127895
O O5 0.625323 0.605238 0.230806
O O6 0.733460 0.659470 0.066462
O O7 0.330545 0.324505 0.172405
O O8 0.329023 0.364348 0.391829
O O9 0.308676 0.838837 0.164657
O O10 0.156001 0.560028 0.164830
O O11 0.000000 0.500000 0.000000
O O12 0.000000 0.000000 0.000000
O O13 0.538916 0.912293 0.907831
O O14 0.500000 0.500000 0.500000
O O15 0.580970 0.909278 0.332674
O O16 0.500000 0.000000 0.500000
#
# Coordination Sequence:
#
# PCOD9094225 Si02
#       7
#     2   2   2   2   2   2   2
#     4  10  22  37  58  87 123 150 208 247 311 363
#     4  10  20  34  55  85 123 159 195 241 301 358
#     4  12  23  40  60  93 128 158 212 248 299 371
#     4  12  24  42  68  88 118 158 207 272 326 346
#     4  12  20  36  60  88 133 160 198 242 305 373
#     4  12  24  40  60  89 130 177 203 235 290 373
#     4  10  24  34  61  86 129 171 197 232 306 367
#
# _framework density 20.587329
#
# number of rings (size 3 to 8) (size 9 to 14) (size 15 to 20)
#    0.857    0.000    5.714    2.143    4.000    0.571 
#    0.000    0.000    0.000    1.714    0.000    0.000 
#    0.000    0.000    0.000    0.000    0.000    0.000 
#
# Total GULP energy -78079.650749 kJ/mol
# GULP energy per Si atom -5577.117911 kJ/mol
# Density = 2.054047 g / cm^3
# Si number density = 20.587329 Si / 1000 Ang^3
#
#
#
# Elastic Constant Matrix: (Units=GPa)
#
#
# Indices 1 2 3 4 5 6 
#
# 1 120.8632 50.6050 16.3136 -1.5441 5.0393 -0.5796
# 2 50.6050 183.5736 11.3600 13.5508 -1.7657 -9.1595
# 3 16.3136 11.3600 51.8794 9.5499 6.7477 -5.8883
# 4 -1.5441 13.5508 9.5499 19.6705 -1.4742 -8.4455
# 5 5.0393 -1.7657 6.7477 -1.4742 27.9116 4.6105
# 6 -0.5796 -9.1595 -5.8883 -8.4455 4.6105 40.9408
#
#
#
# Elastic Compliance Matrix: (Units=1/GPa)
#
#
# Indices 1 2 3 4 5 6 
#
# 1 0.010004 -0.002884 -0.003162 0.004245 -0.001005 0.000031
# 2 -0.002884 0.006597 0.000305 -0.004685 0.000542 0.000452
# 3 -0.003162 0.000305 0.023276 -0.011486 -0.005919 0.001668
# 4 0.004245 -0.004685 -0.011486 0.064659 0.003426 0.010312
# 5 -0.001005 0.000542 -0.005919 0.003426 0.038375 -0.004359
# 6 0.000031 0.000452 0.001668 0.010312 -0.004359 0.027385
#
#
# Mechanical properties :
#
#
# Convention : Reuss Voigt Hill
#
# Bulk Modulus (GPa) = 35.21387 56.98596 46.09991
# Shear Modulus (GPa) = 26.14483 36.24042 31.19262
#
# Velocity S-wave (km/s) = 3.56750 4.20018 3.89670
# Velocity P-wave (km/s) = 5.84048 7.15976 6.53350
#
# Compressibility (1/GPa) = 0.02839790
#
# Stress axis : x y z
#
# Youngs Moduli (GPa) = 99.95797 151.58436 42.96193
#
# Poissons Ratio (x) = 0.43711 0.13583
# Poissons Ratio (y) = 0.28824 -0.01312
# Poissons Ratio (z) = 0.31602 -0.04628
#
# Static dielectric constant tensor:
#      x y z
#    x 1.760500 0.001380 -0.016980 
#    y 0.001380 1.917700 0.002970 
#    z -0.016980 0.002970 1.701480 
# 
# From -- ./inp_files/409882.got.cif
#   From: 2010.05.17/outbox.cif.g08.bks.cpg/sg2_205_cif.got.tgz:409882.got - 2010.06.03 11:33:40.
