data_PCOD9094604
_publ_section_title
;
Structure prediction by ZEFSAII (Michael W. Deem and Ramdas Pophale) SiO2 
 PCOD9094604
Probable space group: P -1
;
_chemical_formula_sum "Si O2"
_cell_formula_units_Z 13
_cell_length_a 5.443138
_cell_length_b 10.151812
_cell_length_c 18.281468
_cell_angle_alpha 141.559666
_cell_angle_beta 65.159503
_cell_angle_gamma 108.590026
_cell_volume 569.836371
_symmetry_space_group_name_H-M "P -1"
_symmetry_group_IT_number 2
_symmetry_cell_setting 'triclinic'
loop_
_space_group_symop_operation_xyz
x,y,z
-x,-y,-z
loop_
_atom_site_type_symbol
_atom_site_label
_atom_site_fract_x
_atom_site_fract_y
_atom_site_fract_z
Si Si1 0.104067 0.412019 0.564168
Si Si2 0.700459 0.234856 0.423061
Si Si3 0.039913 0.733121 0.832564
Si Si4 0.459365 0.057493 0.871034
Si Si5 0.001180 0.376312 0.053020
Si Si6 0.500000 0.000000 0.000000
Si Si7 0.027835 0.821664 0.188049
O O1 0.379965 0.278121 0.484702
O O2 0.184299 0.602138 0.581078
O O3 0.857880 0.295022 0.504559
O O4 0.022416 0.515868 0.697186
O O5 0.789791 0.994062 0.289685
O O6 0.157097 0.714170 0.894323
O O7 0.749705 0.840918 0.926532
O O8 0.224160 0.884753 0.826666
O O9 0.605311 0.985267 0.895964
O O10 0.695174 0.052975 0.779831
O O11 0.306722 0.284440 0.981443
O O12 0.982947 0.628805 0.164795
O O13 0.919779 0.294536 0.947593
#
# Coordination Sequence:
#
# PCOD9094604 Si02
#       7
#     2   2   2   2   2   1   2
#     4  10  23  41  66  98 130 172 223 275 324 383
#     4  10  23  41  66  97 128 177 221 274 320 392
#     4  11  23  39  65  97 131 164 217 274 330 392
#     4  11  20  35  61  95 123 161 210 269 327 383
#     4  10  23  41  60  95 129 173 208 272 341 388
#     4  10  20  34  58  94 124 160 198 272 328 378
#     4  11  23  40  64  91 132 171 219 267 328 402
#
# _framework density 22.813568
#
# number of rings (size 3 to 8) (size 9 to 14) (size 15 to 20)
#    0.000    1.538    0.000    6.000   10.769    0.000 
#    2.769    1.538    0.000    0.000    0.000    0.000 
#    0.000    0.000    0.000    0.000    0.000    0.000 
#
# Total GULP energy -72371.575158 kJ/mol
# GULP energy per Si atom -5567.044243 kJ/mol
# Density = 2.276164 g / cm^3
# Si number density = 22.813568 Si / 1000 Ang^3
#
#
#
# Elastic Constant Matrix: (Units=GPa)
#
#
# Indices 1 2 3 4 5 6 
#
# 1 101.1973 21.7408 37.9608 6.7256 -7.7926 -17.1066
# 2 21.7408 74.2882 37.1382 18.5444 -18.3233 -1.1467
# 3 37.9608 37.1382 103.9047 4.7996 5.3600 1.5247
# 4 6.7256 18.5444 4.7996 26.1734 -17.8401 -2.4440
# 5 -7.7926 -18.3233 5.3600 -17.8401 30.4998 -6.6398
# 6 -17.1066 -1.1467 1.5247 -2.4440 -6.6398 16.2284
#
#
#
# Elastic Compliance Matrix: (Units=1/GPa)
#
#
# Indices 1 2 3 4 5 6 
#
# 1 0.020323 0.002348 -0.010818 0.015704 0.025387 0.035357
# 2 0.002348 0.022723 -0.009977 -0.001798 0.017549 0.011927
# 3 -0.010818 -0.009977 0.019553 -0.014209 -0.026354 -0.026868
# 4 0.015704 -0.001798 -0.014209 0.094522 0.074301 0.062397
# 5 0.025387 0.017549 -0.026354 0.074301 0.117440 0.089717
# 6 0.035357 0.011927 -0.026868 0.062397 0.089717 0.148363
#
#
# Mechanical properties :
#
#
# Convention : Reuss Voigt Hill
#
# Bulk Modulus (GPa) = 38.90282 52.56331 45.73306
# Shear Modulus (GPa) = 10.67495 26.75033 18.71264
#
# Velocity S-wave (km/s) = 2.16550 3.42798 2.86709
# Velocity P-wave (km/s) = 4.83136 6.22563 5.57228
#
# Compressibility (1/GPa) = 0.02570508
#
# Stress axis : x y z
#
# Youngs Moduli (GPa) = 49.20435 44.00809 51.14423
#
# Poissons Ratio (x) = -0.10332 0.55328
# Poissons Ratio (y) = -0.11552 0.51026
# Poissons Ratio (z) = 0.53229 0.43906
#
# Static dielectric constant tensor:
#      x y z
#    x 1.721680 -0.017300 0.007400 
#    y -0.017300 1.851240 -0.050870 
#    z 0.007400 -0.050870 1.847120 
# 
# From -- ./inp_files/547621.got.cif
#   From: 2010.05.17/outbox.cif.g08.bks.cpg/sg2_274_cif.got.tgz:547621.got - 2010.06.03 11:33:40.
