data_PCOD9094187
_publ_section_title
;
Structure prediction by ZEFSAII (Michael W. Deem and Ramdas Pophale) SiO2 
 PCOD9094187
Probable space group: P -1
;
_chemical_formula_sum "Si O2"
_cell_formula_units_Z 16
_cell_length_a 7.787985
_cell_length_b 8.730268
_cell_length_c 11.881080
_cell_angle_alpha 122.826468
_cell_angle_beta 54.122350
_cell_angle_gamma 105.380122
_cell_volume 548.387517
_symmetry_space_group_name_H-M "P -1"
_symmetry_group_IT_number 2
_symmetry_cell_setting 'triclinic'
loop_
_space_group_symop_operation_xyz
x,y,z
-x,-y,-z
loop_
_atom_site_type_symbol
_atom_site_label
_atom_site_fract_x
_atom_site_fract_y
_atom_site_fract_z
Si Si1 0.736705 0.019047 0.170806
Si Si2 0.685079 0.453103 0.131201
Si Si3 0.244676 0.533610 0.419207
Si Si4 0.752863 0.023319 0.917716
Si Si5 0.245921 0.529338 0.120478
Si Si6 0.234376 0.961469 0.331167
Si Si7 0.250622 0.969077 0.580062
Si Si8 0.195272 0.553995 0.681405
O O1 0.827813 0.960523 0.236946
O O2 0.745288 0.238069 0.253339
O O3 0.490204 0.975988 0.245382
O O4 0.821976 0.949457 0.986800
O O5 0.426430 0.457537 0.233918
O O6 0.739543 0.539952 0.263466
O O7 0.762051 0.241305 0.007399
O O8 0.794715 0.541380 0.019467
O O9 0.249032 0.750465 0.495364
O O10 0.305718 0.463448 0.493582
O O11 0.000000 0.500000 0.500000
O O12 0.830138 0.953601 0.734871
O O13 0.500000 0.000000 0.000000
O O14 0.210146 0.745242 0.243566
O O15 0.059712 0.448610 0.230183
O O16 0.500000 0.500000 0.000000
O O17 0.164870 0.030985 0.512328
O O18 0.500000 0.000000 0.500000
#
# Coordination Sequence:
#
# PCOD9094187 Si02
#       8
#     2   2   2   2   2   2   2   2
#     4   8  16  30  49  72 100 137 176 216 264 317
#     4  10  20  34  55  81 109 145 183 225 275 328
#     4  11  21  35  56  82 111 143 184 229 273 324
#     4   8  15  29  50  74 101 137 176 218 264 316
#     4  11  21  34  53  79 110 142 180 226 276 325
#     4   9  16  29  49  73 100 136 174 217 265 318
#     4   9  17  30  50  73 103 140 176 217 269 320
#     4  10  20  35  54  78 107 142 181 226 272 324
#
# _framework density 29.176449000000002
#
# number of rings (size 3 to 8) (size 9 to 14) (size 15 to 20)
#    0.000    2.500    0.000    3.000    0.000    0.000 
#    0.000    0.625    0.000   21.000    0.000   29.750 
#    0.000    0.000    0.000    0.000    0.000    0.000 
#
# Total GULP energy -89485.919336 kJ/mol
# GULP energy per Si atom -5592.869958 kJ/mol
# Density = 2.911004 g / cm^3
# Si number density = 29.176449 Si / 1000 Ang^3
#
#
#
# Elastic Constant Matrix: (Units=GPa)
#
#
# Indices 1 2 3 4 5 6 
#
# 1 141.4977 18.9072 61.2825 13.9278 39.0678 1.8622
# 2 18.9072 132.1407 34.9422 4.4848 -21.3982 30.3371
# 3 61.2825 34.9422 287.1582 -47.7579 32.2542 -14.6856
# 4 13.9278 4.4848 -47.7579 40.4621 -21.2850 -4.4364
# 5 39.0678 -21.3982 32.2542 -21.2850 74.2415 5.6663
# 6 1.8622 30.3371 -14.6856 -4.4364 5.6663 28.0925
#
#
#
# Elastic Compliance Matrix: (Units=1/GPa)
#
#
# Indices 1 2 3 4 5 6 
#
# 1 0.013032 -0.001487 -0.003980 -0.014199 -0.009501 -0.001665
# 2 -0.001487 0.014723 -0.004011 -0.004338 0.007052 -0.020005
# 3 -0.003980 -0.004011 0.007237 0.011660 0.000363 0.010146
# 4 -0.014199 -0.004338 0.011660 0.053750 0.015259 0.017131
# 5 -0.009501 0.007052 0.000363 0.015259 0.025446 -0.009518
# 6 -0.001665 -0.020005 0.010146 0.017131 -0.009518 0.067239
#
#
# Mechanical properties :
#
#
# Convention : Reuss Voigt Hill
#
# Bulk Modulus (GPa) = 62.35353 87.89561 75.12457
# Shear Modulus (GPa) = 24.30395 58.27022 41.28709
#
# Velocity S-wave (km/s) = 2.88930 4.47381 3.76584
# Velocity P-wave (km/s) = 5.70512 7.54173 6.68678
#
# Compressibility (1/GPa) = 0.01603758
#
# Stress axis : x y z
#
# Youngs Moduli (GPa) = 76.73128 67.92185 138.17756
#
# Poissons Ratio (x) = 0.10099 0.54991
# Poissons Ratio (y) = 0.11409 0.55419
# Poissons Ratio (z) = 0.30537 0.27242
#
# Static dielectric constant tensor:
#      x y z
#    x 2.624740 0.052170 0.031500 
#    y 0.052170 2.157870 -0.160000 
#    z 0.031500 -0.160000 2.339520 
# 
# From -- ./inp_files/345941.got.cif
#   From: 2010.05.17/outbox.cif.g08.bks.cpg/sg2_173_cif.got.tgz:345941.got - 2010.06.03 11:33:40.
