data_PCOD9094372
_publ_section_title
;
Structure prediction by ZEFSAII (Michael W. Deem and Ramdas Pophale) SiO2 
 PCOD9094372
Probable space group: P -1
;
_chemical_formula_sum "Si O2"
_cell_formula_units_Z 15
_cell_length_a 10.006431
_cell_length_b 24.672020
_cell_length_c 13.805563
_cell_angle_alpha 162.454115
_cell_angle_beta 34.428704
_cell_angle_gamma 149.547968
_cell_volume 520.661056
_symmetry_space_group_name_H-M "P -1"
_symmetry_group_IT_number 2
_symmetry_cell_setting 'triclinic'
loop_
_space_group_symop_operation_xyz
x,y,z
-x,-y,-z
loop_
_atom_site_type_symbol
_atom_site_label
_atom_site_fract_x
_atom_site_fract_y
_atom_site_fract_z
Si Si1 0.344434 0.253906 0.771329
Si Si2 0.433372 0.178620 0.195395
Si Si3 0.000000 0.000000 0.000000
Si Si4 0.642653 0.883143 0.169689
Si Si5 0.803410 0.541772 0.118415
Si Si6 0.244462 0.640383 0.443086
Si Si7 0.812621 0.349892 0.092196
Si Si8 0.938157 0.103948 0.909864
O O1 0.583199 0.347470 0.865548
O O2 0.282666 0.442216 0.104092
O O3 0.081310 0.093591 0.707735
O O4 0.484065 0.213486 0.525079
O O5 0.366046 0.368225 0.568081
O O6 0.698314 0.241841 0.079898
O O7 0.229353 0.020797 0.974687
O O8 0.314049 0.074791 0.193433
O O9 0.150079 0.950174 0.739226
O O10 0.500000 0.000000 0.500000
O O11 0.446658 0.704616 0.912305
O O12 0.816792 0.833710 0.056293
O O13 0.000000 0.500000 0.000000
O O14 0.989604 0.682131 0.157743
O O15 0.003326 0.572249 0.393818
O O16 0.154826 0.719574 0.725963
#
# Coordination Sequence:
#
# PCOD9094372 Si02
#       8
#     2   2   1   2   2   2   2   2
#     4  10  23  42  63  85 120 161 205 254 298 365
#     4  10  22  37  57  92 122 154 197 245 307 361
#     4   8  18  32  50  78 124 156 178 234 300 356
#     4  10  20  34  56  89 122 153 191 244 305 354
#     4  11  23  39  63  91 119 157 201 249 304 361
#     4  10  23  42  61  86 118 164 210 246 303 362
#     4  10  21  38  61  85 121 157 198 250 294 361
#     4  11  22  37  63  90 121 161 199 252 310 360
#
# _framework density 28.809529999999999
#
# number of rings (size 3 to 8) (size 9 to 14) (size 15 to 20)
#    0.000    1.867    0.000    3.600    0.000   11.733 
#    0.000    2.667    0.000    7.200    0.000    0.000 
#    0.000    0.000    0.000    0.000    0.000    0.000 
#
# Total GULP energy -83520.435828 kJ/mol
# GULP energy per Si atom -5568.029055 kJ/mol
# Density = 2.874396 g / cm^3
# Si number density = 28.809530 Si / 1000 Ang^3
#
#
#
# Elastic Constant Matrix: (Units=GPa)
#
#
# Indices 1 2 3 4 5 6 
#
# 1 139.0578 54.6057 26.3359 -15.3243 11.3195 15.2645
# 2 54.6057 251.5493 60.8530 -50.4179 7.2997 -19.7952
# 3 26.3359 60.8530 86.3125 -39.7898 -16.1905 -25.1333
# 4 -15.3243 -50.4179 -39.7898 58.0615 -1.9194 14.8716
# 5 11.3195 7.2997 -16.1905 -1.9194 35.2278 -13.5516
# 6 15.2645 -19.7952 -25.1333 14.8716 -13.5516 50.9158
#
#
#
# Elastic Compliance Matrix: (Units=1/GPa)
#
#
# Indices 1 2 3 4 5 6 
#
# 1 0.011204 -0.001183 -0.008571 -0.001599 -0.011473 -0.010637
# 2 -0.001183 0.005436 -0.002686 0.002530 -0.001880 -0.000097
# 3 -0.008571 -0.002686 0.034335 0.014279 0.028265 0.021826
# 4 -0.001599 0.002530 0.014279 0.028409 0.009116 0.002640
# 5 -0.011473 -0.001880 0.028265 0.009116 0.057190 0.029220
# 6 -0.010637 -0.000097 0.021826 0.002640 0.029220 0.040571
#
#
# Mechanical properties :
#
#
# Convention : Reuss Voigt Hill
#
# Bulk Modulus (GPa) = 38.32227 84.50098 61.41163
# Shear Modulus (GPa) = 23.72763 51.18267 37.45515
#
# Velocity S-wave (km/s) = 2.87296 4.21953 3.60960
# Velocity P-wave (km/s) = 4.93316 7.28930 6.22374
#
# Compressibility (1/GPa) = 0.02609448
#
# Stress axis : x y z
#
# Youngs Moduli (GPa) = 89.25002 183.95610 29.12490
#
# Poissons Ratio (x) = 0.21769 0.24963
# Poissons Ratio (y) = 0.10562 0.07824
# Poissons Ratio (z) = 0.76495 0.49415
#
# Static dielectric constant tensor:
#      x y z
#    x 2.010210 0.107330 -0.276730 
#    y 0.107330 2.316590 0.187530 
#    z -0.276730 0.187530 1.979290 
# 
# From -- ./inp_files/524563.got.cif
#   From: 2010.05.17/outbox.cif.g08.bks.cpg/sg2_263_cif.got.tgz:524563.got - 2010.06.03 11:33:40.
