data_PCOD9094869
_publ_section_title
;
Structure prediction by ZEFSAII (Michael W. Deem and Ramdas Pophale) SiO2 
 PCOD9094869
Probable space group: P -1
;
_chemical_formula_sum "Si O2"
_cell_formula_units_Z 14
_cell_length_a 11.788473
_cell_length_b 9.348672
_cell_length_c 9.478712
_cell_angle_alpha 113.272145
_cell_angle_beta 47.944950
_cell_angle_gamma 78.562491
_cell_volume 523.269714
_symmetry_space_group_name_H-M "P -1"
_symmetry_group_IT_number 2
_symmetry_cell_setting 'triclinic'
loop_
_space_group_symop_operation_xyz
x,y,z
-x,-y,-z
loop_
_atom_site_type_symbol
_atom_site_label
_atom_site_fract_x
_atom_site_fract_y
_atom_site_fract_z
Si Si1 0.721163 0.972085 0.954982
Si Si2 0.831343 0.925984 0.240508
Si Si3 0.256715 0.245189 0.406703
Si Si4 0.333061 0.446854 0.180185
Si Si5 0.803158 0.138500 0.617924
Si Si6 0.279546 0.736686 0.759290
Si Si7 0.175545 0.346470 0.031202
O O1 0.477731 0.102719 0.242016
O O2 0.757406 0.124201 0.023013
O O3 0.754099 0.900355 0.738550
O O4 0.844753 0.772642 0.877673
O O5 0.802325 0.997609 0.452925
O O6 0.727772 0.135758 0.314739
O O7 0.748817 0.812408 0.222828
O O8 0.078727 0.763923 0.933044
O O9 0.271659 0.367409 0.319898
O O10 0.044945 0.424517 0.733079
O O11 0.197678 0.695866 0.401050
O O12 0.301386 0.391909 0.029306
O O13 0.576309 0.310568 0.944849
O O14 0.000000 0.000000 0.500000
O O15 0.500000 0.500000 0.500000
#
# Coordination Sequence:
#
# PCOD9094869 Si02
#       7
#     2   2   2   2   2   2   2
#     4   9  19  31  55  94 123 160 192 242 322 370
#     4  10  24  39  61  93 125 162 207 253 318 364
#     4  10  20  34  62  95 125 155 202 257 314 371
#     4  10  24  41  63  86 123 170 210 255 303 366
#     4  11  27  44  61  88 124 174 218 250 296 371
#     4  10  21  35  60  93 130 160 195 262 317 372
#     4  10  21  40  62  94 124 156 200 268 315 365
#
# _framework density 26.754840999999999
#
# number of rings (size 3 to 8) (size 9 to 14) (size 15 to 20)
#    0.000    2.000    0.000    2.571   12.000    4.000 
#    0.000    0.714    0.000    0.000    0.000    0.000 
#    0.000    0.000    0.000    0.000    0.000    0.000 
#
# Total GULP energy -78487.980820 kJ/mol
# GULP energy per Si atom -5606.284344 kJ/mol
# Density = 2.669395 g / cm^3
# Si number density = 26.754841 Si / 1000 Ang^3
#
#
#
# Elastic Constant Matrix: (Units=GPa)
#
#
# Indices 1 2 3 4 5 6 
#
# 1 136.3760 21.0676 53.3537 14.2607 5.8694 1.9178
# 2 21.0676 68.3674 43.1599 27.9822 -1.3807 -6.2484
# 3 53.3537 43.1599 127.1954 36.7219 -23.0855 -16.4939
# 4 14.2607 27.9822 36.7219 47.5965 -4.3300 0.4071
# 5 5.8694 -1.3807 -23.0855 -4.3300 58.4676 8.4436
# 6 1.9178 -6.2484 -16.4939 0.4071 8.4436 48.4622
#
#
#
# Elastic Compliance Matrix: (Units=1/GPa)
#
#
# Indices 1 2 3 4 5 6 
#
# 1 0.009253 -0.000482 -0.004621 0.000865 -0.002473 -0.001577
# 2 -0.000482 0.021572 -0.004655 -0.009161 -0.002201 0.001677
# 3 -0.004621 -0.004655 0.014778 -0.006845 0.005137 0.003775
# 4 0.000865 -0.009161 -0.006845 0.031439 -0.000131 -0.003786
# 5 -0.002473 -0.002201 0.005137 -0.000131 0.019585 -0.001849
# 6 -0.001577 0.001677 0.003775 -0.003786 -0.001849 0.022552
#
#
# Mechanical properties :
#
#
# Convention : Reuss Voigt Hill
#
# Bulk Modulus (GPa) = 38.33229 63.01124 50.67177
# Shear Modulus (GPa) = 33.92355 45.19578 39.55966
#
# Velocity S-wave (km/s) = 3.56468 4.11451 3.84943
# Velocity P-wave (km/s) = 5.59472 6.79520 6.22397
#
# Compressibility (1/GPa) = 0.02608767
#
# Stress axis : x y z
#
# Youngs Moduli (GPa) = 108.07193 46.35544 67.67009
#
# Poissons Ratio (x) = 0.02236 0.31268
# Poissons Ratio (y) = 0.05213 0.31498
# Poissons Ratio (z) = 0.49936 0.21577
#
# Static dielectric constant tensor:
#      x y z
#    x 2.065620 0.017080 0.028660 
#    y 0.017080 2.157440 -0.060120 
#    z 0.028660 -0.060120 2.059890 
# 
# From -- ./inp_files/426649.got.cif
#   From: 2010.05.17/outbox.cif.g08.bks.cpg/sg2_214_cif.got.tgz:426649.got - 2010.06.03 11:33:40.
