data_PCOD9094241
_publ_section_title
;
Structure prediction by ZEFSAII (Michael W. Deem and Ramdas Pophale) SiO2 
 PCOD9094241
Probable space group: P -1
;
_chemical_formula_sum "Si O2"
_cell_formula_units_Z 16
_cell_length_a 22.201891
_cell_length_b 22.205385
_cell_length_c 13.672179
_cell_angle_alpha 31.098977
_cell_angle_beta 148.048985
_cell_angle_gamma 167.052734
_cell_volume 774.329851
_symmetry_space_group_name_H-M "P -1"
_symmetry_group_IT_number 2
_symmetry_cell_setting 'triclinic'
loop_
_space_group_symop_operation_xyz
x,y,z
-x,-y,-z
loop_
_atom_site_type_symbol
_atom_site_label
_atom_site_fract_x
_atom_site_fract_y
_atom_site_fract_z
Si Si1 0.190726 0.956561 0.544382
Si Si2 0.308235 0.539897 0.199932
Si Si3 0.451854 0.860015 0.348133
Si Si4 0.352306 0.448237 0.583261
Si Si5 0.234511 0.859483 0.930741
Si Si6 0.064953 0.746344 0.201715
Si Si7 0.532048 0.356684 0.942772
Si Si8 0.919629 0.372913 0.411444
O O1 0.181198 0.840896 0.770271
O O2 0.887211 0.721379 0.444390
O O3 0.353377 0.061344 0.529799
O O4 0.371329 0.227347 0.462721
O O5 0.274880 0.409848 0.417988
O O6 0.367992 0.546552 0.166392
O O7 0.040414 0.369657 0.071550
O O8 0.550178 0.847175 0.141293
O O9 0.182077 0.575452 0.430554
O O10 0.344428 0.834851 0.142740
O O11 0.648059 0.120663 0.323713
O O12 0.393815 0.350170 0.787409
O O13 0.993648 0.568482 0.283902
O O14 0.127194 0.754518 0.383336
O O15 0.796170 0.575352 0.067070
O O16 0.316777 0.053093 0.081688
#
# Coordination Sequence:
#
# PCOD9094241 Si02
#       8
#     2   2   2   2   2   2   2   2
#     4  10  22  38  56  84 120 154 190 232 272 325
#     4  10  20  34  55  87 120 147 184 229 279 340
#     4  12  21  37  63  84 113 155 192 226 283 343
#     4  10  22  38  56  84 120 154 190 232 272 325
#     4  10  20  34  55  87 120 147 184 229 279 340
#     4  11  24  40  60  88 116 142 182 239 295 343
#     4  12  21  37  63  84 113 155 192 226 283 343
#     4  11  24  40  60  88 116 142 182 239 295 343
#
# _framework density 20.663029000000002
#
# number of rings (size 3 to 8) (size 9 to 14) (size 15 to 20)
#    0.000    1.250    0.000    7.500    0.000    2.000 
#    0.000   10.000    0.000   15.000    0.000    0.000 
#    0.000    0.000    0.000    0.000    0.000    0.000 
#
# Total GULP energy -89512.477639 kJ/mol
# GULP energy per Si atom -5594.529852 kJ/mol
# Density = 2.061600 g / cm^3
# Si number density = 20.663029 Si / 1000 Ang^3
#
#
#
# Elastic Constant Matrix: (Units=GPa)
#
#
# Indices 1 2 3 4 5 6 
#
# 1 44.2173 0.7394 23.4753 -3.9272 8.8386 23.9419
# 2 0.7394 102.0957 10.7844 4.7117 3.4362 22.3656
# 3 23.4753 10.7844 74.4926 0.1550 8.4045 20.9288
# 4 -3.9272 4.7117 0.1550 25.6253 4.5311 6.9528
# 5 8.8386 3.4362 8.4045 4.5311 17.3014 9.2588
# 6 23.9419 22.3656 20.9288 6.9528 9.2588 30.8404
#
#
#
# Elastic Compliance Matrix: (Units=1/GPa)
#
#
# Indices 1 2 3 4 5 6 
#
# 1 0.055042 0.010268 -0.003984 0.021427 -0.006963 -0.050213
# 2 0.010268 0.013697 0.000030 0.004048 0.001239 -0.019209
# 3 -0.003984 0.000030 0.017301 0.001982 -0.002401 -0.008396
# 4 0.021427 0.004048 0.001982 0.051365 -0.010455 -0.029356
# 5 -0.006963 0.001239 -0.002401 -0.010455 0.072044 -0.013135
# 6 -0.050213 -0.019209 -0.008396 -0.029356 -0.013135 0.101595
#
#
# Mechanical properties :
#
#
# Convention : Reuss Voigt Hill
#
# Bulk Modulus (GPa) = 10.13511 32.31153 21.22332
# Shear Modulus (GPa) = 15.09182 27.14050 21.11616
#
# Velocity S-wave (km/s) = 2.70548 3.62813 3.20023
# Velocity P-wave (km/s) = 3.83081 5.76389 4.89375
#
# Compressibility (1/GPa) = 0.09866689
#
# Stress axis : x y z
#
# Youngs Moduli (GPa) = 18.16790 73.01059 57.80090
#
# Poissons Ratio (x) = -0.74964 0.23027
# Poissons Ratio (y) = -0.18654 -0.00173
# Poissons Ratio (z) = 0.07238 -0.00218
#
# Static dielectric constant tensor:
#      x y z
#    x 1.739360 0.005980 -0.011320 
#    y 0.005980 1.712410 0.009310 
#    z -0.011320 0.009310 1.729950 
# 
# From -- ./inp_files/439296.got.cif
#   From: 2010.05.17/outbox.cif.g08.bks.cpg/sg2_220_cif.got.tgz:439296.got - 2010.06.03 11:33:40.
