data_PCOD9094637
_publ_section_title
;
Structure prediction by ZEFSAII (Michael W. Deem and Ramdas Pophale) SiO2 
 PCOD9094637
Probable space group: P -1
;
_chemical_formula_sum "Si O2"
_cell_formula_units_Z 12
_cell_length_a 12.012806
_cell_length_b 19.558962
_cell_length_c 6.775311
_cell_angle_alpha 105.668773
_cell_angle_beta 105.968056
_cell_angle_gamma 19.139917
_cell_volume 501.549332
_symmetry_space_group_name_H-M "P -1"
_symmetry_group_IT_number 2
_symmetry_cell_setting 'triclinic'
loop_
_space_group_symop_operation_xyz
x,y,z
-x,-y,-z
loop_
_atom_site_type_symbol
_atom_site_label
_atom_site_fract_x
_atom_site_fract_y
_atom_site_fract_z
Si Si1 0.281910 0.859965 0.815893
Si Si2 0.740852 0.849624 0.805650
Si Si3 0.120057 0.144276 0.510387
Si Si4 0.712005 0.707949 0.137371
Si Si5 0.318143 0.876305 0.401981
Si Si6 0.157298 0.576441 0.147802
O O1 0.389306 0.809585 0.602497
O O2 0.512343 0.662017 0.848917
O O3 0.371213 0.881558 0.989065
O O4 0.890803 0.062674 0.771540
O O5 0.860557 0.838369 0.691930
O O6 0.497353 0.938874 0.629249
O O7 0.072542 0.632435 0.917953
O O8 0.500000 0.000000 0.000000
O O9 0.864112 0.337919 0.672774
O O10 0.074897 0.086140 0.454082
O O11 0.650154 0.710345 0.320711
O O12 0.845163 0.710598 0.197605
O O13 0.000000 0.500000 0.000000
#
# Coordination Sequence:
#
# PCOD9094637 Si02
#       6
#     2   2   2   2   2   2
#     4  10  24  40  58  84 120 160 195 235 287 351
#     4   9  17  32  54  84 115 144 185 236 288 337
#     4  10  20  34  59  87 115 149 189 240 294 344
#     4  10  21  37  60  86 113 149 196 243 284 338
#     4  11  22  40  60  84 120 159 193 234 294 352
#     4  10  21  37  59  89 115 146 195 245 289 337
#
# _framework density 23.925864000000001
#
# number of rings (size 3 to 8) (size 9 to 14) (size 15 to 20)
#    0.000    2.000    0.000    4.500    0.000    7.333 
#    0.000    0.833    0.000    0.000    0.000    0.000 
#    0.000    0.000    0.000    0.000    0.000    0.000 
#
# Total GULP energy -66976.094365 kJ/mol
# GULP energy per Si atom -5581.341197 kJ/mol
# Density = 2.387141 g / cm^3
# Si number density = 23.925864 Si / 1000 Ang^3
#
#
#
# Elastic Constant Matrix: (Units=GPa)
#
#
# Indices 1 2 3 4 5 6 
#
# 1 59.3441 13.6440 35.0056 -4.7702 2.2334 3.2344
# 2 13.6440 46.3583 49.5018 -1.3702 -16.4283 17.1916
# 3 35.0056 49.5018 132.4041 -14.0758 -29.5665 10.6141
# 4 -4.7702 -1.3702 -14.0758 40.6834 10.3801 0.6330
# 5 2.2334 -16.4283 -29.5665 10.3801 46.6666 -3.6621
# 6 3.2344 17.1916 10.6141 0.6330 -3.6621 25.5010
#
#
#
# Elastic Compliance Matrix: (Units=1/GPa)
#
#
# Indices 1 2 3 4 5 6 
#
# 1 0.021207 -0.001926 -0.006027 0.001839 -0.005903 0.000224
# 2 -0.001926 0.050614 -0.015213 -0.005256 0.007372 -0.026356
# 3 -0.006027 -0.015213 0.015789 0.002973 0.004670 0.005046
# 4 0.001839 -0.005256 0.002973 0.027185 -0.006060 0.000527
# 5 -0.005903 0.007372 0.004670 -0.006060 0.028462 -0.001928
# 6 0.000224 -0.026356 0.005046 0.000527 -0.001928 0.054564
#
#
# Mechanical properties :
#
#
# Convention : Reuss Voigt Hill
#
# Bulk Modulus (GPa) = 24.22741 48.26770 36.24756
# Shear Modulus (GPa) = 19.38636 31.90054 25.64345
#
# Velocity S-wave (km/s) = 2.84961 3.65541 3.27737
# Velocity P-wave (km/s) = 4.57985 6.16715 5.43179
#
# Compressibility (1/GPa) = 0.04127556
#
# Stress axis : x y z
#
# Youngs Moduli (GPa) = 47.15454 19.75728 63.33723
#
# Poissons Ratio (x) = 0.03806 0.38175
# Poissons Ratio (y) = 0.09084 0.96358
# Poissons Ratio (z) = 0.28421 0.30058
#
# Static dielectric constant tensor:
#      x y z
#    x 1.956170 0.007460 0.010190 
#    y 0.007460 1.992110 -0.012120 
#    z 0.010190 -0.012120 1.945490 
# 
# From -- ./inp_files/27146.got.cif
#   From: 2010.05.17/outbox.cif.g08.bks.cpg/sg2_14_cif.got.tgz:27146.got - 2010.06.03 11:33:40.
