data_PCOD9094548
_publ_section_title
;
Structure prediction by ZEFSAII (Michael W. Deem and Ramdas Pophale) SiO2 
 PCOD9094548
Probable space group: P -1
;
_chemical_formula_sum "Si O2"
_cell_formula_units_Z 16
_cell_length_a 14.354790
_cell_length_b 10.604107
_cell_length_c 9.593229
_cell_angle_alpha 41.115772
_cell_angle_beta 135.291200
_cell_angle_gamma 125.516302
_cell_volume 672.265208
_symmetry_space_group_name_H-M "P -1"
_symmetry_group_IT_number 2
_symmetry_cell_setting 'triclinic'
loop_
_space_group_symop_operation_xyz
x,y,z
-x,-y,-z
loop_
_atom_site_type_symbol
_atom_site_label
_atom_site_fract_x
_atom_site_fract_y
_atom_site_fract_z
Si Si1 0.662905 0.029376 0.061948
Si Si2 0.340476 0.873378 0.530549
Si Si3 0.069019 0.924261 0.863373
Si Si4 0.176024 0.851859 0.626780
Si Si5 0.835083 0.696897 0.202553
Si Si6 0.440462 0.341186 0.898504
Si Si7 0.037789 0.463229 0.790011
Si Si8 0.533666 0.228904 0.519555
O O1 0.604451 0.815350 0.137098
O O2 0.811270 0.056789 0.133690
O O3 0.688220 0.072387 0.214531
O O4 0.577622 0.172292 0.766976
O O5 0.206285 0.834016 0.508257
O O6 0.349608 0.829636 0.413402
O O7 0.405231 0.090613 0.447673
O O8 0.442380 0.737243 0.822681
O O9 0.935595 0.003470 0.596922
O O10 0.116384 0.078529 0.906663
O O11 0.033578 0.706312 0.053642
O O12 0.124301 0.641916 0.804736
O O13 0.686125 0.655461 0.135832
O O14 0.864899 0.635401 0.129806
O O15 0.926992 0.570223 0.499987
O O16 0.479880 0.548927 0.702857
#
# Coordination Sequence:
#
# PCOD9094548 Si02
#       8
#     2   2   2   2   2   2   2   2
#     4  10  23  40  58  84 115 149 189 233 280 336
#     4  10  23  39  58  87 114 144 190 239 279 328
#     4  10  21  36  58  82 112 152 190 228 280 338
#     4  11  24  39  55  84 122 149 185 235 279 333
#     4   9  19  35  56  89 118 142 186 239 281 328
#     4  10  20  37  61  82 113 152 187 230 283 334
#     4  10  20  34  58  86 116 150 185 231 285 333
#     4  10  21  39  63  84 109 148 192 233 279 336
#
# _framework density 23.800128999999998
#
# number of rings (size 3 to 8) (size 9 to 14) (size 15 to 20)
#    0.000    2.000    0.000    2.625    0.000   10.500 
#    0.000    1.250    0.000    0.000    0.000    0.000 
#    0.000    0.000    0.000    0.000    0.000    0.000 
#
# Total GULP energy -89635.160119 kJ/mol
# GULP energy per Si atom -5602.197507 kJ/mol
# Density = 2.374596 g / cm^3
# Si number density = 23.800129 Si / 1000 Ang^3
#
#
#
# Elastic Constant Matrix: (Units=GPa)
#
#
# Indices 1 2 3 4 5 6 
#
# 1 94.3933 3.8860 13.0846 -5.4242 10.3649 16.0275
# 2 3.8860 116.9793 56.9999 -33.0078 -5.2708 8.1073
# 3 13.0846 56.9999 76.9976 -27.4373 8.3330 1.4546
# 4 -5.4242 -33.0078 -27.4373 46.7048 0.3626 -10.1007
# 5 10.3649 -5.2708 8.3330 0.3626 25.3138 4.8537
# 6 16.0275 8.1073 1.4546 -10.1007 4.8537 24.3224
#
#
#
# Elastic Compliance Matrix: (Units=1/GPa)
#
#
# Indices 1 2 3 4 5 6 
#
# 1 0.012611 0.001224 -0.003135 -0.001368 -0.002197 -0.008661
# 2 0.001224 0.015694 -0.011351 0.003323 0.007506 -0.005477
# 3 -0.003135 -0.011351 0.026404 0.009511 -0.011941 0.010603
# 4 -0.001368 0.003323 0.009511 0.032160 -0.004941 0.013567
# 5 -0.002197 0.007506 -0.011941 -0.004941 0.048274 -0.012025
# 6 -0.008661 -0.005477 0.010603 0.013567 -0.012025 0.056047
#
#
# Mechanical properties :
#
#
# Convention : Reuss Voigt Hill
#
# Bulk Modulus (GPa) = 35.47969 48.47902 41.97936
# Shear Modulus (GPa) = 22.01576 33.56151 27.78863
#
# Velocity S-wave (km/s) = 3.04472 3.75926 3.42070
# Velocity P-wave (km/s) = 5.22496 6.26547 5.76872
#
# Compressibility (1/GPa) = 0.02818514
#
# Stress axis : x y z
#
# Youngs Moduli (GPa) = 79.29371 63.71830 37.87263
#
# Poissons Ratio (x) = -0.07800 0.11875
# Poissons Ratio (y) = -0.09706 0.42989
# Poissons Ratio (z) = 0.24862 0.72326
#
# Static dielectric constant tensor:
#      x y z
#    x 1.900420 -0.004330 -0.013070 
#    y -0.004330 1.918060 0.034600 
#    z -0.013070 0.034600 1.880790 
# 
# From -- ./inp_files/306366.got.cif
#   From: 2010.05.17/outbox.cif.g08.bks.cpg/sg2_154_cif.got.tgz:306366.got - 2010.06.03 11:33:40.
