data_PCOD9094980
_publ_section_title
;
Structure prediction by ZEFSAII (Michael W. Deem and Ramdas Pophale) SiO2 
 PCOD9094980
Probable space group: P -1
;
_chemical_formula_sum "Si O2"
_cell_formula_units_Z 13
_cell_length_a 8.395755
_cell_length_b 7.014164
_cell_length_c 8.687094
_cell_angle_alpha 86.603109
_cell_angle_beta 122.393276
_cell_angle_gamma 92.582958
_cell_volume 431.157282
_symmetry_space_group_name_H-M "P -1"
_symmetry_group_IT_number 2
_symmetry_cell_setting 'triclinic'
loop_
_space_group_symop_operation_xyz
x,y,z
-x,-y,-z
loop_
_atom_site_type_symbol
_atom_site_label
_atom_site_fract_x
_atom_site_fract_y
_atom_site_fract_z
Si Si1 0.809791 0.702656 0.786177
Si Si2 0.759241 0.400084 0.552640
Si Si3 0.863833 0.733390 0.148845
Si Si4 0.500000 0.000000 0.500000
Si Si5 0.920579 0.121973 0.314660
Si Si6 0.549980 0.308144 0.696358
Si Si7 0.555838 0.221169 0.034560
O O1 0.711188 0.495032 0.701786
O O2 0.660325 0.866570 0.703783
O O3 0.941663 0.730070 0.705641
O O4 0.915332 0.690817 0.001707
O O5 0.650599 0.214553 0.576479
O O6 0.622633 0.535874 0.385970
O O7 0.977269 0.358056 0.654052
O O8 0.643935 0.676958 0.050316
O O9 0.885051 0.958060 0.176927
O O10 0.582376 0.884981 0.386450
O O11 0.727071 0.232035 0.244996
O O12 0.000000 0.000000 0.500000
O O13 0.640569 0.284350 0.911704
O O14 0.500000 0.000000 0.000000
#
# Coordination Sequence:
#
# PCOD9094980 Si02
#       7
#     2   2   2   1   2   2   2
#     4  11  23  40  68  93 132 173 227 266 326 399
#     4  10  23  41  66  96 134 178 216 269 325 404
#     4  11  23  42  67  95 132 175 219 268 341 384
#     4  10  20  34  72  94 124 172 220 268 318 370
#     4  11  25  42  67  98 130 169 225 283 321 385
#     4  10  21  42  65 100 135 169 222 272 324 395
#     4  10  23  41  65  94 135 164 218 277 331 375
#
# _framework density 30.151409000000001
#
# number of rings (size 3 to 8) (size 9 to 14) (size 15 to 20)
#    0.000    1.538    0.000    4.615   10.769    0.615 
#    0.000    1.538    0.000    0.000    0.000    0.000 
#    0.000    0.000    0.000    0.000    0.000    0.000 
#
# Total GULP energy -72584.306841 kJ/mol
# GULP energy per Si atom -5583.408219 kJ/mol
# Density = 3.008278 g / cm^3
# Si number density = 30.151409 Si / 1000 Ang^3
#
#
#
# Elastic Constant Matrix: (Units=GPa)
#
#
# Indices 1 2 3 4 5 6 
#
# 1 189.6498 44.4893 62.4217 -39.1438 37.4036 -0.2283
# 2 44.4893 248.1853 23.1216 -9.9427 9.0813 -6.5097
# 3 62.4217 23.1216 147.5006 -35.5368 25.6839 16.5751
# 4 -39.1438 -9.9427 -35.5368 49.7731 -11.3349 2.1837
# 5 37.4036 9.0813 25.6839 -11.3349 70.7541 -18.1766
# 6 -0.2283 -6.5097 16.5751 2.1837 -18.1766 36.8863
#
#
#
# Elastic Compliance Matrix: (Units=1/GPa)
#
#
# Indices 1 2 3 4 5 6 
#
# 1 0.007345 -0.000955 -0.001346 0.004008 -0.002939 -0.001204
# 2 -0.000955 0.004256 -0.000529 -0.000235 0.000422 0.001205
# 3 -0.001346 -0.000529 0.010210 0.005561 -0.003807 -0.006895
# 4 0.004008 -0.000235 0.005561 0.027155 -0.000935 -0.004583
# 5 -0.002939 0.000422 -0.003807 -0.000935 0.019846 0.011602
# 6 -0.001204 0.001205 -0.006895 -0.004583 0.011602 0.036402
#
#
# Mechanical properties :
#
#
# Convention : Reuss Voigt Hill
#
# Bulk Modulus (GPa) = 61.91047 93.93344 77.92195
# Shear Modulus (GPa) = 43.00806 61.83625 52.42215
#
# Velocity S-wave (km/s) = 3.78087 4.53355 4.17421
# Velocity P-wave (km/s) = 6.29585 7.65674 7.00940
#
# Compressibility (1/GPa) = 0.01615236
#
# Stress axis : x y z
#
# Youngs Moduli (GPa) = 136.13840 234.94076 97.94764
#
# Poissons Ratio (x) = 0.22432 0.13185
# Poissons Ratio (y) = 0.12998 0.05178
# Poissons Ratio (z) = 0.18326 0.12419
#
# Static dielectric constant tensor:
#      x y z
#    x 2.405100 0.000220 -0.028120 
#    y 0.000220 2.531700 0.283220 
#    z -0.028120 0.283220 2.578460 
# 
# From -- ./inp_files/154439.got.cif
#   From: 2010.05.17/outbox.cif.g08.bks.cpg/sg2_78_cif.got.tgz:154439.got - 2010.06.03 11:33:40.
