data_PCOD9094534
_publ_section_title
;
Structure prediction by ZEFSAII (Michael W. Deem and Ramdas Pophale) SiO2 
 PCOD9094534
Probable space group: P -1
;
_chemical_formula_sum "Si O2"
_cell_formula_units_Z 16
_cell_length_a 17.527503
_cell_length_b 8.583991
_cell_length_c 7.598744
_cell_angle_alpha 55.965984
_cell_angle_beta 83.077109
_cell_angle_gamma 50.231899
_cell_volume 675.731644
_symmetry_space_group_name_H-M "P -1"
_symmetry_group_IT_number 2
_symmetry_cell_setting 'triclinic'
loop_
_space_group_symop_operation_xyz
x,y,z
-x,-y,-z
loop_
_atom_site_type_symbol
_atom_site_label
_atom_site_fract_x
_atom_site_fract_y
_atom_site_fract_z
Si Si1 0.303208 0.870018 0.059775
Si Si2 0.918407 0.665122 0.077056
Si Si3 0.595837 0.791735 0.776698
Si Si4 0.210131 0.728360 0.898332
Si Si5 0.001206 0.840004 0.455869
Si Si6 0.085531 0.638475 0.206305
Si Si7 0.509829 0.302397 0.401759
Si Si8 0.702956 0.900598 0.430483
O O1 0.256907 0.778630 0.008940
O O2 0.315404 0.015976 0.820198
O O3 0.206293 0.085758 0.080958
O O4 0.416216 0.608462 0.273389
O O5 0.932372 0.451553 0.316201
O O6 0.973079 0.737501 0.127022
O O7 0.000000 0.500000 0.000000
O O8 0.527742 0.740502 0.742345
O O9 0.529647 0.090455 0.661132
O O10 0.660998 0.771707 0.602913
O O11 0.684782 0.553673 0.029865
O O12 0.136194 0.683486 0.016497
O O13 0.124436 0.990304 0.646129
O O14 0.062984 0.792784 0.291373
O O15 0.000000 0.000000 0.500000
O O16 0.172166 0.328740 0.417955
O O17 0.628469 0.169232 0.397098
#
# Coordination Sequence:
#
# PCOD9094534 Si02
#       8
#     2   2   2   2   2   2   2   2
#     4  11  19  32  57  83 121 154 199 238 293 345
#     4  12  26  41  56  86 124 159 200 246 291 352
#     4   7  15  29  49  83 118 144 190 242 286 346
#     4  10  20  34  58  84 116 158 190 241 296 350
#     4  12  24  38  58  87 116 153 202 242 295 355
#     4  11  21  40  61  82 123 156 194 247 298 349
#     4   8  15  30  51  86 114 148 195 240 287 353
#     4   9  16  30  54  85 114 151 190 244 291 345
#
# _framework density 23.678037
#
# number of rings (size 3 to 8) (size 9 to 14) (size 15 to 20)
#    0.750    1.250    2.500    2.625    1.750    0.000 
#    0.000    0.000    0.000    0.750    0.000    4.375 
#    0.000    0.000    0.000    0.000    0.000    0.000 
#
# Total GULP energy -89109.192851 kJ/mol
# GULP energy per Si atom -5569.324553 kJ/mol
# Density = 2.362414 g / cm^3
# Si number density = 23.678037 Si / 1000 Ang^3
#
#
#
# Elastic Constant Matrix: (Units=GPa)
#
#
# Indices 1 2 3 4 5 6 
#
# 1 46.2198 19.9090 10.6546 -10.5223 -2.8673 -4.0662
# 2 19.9090 100.0228 42.2047 -31.3868 15.4322 -26.1767
# 3 10.6546 42.2047 68.2029 -46.7254 12.4881 -16.4417
# 4 -10.5223 -31.3868 -46.7254 45.8698 -15.2457 16.3697
# 5 -2.8673 15.4322 12.4881 -15.2457 32.0583 -18.3919
# 6 -4.0662 -26.1767 -16.4417 16.3697 -18.3919 35.6950
#
#
#
# Elastic Compliance Matrix: (Units=1/GPa)
#
#
# Indices 1 2 3 4 5 6 
#
# 1 0.025395 -0.004852 0.003638 0.008396 0.007884 0.001222
# 2 -0.004852 0.016116 -0.008323 -0.001718 -0.001492 0.007452
# 3 0.003638 -0.008323 0.053858 0.053038 0.007934 -0.001116
# 4 0.008396 -0.001718 0.053038 0.084471 0.018038 -0.005318
# 5 0.007884 -0.001492 0.007934 0.018038 0.050174 0.021038
# 6 0.001222 0.007452 -0.001116 -0.005318 0.021038 0.046384
#
#
# Mechanical properties :
#
#
# Convention : Reuss Voigt Hill
#
# Bulk Modulus (GPa) = 13.10676 39.99802 26.55239
# Shear Modulus (GPa) = 15.58103 32.16976 23.87539
#
# Velocity S-wave (km/s) = 2.56801 3.68996 3.17887
# Velocity P-wave (km/s) = 3.78686 5.92314 4.97111
#
# Compressibility (1/GPa) = 0.07629653
#
# Stress axis : x y z
#
# Youngs Moduli (GPa) = 39.37804 62.04866 18.56731
#
# Poissons Ratio (x) = 0.30104 -0.06755
# Poissons Ratio (y) = 0.19105 0.15453
# Poissons Ratio (z) = -0.14326 0.51642
#
# Static dielectric constant tensor:
#      x y z
#    x 2.041690 0.040920 -0.062860 
#    y 0.040920 2.067710 -0.077590 
#    z -0.062860 -0.077590 2.071990 
# 
# From -- ./inp_files/342548.got.cif
#   From: 2010.05.17/outbox.cif.g08.bks.cpg/sg2_172_cif.got.tgz:342548.got - 2010.06.03 11:33:40.
