data_PCOD9094206
_publ_section_title
;
Structure prediction by ZEFSAII (Michael W. Deem and Ramdas Pophale) SiO2 
 PCOD9094206
Probable space group: P -1
;
_chemical_formula_sum "Si O2"
_cell_formula_units_Z 16
_cell_length_a 19.529648
_cell_length_b 12.834980
_cell_length_c 8.433509
_cell_angle_alpha 138.135753
_cell_angle_beta 43.862732
_cell_angle_gamma 154.955210
_cell_volume 589.153004
_symmetry_space_group_name_H-M "P -1"
_symmetry_group_IT_number 2
_symmetry_cell_setting 'triclinic'
loop_
_space_group_symop_operation_xyz
x,y,z
-x,-y,-z
loop_
_atom_site_type_symbol
_atom_site_label
_atom_site_fract_x
_atom_site_fract_y
_atom_site_fract_z
Si Si1 0.174922 0.156381 0.819951
Si Si2 0.680955 0.454175 0.531160
Si Si3 0.985386 0.008008 0.716428
Si Si4 0.504494 0.547916 0.361080
Si Si5 0.600478 0.893081 0.139265
Si Si6 0.834797 0.447915 0.015836
Si Si7 0.909257 0.411469 0.379728
Si Si8 0.344741 0.699142 0.148313
O O1 0.300672 0.186840 0.707784
O O2 0.290568 0.451546 0.948705
O O3 0.109644 0.040123 0.622540
O O4 0.000000 0.000000 0.000000
O O5 0.799512 0.722230 0.735085
O O6 0.600469 0.434323 0.489000
O O7 0.529681 0.235135 0.649823
O O8 0.788930 0.453443 0.271996
O O9 0.000000 0.000000 0.500000
O O10 0.047281 0.263274 0.929050
O O11 0.500000 0.500000 0.500000
O O12 0.425455 0.313023 0.118270
O O13 0.531087 0.920072 0.147207
O O14 0.776491 0.136509 0.198192
O O15 0.688982 0.260541 0.916914
O O16 0.934674 0.413005 0.798172
O O17 0.785600 0.395908 0.614224
O O18 0.000000 0.500000 0.500000
#
# Coordination Sequence:
#
# PCOD9094206 Si02
#       8
#     2   2   2   2   2   2   2   2
#     4  10  20  34  55  83 113 143 181 231 286 337
#     4  11  21  35  56  88 120 147 187 244 292 337
#     4   9  16  30  52  78 111 146 177 220 278 340
#     4  11  22  37  57  86 120 155 187 226 289 359
#     4  11  22  37  58  86 115 149 194 247 291 335
#     4   9  19  36  57  81 113 154 194 230 280 347
#     4  10  21  38  61  82 108 156 205 239 283 346
#     4   9  19  37  58  80 112 152 194 235 283 347
#
# _framework density 27.157633000000001
#
# number of rings (size 3 to 8) (size 9 to 14) (size 15 to 20)
#    0.000    2.000    0.000    6.000    0.000    4.000 
#    0.000    3.125    0.000    3.000    0.000    0.000 
#    0.000    0.000    0.000    0.000    0.000    0.000 
#
# Total GULP energy -89307.824895 kJ/mol
# GULP energy per Si atom -5581.739056 kJ/mol
# Density = 2.709582 g / cm^3
# Si number density = 27.157633 Si / 1000 Ang^3
#
#
#
# Elastic Constant Matrix: (Units=GPa)
#
#
# Indices 1 2 3 4 5 6 
#
# 1 61.2228 42.1564 10.9328 12.4673 1.1639 36.2621
# 2 42.1564 142.8410 12.7512 11.4403 1.2788 35.8138
# 3 10.9328 12.7512 139.6744 -6.8500 -0.4401 15.0161
# 4 12.4673 11.4403 -6.8500 35.4859 11.6190 2.5838
# 5 1.1639 1.2788 -0.4401 11.6190 37.3508 -5.0597
# 6 36.2621 35.8138 15.0161 2.5838 -5.0597 48.1772
#
#
#
# Elastic Compliance Matrix: (Units=1/GPa)
#
#
# Indices 1 2 3 4 5 6 
#
# 1 0.034025 -0.003671 -0.000352 -0.008799 -0.001240 -0.022430
# 2 -0.003671 0.009210 -0.000190 -0.001316 -0.000334 -0.003988
# 3 -0.000352 -0.000190 0.007533 0.002065 -0.000826 -0.002139
# 4 -0.008799 -0.001316 0.002065 0.035084 -0.010025 0.004023
# 5 -0.001240 -0.000334 -0.000826 -0.010025 0.030636 0.005194
# 6 -0.022430 -0.003988 -0.002139 0.004023 0.005194 0.041600
#
#
# Mechanical properties :
#
#
# Convention : Reuss Voigt Hill
#
# Bulk Modulus (GPa) = 23.61783 52.82435 38.22109
# Shear Modulus (GPa) = 27.68124 42.72929 35.20526
#
# Velocity S-wave (km/s) = 3.19608 3.97089 3.60436
# Velocity P-wave (km/s) = 4.72603 6.36531 5.60591
#
# Compressibility (1/GPa) = 0.04234090
#
# Stress axis : x y z
#
# Youngs Moduli (GPa) = 29.39045 108.58317 132.74761
#
# Poissons Ratio (x) = 0.39858 0.04676
# Poissons Ratio (y) = 0.10788 0.02526
# Poissons Ratio (z) = 0.01035 0.02066
#
# Static dielectric constant tensor:
#      x y z
#    x 2.200820 -0.062750 0.160150 
#    y -0.062750 2.197530 -0.020560 
#    z 0.160150 -0.020560 2.162300 
# 
# From -- ./inp_files/347602.got.cif
#   From: 2010.05.17/outbox.cif.g08.bks.cpg/sg2_174_cif.got.tgz:347602.got - 2010.06.03 11:33:40.
