data_PCOD9094465
_publ_section_title
;
Structure prediction by ZEFSAII (Michael W. Deem and Ramdas Pophale) SiO2 
 PCOD9094465
Probable space group: P -1
;
_chemical_formula_sum "Si O2"
_cell_formula_units_Z 16
_cell_length_a 9.351026
_cell_length_b 9.251714
_cell_length_c 14.134909
_cell_angle_alpha 53.835979
_cell_angle_beta 120.260915
_cell_angle_gamma 82.133264
_cell_volume 667.204653
_symmetry_space_group_name_H-M "P -1"
_symmetry_group_IT_number 2
_symmetry_cell_setting 'triclinic'
loop_
_space_group_symop_operation_xyz
x,y,z
-x,-y,-z
loop_
_atom_site_type_symbol
_atom_site_label
_atom_site_fract_x
_atom_site_fract_y
_atom_site_fract_z
Si Si1 0.166422 0.423002 0.504484
Si Si2 0.677534 0.846503 0.740856
Si Si3 0.995579 0.521301 0.131882
Si Si4 0.004934 0.158114 0.843050
Si Si5 0.596072 0.246120 0.659919
Si Si6 0.294787 0.584585 0.835265
Si Si7 0.716631 0.018967 0.328341
Si Si8 0.584185 0.129889 0.018434
O O1 0.093494 0.660226 0.346540
O O2 0.421013 0.273800 0.659365
O O3 0.000000 0.500000 0.500000
O O4 0.151033 0.250674 0.503673
O O5 0.769501 0.705818 0.728863
O O6 0.487860 0.863118 0.718119
O O7 0.618245 0.094925 0.637321
O O8 0.875434 0.688996 0.938143
O O9 0.980956 0.689625 0.137215
O O10 0.859152 0.442182 0.148911
O O11 0.828048 0.131722 0.822082
O O12 0.221866 0.939243 0.956013
O O13 0.500000 0.500000 0.500000
O O14 0.194886 0.843089 0.679650
O O15 0.500000 0.500000 0.000000
O O16 0.396588 0.401110 0.855536
O O17 0.657466 0.050245 0.183506
O O18 0.500000 0.000000 0.000000
#
# Coordination Sequence:
#
# PCOD9094465 Si02
#       8
#     2   2   2   2   2   2   2   2
#     4  10  20  39  65  86 115 158 199 246 293 351
#     4  10  21  38  60  82 121 157 195 237 297 359
#     4  11  22  37  59  87 119 158 193 244 299 348
#     4  11  22  39  60  90 120 153 200 250 294 345
#     4   9  22  39  61  88 116 158 201 237 298 357
#     4  10  20  34  57  87 118 153 198 231 299 358
#     4  10  20  38  58  87 112 156 199 236 291 359
#     4  11  19  33  60  87 118 148 190 246 293 340
#
# _framework density 23.980649
#
# number of rings (size 3 to 8) (size 9 to 14) (size 15 to 20)
#    0.000    1.750    5.000    0.000    3.500    0.500 
#    0.000   10.000    0.000    0.000    0.000    0.000 
#    0.000    0.000    0.000    0.000    0.000    0.000 
#
# Total GULP energy -89345.947081 kJ/mol
# GULP energy per Si atom -5584.121693 kJ/mol
# Density = 2.392607 g / cm^3
# Si number density = 23.980649 Si / 1000 Ang^3
#
#
#
# Elastic Constant Matrix: (Units=GPa)
#
#
# Indices 1 2 3 4 5 6 
#
# 1 135.9001 70.5568 22.7188 -15.9591 12.1035 -11.9778
# 2 70.5568 128.7826 23.5183 -33.4330 7.4919 1.2518
# 3 22.7188 23.5183 48.5932 -10.1692 11.6209 0.0814
# 4 -15.9591 -33.4330 -10.1692 41.4653 3.9683 -0.0287
# 5 12.1035 7.4919 11.6209 3.9683 20.2510 -16.7366
# 6 -11.9778 1.2518 0.0814 -0.0287 -16.7366 51.8348
#
#
#
# Elastic Compliance Matrix: (Units=1/GPa)
#
#
# Indices 1 2 3 4 5 6 
#
# 1 0.010922 -0.005773 -0.002280 -0.000917 -0.000956 0.002358
# 2 -0.005773 0.013875 -0.000537 0.009431 -0.006271 -0.003688
# 3 -0.002280 -0.000537 0.029250 0.008112 -0.023559 -0.008162
# 4 -0.000917 0.009431 0.008112 0.035294 -0.020282 -0.006982
# 5 -0.000956 -0.006271 -0.023559 -0.020282 0.095109 0.030665
# 6 0.002358 -0.003688 -0.008162 -0.006982 0.030665 0.029836
#
#
# Mechanical properties :
#
#
# Convention : Reuss Voigt Hill
#
# Bulk Modulus (GPa) = 27.12371 60.76265 43.94318
# Shear Modulus (GPa) = 20.51254 35.80903 28.16078
#
# Velocity S-wave (km/s) = 2.92786 3.86845 3.43054
# Velocity P-wave (km/s) = 4.77127 6.73397 5.83573
#
# Compressibility (1/GPa) = 0.03686812
#
# Stress axis : x y z
#
# Youngs Moduli (GPa) = 91.55958 72.07235 34.18799
#
# Poissons Ratio (x) = 0.41607 0.07794
# Poissons Ratio (y) = 0.52856 0.01835
# Poissons Ratio (z) = 0.20872 0.03869
#
# Static dielectric constant tensor:
#      x y z
#    x 1.918480 -0.015670 -0.000880 
#    y -0.015670 1.931010 0.026680 
#    z -0.000880 0.026680 2.065660 
# 
# From -- ./inp_files/268424.got.cif
#   From: 2010.05.17/outbox.cif.g08.bks.cpg/sg2_135_cif.got.tgz:268424.got - 2010.06.03 11:33:40.
