data_PCOD9094369
_publ_section_title
;
Structure prediction by ZEFSAII (Michael W. Deem and Ramdas Pophale) SiO2 
 PCOD9094369
Probable space group: P -1
;
_chemical_formula_sum "Si O2"
_cell_formula_units_Z 16
_cell_length_a 13.302898
_cell_length_b 11.659341
_cell_length_c 7.869274
_cell_angle_alpha 100.302744
_cell_angle_beta 129.557579
_cell_angle_gamma 113.419419
_cell_volume 683.850591
_symmetry_space_group_name_H-M "P -1"
_symmetry_group_IT_number 2
_symmetry_cell_setting 'triclinic'
loop_
_space_group_symop_operation_xyz
x,y,z
-x,-y,-z
loop_
_atom_site_type_symbol
_atom_site_label
_atom_site_fract_x
_atom_site_fract_y
_atom_site_fract_z
Si Si1 0.068760 0.140162 0.742240
Si Si2 0.928202 0.496267 0.656931
Si Si3 0.269048 0.031427 0.490383
Si Si4 0.608811 0.130270 0.299501
Si Si5 0.597866 0.788614 0.952646
Si Si6 0.526373 0.658283 0.385111
Si Si7 0.163933 0.449635 0.786498
Si Si8 0.700176 0.528258 0.570822
O O1 0.264334 0.209404 0.997047
O O2 0.079674 0.275811 0.708605
O O3 0.000000 0.000000 0.500000
O O4 0.940141 0.073004 0.746396
O O5 0.775052 0.304807 0.455450
O O6 0.911685 0.556948 0.478734
O O7 0.883274 0.568833 0.766467
O O8 0.105661 0.526632 0.858852
O O9 0.334106 0.123558 0.769270
O O10 0.371019 0.161179 0.490055
O O11 0.319487 0.926352 0.516594
O O12 0.467603 0.141012 0.209653
O O13 0.500000 0.000000 0.000000
O O14 0.424802 0.606815 0.740283
O O15 0.676465 0.649200 0.540802
O O16 0.401979 0.562126 0.389097
O O17 0.373623 0.558596 0.050768
#
# Coordination Sequence:
#
# PCOD9094369 Si02
#       8
#     2   2   2   2   2   2   2   2
#     4  10  20  34  56  89 115 142 178 240 288 335
#     4  10  22  36  59  88 115 148 186 242 280 340
#     4  10  20  35  58  84 113 146 188 232 290 335
#     4   9  16  32  52  82 114 139 176 229 284 327
#     4   9  18  34  58  80 112 147 181 235 282 331
#     4  11  23  38  59  83 111 160 194 233 274 342
#     4  11  21  38  62  87 115 146 194 230 290 336
#     4  10  22  39  57  81 118 149 199 233 279 329
#
# _framework density 23.396923999999999
#
# number of rings (size 3 to 8) (size 9 to 14) (size 15 to 20)
#    0.000    2.000    2.500    2.250    3.500    1.500 
#    0.000    3.125    0.000    0.000    0.000    0.000 
#    0.000    0.000    0.000    0.000    0.000    0.000 
#
# Total GULP energy -89229.006910 kJ/mol
# GULP energy per Si atom -5576.812932 kJ/mol
# Density = 2.334367 g / cm^3
# Si number density = 23.396924 Si / 1000 Ang^3
#
#
#
# Elastic Constant Matrix: (Units=GPa)
#
#
# Indices 1 2 3 4 5 6 
#
# 1 109.7716 56.5572 13.2641 -28.0805 19.3890 -28.3521
# 2 56.5572 143.3210 13.2338 -12.5900 20.9599 -15.3702
# 3 13.2641 13.2338 35.7488 -7.9982 2.9126 -6.2902
# 4 -28.0805 -12.5900 -7.9982 23.2658 -7.0845 4.2671
# 5 19.3890 20.9599 2.9126 -7.0845 25.8559 -7.3854
# 6 -28.3521 -15.3702 -6.2902 4.2671 -7.3854 38.1075
#
#
#
# Elastic Compliance Matrix: (Units=1/GPa)
#
#
# Indices 1 2 3 4 5 6 
#
# 1 0.019034 -0.004496 0.000614 0.018049 -0.002937 0.009859
# 2 -0.004496 0.009372 -0.002050 -0.002423 -0.004821 -0.000566
# 3 0.000614 -0.002050 0.031348 0.010164 0.001590 0.003974
# 4 0.018049 -0.002423 0.010164 0.067965 0.008224 0.008112
# 5 -0.002937 -0.004821 0.001590 0.008224 0.048159 0.004546
# 6 0.009859 -0.000566 0.003974 0.008112 0.004546 0.033977
#
#
# Mechanical properties :
#
#
# Convention : Reuss Voigt Hill
#
# Bulk Modulus (GPa) = 20.88105 50.55019 35.71562
# Shear Modulus (GPa) = 21.03647 31.16492 26.10070
#
# Velocity S-wave (km/s) = 3.00177 3.65363 3.34363
# Velocity P-wave (km/s) = 4.57802 6.28101 5.49588
#
# Compressibility (1/GPa) = 0.04789031
#
# Stress axis : x y z
#
# Youngs Moduli (GPa) = 52.53699 106.69864 31.90017
#
# Poissons Ratio (x) = 0.47968 -0.01959
# Poissons Ratio (y) = 0.23619 0.06541
# Poissons Ratio (z) = -0.03226 0.21878
#
# Static dielectric constant tensor:
#      x y z
#    x 1.995010 -0.006920 -0.002930 
#    y -0.006920 1.841820 -0.008880 
#    z -0.002930 -0.008880 1.983180 
# 
# From -- ./inp_files/303359.got.cif
#   From: 2010.05.17/outbox.cif.g08.bks.cpg/sg2_152_cif.got.tgz:303359.got - 2010.06.03 11:33:40.
