data_PCOD9094939
_publ_section_title
;
Structure prediction by ZEFSAII (Michael W. Deem and Ramdas Pophale) SiO2 
 PCOD9094939
Probable space group: P -1
;
_chemical_formula_sum "Si O2"
_cell_formula_units_Z 16
_cell_length_a 14.161191
_cell_length_b 8.524366
_cell_length_c 22.788754
_cell_angle_alpha 48.125243
_cell_angle_beta 160.824417
_cell_angle_gamma 131.976331
_cell_volume 664.492104
_symmetry_space_group_name_H-M "P -1"
_symmetry_group_IT_number 2
_symmetry_cell_setting 'triclinic'
loop_
_space_group_symop_operation_xyz
x,y,z
-x,-y,-z
loop_
_atom_site_type_symbol
_atom_site_label
_atom_site_fract_x
_atom_site_fract_y
_atom_site_fract_z
Si Si1 0.768093 0.639593 0.088750
Si Si2 0.746909 0.643099 0.823113
Si Si3 0.091286 0.132878 0.766111
Si Si4 0.751240 0.251504 0.101832
Si Si5 0.372859 0.299296 0.629939
Si Si6 0.765467 0.296070 0.427767
Si Si7 0.083401 0.989353 0.630244
Si Si8 0.836583 0.027093 0.957086
O O1 0.937640 0.763992 0.212553
O O2 0.894013 0.478491 0.156978
O O3 0.674326 0.815778 0.945892
O O4 0.500000 0.500000 0.000000
O O5 0.505773 0.542179 0.659495
O O6 0.546157 0.629836 0.767269
O O7 0.926374 0.875764 0.878805
O O8 0.000000 0.500000 0.000000
O O9 0.849700 0.188944 0.565036
O O10 0.114237 0.876855 0.839612
O O11 0.404928 0.247960 0.894963
O O12 0.777630 0.089289 0.211309
O O13 0.064652 0.224159 0.436948
O O14 0.315246 0.160797 0.690506
O O15 0.630681 0.198166 0.777876
O O16 0.000000 0.500000 0.500000
O O17 0.818073 0.117695 0.456627
O O18 0.000000 0.000000 0.000000
#
# Coordination Sequence:
#
# PCOD9094939 Si02
#       8
#     2   2   2   2   2   2   2   2
#     4  10  21  40  66  95 130 179 231 284 340 413
#     4  10  23  41  60  94 138 182 219 273 360 424
#     4   9  20  36  60  94 138 165 223 290 337 401
#     4   9  19  36  56  97 131 174 213 284 353 395
#     4  10  20  37  61  96 131 181 220 292 343 406
#     4  11  21  37  65 103 134 177 234 288 342 403
#     4  10  20  34  64  98 140 164 236 297 334 398
#     4  11  24  44  64  96 138 181 231 280 354 427
#
# _framework density 24.078538999999999
#
# number of rings (size 3 to 8) (size 9 to 14) (size 15 to 20)
#    0.000    2.000    1.250    2.250    1.750    4.000 
#    9.000    0.625    0.000    2.250    0.000    0.000 
#    0.000    0.000    0.000    0.000    0.000    0.000 
#
# Total GULP energy -89106.163386 kJ/mol
# GULP energy per Si atom -5569.135212 kJ/mol
# Density = 2.402374 g / cm^3
# Si number density = 24.078539 Si / 1000 Ang^3
#
#
#
# Elastic Constant Matrix: (Units=GPa)
#
#
# Indices 1 2 3 4 5 6 
#
# 1 65.9346 36.3725 21.9300 -6.5744 11.6391 -22.8867
# 2 36.3725 111.5514 23.4369 14.7559 -4.2588 -34.1072
# 3 21.9300 23.4369 50.0473 3.1869 15.9636 -6.8696
# 4 -6.5744 14.7559 3.1869 33.5250 -13.7120 2.4050
# 5 11.6391 -4.2588 15.9636 -13.7120 45.9984 -0.9943
# 6 -22.8867 -34.1072 -6.8696 2.4050 -0.9943 50.1820
#
#
#
# Elastic Compliance Matrix: (Units=1/GPa)
#
#
# Indices 1 2 3 4 5 6 
#
# 1 0.023331 -0.005368 -0.006658 0.006306 -0.002086 0.005737
# 2 -0.005368 0.014778 -0.003802 -0.006844 0.002167 0.007447
# 3 -0.006658 -0.003802 0.028181 -0.006448 -0.010405 -0.001660
# 4 0.006306 -0.006844 -0.006448 0.039822 0.011786 -0.004333
# 5 -0.002086 0.002167 -0.010405 0.011786 0.029574 -0.000882
# 6 0.005737 0.007447 -0.001660 -0.004333 -0.000882 0.027568
#
#
# Mechanical properties :
#
#
# Convention : Reuss Voigt Hill
#
# Bulk Modulus (GPa) = 28.87318 43.44579 36.15949
# Shear Modulus (GPa) = 24.21853 35.66068 29.93961
#
# Velocity S-wave (km/s) = 3.17490 3.85257 3.53003
# Velocity P-wave (km/s) = 5.04552 6.15405 5.62715
#
# Compressibility (1/GPa) = 0.03463421
#
# Stress axis : x y z
#
# Youngs Moduli (GPa) = 42.86197 67.66629 35.48541
#
# Poissons Ratio (x) = 0.36324 0.23626
# Poissons Ratio (y) = 0.23009 0.13490
# Poissons Ratio (z) = 0.28538 0.25724
#
# Static dielectric constant tensor:
#      x y z
#    x 1.968870 -0.109980 -0.007070 
#    y -0.109980 1.998590 0.003150 
#    z -0.007070 0.003150 1.941090 
# 
# From -- ./inp_files/611621.got.cif
#   From: 2010.05.17/outbox.cif.g08.bks.cpg/sg2_306_cif.got.tgz:611621.got - 2010.06.03 11:33:40.
