data_PCOD9094362
_publ_section_title
;
Structure prediction by ZEFSAII (Michael W. Deem and Ramdas Pophale) SiO2 
 PCOD9094362
Probable space group: P -1
;
_chemical_formula_sum "Si O2"
_cell_formula_units_Z 15
_cell_length_a 5.937150
_cell_length_b 25.047343
_cell_length_c 7.499216
_cell_angle_alpha 48.564777
_cell_angle_beta 41.804947
_cell_angle_gamma 57.546883
_cell_volume 555.228407
_symmetry_space_group_name_H-M "P -1"
_symmetry_group_IT_number 2
_symmetry_cell_setting 'triclinic'
loop_
_space_group_symop_operation_xyz
x,y,z
-x,-y,-z
loop_
_atom_site_type_symbol
_atom_site_label
_atom_site_fract_x
_atom_site_fract_y
_atom_site_fract_z
Si Si1 0.032422 0.568378 0.714347
Si Si2 0.305188 0.352574 0.756212
Si Si3 0.645853 0.697271 0.573790
Si Si4 0.692821 0.219087 0.917279
Si Si5 0.000000 0.500000 0.500000
Si Si6 0.863604 0.912633 0.935583
Si Si7 0.746652 0.176109 0.572423
Si Si8 0.848227 0.957226 0.436337
O O1 0.362380 0.605249 0.496709
O O2 0.703553 0.624422 0.808976
O O3 0.048239 0.542043 0.561035
O O4 0.000000 0.500000 0.000000
O O5 0.323929 0.325024 0.601999
O O6 0.375540 0.279944 0.997626
O O7 0.017756 0.418907 0.784419
O O8 0.305191 0.750460 0.672472
O O9 0.970157 0.739304 0.340731
O O10 0.658036 0.196267 0.782706
O O11 0.808725 0.144692 0.111430
O O12 0.850362 0.938831 0.683651
O O13 0.528657 0.871898 0.246666
O O14 0.888537 0.982669 0.887228
O O15 0.075350 0.121210 0.517060
O O16 0.500000 0.000000 0.500000
#
# Coordination Sequence:
#
# PCOD9094362 Si02
#       8
#     2   2   2   2   1   2   2   2
#     4  10  20  36  60  86 121 159 201 251 302 363
#     4   9  18  36  60  84 118 153 195 243 301 358
#     4   8  18  35  59  82 112 153 198 245 292 367
#     4   9  18  36  63  82 111 154 199 243 302 357
#     4  10  20  34  56  88 120 152 198 246 300 358
#     4  10  22  39  59  85 117 157 202 249 307 365
#     4  10  20  39  63  83 116 162 198 250 314 361
#     4  11  24  38  57  89 123 151 200 258 302 373
#
# _framework density 27.015906000000001
#
# number of rings (size 3 to 8) (size 9 to 14) (size 15 to 20)
#    0.000    2.400    0.000    1.600    0.000    8.533 
#    2.400    0.000   49.867    0.000    0.000    0.000 
#    0.000    0.000    0.000    0.000    0.000    0.000 
#
# Total GULP energy -83585.999524 kJ/mol
# GULP energy per Si atom -5572.399968 kJ/mol
# Density = 2.695442 g / cm^3
# Si number density = 27.015906 Si / 1000 Ang^3
#
#
#
# Elastic Constant Matrix: (Units=GPa)
#
#
# Indices 1 2 3 4 5 6 
#
# 1 121.9029 57.8548 43.6722 -22.2527 0.2465 -25.1038
# 2 57.8548 154.5194 41.0022 -48.0505 5.0609 -22.9529
# 3 43.6722 41.0022 51.6546 -17.6058 11.3897 -19.5997
# 4 -22.2527 -48.0505 -17.6058 38.2086 -17.8781 23.9216
# 5 0.2465 5.0609 11.3897 -17.8781 48.4329 -17.2134
# 6 -25.1038 -22.9529 -19.5997 23.9216 -17.2134 70.7538
#
#
#
# Elastic Compliance Matrix: (Units=1/GPa)
#
#
# Indices 1 2 3 4 5 6 
#
# 1 0.012964 -0.001786 -0.009073 0.001629 0.003498 0.001807
# 2 -0.001786 0.013444 -0.005302 0.017421 0.005464 -0.002302
# 3 -0.009073 -0.005302 0.033357 -0.001778 -0.006741 0.003262
# 4 0.001629 0.017421 -0.001778 0.063839 0.018086 -0.011447
# 5 0.003498 0.005464 -0.006741 0.018086 0.029067 0.002103
# 6 0.001807 -0.002302 0.003262 -0.011447 0.002103 0.019313
#
#
# Mechanical properties :
#
#
# Convention : Reuss Voigt Hill
#
# Bulk Modulus (GPa) = 36.43948 68.12616 52.28282
# Shear Modulus (GPa) = 23.42427 43.84890 33.63659
#
# Velocity S-wave (km/s) = 2.94777 4.03311 3.53238
# Velocity P-wave (km/s) = 5.01032 6.85272 6.00263
#
# Compressibility (1/GPa) = 0.02744276
#
# Stress axis : x y z
#
# Youngs Moduli (GPa) = 77.13833 74.38388 29.97867
#
# Poissons Ratio (x) = 0.13284 0.27200
# Poissons Ratio (y) = 0.13776 0.15894
# Poissons Ratio (z) = 0.69989 0.39436
#
# Static dielectric constant tensor:
#      x y z
#    x 2.109980 -0.074330 -0.016080 
#    y -0.074330 2.942010 0.275310 
#    z -0.016080 0.275310 2.362560 
# 
# From -- ./inp_files/50440.got.cif
#   From: 2010.05.17/outbox.cif.g08.bks.cpg/sg2_26_cif.got.tgz:50440.got - 2010.06.03 11:33:40.
