data_PCOD9094018
_publ_section_title
;
Structure prediction by ZEFSAII (Michael W. Deem and Ramdas Pophale) SiO2 
 PCOD9094018
Probable space group: P -1
;
_chemical_formula_sum "Si O2"
_cell_formula_units_Z 16
_cell_length_a 5.819971
_cell_length_b 8.969421
_cell_length_c 11.748932
_cell_angle_alpha 83.304347
_cell_angle_beta 89.927102
_cell_angle_gamma 97.560572
_cell_volume 603.750359
_symmetry_space_group_name_H-M "P -1"
_symmetry_group_IT_number 2
_symmetry_cell_setting 'triclinic'
loop_
_space_group_symop_operation_xyz
x,y,z
-x,-y,-z
loop_
_atom_site_type_symbol
_atom_site_label
_atom_site_fract_x
_atom_site_fract_y
_atom_site_fract_z
Si Si1 0.096106 0.823532 0.094678
Si Si2 0.640157 0.127212 0.136319
Si Si3 0.698316 0.507965 0.402241
Si Si4 0.663876 0.391795 0.743606
Si Si5 0.866418 0.255204 0.549186
Si Si6 0.235874 0.012403 0.291799
Si Si7 0.958569 0.680694 0.763774
Si Si8 0.680437 0.652786 0.989066
O O1 0.280284 0.708772 0.141161
O O2 0.081117 0.930617 0.194966
O O3 0.198423 0.904983 0.970129
O O4 0.850851 0.720734 0.083377
O O5 0.445675 0.210009 0.068432
O O6 0.789809 0.243977 0.208423
O O7 0.491782 0.013775 0.234483
O O8 0.500000 0.500000 0.500000
O O9 0.571531 0.536254 0.281091
O O10 0.789220 0.343826 0.431941
O O11 0.887936 0.650509 0.423223
O O12 0.686673 0.285228 0.646071
O O13 0.873958 0.526466 0.713003
O O14 0.837240 0.076076 0.583143
O O15 0.177422 0.183206 0.291288
O O16 0.859852 0.626793 0.892661
O O17 0.500000 0.500000 0.000000
#
# Coordination Sequence:
#
# PCOD9094018 Si02
#       8
#     2   2   2   2   2   2   2   2
#     4  10  21  35  55  82 109 149 197 228 263 318
#     4  10  21  35  52  75 115 155 187 226 269 314
#     4   9  19  38  64  87 107 134 177 232 281 326
#     4  10  20  35  58  84 110 145 184 227 275 321
#     4   9  20  38  61  87 109 135 181 229 274 334
#     4  10  22  36  54  81 113 148 183 227 273 323
#     4  10  22  35  50  79 115 149 186 224 270 327
#     4  10  20  34  52  76 111 150 191 235 271 310
#
# _framework density 26.50102
#
# number of rings (size 3 to 8) (size 9 to 14) (size 15 to 20)
#    0.000    2.250    0.000    1.875    0.000   16.500 
#    0.000    0.625    0.000    7.500    0.000    0.000 
#    0.000    0.000    0.000    0.000    0.000    0.000 
#
# Total GULP energy -89313.678692 kJ/mol
# GULP energy per Si atom -5582.104918 kJ/mol
# Density = 2.644070 g / cm^3
# Si number density = 26.501020 Si / 1000 Ang^3
#
#
#
# Elastic Constant Matrix: (Units=GPa)
#
#
# Indices 1 2 3 4 5 6 
#
# 1 93.3713 15.6796 42.0289 -19.5126 10.7340 40.1451
# 2 15.6796 93.8285 19.0441 -21.8186 -7.7882 24.4367
# 3 42.0289 19.0441 97.8519 -37.7288 -0.3241 21.2811
# 4 -19.5126 -21.8186 -37.7288 46.4980 2.2820 -11.5481
# 5 10.7340 -7.7882 -0.3241 2.2820 41.8222 -0.3170
# 6 40.1451 24.4367 21.2811 -11.5481 -0.3170 45.3175
#
#
#
# Elastic Compliance Matrix: (Units=1/GPa)
#
#
# Indices 1 2 3 4 5 6 
#
# 1 0.020771 0.001824 -0.005062 0.001590 -0.005243 -0.016638
# 2 0.001824 0.013723 0.000354 0.005476 0.001732 -0.007774
# 3 -0.005062 0.000354 0.016944 0.011572 0.000860 -0.000708
# 4 0.001590 0.005476 0.011572 0.033900 -0.001157 -0.001165
# 5 -0.005243 0.001732 0.000860 -0.001157 0.025673 0.003192
# 6 -0.016638 -0.007774 -0.000708 -0.001165 0.003192 0.041056
#
#
# Mechanical properties :
#
#
# Convention : Reuss Voigt Hill
#
# Bulk Modulus (GPa) = 21.89695 48.72854 35.31275
# Shear Modulus (GPa) = 28.89203 40.61416 34.75310
#
# Velocity S-wave (km/s) = 3.30544 3.91903 3.62524
# Velocity P-wave (km/s) = 4.78001 6.23744 5.55672
#
# Compressibility (1/GPa) = 0.04566846
#
# Stress axis : x y z
#
# Youngs Moduli (GPa) = 48.14433 72.87008 59.01952
#
# Poissons Ratio (x) = -0.13293 0.29877
# Poissons Ratio (y) = -0.08782 -0.02087
# Poissons Ratio (z) = 0.24372 -0.02576
#
# Static dielectric constant tensor:
#      x y z
#    x 2.125390 -0.091500 -0.002320 
#    y -0.091500 2.280000 0.006110 
#    z -0.002320 0.006110 2.224590 
# 
# From -- ./inp_files/119280.got.cif
#   From: 2010.05.17/outbox.cif.g08.bks.cpg/sg2_60_cif.got.tgz:119280.got - 2010.06.03 11:33:40.
