data_PCOD9094855
_publ_section_title
;
Structure prediction by ZEFSAII (Michael W. Deem and Ramdas Pophale) SiO2 
 PCOD9094855
Probable space group: P -1
;
_chemical_formula_sum "Si O2"
_cell_formula_units_Z 15
_cell_length_a 8.840661
_cell_length_b 14.700401
_cell_length_c 6.781541
_cell_angle_alpha 118.780620
_cell_angle_beta 93.353576
_cell_angle_gamma 51.034381
_cell_volume 560.701042
_symmetry_space_group_name_H-M "P -1"
_symmetry_group_IT_number 2
_symmetry_cell_setting 'triclinic'
loop_
_space_group_symop_operation_xyz
x,y,z
-x,-y,-z
loop_
_atom_site_type_symbol
_atom_site_label
_atom_site_fract_x
_atom_site_fract_y
_atom_site_fract_z
Si Si1 0.817691 0.826977 0.928239
Si Si2 0.685054 0.102984 0.232553
Si Si3 0.050810 0.216607 0.660254
Si Si4 0.738838 0.687735 0.355052
Si Si5 0.640388 0.482039 0.734926
Si Si6 0.261775 0.719151 0.787068
Si Si7 0.821709 0.605978 0.820248
Si Si8 0.000000 0.000000 0.500000
O O1 0.841786 0.817582 0.158245
O O2 0.670512 0.992453 0.036735
O O3 0.775820 0.723999 0.797859
O O4 0.044126 0.762236 0.812324
O O5 0.483008 0.225799 0.474541
O O6 0.731873 0.161762 0.123527
O O7 0.874814 0.020674 0.315450
O O8 0.188856 0.224522 0.534980
O O9 0.820479 0.377285 0.797937
O O10 0.029334 0.104716 0.511670
O O11 0.930868 0.526864 0.276352
O O12 0.729198 0.666380 0.096634
O O13 0.399861 0.627751 0.895548
O O14 0.631778 0.381610 0.502504
O O15 0.726550 0.540855 0.681199
#
# Coordination Sequence:
#
# PCOD9094855 Si02
#       8
#     2   2   2   2   2   2   2   1
#     4  10  23  39  65  89 132 161 204 259 312 359
#     4  11  23  42  62  92 128 169 202 254 312 375
#     4   9  19  40  61  95 116 162 205 258 300 363
#     4   9  20  39  66  91 126 156 213 259 304 359
#     4  10  22  41  63  92 125 162 215 249 313 364
#     4  11  24  41  60  94 128 167 200 261 310 370
#     4   9  20  40  64  95 117 164 207 263 302 362
#     4  10  20  34  62  90 120 160 206 244 306 360
#
# _framework density 26.752224999999999
#
# number of rings (size 3 to 8) (size 9 to 14) (size 15 to 20)
#    0.000    2.133    1.333    1.200    3.733    8.000 
#    2.400    0.667    0.000    0.000    0.000    0.000 
#    0.000    0.000    0.000    0.000    0.000    0.000 
#
# Total GULP energy -83643.883236 kJ/mol
# GULP energy per Si atom -5576.258882 kJ/mol
# Density = 2.669134 g / cm^3
# Si number density = 26.752225 Si / 1000 Ang^3
#
#
#
# Elastic Constant Matrix: (Units=GPa)
#
#
# Indices 1 2 3 4 5 6 
#
# 1 146.8201 35.7006 48.3333 12.6673 16.8116 49.1207
# 2 35.7006 -9.3657 1.6957 38.7102 -3.0072 65.2912
# 3 48.3333 1.6957 74.4821 20.2444 -5.9782 22.0952
# 4 12.6673 38.7102 20.2444 20.0237 3.5019 5.9461
# 5 16.8116 -3.0072 -5.9782 3.5019 55.7890 1.6521
# 6 49.1207 65.2912 22.0952 5.9461 1.6521 48.3702
#
#
#
# Elastic Compliance Matrix: (Units=1/GPa)
#
#
# Indices 1 2 3 4 5 6 
#
# 1 0.012351 -0.000609 -0.006656 0.003528 -0.004424 -0.008964
# 2 -0.000609 -0.004518 -0.005300 0.012490 -0.001639 0.007658
# 3 -0.006656 -0.005300 0.018013 -0.006309 0.003859 0.006329
# 4 0.003528 0.012490 -0.006309 0.036955 -0.002734 -0.022010
# 5 -0.004424 -0.001639 0.003859 -0.002734 0.019618 0.004608
# 6 -0.008964 0.007658 0.006329 -0.022010 0.004608 0.019097
#
#
# Mechanical properties :
#
#
# Convention : Reuss Voigt Hill
#
# Bulk Modulus (GPa) = 1395.94605 42.59952 719.27278
# Shear Modulus (GPa) = 39.40545 33.25035 36.32790
#
# Velocity S-wave (km/s) = 3.84210 3.52930 3.68902
# Velocity P-wave (km/s) = 23.29422 5.70669 16.95858
#
# Compressibility (1/GPa) = 0.00071636
#
# Stress axis : x y z
#
# Youngs Moduli (GPa) = 80.96273 -221.35291 55.51573
#
# Poissons Ratio (x) = -0.13472 0.36953
# Poissons Ratio (y) = 0.04928 0.29425
# Poissons Ratio (z) = 0.53891 -1.17322
#
# Static dielectric constant tensor:
#      x y z
#    x 2.057860 -0.013840 -0.007120 
#    y -0.013840 2.130700 0.018180 
#    z -0.007120 0.018180 2.213100 
# 
# From -- ./inp_files/203653.got.cif
#   From: 2010.05.17/outbox.cif.g08.bks.cpg/sg2_102_cif.got.tgz:203653.got - 2010.06.03 11:33:40.
