data_PCOD9094957
_publ_section_title
;
Structure prediction by ZEFSAII (Michael W. Deem and Ramdas Pophale) SiO2 
 PCOD9094957
Probable space group: P -1
;
_chemical_formula_sum "Si O2"
_cell_formula_units_Z 14
_cell_length_a 9.319961
_cell_length_b 17.918551
_cell_length_c 8.941868
_cell_angle_alpha 126.997730
_cell_angle_beta 124.155068
_cell_angle_gamma 35.437124
_cell_volume 683.293015
_symmetry_space_group_name_H-M "P -1"
_symmetry_group_IT_number 2
_symmetry_cell_setting 'triclinic'
loop_
_space_group_symop_operation_xyz
x,y,z
-x,-y,-z
loop_
_atom_site_type_symbol
_atom_site_label
_atom_site_fract_x
_atom_site_fract_y
_atom_site_fract_z
Si Si1 0.245029 0.182529 0.552755
Si Si2 0.318715 0.819405 0.546001
Si Si3 0.784490 0.625024 0.123292
Si Si4 0.369765 0.834835 0.906595
Si Si5 0.976835 0.859408 0.887157
Si Si6 0.754882 0.989160 0.473051
Si Si7 0.593763 0.356297 0.891922
O O1 0.111170 0.333439 0.661781
O O2 0.200753 0.137448 0.621187
O O3 0.152009 0.163018 0.328744
O O4 0.542076 0.087931 0.592465
O O5 0.464288 0.756610 0.710289
O O6 0.364242 0.721045 0.330019
O O7 0.030529 0.925647 0.563835
O O8 0.356840 0.907821 0.605026
O O9 0.621320 0.615224 0.108647
O O10 0.598540 0.748495 0.048505
O O11 0.000000 0.500000 0.000000
O O12 0.166229 0.846225 0.879136
O O13 0.234157 0.987349 0.991773
O O14 0.148132 0.751765 0.991013
O O15 0.500000 0.500000 0.000000
#
# Coordination Sequence:
#
# PCOD9094957 Si02
#       7
#     2   2   2   2   2   2   2
#     4  11  21  40  63 101 129 172 208 275 323 381
#     4  11  21  40  63 101 129 172 208 275 323 381
#     4  11  26  46  66  92 134 179 216 259 323 396
#     4  10  21  40  69  98 126 169 221 265 319 388
#     4  10  21  40  69  98 126 169 221 265 319 388
#     4  10  20  34  66  94 134 160 206 266 338 364
#     4  11  26  46  66  92 134 179 216 259 323 396
#
# _framework density 20.489014000000001
#
# number of rings (size 3 to 8) (size 9 to 14) (size 15 to 20)
#    0.000    1.429    2.857    3.429    6.000    1.143 
#    2.571    6.429    0.000    0.000    0.000    0.000 
#    0.000    0.000    0.000    0.000    0.000    0.000 
#
# Total GULP energy -77995.964007 kJ/mol
# GULP energy per Si atom -5571.140286 kJ/mol
# Density = 2.044238 g / cm^3
# Si number density = 20.489014 Si / 1000 Ang^3
#
#
#
# Elastic Constant Matrix: (Units=GPa)
#
#
# Indices 1 2 3 4 5 6 
#
# 1 94.1005 32.0380 37.4331 3.6027 6.9775 10.3758
# 2 32.0380 95.9388 63.3251 13.1931 2.3463 13.2894
# 3 37.4331 63.3251 158.4519 11.0421 -0.6334 8.1790
# 4 3.6027 13.1931 11.0421 21.1311 11.8021 -3.8744
# 5 6.9775 2.3463 -0.6334 11.8021 20.9599 3.5257
# 6 10.3758 13.2894 8.1790 -3.8744 3.5257 37.4140
#
#
#
# Elastic Compliance Matrix: (Units=1/GPa)
#
#
# Indices 1 2 3 4 5 6 
#
# 1 0.012952 -0.003285 -0.002013 0.004176 -0.006193 -0.000969
# 2 -0.003285 0.017146 -0.004839 -0.012799 0.007266 -0.006131
# 3 -0.002013 -0.004839 0.008981 -0.003287 0.003392 -0.000346
# 4 0.004176 -0.012799 -0.003287 0.089666 -0.053649 0.018448
# 5 -0.006193 0.007266 0.003392 -0.053649 0.081770 -0.014866
# 6 -0.000969 -0.006131 -0.000346 0.018448 -0.014866 0.032562
#
#
# Mechanical properties :
#
#
# Convention : Reuss Voigt Hill
#
# Bulk Modulus (GPa) = 53.17607 68.23151 60.70379
# Shear Modulus (GPa) = 18.54464 30.28069 24.41266
#
# Velocity S-wave (km/s) = 3.01175 3.84852 3.45556
# Velocity P-wave (km/s) = 6.17285 7.28848 6.75374
#
# Compressibility (1/GPa) = 0.01880545
#
# Stress axis : x y z
#
# Youngs Moduli (GPa) = 77.20614 58.32278 111.34835
#
# Poissons Ratio (x) = 0.19162 0.22410
# Poissons Ratio (y) = 0.25366 0.53879
# Poissons Ratio (z) = 0.15539 0.28221
#
# Static dielectric constant tensor:
#      x y z
#    x 1.725060 0.033850 0.015100 
#    y 0.033850 1.775570 -0.017460 
#    z 0.015100 -0.017460 1.763330 
# 
# From -- ./inp_files/180668.got.cif
#   From: 2010.05.17/outbox.cif.g08.bks.cpg/sg2_91_cif.got.tgz:180668.got - 2010.06.03 11:33:40.
