data_PCOD9094709
_publ_section_title
;
Structure prediction by ZEFSAII (Michael W. Deem and Ramdas Pophale) SiO2 
 PCOD9094709
Probable space group: P -1
;
_chemical_formula_sum "Si O2"
_cell_formula_units_Z 16
_cell_length_a 27.809961
_cell_length_b 5.461924
_cell_length_c 14.414033
_cell_angle_alpha 73.686303
_cell_angle_beta 151.662046
_cell_angle_gamma 123.393871
_cell_volume 744.506640
_symmetry_space_group_name_H-M "P -1"
_symmetry_group_IT_number 2
_symmetry_cell_setting 'triclinic'
loop_
_space_group_symop_operation_xyz
x,y,z
-x,-y,-z
loop_
_atom_site_type_symbol
_atom_site_label
_atom_site_fract_x
_atom_site_fract_y
_atom_site_fract_z
Si Si1 0.884335 0.014806 0.806313
Si Si2 0.407753 0.389404 0.639409
Si Si3 0.010104 0.345095 0.177444
Si Si4 0.623987 0.173942 0.622170
Si Si5 0.753350 0.821939 0.893449
Si Si6 0.567704 0.330889 0.796820
Si Si7 0.437086 0.066918 0.008928
Si Si8 0.701998 0.268939 0.371440
O O1 0.918280 0.261214 0.753306
O O2 0.728265 0.666965 0.578049
O O3 0.913504 0.184952 0.939428
O O4 0.000000 0.000000 0.000000
O O5 0.487396 0.455418 0.673635
O O6 0.523460 0.646216 0.883216
O O7 0.335288 0.999613 0.584709
O O8 0.142437 0.386281 0.392010
O O9 0.914628 0.133448 0.124835
O O10 0.720871 0.559663 0.784545
O O11 0.500000 0.000000 0.500000
O O12 0.689809 0.000576 0.755934
O O13 0.541918 0.035454 0.400760
O O14 0.687636 0.597634 0.900105
O O15 0.604019 0.241327 0.962000
O O16 0.581810 0.269822 0.180782
O O17 0.325946 0.904684 0.757883
#
# Coordination Sequence:
#
# PCOD9094709 Si02
#       8
#     2   2   2   2   2   2   2   2
#     4  10  21  35  55  86 114 155 196 239 302 366
#     4  10  20  34  60  85 119 148 194 252 305 350
#     4  10  22  38  55  81 124 158 194 243 301 369
#     4  10  22  38  58  87 125 162 199 243 295 359
#     4  11  24  39  60  89 128 164 199 241 307 369
#     4  10  22  35  57  90 114 153 200 250 296 354
#     4  10  20  35  64  83 114 152 203 258 295 352
#     4   9  20  40  55  87 113 156 203 246 304 355
#
# _framework density 21.490742000000001
#
# number of rings (size 3 to 8) (size 9 to 14) (size 15 to 20)
#    0.000    2.000    0.000    3.375    8.750    2.000 
#    0.000    0.625    0.000    0.750    0.000    0.000 
#    0.000    0.000    0.000    0.000    0.000    0.000 
#
# Total GULP energy -89124.312078 kJ/mol
# GULP energy per Si atom -5570.269505 kJ/mol
# Density = 2.144183 g / cm^3
# Si number density = 21.490742 Si / 1000 Ang^3
#
#
#
# Elastic Constant Matrix: (Units=GPa)
#
#
# Indices 1 2 3 4 5 6 
#
# 1 102.4675 34.2024 36.0727 16.8344 5.2336 8.8217
# 2 34.2024 72.1670 25.1264 15.9177 17.1282 10.5131
# 3 36.0727 25.1264 82.8274 14.8364 1.5469 20.3403
# 4 16.8344 15.9177 14.8364 31.9099 8.2694 6.6722
# 5 5.2336 17.1282 1.5469 8.2694 33.5220 11.6923
# 6 8.8217 10.5131 20.3403 6.6722 11.6923 47.7339
#
#
#
# Elastic Compliance Matrix: (Units=1/GPa)
#
#
# Indices 1 2 3 4 5 6 
#
# 1 0.013045 -0.004431 -0.003879 -0.003228 0.001060 0.000410
# 2 -0.004431 0.019960 -0.003387 -0.003934 -0.008559 0.000512
# 3 -0.003879 -0.003387 0.016998 -0.004072 0.004782 -0.006382
# 4 -0.003228 -0.003934 -0.004072 0.038743 -0.006650 -0.000588
# 5 0.001060 -0.008559 0.004782 -0.006650 0.038550 -0.008862
# 6 0.000410 0.000512 -0.006382 -0.000588 -0.008862 0.025734
#
#
# Mechanical properties :
#
#
# Convention : Reuss Voigt Hill
#
# Bulk Modulus (GPa) = 37.58135 49.80721 43.69428
# Shear Modulus (GPa) = 26.98439 33.43720 30.21079
#
# Velocity S-wave (km/s) = 3.54733 3.94875 3.75341
# Velocity P-wave (km/s) = 5.85690 6.63450 6.25779
#
# Compressibility (1/GPa) = 0.02660894
#
# Stress axis : x y z
#
# Youngs Moduli (GPa) = 76.65891 50.09948 58.83200
#
# Poissons Ratio (x) = 0.22199 0.22822
# Poissons Ratio (y) = 0.33967 0.19925
# Poissons Ratio (z) = 0.29738 0.16967
#
# Static dielectric constant tensor:
#      x y z
#    x 1.862210 -0.049040 -0.013670 
#    y -0.049040 1.951090 -0.059270 
#    z -0.013670 -0.059270 1.873740 
# 
# From -- ./inp_files/77178.got.cif
#   From: 2010.05.17/outbox.cif.g08.bks.cpg/sg2_39_cif.got.tgz:77178.got - 2010.06.03 11:33:40.
