data_PCOD9094400
_publ_section_title
;
Structure prediction by ZEFSAII (Michael W. Deem and Ramdas Pophale) SiO2 
 PCOD9094400
Probable space group: P -1
;
_chemical_formula_sum "Si O2"
_cell_formula_units_Z 16
_cell_length_a 11.577609
_cell_length_b 14.217128
_cell_length_c 13.660414
_cell_angle_alpha 121.372714
_cell_angle_beta 102.519114
_cell_angle_gamma 29.124558
_cell_volume 765.922586
_symmetry_space_group_name_H-M "P -1"
_symmetry_group_IT_number 2
_symmetry_cell_setting 'triclinic'
loop_
_space_group_symop_operation_xyz
x,y,z
-x,-y,-z
loop_
_atom_site_type_symbol
_atom_site_label
_atom_site_fract_x
_atom_site_fract_y
_atom_site_fract_z
Si Si1 0.571096 0.255421 0.741682
Si Si2 0.952704 0.889815 0.942305
Si Si3 0.800267 0.816047 0.217162
Si Si4 0.818557 0.171961 0.892829
Si Si5 0.173617 0.404994 0.390606
Si Si6 0.267417 0.097608 0.525142
Si Si7 0.259927 0.387860 0.915938
Si Si8 0.775262 0.806721 0.888005
O O1 0.291921 0.563175 0.820398
O O2 0.838175 0.101866 0.749701
O O3 0.501810 0.250824 0.829672
O O4 0.611377 0.125555 0.598815
O O5 0.757677 0.947238 0.926125
O O6 0.952889 0.932514 0.078882
O O7 0.853532 0.059095 0.931839
O O8 0.850974 0.786277 0.324885
O O9 0.689522 0.785426 0.153793
O O10 0.515455 0.131032 0.316814
O O11 0.092706 0.582229 0.082602
O O12 0.500000 0.500000 0.000000
O O13 0.141923 0.344747 0.264868
O O14 0.000000 0.500000 0.500000
O O15 0.995034 0.663096 0.468167
O O16 0.500000 0.000000 0.500000
O O17 0.022346 0.591994 0.897355
O O18 0.500000 0.000000 0.000000
#
# Coordination Sequence:
#
# PCOD9094400 Si02
#       8
#     2   2   2   2   2   2   2   2
#     4  10  20  34  57  80 110 148 186 239 287 338
#     4   9  20  34  57  84 116 145 189 251 284 339
#     4  11  22  33  49  72 117 157 190 228 278 338
#     4   9  19  37  56  85 111 144 197 244 298 326
#     4  12  23  33  51  78 118 161 192 226 282 352
#     4  12  21  35  49  79 116 152 195 233 279 347
#     4  10  20  36  49  76 114 154 190 235 276 338
#     4  11  21  36  56  89 121 155 194 228 293 359
#
# _framework density 20.88984
#
# number of rings (size 3 to 8) (size 9 to 14) (size 15 to 20)
#    0.000    1.500    5.000    0.750    3.500    0.000 
#    0.000    0.000    0.000    0.000    0.000   16.625 
#    0.000    0.625    0.000    0.000    0.000    0.000 
#
# Total GULP energy -89138.389306 kJ/mol
# GULP energy per Si atom -5571.149332 kJ/mol
# Density = 2.084229 g / cm^3
# Si number density = 20.889840 Si / 1000 Ang^3
#
#
#
# Elastic Constant Matrix: (Units=GPa)
#
#
# Indices 1 2 3 4 5 6 
#
# 1 23.9470 1.2912 7.8866 0.1794 11.9516 7.5138
# 2 1.2912 79.0950 18.4008 4.2380 4.7273 13.5366
# 3 7.8866 18.4008 110.8415 -20.4093 -5.8408 7.8397
# 4 0.1794 4.2380 -20.4093 41.9434 4.9568 8.6331
# 5 11.9516 4.7273 -5.8408 4.9568 28.0608 -3.1579
# 6 7.5138 13.5366 7.8397 8.6331 -3.1579 28.8985
#
#
#
# Elastic Compliance Matrix: (Units=1/GPa)
#
#
# Indices 1 2 3 4 5 6 
#
# 1 0.068214 0.006032 -0.004835 0.005991 -0.034932 -0.024857
# 2 0.006032 0.015045 -0.002738 -0.000356 -0.006566 -0.008484
# 3 -0.004835 -0.002738 0.011185 0.005678 0.003644 -0.001793
# 4 0.005991 -0.000356 0.005678 0.030214 -0.008092 -0.012842
# 5 -0.034932 -0.006566 0.003644 -0.008092 0.056027 0.019709
# 6 -0.024857 -0.008484 -0.001793 -0.012842 0.019709 0.051517
#
#
# Mechanical properties :
#
#
# Convention : Reuss Voigt Hill
#
# Bulk Modulus (GPa) = 10.94542 29.89343 20.41943
# Shear Modulus (GPa) = 18.81550 32.20086 25.50818
#
# Velocity S-wave (km/s) = 3.00442 3.93040 3.49819
# Velocity P-wave (km/s) = 4.15769 5.91088 5.11003
#
# Compressibility (1/GPa) = 0.09136240
#
# Stress axis : x y z
#
# Youngs Moduli (GPa) = 14.65970 66.46698 89.40706
#
# Poissons Ratio (x) = -0.40093 0.43224
# Poissons Ratio (y) = -0.08843 0.24483
# Poissons Ratio (z) = 0.07087 0.18201
#
# Static dielectric constant tensor:
#      x y z
#    x 1.576600 0.127330 0.089560 
#    y 0.127330 1.771990 0.001360 
#    z 0.089560 0.001360 1.763170 
# 
# From -- ./inp_files/521674.got.cif
#   From: 2010.05.17/outbox.cif.g08.bks.cpg/sg2_261_cif.got.tgz:521674.got - 2010.06.03 11:33:40.
