data_PCOD9094358
_publ_section_title
;
Structure prediction by ZEFSAII (Michael W. Deem and Ramdas Pophale) SiO2 
 PCOD9094358
Probable space group: P -1
;
_chemical_formula_sum "Si O2"
_cell_formula_units_Z 14
_cell_length_a 13.472342
_cell_length_b 9.000879
_cell_length_c 6.716922
_cell_angle_alpha 87.771435
_cell_angle_beta 100.701831
_cell_angle_gamma 120.919119
_cell_volume 685.066507
_symmetry_space_group_name_H-M "P -1"
_symmetry_group_IT_number 2
_symmetry_cell_setting 'triclinic'
loop_
_space_group_symop_operation_xyz
x,y,z
-x,-y,-z
loop_
_atom_site_type_symbol
_atom_site_label
_atom_site_fract_x
_atom_site_fract_y
_atom_site_fract_z
Si Si1 0.783557 0.668901 0.970499
Si Si2 0.581952 0.519761 0.216331
Si Si3 0.869384 0.468691 0.440159
Si Si4 0.859624 0.408473 0.988240
Si Si5 0.211823 0.854689 0.326122
Si Si6 0.970613 0.841919 0.353436
Si Si7 0.373118 0.248179 0.393591
O O1 0.696226 0.565822 0.128689
O O2 0.820227 0.541227 0.888221
O O3 0.897427 0.820689 0.124099
O O4 0.716512 0.723822 0.784226
O O5 0.500763 0.348302 0.327446
O O6 0.614648 0.668985 0.387060
O O7 0.500000 0.500000 0.000000
O O8 0.833240 0.403700 0.208222
O O9 0.000000 0.500000 0.500000
O O10 0.892536 0.661525 0.455561
O O11 0.789587 0.306318 0.557313
O O12 0.000000 0.500000 0.000000
O O13 0.319244 0.043844 0.397670
O O14 0.092639 0.853320 0.338504
O O15 0.200338 0.786555 0.101921
O O16 0.000000 0.000000 0.500000
#
# Coordination Sequence:
#
# PCOD9094358 Si02
#       7
#     2   2   2   2   2   2   2
#     4  10  21  38  61  90 119 158 203 251 296 357
#     4   9  20  42  65  86 118 151 201 261 312 350
#     4   9  19  35  53  74 118 164 193 235 287 346
#     4  11  20  38  57  83 122 168 199 228 298 359
#     4  11  22  37  55  88 125 160 196 239 301 361
#     4  10  20  34  56  87 119 159 203 243 296 349
#     4  10  22  39  65  92 114 155 204 256 307 359
#
# _framework density 20.435970000000001
#
# number of rings (size 3 to 8) (size 9 to 14) (size 15 to 20)
#    0.000    2.000    4.286    0.857    0.000    8.571 
#    0.000    0.714    0.000   14.571    0.000    0.000 
#    0.000    0.000    0.000    0.000    0.000    0.000 
#
# Total GULP energy -77944.146235 kJ/mol
# GULP energy per Si atom -5567.439017 kJ/mol
# Density = 2.038946 g / cm^3
# Si number density = 20.435970 Si / 1000 Ang^3
#
#
#
# Elastic Constant Matrix: (Units=GPa)
#
#
# Indices 1 2 3 4 5 6 
#
# 1 41.5699 30.9109 28.1313 8.4313 -13.2052 -11.2127
# 2 30.9109 175.7859 59.6510 28.5926 -15.1362 -12.8108
# 3 28.1313 59.6510 111.4681 24.2561 -12.2710 -13.0006
# 4 8.4313 28.5926 24.2561 38.8699 -0.7752 -7.7291
# 5 -13.2052 -15.1362 -12.2710 -0.7752 29.1301 2.1656
# 6 -11.2127 -12.8108 -13.0006 -7.7291 2.1656 26.9896
#
#
#
# Elastic Compliance Matrix: (Units=1/GPa)
#
#
# Indices 1 2 3 4 5 6 
#
# 1 0.036219 -0.002817 -0.005033 -0.000372 0.012066 0.010211
# 2 -0.002817 0.007740 -0.002479 -0.003466 0.001594 0.000189
# 3 -0.005033 -0.002479 0.012979 -0.004860 0.001660 0.001459
# 4 -0.000372 -0.003466 -0.004860 0.032397 -0.003558 0.005422
# 5 0.012066 0.001594 0.001660 -0.003558 0.041063 0.002255
# 6 0.010211 0.000189 0.001459 0.005422 0.002255 0.043457
#
#
# Mechanical properties :
#
#
# Convention : Reuss Voigt Hill
#
# Bulk Modulus (GPa) = 27.56432 62.91223 45.23827
# Shear Modulus (GPa) = 24.20036 33.00665 28.60351
#
# Velocity S-wave (km/s) = 3.44496 4.02322 3.74527
# Velocity P-wave (km/s) = 5.41674 7.24111 6.39432
#
# Compressibility (1/GPa) = 0.03627878
#
# Stress axis : x y z
#
# Youngs Moduli (GPa) = 27.60973 129.19375 77.04979
#
# Poissons Ratio (x) = 0.36400 0.38777
# Poissons Ratio (y) = 0.07779 0.19103
# Poissons Ratio (z) = 0.13895 0.32032
#
# Static dielectric constant tensor:
#      x y z
#    x 1.773010 0.018840 0.068100 
#    y 0.018840 1.735990 -0.037330 
#    z 0.068100 -0.037330 1.786540 
# 
# From -- ./inp_files/93650.got.cif
#   From: 2010.05.17/outbox.cif.g08.bks.cpg/sg2_47_cif.got.tgz:93650.got - 2010.06.03 11:33:40.
