data_PCOD9094619
_publ_section_title
;
Structure prediction by ZEFSAII (Michael W. Deem and Ramdas Pophale) SiO2 
 PCOD9094619
Probable space group: P -1
;
_chemical_formula_sum "Si O2"
_cell_formula_units_Z 14
_cell_length_a 26.800420
_cell_length_b 14.901564
_cell_length_c 17.755294
_cell_angle_alpha 18.598332
_cell_angle_beta 161.337890
_cell_angle_gamma 157.881162
_cell_volume 694.946260
_symmetry_space_group_name_H-M "P -1"
_symmetry_group_IT_number 2
_symmetry_cell_setting 'triclinic'
loop_
_space_group_symop_operation_xyz
x,y,z
-x,-y,-z
loop_
_atom_site_type_symbol
_atom_site_label
_atom_site_fract_x
_atom_site_fract_y
_atom_site_fract_z
Si Si1 0.682258 0.349074 0.246622
Si Si2 0.863323 0.652164 0.656533
Si Si3 0.534794 0.196009 0.566161
Si Si4 0.359840 0.219568 0.050008
Si Si5 0.963970 0.255835 0.830832
Si Si6 0.074063 0.278903 0.484706
Si Si7 0.201709 0.370668 0.947941
O O1 0.670030 0.673024 0.994844
O O2 0.808669 0.294656 0.531539
O O3 0.515802 0.091868 0.223059
O O4 0.761658 0.357752 0.272053
O O5 0.693806 0.457017 0.602297
O O6 0.859950 0.658928 0.555146
O O7 0.921187 0.991532 0.493345
O O8 0.000000 0.500000 0.000000
O O9 0.377047 0.311226 0.252129
O O10 0.576279 0.058844 0.655367
O O11 0.205283 0.199642 0.791176
O O12 0.500000 0.500000 0.000000
O O13 0.966715 0.434225 0.768954
O O14 0.121080 0.390409 0.896951
O O15 0.925241 0.905854 0.054598
#
# Coordination Sequence:
#
# PCOD9094619 Si02
#       7
#     2   2   2   2   2   2   2
#     4   9  19  33  54  83 115 147 176 230 280 334
#     4  11  23  38  58  81 110 153 194 230 276 329
#     4  10  21  33  51  84 112 139 192 226 275 332
#     4   9  18  33  51  85 118 134 176 225 285 340
#     4   9  20  38  54  86 111 145 193 219 278 343
#     4  10  22  38  58  81 112 152 184 236 276 323
#     4  10  20  34  59  81 116 150 177 230 281 334
#
# _framework density 20.145441999999999
#
# number of rings (size 3 to 8) (size 9 to 14) (size 15 to 20)
#    0.000    2.286    1.429    1.286    6.000    0.571 
#    0.000    0.714    0.000    1.714    0.000    0.000 
#    0.000    0.000    0.000    0.000    0.000    0.000 
#
# Total GULP energy -78034.584457 kJ/mol
# GULP energy per Si atom -5573.898890 kJ/mol
# Density = 2.009959 g / cm^3
# Si number density = 20.145442 Si / 1000 Ang^3
#
#
#
# Elastic Constant Matrix: (Units=GPa)
#
#
# Indices 1 2 3 4 5 6 
#
# 1 69.0583 38.9779 5.3347 13.3584 3.1525 10.9300
# 2 38.9779 125.9990 14.1409 10.5369 4.2775 15.8028
# 3 5.3347 14.1409 44.1051 8.9145 10.2733 -3.3171
# 4 13.3584 10.5369 8.9145 20.3363 6.0148 4.7797
# 5 3.1525 4.2775 10.2733 6.0148 26.4417 -2.9631
# 6 10.9300 15.8028 -3.3171 4.7797 -2.9631 28.5371
#
#
#
# Elastic Compliance Matrix: (Units=1/GPa)
#
#
# Indices 1 2 3 4 5 6 
#
# 1 0.019624 -0.004974 0.001030 -0.010079 0.000027 -0.002951
# 2 -0.004974 0.010333 -0.002997 0.000374 -0.000479 -0.004278
# 3 0.001030 -0.002997 0.027750 -0.010366 -0.007450 0.005453
# 4 -0.010079 0.000374 -0.010366 0.065623 -0.010842 -0.009669
# 5 0.000027 -0.000479 -0.007450 -0.010842 0.043900 0.005763
# 6 -0.002951 -0.004278 0.005453 -0.009669 0.005763 0.041393
#
#
# Mechanical properties :
#
#
# Convention : Reuss Voigt Hill
#
# Bulk Modulus (GPa) = 22.81805 39.56327 31.19066
# Shear Modulus (GPa) = 21.08684 27.11029 24.09856
#
# Velocity S-wave (km/s) = 3.23883 3.67240 3.46241
# Velocity P-wave (km/s) = 5.03368 6.13706 5.61255
#
# Compressibility (1/GPa) = 0.04382495
#
# Stress axis : x y z
#
# Youngs Moduli (GPa) = 50.95795 96.77545 36.03567
#
# Poissons Ratio (x) = 0.48138 -0.03713
# Poissons Ratio (y) = 0.25348 0.10801
# Poissons Ratio (z) = -0.05250 0.29006
#
# Static dielectric constant tensor:
#      x y z
#    x 1.746740 0.007320 0.015210 
#    y 0.007320 1.718110 -0.038350 
#    z 0.015210 -0.038350 1.797880 
# 
# From -- ./inp_files/84868.got.cif
#   From: 2010.05.17/outbox.cif.g08.bks.cpg/sg2_43_cif.got.tgz:84868.got - 2010.06.03 11:33:40.
