data_PCOD9094253
_publ_section_title
;
Structure prediction by ZEFSAII (Michael W. Deem and Ramdas Pophale) SiO2 
 PCOD9094253
Probable space group: P -1
;
_chemical_formula_sum "Si O2"
_cell_formula_units_Z 16
_cell_length_a 11.372491
_cell_length_b 12.321800
_cell_length_c 12.276940
_cell_angle_alpha 45.199867
_cell_angle_beta 73.628808
_cell_angle_gamma 109.481159
_cell_volume 730.603827
_symmetry_space_group_name_H-M "P -1"
_symmetry_group_IT_number 2
_symmetry_cell_setting 'triclinic'
loop_
_space_group_symop_operation_xyz
x,y,z
-x,-y,-z
loop_
_atom_site_type_symbol
_atom_site_label
_atom_site_fract_x
_atom_site_fract_y
_atom_site_fract_z
Si Si1 0.447186 0.405763 0.454929
Si Si2 0.854391 0.257127 0.283114
Si Si3 0.932338 0.588913 0.352260
Si Si4 0.785304 0.114863 0.756830
Si Si5 0.232727 0.515856 0.759777
Si Si6 0.621622 0.352602 0.789761
Si Si7 0.118412 0.987089 0.681906
Si Si8 0.957425 0.769847 0.561723
O O1 0.500000 0.500000 0.500000
O O2 0.577066 0.391518 0.391039
O O3 0.495222 0.604312 0.232470
O O4 0.226333 0.154363 0.645019
O O5 0.732913 0.273533 0.362784
O O6 0.760935 0.037983 0.383524
O O7 0.972362 0.264049 0.332076
O O8 0.000000 0.500000 0.000000
O O9 0.913177 0.387672 0.496907
O O10 0.899124 0.611030 0.224902
O O11 0.758841 0.467352 0.566971
O O12 0.136187 0.841058 0.173584
O O13 0.862288 0.064915 0.688230
O O14 0.557960 0.935846 0.939816
O O15 0.097464 0.290302 0.039322
O O16 0.765310 0.504330 0.746402
O O17 0.101353 0.108604 0.513224
#
# Coordination Sequence:
#
# PCOD9094253 Si02
#       8
#     2   2   2   2   2   2   2   2
#     4  11  23  39  59  93 128 161 206 250 302 374
#     4  10  22  44  67  90 120 163 210 259 311 360
#     4  10  20  34  55  88 128 162 205 250 296 373
#     4  10  20  35  57  89 125 164 199 249 314 365
#     4  11  22  40  62  91 129 163 207 255 306 360
#     4  10  21  37  57  90 125 163 204 245 308 368
#     4  10  24  41  65  90 122 172 205 253 310 356
#     4  10  20  41  63  90 121 155 208 257 302 373
#
# _framework density 21.899694
#
# number of rings (size 3 to 8) (size 9 to 14) (size 15 to 20)
#    0.000    1.750    2.500    1.500    1.750    1.000 
#    4.500    2.500    0.000    9.000    0.000    0.000 
#    0.000    0.000    0.000    0.000    0.000    0.000 
#
# Total GULP energy -89138.617131 kJ/mol
# GULP energy per Si atom -5571.163571 kJ/mol
# Density = 2.184985 g / cm^3
# Si number density = 21.899694 Si / 1000 Ang^3
#
#
#
# Elastic Constant Matrix: (Units=GPa)
#
#
# Indices 1 2 3 4 5 6 
#
# 1 113.8139 39.4555 15.1819 -1.0981 10.6893 -19.9581
# 2 39.4555 95.7624 18.9285 -7.8495 3.2068 -8.4851
# 3 15.1819 18.9285 48.8372 -12.6929 -5.0530 -4.0437
# 4 -1.0981 -7.8495 -12.6929 18.7674 1.6497 1.7014
# 5 10.6893 3.2068 -5.0530 1.6497 29.2618 2.0700
# 6 -19.9581 -8.4851 -4.0437 1.7014 2.0700 39.1445
#
#
#
# Elastic Compliance Matrix: (Units=1/GPa)
#
#
# Indices 1 2 3 4 5 6 
#
# 1 0.011879 -0.003928 -0.003006 -0.003052 -0.004629 0.005272
# 2 -0.003928 0.012979 -0.003024 0.003180 -0.000717 0.000398
# 3 -0.003006 -0.003024 0.027432 0.016683 0.005251 -0.000357
# 4 -0.003052 0.003180 0.016683 0.065895 0.000075 -0.002011
# 5 -0.004629 -0.000717 0.005251 0.000075 0.037125 -0.003939
# 6 0.005272 0.000398 -0.000357 -0.002011 -0.003939 0.028579
#
#
# Mechanical properties :
#
#
# Convention : Reuss Voigt Hill
#
# Bulk Modulus (GPa) = 30.88885 45.06060 37.97472
# Shear Modulus (GPa) = 23.29965 29.75793 26.52879
#
# Velocity S-wave (km/s) = 3.26533 3.69023 3.48426
# Velocity P-wave (km/s) = 5.32464 6.22717 5.79351
#
# Compressibility (1/GPa) = 0.03237414
#
# Stress axis : x y z
#
# Youngs Moduli (GPa) = 84.18413 77.05002 36.45326
#
# Poissons Ratio (x) = 0.30266 0.10957
# Poissons Ratio (y) = 0.33068 0.11023
# Poissons Ratio (z) = 0.25304 0.23299
#
# Static dielectric constant tensor:
#      x y z
#    x 1.870050 -0.031950 0.008960 
#    y -0.031950 1.898280 -0.034180 
#    z 0.008960 -0.034180 1.847330 
# 
# From -- ./inp_files/427559.got.cif
#   From: 2010.05.17/outbox.cif.g08.bks.cpg/sg2_214_cif.got.tgz:427559.got - 2010.06.03 11:33:40.
