data_PCOD9094234
_publ_section_title
;
Structure prediction by ZEFSAII (Michael W. Deem and Ramdas Pophale) SiO2 
 PCOD9094234
Probable space group: P -1
;
_chemical_formula_sum "Si O2"
_cell_formula_units_Z 12
_cell_length_a 8.548844
_cell_length_b 15.727277
_cell_length_c 11.065916
_cell_angle_alpha 149.666251
_cell_angle_beta 99.697525
_cell_angle_gamma 103.951773
_cell_volume 466.824363
_symmetry_space_group_name_H-M "P -1"
_symmetry_group_IT_number 2
_symmetry_cell_setting 'triclinic'
loop_
_space_group_symop_operation_xyz
x,y,z
-x,-y,-z
loop_
_atom_site_type_symbol
_atom_site_label
_atom_site_fract_x
_atom_site_fract_y
_atom_site_fract_z
Si Si1 0.257851 0.493193 0.414985
Si Si2 0.097305 0.597861 0.325855
Si Si3 0.777020 0.852754 0.527474
Si Si4 0.546359 0.238210 0.810554
Si Si5 0.107420 0.851114 0.436848
Si Si6 0.718348 0.686361 0.577250
O O1 0.507104 0.620317 0.540643
O O2 0.279165 0.482555 0.548853
O O3 0.219037 0.635336 0.511571
O O4 0.000574 0.174311 0.966887
O O5 0.222915 0.832423 0.537553
O O6 0.837998 0.481069 0.176829
O O7 0.026653 0.380378 0.963458
O O8 0.543063 0.752985 0.314079
O O9 0.672442 0.675572 0.415966
O O10 0.915816 0.828830 0.434799
O O11 0.500000 0.000000 0.500000
O O12 0.341057 0.131696 0.748098
O O13 0.000000 0.000000 0.000000
#
# Coordination Sequence:
#
# PCOD9094234 Si02
#       6
#     2   2   2   2   2   2
#     4  10  20  39  62  82 114 153 197 239 282 345
#     4  10  22  37  58  87 120 159 186 228 295 348
#     4  11  21  36  60  89 119 150 194 240 277 345
#     4  10  20  34  55  86 120 154 183 227 291 343
#     4  10  22  35  54  91 124 152 186 234 289 340
#     4   9  22  38  61  86 108 151 202 240 288 332
#
# _framework density 25.705597000000001
#
# number of rings (size 3 to 8) (size 9 to 14) (size 15 to 20)
#    0.000    2.000    3.333    0.500    7.000    2.000 
#    0.000    0.833    0.000   10.000    0.000    0.000 
#    0.000    0.000    0.000    0.000    0.000    0.000 
#
# Total GULP energy -67090.602613 kJ/mol
# GULP energy per Si atom -5590.883551 kJ/mol
# Density = 2.564709 g / cm^3
# Si number density = 25.705597 Si / 1000 Ang^3
#
#
#
# Elastic Constant Matrix: (Units=GPa)
#
#
# Indices 1 2 3 4 5 6 
#
# 1 100.7404 78.2667 6.9537 -14.9077 24.0402 -9.6178
# 2 78.2667 255.9666 32.0853 1.7564 24.1258 -28.4346
# 3 6.9537 32.0853 76.0766 12.0455 19.3085 -0.6306
# 4 -14.9077 1.7564 12.0455 47.0481 2.6719 15.2304
# 5 24.0402 24.1258 19.3085 2.6719 34.9715 1.4909
# 6 -9.6178 -28.4346 -0.6306 15.2304 1.4909 60.8633
#
#
#
# Elastic Compliance Matrix: (Units=1/GPa)
#
#
# Indices 1 2 3 4 5 6 
#
# 1 0.016291 -0.004426 0.001927 0.005585 -0.009609 -0.000636
# 2 -0.004426 0.005756 -0.001703 -0.001983 0.000059 0.002467
# 3 0.001927 -0.001703 0.016506 -0.003271 -0.009044 0.000720
# 4 0.005585 -0.001983 -0.003271 0.026200 -0.002387 -0.006576
# 5 -0.009609 0.000059 -0.009044 -0.002387 0.040419 -0.001977
# 6 -0.000636 0.002467 0.000720 -0.006576 -0.001977 0.019184
#
#
# Mechanical properties :
#
#
# Convention : Reuss Voigt Hill
#
# Bulk Modulus (GPa) = 33.17026 74.15501 53.66264
# Shear Modulus (GPa) = 35.01131 49.60844 42.30987
#
# Velocity S-wave (km/s) = 3.69455 4.39779 4.06142
# Velocity P-wave (km/s) = 5.57956 7.39580 6.55093
#
# Compressibility (1/GPa) = 0.03014749
#
# Stress axis : x y z
#
# Youngs Moduli (GPa) = 61.38325 173.73928 60.58353
#
# Poissons Ratio (x) = 0.76899 -0.11673
# Poissons Ratio (y) = 0.27169 0.10320
# Poissons Ratio (z) = -0.11827 0.29595
#
# Static dielectric constant tensor:
#      x y z
#    x 2.003400 0.008700 -0.100610 
#    y 0.008700 2.058610 -0.045770 
#    z -0.100610 -0.045770 2.165830 
# 
# From -- ./inp_files/181066.got.cif
#   From: 2010.05.17/outbox.cif.g08.bks.cpg/sg2_91_cif.got.tgz:181066.got - 2010.06.03 11:33:40.
