data_PCOD9094134
_publ_section_title
;
Structure prediction by ZEFSAII (Michael W. Deem and Ramdas Pophale) SiO2 
 PCOD9094134
Probable space group: P -1
;
_chemical_formula_sum "Si O2"
_cell_formula_units_Z 16
_cell_length_a 8.438146
_cell_length_b 11.699570
_cell_length_c 11.590397
_cell_angle_alpha 87.042126
_cell_angle_beta 48.406112
_cell_angle_gamma 115.198694
_cell_volume 673.259075
_symmetry_space_group_name_H-M "P -1"
_symmetry_group_IT_number 2
_symmetry_cell_setting 'triclinic'
loop_
_space_group_symop_operation_xyz
x,y,z
-x,-y,-z
loop_
_atom_site_type_symbol
_atom_site_label
_atom_site_fract_x
_atom_site_fract_y
_atom_site_fract_z
Si Si1 0.355402 0.828024 0.099794
Si Si2 0.200401 0.272976 0.707128
Si Si3 0.463189 0.157778 0.218531
Si Si4 0.132469 0.003642 0.813353
Si Si5 0.405555 0.663331 0.661183
Si Si6 0.896303 0.628743 0.045693
Si Si7 0.972858 0.267927 0.251756
Si Si8 0.720794 0.149435 0.611482
O O1 0.325733 0.794401 0.251053
O O2 0.047525 0.734162 0.213827
O O3 0.512753 0.804308 0.930227
O O4 0.500000 0.000000 0.000000
O O5 0.454711 0.366906 0.499273
O O6 0.247611 0.318634 0.815278
O O7 0.109860 0.111407 0.745544
O O8 0.389448 0.228173 0.343860
O O9 0.292145 0.987451 0.334730
O O10 0.781555 0.240953 0.096760
O O11 0.039008 0.862493 0.792874
O O12 0.440960 0.076607 0.685138
O O13 0.000000 0.000000 0.000000
O O14 0.191286 0.514479 0.838934
O O15 0.278615 0.730239 0.654831
O O16 0.823387 0.605699 0.946531
O O17 0.956624 0.252665 0.399229
#
# Coordination Sequence:
#
# PCOD9094134 Si02
#       8
#     2   2   2   2   2   2   2   2
#     4   9  20  37  54  78 118 151 175 212 282 352
#     4  11  21  36  56  86 114 140 186 230 273 329
#     4   9  17  34  53  78 111 144 182 217 274 330
#     4  12  19  33  57  84 115 138 172 239 286 317
#     4  11  20  34  58  82 109 147 191 234 264 318
#     4  10  20  34  54  82 111 149 185 230 273 318
#     4  11  20  33  54  85 117 139 184 228 285 324
#     4  11  19  34  57  83 116 143 177 224 285 342
#
# _framework density 23.764999
#
# number of rings (size 3 to 8) (size 9 to 14) (size 15 to 20)
#    0.000    1.500    5.000    4.500    0.000    0.000 
#    0.000    6.875    0.000    7.500    0.000    0.000 
#    0.000    0.000    0.000    0.000    0.000    0.000 
#
# Total GULP energy -89080.242979 kJ/mol
# GULP energy per Si atom -5567.515186 kJ/mol
# Density = 2.371091 g / cm^3
# Si number density = 23.764999 Si / 1000 Ang^3
#
#
#
# Elastic Constant Matrix: (Units=GPa)
#
#
# Indices 1 2 3 4 5 6 
#
# 1 39.0353 8.7807 22.3765 -1.4177 11.9183 -6.3528
# 2 8.7807 72.4438 29.6218 10.6585 13.9266 -16.1094
# 3 22.3765 29.6218 203.9638 13.2602 39.1999 -2.6117
# 4 -1.4177 10.6585 13.2602 37.0520 -0.9940 4.7860
# 5 11.9183 13.9266 39.1999 -0.9940 40.2416 1.3923
# 6 -6.3528 -16.1094 -2.6117 4.7860 1.3923 13.2634
#
#
#
# Elastic Compliance Matrix: (Units=1/GPa)
#
#
# Indices 1 2 3 4 5 6 
#
# 1 0.032253 0.003913 -0.001752 -0.002343 -0.010011 0.021753
# 2 0.003913 0.026469 -0.000789 -0.012598 -0.011232 0.039592
# 3 -0.001752 -0.000789 0.006452 -0.002420 -0.005585 0.000933
# 4 -0.002343 -0.012598 -0.002420 0.035610 0.009353 -0.030731
# 5 -0.010011 -0.011232 -0.005585 0.009353 0.038305 -0.026933
# 6 0.021753 0.039592 0.000933 -0.030731 -0.026933 0.148003
#
#
# Mechanical properties :
#
#
# Convention : Reuss Voigt Hill
#
# Bulk Modulus (GPa) = 14.72325 48.55566 31.63945
# Shear Modulus (GPa) = 16.28734 35.08900 25.68817
#
# Velocity S-wave (km/s) = 2.62076 3.84669 3.29131
# Velocity P-wave (km/s) = 3.92003 6.34077 5.27124
#
# Compressibility (1/GPa) = 0.06791980
#
# Stress axis : x y z
#
# Youngs Moduli (GPa) = 31.00456 37.78021 154.98308
#
# Poissons Ratio (x) = -0.14785 0.27153
# Poissons Ratio (y) = -0.12133 0.12225
# Poissons Ratio (z) = 0.05432 0.02980
#
# Static dielectric constant tensor:
#      x y z
#    x 1.939610 0.006480 0.017320 
#    y 0.006480 1.990950 0.055840 
#    z 0.017320 0.055840 2.065240 
# 
# From -- ./inp_files/286067.got.cif
#   From: 2010.05.17/outbox.cif.g08.bks.cpg/sg2_144_cif.got.tgz:286067.got - 2010.06.03 11:33:40.
