data_PCOD9094988
_publ_section_title
;
Structure prediction by ZEFSAII (Michael W. Deem and Ramdas Pophale) SiO2 
 PCOD9094988
Probable space group: P -1
;
_chemical_formula_sum "Si O2"
_cell_formula_units_Z 16
_cell_length_a 15.069483
_cell_length_b 29.704497
_cell_length_c 12.404184
_cell_angle_alpha 152.719644
_cell_angle_beta 152.986759
_cell_angle_gamma 20.282866
_cell_volume 822.990976
_symmetry_space_group_name_H-M "P -1"
_symmetry_group_IT_number 2
_symmetry_cell_setting 'triclinic'
loop_
_space_group_symop_operation_xyz
x,y,z
-x,-y,-z
loop_
_atom_site_type_symbol
_atom_site_label
_atom_site_fract_x
_atom_site_fract_y
_atom_site_fract_z
Si Si1 0.583582 0.399817 0.280052
Si Si2 0.037821 0.049899 0.782240
Si Si3 0.185575 0.084252 0.807362
Si Si4 0.883322 0.680262 0.333910
Si Si5 0.047570 0.895864 0.950884
Si Si6 0.319612 0.995335 0.406662
Si Si7 0.321084 0.172033 0.954627
Si Si8 0.004312 0.570972 0.986684
O O1 0.500000 0.500000 0.500000
O O2 0.308136 0.496980 0.121398
O O3 0.857357 0.345002 0.409982
O O4 0.685198 0.257613 0.129246
O O5 0.868357 0.008296 0.491779
O O6 0.008698 0.138243 0.841003
O O7 0.367486 0.915970 0.858365
O O8 0.966584 0.115231 0.961058
O O9 0.142569 0.181264 0.874709
O O10 0.500000 0.000000 0.000000
O O11 0.602534 0.836029 0.383314
O O12 0.910373 0.647113 0.164210
O O13 0.941170 0.561449 0.210097
O O14 0.785706 0.951836 0.717714
O O15 0.088550 0.998091 0.200653
O O16 0.322717 0.090315 0.685963
O O17 0.200411 0.314607 0.079114
#
# Coordination Sequence:
#
# PCOD9094988 Si02
#       8
#     2   2   2   2   2   2   2   2
#     4  10  20  35  53  76 113 161 196 226 278 341
#     4  10  20  37  60  87 114 150 194 238 293 344
#     4   9  20  38  59  85 116 146 189 245 297 341
#     4  10  20  35  50  72 113 160 190 226 276 335
#     4  11  21  34  57  87 119 155 193 238 285 346
#     4  11  21  34  55  87 123 152 191 236 286 341
#     4  11  21  36  59  88 117 152 190 241 288 339
#     4  10  21  34  50  77 113 151 193 228 274 338
#
# _framework density 19.441284
#
# number of rings (size 3 to 8) (size 9 to 14) (size 15 to 20)
#    0.000    1.750    2.500    3.000    0.000    2.500 
#    0.000    0.000    0.000    0.750    0.000   30.625 
#    0.000    0.000    0.000    0.000    0.000    0.000 
#
# Total GULP energy -89080.968614 kJ/mol
# GULP energy per Si atom -5567.560538 kJ/mol
# Density = 1.939703 g / cm^3
# Si number density = 19.441284 Si / 1000 Ang^3
#
#
#
# Elastic Constant Matrix: (Units=GPa)
#
#
# Indices 1 2 3 4 5 6 
#
# 1 105.9739 17.3760 31.3201 6.1476 -1.3819 20.0254
# 2 17.3760 84.9034 23.4132 0.5846 0.8417 12.1333
# 3 31.3201 23.4132 80.6248 -12.6912 5.9472 2.0121
# 4 6.1476 0.5846 -12.6912 25.0242 -3.0785 7.4465
# 5 -1.3819 0.8417 5.9472 -3.0785 26.6079 -1.6828
# 6 20.0254 12.1333 2.0121 7.4465 -1.6828 22.2395
#
#
#
# Elastic Compliance Matrix: (Units=1/GPa)
#
#
# Indices 1 2 3 4 5 6 
#
# 1 0.013154 0.000325 -0.005441 -0.002751 0.000904 -0.010540
# 2 0.000325 0.013879 -0.004005 -0.000228 -0.000023 -0.007428
# 3 -0.005441 -0.004005 0.017277 0.009181 -0.002814 0.002234
# 4 -0.002751 -0.000228 0.009181 0.050024 0.002665 -0.014777
# 5 0.000904 -0.000023 -0.002814 0.002665 0.038662 0.001486
# 6 -0.010540 -0.007428 0.002234 -0.014777 0.001486 0.063366
#
#
# Mechanical properties :
#
#
# Convention : Reuss Voigt Hill
#
# Bulk Modulus (GPa) = 38.36271 46.19118 42.27695
# Shear Modulus (GPa) = 22.39192 28.06717 25.22955
#
# Velocity S-wave (km/s) = 3.39746 3.80371 3.60631
# Velocity P-wave (km/s) = 5.93007 6.56520 6.25570
#
# Compressibility (1/GPa) = 0.02606698
#
# Stress axis : x y z
#
# Youngs Moduli (GPa) = 76.02172 72.04878 57.88063
#
# Poissons Ratio (x) = -0.02338 0.31492
# Poissons Ratio (y) = -0.02467 0.23184
# Poissons Ratio (z) = 0.41362 0.28859
#
# Static dielectric constant tensor:
#      x y z
#    x 1.791730 0.012280 0.054730 
#    y 0.012280 1.690800 -0.000690 
#    z 0.054730 -0.000690 1.758910 
# 
# From -- ./inp_files/458403.got.cif
#   From: 2010.05.17/outbox.cif.g08.bks.cpg/sg2_230_cif.got.tgz:458403.got - 2010.06.03 11:33:40.
