data_PCOD9094230
_publ_section_title
;
Structure prediction by ZEFSAII (Michael W. Deem and Ramdas Pophale) SiO2 
 PCOD9094230
Probable space group: P -1
;
_chemical_formula_sum "Si O2"
_cell_formula_units_Z 14
_cell_length_a 21.620649
_cell_length_b 11.804160
_cell_length_c 9.192940
_cell_angle_alpha 141.597979
_cell_angle_beta 34.131975
_cell_angle_gamma 155.846819
_cell_volume 534.521596
_symmetry_space_group_name_H-M "P -1"
_symmetry_group_IT_number 2
_symmetry_cell_setting 'triclinic'
loop_
_space_group_symop_operation_xyz
x,y,z
-x,-y,-z
loop_
_atom_site_type_symbol
_atom_site_label
_atom_site_fract_x
_atom_site_fract_y
_atom_site_fract_z
Si Si1 0.200367 0.566577 0.154949
Si Si2 0.156561 0.915103 0.517238
Si Si3 0.358659 0.253898 0.182260
Si Si4 0.184740 0.748957 0.814405
Si Si5 0.215989 0.388497 0.405827
Si Si6 0.629842 0.562068 0.199880
Si Si7 0.020314 0.854162 0.097586
O O1 0.041382 0.372722 0.379227
O O2 0.242770 0.826471 0.289530
O O3 0.657864 0.387340 0.011836
O O4 0.121793 0.365941 0.965024
O O5 0.219599 0.075914 0.404328
O O6 0.202096 0.115359 0.757526
O O7 0.339327 0.407542 0.273754
O O8 0.535108 0.462164 0.131064
O O9 0.308051 0.015107 0.947161
O O10 0.264168 0.652172 0.530181
O O11 0.000000 0.500000 0.000000
O O12 0.142880 0.831407 0.846137
O O13 0.131970 0.175991 0.220878
O O14 0.077249 0.253879 0.666226
O O15 0.500000 0.500000 0.500000
#
# Coordination Sequence:
#
# PCOD9094230 Si02
#       7
#     2   2   2   2   2   2   2
#     4  11  22  37  57  83 117 151 187 228 275 337
#     4  10  22  37  55  82 115 154 189 223 276 337
#     4  10  20  34  55  86 114 139 183 230 280 336
#     4   9  17  30  53  81 108 138 181 236 280 319
#     4   9  17  30  51  78 107 139 175 232 284 313
#     4  10  22  36  54  82 116 152 186 227 279 334
#     4   9  17  29  49  79 106 135 182 229 273 322
#
# _framework density 26.191645999999999
#
# number of rings (size 3 to 8) (size 9 to 14) (size 15 to 20)
#    0.000    2.286    0.000    4.714    0.000    4.571 
#    0.000    0.000    0.000    3.429    0.000   45.000 
#    0.000    0.000    0.000    0.000    0.000    0.000 
#
# Total GULP energy -78390.258811 kJ/mol
# GULP energy per Si atom -5599.304201 kJ/mol
# Density = 2.613203 g / cm^3
# Si number density = 26.191646 Si / 1000 Ang^3
#
#
#
# Elastic Constant Matrix: (Units=GPa)
#
#
# Indices 1 2 3 4 5 6 
#
# 1 187.4293 26.6328 90.8427 33.4001 -23.5590 8.4404
# 2 26.6328 75.4771 33.4489 12.8097 1.1893 11.8131
# 3 90.8427 33.4489 151.1249 41.4811 -26.4233 9.6338
# 4 33.4001 12.8097 41.4811 47.8532 -3.3631 7.6385
# 5 -23.5590 1.1893 -26.4233 -3.3631 66.2286 2.0774
# 6 8.4404 11.8131 9.6338 7.6385 2.0774 40.6896
#
#
#
# Elastic Compliance Matrix: (Units=1/GPa)
#
#
# Indices 1 2 3 4 5 6 
#
# 1 0.007754 -0.000737 -0.003777 -0.001822 0.001179 -0.000218
# 2 -0.000737 0.015455 -0.002839 -0.000724 -0.001601 -0.003444
# 3 -0.003777 -0.002839 0.011904 -0.006684 0.003121 -0.000115
# 4 -0.001822 -0.000724 -0.006684 0.028528 -0.001756 -0.003095
# 5 0.001179 -0.001601 0.003121 -0.001756 0.016736 -0.001043
# 6 -0.000218 -0.003444 -0.000115 -0.003095 -0.001043 0.026283
#
#
# Mechanical properties :
#
#
# Convention : Reuss Voigt Hill
#
# Bulk Modulus (GPa) = 49.00844 79.54224 64.27534
# Shear Modulus (GPa) = 39.01137 48.49474 43.75305
#
# Velocity S-wave (km/s) = 3.86354 4.30761 4.09160
# Velocity P-wave (km/s) = 6.21729 7.42805 6.84948
#
# Compressibility (1/GPa) = 0.02040465
#
# Stress axis : x y z
#
# Youngs Moduli (GPa) = 128.97148 64.70599 84.00625
#
# Poissons Ratio (x) = 0.04769 0.31733
# Poissons Ratio (y) = 0.09506 0.23851
# Poissons Ratio (z) = 0.48719 0.18371
#
# Static dielectric constant tensor:
#      x y z
#    x 2.068180 -0.067760 0.005180 
#    y -0.067760 2.172810 -0.070400 
#    z 0.005180 -0.070400 2.133240 
# 
# From -- ./inp_files/476838.got.cif
#   From: 2010.05.17/outbox.cif.g08.bks.cpg/sg2_239_cif.got.tgz:476838.got - 2010.06.03 11:33:40.
