data_PCOD9094335
_publ_section_title
;
Structure prediction by ZEFSAII (Michael W. Deem and Ramdas Pophale) SiO2 
 PCOD9094335
Probable space group: P -1
;
_chemical_formula_sum "Si O2"
_cell_formula_units_Z 16
_cell_length_a 14.526841
_cell_length_b 12.300173
_cell_length_c 13.559602
_cell_angle_alpha 79.686922
_cell_angle_beta 159.378942
_cell_angle_gamma 100.652117
_cell_volume 838.467145
_symmetry_space_group_name_H-M "P -1"
_symmetry_group_IT_number 2
_symmetry_cell_setting 'triclinic'
loop_
_space_group_symop_operation_xyz
x,y,z
-x,-y,-z
loop_
_atom_site_type_symbol
_atom_site_label
_atom_site_fract_x
_atom_site_fract_y
_atom_site_fract_z
Si Si1 0.740403 0.430744 0.215594
Si Si2 0.910175 0.592090 0.817200
Si Si3 0.809921 0.278929 0.478579
Si Si4 0.556449 0.975492 0.445684
Si Si5 0.415198 0.722467 0.356962
Si Si6 0.423355 0.297265 0.264417
Si Si7 0.878744 0.513442 0.139467
Si Si8 0.916740 0.893572 0.109921
O O1 0.734288 0.315242 0.287279
O O2 0.753802 0.432224 0.110391
O O3 0.000000 0.500000 0.500000
O O4 0.500000 0.500000 0.000000
O O5 0.933987 0.543559 0.739482
O O6 0.628576 0.635782 0.552940
O O7 0.133390 0.690405 0.035192
O O8 0.000000 0.500000 0.000000
O O9 0.565174 0.267701 0.309597
O O10 0.972477 0.385200 0.670026
O O11 0.979466 0.172087 0.680327
O O12 0.524741 0.844740 0.419630
O O13 0.500000 0.000000 0.500000
O O14 0.840552 0.030675 0.698302
O O15 0.335263 0.033579 0.150539
O O16 0.398621 0.715893 0.460283
O O17 0.333297 0.421436 0.145439
O O18 0.177973 0.208178 0.041161
#
# Coordination Sequence:
#
# PCOD9094335 Si02
#       8
#     2   2   2   2   2   2   2   2
#     4  10  20  34  56  85 115 147 183 233 286 337
#     4  12  25  39  56  80 116 159 198 216 265 331
#     4  10  20  36  58  89 117 144 187 233 292 345
#     4  12  23  37  58  79 115 146 192 237 293 326
#     4  12  26  37  55  83 112 155 193 229 266 335
#     4  11  20  34  57  83 118 145 190 224 280 343
#     4  10  22  35  57  81 120 156 184 227 275 333
#     4  11  22  35  56  84 112 148 178 236 296 338
#
# _framework density 19.082442
#
# number of rings (size 3 to 8) (size 9 to 14) (size 15 to 20)
#    0.000    1.000    5.000    2.250    5.250    0.000 
#    0.000    0.000    0.000    0.000    0.000    5.250 
#    0.000    0.000    0.000    0.000    0.000    0.000 
#
# Total GULP energy -89356.001759 kJ/mol
# GULP energy per Si atom -5584.750110 kJ/mol
# Density = 1.903901 g / cm^3
# Si number density = 19.082442 Si / 1000 Ang^3
#
#
#
# Elastic Constant Matrix: (Units=GPa)
#
#
# Indices 1 2 3 4 5 6 
#
# 1 70.1281 27.1522 3.1545 -7.0201 7.0595 15.9488
# 2 27.1522 78.3916 14.1117 -6.7433 -5.8397 15.5805
# 3 3.1545 14.1117 76.0408 0.8403 14.5503 7.3879
# 4 -7.0201 -6.7433 0.8403 36.1554 3.3903 1.8050
# 5 7.0595 -5.8397 14.5503 3.3903 23.4881 -3.5698
# 6 15.9488 15.5805 7.3879 1.8050 -3.5698 21.4052
#
#
#
# Elastic Compliance Matrix: (Units=1/GPa)
#
#
# Indices 1 2 3 4 5 6 
#
# 1 0.021952 -0.005705 0.004367 0.005231 -0.013982 -0.016484
# 2 -0.005705 0.017297 -0.003787 0.001832 0.007187 -0.005989
# 3 0.004367 -0.003787 0.017324 0.001558 -0.014585 -0.009041
# 4 0.005231 0.001832 0.001558 0.030202 -0.007905 -0.009633
# 5 -0.013982 0.007187 -0.014585 -0.007905 0.061965 0.021221
# 6 -0.016484 -0.005989 -0.009041 -0.009633 0.021221 0.070830
#
#
# Mechanical properties :
#
#
# Convention : Reuss Voigt Hill
#
# Bulk Modulus (GPa) = 21.58701 34.82195 28.20448
# Shear Modulus (GPa) = 20.38638 28.21921 24.30279
#
# Velocity S-wave (km/s) = 3.27208 3.84969 3.57258
# Velocity P-wave (km/s) = 5.06087 6.16830 5.64183
#
# Compressibility (1/GPa) = 0.04632415
#
# Stress axis : x y z
#
# Youngs Moduli (GPa) = 45.55407 57.81231 57.72207
#
# Poissons Ratio (x) = 0.32982 -0.25208
# Poissons Ratio (y) = 0.25989 0.21859
# Poissons Ratio (z) = -0.19894 0.21893
#
# Static dielectric constant tensor:
#      x y z
#    x 1.672060 0.035530 -0.002640 
#    y 0.035530 1.703550 -0.003110 
#    z -0.002640 -0.003110 1.726460 
# 
# From -- ./inp_files/84397.got.cif
#   From: 2010.05.17/outbox.cif.g08.bks.cpg/sg2_43_cif.got.tgz:84397.got - 2010.06.03 11:33:40.
