data_PCOD9094589
_publ_section_title
;
Structure prediction by ZEFSAII (Michael W. Deem and Ramdas Pophale) SiO2 
 PCOD9094589
Probable space group: P -1
;
_chemical_formula_sum "Si O2"
_cell_formula_units_Z 15
_cell_length_a 9.085175
_cell_length_b 11.513359
_cell_length_c 11.174814
_cell_angle_alpha 144.224340
_cell_angle_beta 114.274598
_cell_angle_gamma 56.057720
_cell_volume 564.789995
_symmetry_space_group_name_H-M "P -1"
_symmetry_group_IT_number 2
_symmetry_cell_setting 'triclinic'
loop_
_space_group_symop_operation_xyz
x,y,z
-x,-y,-z
loop_
_atom_site_type_symbol
_atom_site_label
_atom_site_fract_x
_atom_site_fract_y
_atom_site_fract_z
Si Si1 0.832397 0.452778 0.290177
Si Si2 0.281194 0.834559 0.697035
Si Si3 0.234271 0.236763 0.283730
Si Si4 0.639425 0.612688 0.769632
Si Si5 0.895966 0.179430 0.867563
Si Si6 0.807260 0.827381 0.417286
Si Si7 0.427599 0.114897 0.815919
Si Si8 0.000000 0.500000 0.000000
O O1 0.724224 0.578517 0.475714
O O2 0.843247 0.657738 0.395297
O O3 0.028057 0.296615 0.272083
O O4 0.785444 0.315663 0.059813
O O5 0.432148 0.732394 0.763412
O O6 0.280843 0.633840 0.452240
O O7 0.348500 0.967788 0.738742
O O8 0.086740 0.985375 0.806240
O O9 0.276264 0.260950 0.180157
O O10 0.365260 0.007945 0.190550
O O11 0.667353 0.653930 0.952007
O O12 0.810290 0.051000 0.651325
O O13 0.944077 0.352132 0.954190
O O14 0.943078 0.702838 0.251765
O O15 0.622109 0.870584 0.325291
#
# Coordination Sequence:
#
# PCOD9094589 Si02
#       8
#     2   2   2   2   2   2   2   1
#     4  10  23  42  63  86 121 169 208 258 292 360
#     4  10  20  34  58  91 122 156 200 253 307 365
#     4  10  21  43  64  84 122 167 215 246 305 362
#     4  10  21  37  61  92 124 157 201 257 312 364
#     4  11  21  38  60  91 125 157 204 247 304 373
#     4  11  24  37  61  96 124 160 204 246 314 368
#     4  11  22  38  62  92 126 158 198 260 314 365
#     4  10  22  36  58  86 128 160 188 246 306 360
#
# _framework density 26.558544000000001
#
# number of rings (size 3 to 8) (size 9 to 14) (size 15 to 20)
#    0.000    1.600    1.333    4.400    3.733    1.600 
#    0.000   12.000    0.000    0.000    0.000    0.000 
#    0.000    0.000    0.000    0.000    0.000    0.000 
#
# Total GULP energy -83847.330467 kJ/mol
# GULP energy per Si atom -5589.822031 kJ/mol
# Density = 2.649810 g / cm^3
# Si number density = 26.558544 Si / 1000 Ang^3
#
#
#
# Elastic Constant Matrix: (Units=GPa)
#
#
# Indices 1 2 3 4 5 6 
#
# 1 42.6353 24.2128 22.0142 -1.4620 1.9247 19.5198
# 2 24.2128 100.8531 43.0314 -7.4465 4.8747 5.5056
# 3 22.0142 43.0314 249.1414 -9.4796 -0.1330 4.8702
# 4 -1.4620 -7.4465 -9.4796 47.6651 4.4899 -0.5265
# 5 1.9247 4.8747 -0.1330 4.4899 40.8141 5.8382
# 6 19.5198 5.5056 4.8702 -0.5265 5.8382 15.7261
#
#
#
# Elastic Compliance Matrix: (Units=1/GPa)
#
#
# Indices 1 2 3 4 5 6 
#
# 1 0.070734 -0.011812 -0.002587 -0.002162 0.010738 -0.086920
# 2 -0.011812 0.012964 -0.001357 0.001792 -0.002861 0.011665
# 3 -0.002587 -0.001357 0.004454 0.000631 -0.000110 0.002369
# 4 -0.002162 0.001792 0.000631 0.021644 -0.003021 0.003707
# 5 0.010738 -0.002861 -0.000110 -0.003021 0.027925 -0.022760
# 6 -0.086920 0.011665 0.002369 0.003707 -0.022760 0.175233
#
#
# Mechanical properties :
#
#
# Convention : Reuss Voigt Hill
#
# Bulk Modulus (GPa) = 17.65506 63.46074 40.55790
# Shear Modulus (GPa) = 13.76096 41.06581 27.41338
#
# Velocity S-wave (km/s) = 2.27873 3.93649 3.21625
# Velocity P-wave (km/s) = 3.68585 6.67891 5.39413
#
# Compressibility (1/GPa) = 0.05664099
#
# Stress axis : x y z
#
# Youngs Moduli (GPa) = 14.13738 77.13748 224.49702
#
# Poissons Ratio (x) = 0.91112 0.58088
# Poissons Ratio (y) = 0.16699 0.30460
# Poissons Ratio (z) = 0.03658 0.10466
#
# Static dielectric constant tensor:
#      x y z
#    x 1.860930 0.070930 0.008630 
#    y 0.070930 1.972530 -0.030500 
#    z 0.008630 -0.030500 2.126380 
# 
# From -- ./inp_files/432130.got.cif
#   From: 2010.05.17/outbox.cif.g08.bks.cpg/sg2_217_cif.got.tgz:432130.got - 2010.06.03 11:33:40.
