data_PCOD9094000
_publ_section_title
;
Structure prediction by ZEFSAII (Michael W. Deem and Ramdas Pophale) SiO2 
 PCOD9094000
Probable space group: P -1
;
_chemical_formula_sum "Si O2"
_cell_formula_units_Z 14
_cell_length_a 25.217834
_cell_length_b 24.784734
_cell_length_c 10.685118
_cell_angle_alpha 149.890713
_cell_angle_beta 149.354068
_cell_angle_gamma 11.352408
_cell_volume 654.423908
_symmetry_space_group_name_H-M "P -1"
_symmetry_group_IT_number 2
_symmetry_cell_setting 'triclinic'
loop_
_space_group_symop_operation_xyz
x,y,z
-x,-y,-z
loop_
_atom_site_type_symbol
_atom_site_label
_atom_site_fract_x
_atom_site_fract_y
_atom_site_fract_z
Si Si1 0.409067 0.709006 0.244985
Si Si2 0.357119 0.113960 0.305662
Si Si3 0.969123 0.248469 0.565373
Si Si4 0.794367 0.529847 0.011426
Si Si5 0.853239 0.909737 0.742689
Si Si6 0.223780 0.197130 0.829012
Si Si7 0.640851 0.644934 0.215328
O O1 0.256317 0.896695 0.187187
O O2 0.691669 0.502725 0.431170
O O3 0.180628 0.949956 0.371009
O O4 0.500000 0.500000 0.000000
O O5 0.317938 0.270387 0.486195
O O6 0.067447 0.338413 0.191534
O O7 0.500000 0.000000 0.500000
O O8 0.560194 0.833696 0.093764
O O9 0.144679 0.183437 0.745120
O O10 0.864434 0.368820 0.733864
O O11 0.709496 0.573378 0.064688
O O12 0.668209 0.087093 0.845742
O O13 0.799782 0.849197 0.438675
O O14 0.162111 0.616047 0.824410
O O15 0.000000 0.500000 0.000000
O O16 0.500000 0.000000 0.000000
#
# Coordination Sequence:
#
# PCOD9094000 Si02
#       7
#     2   2   2   2   2   2   2
#     4  11  24  47  71  89 114 155 214 277 322 374
#     4  10  20  34  51  82 122 178 218 223 272 347
#     4  11  24  41  64  95 121 160 215 250 319 376
#     4  11  22  37  58  87 128 168 206 250 290 360
#     4  11  23  38  59  90 118 158 215 245 313 368
#     4  11  23  37  54  84 127 168 194 246 298 352
#     4  11  21  36  57  87 127 166 205 247 288 361
#
# _framework density 21.392862999999998
#
# number of rings (size 3 to 8) (size 9 to 14) (size 15 to 20)
#    0.000    1.143    0.000    9.857    6.000    0.000 
#    0.000    0.000    0.000    5.143    0.000    0.000 
#    0.000    0.000    0.000    0.000    0.000    0.000 
#
# Total GULP energy -78256.843274 kJ/mol
# GULP energy per Si atom -5589.774520 kJ/mol
# Density = 2.134417 g / cm^3
# Si number density = 21.392863 Si / 1000 Ang^3
#
#
#
# Elastic Constant Matrix: (Units=GPa)
#
#
# Indices 1 2 3 4 5 6 
#
# 1 70.5613 32.1945 38.7363 19.3259 -18.0082 -2.9736
# 2 32.1945 143.8844 34.9737 24.2970 -6.2821 -0.3118
# 3 38.7363 34.9737 63.5288 34.0116 -5.5915 5.0572
# 4 19.3259 24.2970 34.0116 50.0988 -3.3962 -3.1496
# 5 -18.0082 -6.2821 -5.5915 -3.3962 24.5083 12.8051
# 6 -2.9736 -0.3118 5.0572 -3.1496 12.8051 41.2406
#
#
#
# Elastic Compliance Matrix: (Units=1/GPa)
#
#
# Indices 1 2 3 4 5 6 
#
# 1 0.026881 -0.002013 -0.014482 0.001493 0.016886 -0.001430
# 2 -0.002013 0.008265 -0.002557 -0.001501 -0.000254 0.000195
# 3 -0.014482 -0.002557 0.035962 -0.018135 -0.002413 -0.006109
# 4 0.001493 -0.001501 -0.018135 0.032645 -0.001691 0.005338
# 5 0.016886 -0.000254 -0.002413 -0.001691 0.061637 -0.017756
# 6 -0.001430 0.000195 -0.006109 0.005338 -0.017756 0.030816
#
#
# Mechanical properties :
#
#
# Convention : Reuss Voigt Hill
#
# Bulk Modulus (GPa) = 30.29864 54.42039 42.35952
# Shear Modulus (GPa) = 20.38238 34.64087 27.51163
#
# Velocity S-wave (km/s) = 3.09004 4.02838 3.59000
# Velocity P-wave (km/s) = 5.18891 6.86520 6.08506
#
# Compressibility (1/GPa) = 0.03300478
#
# Stress axis : x y z
#
# Youngs Moduli (GPa) = 37.20150 120.99713 27.80728
#
# Poissons Ratio (x) = 0.24351 0.40269
# Poissons Ratio (y) = 0.07487 0.07110
# Poissons Ratio (z) = 0.53874 0.30940
#
# Static dielectric constant tensor:
#      x y z
#    x 1.867190 0.042010 0.012860 
#    y 0.042010 1.784460 0.044910 
#    z 0.012860 0.044910 1.848800 
# 
# From -- ./inp_files/477237.got.cif
#   From: 2010.05.17/outbox.cif.g08.bks.cpg/sg2_239_cif.got.tgz:477237.got - 2010.06.03 11:33:40.
