data_PCOD9094091
_publ_section_title
;
Structure prediction by ZEFSAII (Michael W. Deem and Ramdas Pophale) SiO2 
 PCOD9094091
Probable space group: P -1
;
_chemical_formula_sum "Si O2"
_cell_formula_units_Z 14
_cell_length_a 12.821972
_cell_length_b 10.705852
_cell_length_c 8.645032
_cell_angle_alpha 114.558438
_cell_angle_beta 80.228407
_cell_angle_gamma 44.741431
_cell_volume 522.330516
_symmetry_space_group_name_H-M "P -1"
_symmetry_group_IT_number 2
_symmetry_cell_setting 'triclinic'
loop_
_space_group_symop_operation_xyz
x,y,z
-x,-y,-z
loop_
_atom_site_type_symbol
_atom_site_label
_atom_site_fract_x
_atom_site_fract_y
_atom_site_fract_z
Si Si1 0.553128 0.637642 0.117203
Si Si2 0.222187 0.534126 0.576578
Si Si3 0.013437 0.121317 0.914635
Si Si4 0.728835 0.810344 0.433222
Si Si5 0.763124 0.237925 0.609883
Si Si6 0.876203 0.557326 0.696261
Si Si7 0.682480 0.966971 0.191349
O O1 0.776434 0.379781 0.026073
O O2 0.368015 0.749433 0.295154
O O3 0.450781 0.902264 0.281006
O O4 0.607587 0.526364 0.874248
O O5 0.038630 0.826718 0.861627
O O6 0.240650 0.372451 0.593318
O O7 0.171181 0.533533 0.419308
O O8 0.468605 0.301636 0.405204
O O9 0.121276 0.150705 0.895756
O O10 0.179970 0.843392 0.626426
O O11 0.678451 0.879216 0.301268
O O12 0.948612 0.647835 0.318734
O O13 0.000000 0.000000 0.500000
O O14 0.000000 0.500000 0.500000
O O15 0.699354 0.853873 0.974890
#
# Coordination Sequence:
#
# PCOD9094091 Si02
#       7
#     2   2   2   2   2   2   2
#     4  10  20  34  53  87 112 143 188 240 285 328
#     4  11  23  37  54  85 121 157 187 228 282 343
#     4  11  19  34  57  81 114 145 191 229 281 333
#     4  11  21  35  57  86 118 147 194 235 276 337
#     4   9  19  35  55  80 115 143 181 242 293 332
#     4  10  22  37  52  80 123 159 185 224 282 344
#     4  12  21  35  58  83 115 156 192 231 278 329
#
# _framework density 26.802952999999999
#
# number of rings (size 3 to 8) (size 9 to 14) (size 15 to 20)
#    0.000    1.429    5.714    1.286    0.000    0.000 
#    0.000    0.000    0.000    0.857    0.000   10.000 
#    0.000    0.000    0.000    0.000    0.000    0.000 
#
# Total GULP energy -78277.446652 kJ/mol
# GULP energy per Si atom -5591.246189 kJ/mol
# Density = 2.674195 g / cm^3
# Si number density = 26.802953 Si / 1000 Ang^3
#
#
#
# Elastic Constant Matrix: (Units=GPa)
#
#
# Indices 1 2 3 4 5 6 
#
# 1 115.8580 22.2647 52.6688 -14.6318 -10.0080 -25.4490
# 2 22.2647 51.1123 19.3492 -3.7984 -8.2467 -15.7359
# 3 52.6688 19.3492 204.8569 -9.4187 34.8734 22.1687
# 4 -14.6318 -3.7984 -9.4187 49.3201 -7.4042 -11.1902
# 5 -10.0080 -8.2467 34.8734 -7.4042 54.8983 -3.9888
# 6 -25.4490 -15.7359 22.1687 -11.1902 -3.9888 38.6203
#
#
#
# Elastic Compliance Matrix: (Units=1/GPa)
#
#
# Indices 1 2 3 4 5 6 
#
# 1 0.023407 0.008725 -0.012749 0.015297 0.018108 0.032600
# 2 0.008725 0.033511 -0.011244 0.012817 0.017778 0.031408
# 3 -0.012749 -0.011244 0.014339 -0.010240 -0.016383 -0.025873
# 4 0.015297 0.012817 -0.010240 0.034049 0.018203 0.032926
# 5 0.018108 0.017778 -0.016383 0.018203 0.039808 0.037966
# 6 0.032600 0.031408 -0.025873 0.032926 0.037966 0.088485
#
#
# Mechanical properties :
#
#
# Convention : Reuss Voigt Hill
#
# Bulk Modulus (GPa) = 24.55753 62.26585 43.41169
# Shear Modulus (GPa) = 18.00434 47.07071 32.53752
#
# Velocity S-wave (km/s) = 2.59459 4.19522 3.48796
# Velocity P-wave (km/s) = 4.26122 6.83724 5.69675
#
# Compressibility (1/GPa) = 0.04072071
#
# Stress axis : x y z
#
# Youngs Moduli (GPa) = 42.72177 29.84071 69.73794
#
# Poissons Ratio (x) = -0.26037 0.88911
# Poissons Ratio (y) = -0.37276 0.78417
# Poissons Ratio (z) = 0.54467 0.33554
#
# Static dielectric constant tensor:
#      x y z
#    x 2.230790 0.016800 0.014490 
#    y 0.016800 2.129050 0.011400 
#    z 0.014490 0.011400 2.115540 
# 
# From -- ./inp_files/313891.got.cif
#   From: 2010.05.17/outbox.cif.g08.bks.cpg/sg2_157_cif.got.tgz:313891.got - 2010.06.03 11:33:40.
