data_PCOD9094237
_publ_section_title
;
Structure prediction by ZEFSAII (Michael W. Deem and Ramdas Pophale) SiO2 
 PCOD9094237
Probable space group: P -1
;
_chemical_formula_sum "Si O2"
_cell_formula_units_Z 16
_cell_length_a 12.364668
_cell_length_b 18.435347
_cell_length_c 5.297315
_cell_angle_alpha 80.939114
_cell_angle_beta 57.331805
_cell_angle_gamma 53.991441
_cell_volume 799.293632
_symmetry_space_group_name_H-M "P -1"
_symmetry_group_IT_number 2
_symmetry_cell_setting 'triclinic'
loop_
_space_group_symop_operation_xyz
x,y,z
-x,-y,-z
loop_
_atom_site_type_symbol
_atom_site_label
_atom_site_fract_x
_atom_site_fract_y
_atom_site_fract_z
Si Si1 0.279755 0.141525 0.291267
Si Si2 0.323574 0.446601 0.672749
Si Si3 0.005427 0.343971 0.559058
Si Si4 0.552520 0.045448 0.599089
Si Si5 0.538378 0.797477 0.646227
Si Si6 0.865606 0.622068 0.119685
Si Si7 0.511991 0.335368 0.993509
Si Si8 0.327055 0.580296 0.294194
O O1 0.098744 0.233868 0.475989
O O2 0.368469 0.170208 0.342611
O O3 0.308752 0.045968 0.374351
O O4 0.386901 0.114430 0.922798
O O5 0.161869 0.456531 0.808568
O O6 0.387151 0.398826 0.890909
O O7 0.307673 0.539491 0.597327
O O8 0.445543 0.382657 0.326812
O O9 0.046018 0.371682 0.753665
O O10 0.818236 0.395772 0.712010
O O11 0.076426 0.367326 0.226287
O O12 0.592529 0.110445 0.395166
O O13 0.500000 0.000000 0.500000
O O14 0.677959 0.713291 0.344698
O O15 0.472598 0.757314 0.937692
O O16 0.663514 0.335055 0.737353
O O17 0.500000 0.500000 0.000000
#
# Coordination Sequence:
#
# PCOD9094237 Si02
#       8
#     2   2   2   2   2   2   2   2
#     4   9  17  30  50  85 115 139 177 219 295 329
#     4  10  20  37  58  80 112 142 190 244 281 334
#     4  11  22  36  57  81 119 149 184 236 281 341
#     4   9  16  28  52  83 115 141 167 222 280 354
#     4   9  17  30  53  80 115 143 181 222 277 339
#     4  10  20  34  55  87 111 145 180 233 302 330
#     4  10  21  35  58  79 110 153 196 231 265 328
#     4  10  24  42  58  79 110 157 204 236 271 321
#
# _framework density 20.017676999999999
#
# number of rings (size 3 to 8) (size 9 to 14) (size 15 to 20)
#    0.000    2.250    1.250    2.625    1.750    5.000 
#    0.000    0.000    0.000    0.750    0.000    7.875 
#    0.000    0.000    0.000    0.000    0.000    0.000 
#
# Total GULP energy -89113.704833 kJ/mol
# GULP energy per Si atom -5569.606552 kJ/mol
# Density = 1.997212 g / cm^3
# Si number density = 20.017677 Si / 1000 Ang^3
#
#
#
# Elastic Constant Matrix: (Units=GPa)
#
#
# Indices 1 2 3 4 5 6 
#
# 1 58.2655 41.1111 30.6728 -10.3204 -17.2565 1.8783
# 2 41.1111 141.6631 51.4584 -38.7690 -12.9709 13.0230
# 3 30.6728 51.4584 78.2870 -10.9601 0.4585 5.5956
# 4 -10.3204 -38.7690 -10.9601 44.0356 12.3957 -2.9556
# 5 -17.2565 -12.9709 0.4585 12.3957 39.8334 -7.1602
# 6 1.8783 13.0230 5.5956 -2.9556 -7.1602 15.9788
#
#
#
# Elastic Compliance Matrix: (Units=1/GPa)
#
#
# Indices 1 2 3 4 5 6 
#
# 1 0.029058 -0.005930 -0.008811 -0.003801 0.013730 0.009953
# 2 -0.005930 0.013630 -0.004695 0.009608 -0.002526 -0.008122
# 3 -0.008811 -0.004695 0.019733 0.000219 -0.006528 -0.004933
# 4 -0.003801 0.009608 0.000219 0.032682 -0.009729 -0.005775
# 5 0.013730 -0.002526 -0.006528 -0.009729 0.036435 0.017258
# 6 0.009953 -0.008122 -0.004933 -0.005775 0.017258 0.076426
#
#
# Mechanical properties :
#
#
# Convention : Reuss Voigt Hill
#
# Bulk Modulus (GPa) = 42.46507 58.30003 50.38255
# Shear Modulus (GPa) = 19.63198 30.30112 24.96655
#
# Velocity S-wave (km/s) = 3.13506 3.89487 3.53544
# Velocity P-wave (km/s) = 5.86214 7.02953 6.47221
#
# Compressibility (1/GPa) = 0.02354876
#
# Stress axis : x y z
#
# Youngs Moduli (GPa) = 34.41421 73.36652 50.67567
#
# Poissons Ratio (x) = 0.43507 0.44649
# Poissons Ratio (y) = 0.20408 0.23794
# Poissons Ratio (z) = 0.30322 0.34448
#
# Static dielectric constant tensor:
#      x y z
#    x 1.803480 0.053090 0.046170 
#    y 0.053090 1.955250 0.017120 
#    z 0.046170 0.017120 1.750950 
# 
# From -- ./inp_files/42422.got.cif
#   From: 2010.05.17/outbox.cif.g08.bks.cpg/sg2_22_cif.got.tgz:42422.got - 2010.06.03 11:33:40.
