data_PCOD9094413
_publ_section_title
;
Structure prediction by ZEFSAII (Michael W. Deem and Ramdas Pophale) SiO2 
 PCOD9094413
Probable space group: P -1
;
_chemical_formula_sum "Si O2"
_cell_formula_units_Z 16
_cell_length_a 6.942278
_cell_length_b 11.577751
_cell_length_c 11.450123
_cell_angle_alpha 61.890538
_cell_angle_beta 128.953376
_cell_angle_gamma 94.050029
_cell_volume 596.158853
_symmetry_space_group_name_H-M "P -1"
_symmetry_group_IT_number 2
_symmetry_cell_setting 'triclinic'
loop_
_space_group_symop_operation_xyz
x,y,z
-x,-y,-z
loop_
_atom_site_type_symbol
_atom_site_label
_atom_site_fract_x
_atom_site_fract_y
_atom_site_fract_z
Si Si1 0.752607 0.294594 0.263117
Si Si2 0.634874 0.523902 0.301967
Si Si3 0.937680 0.358370 0.065611
Si Si4 0.260316 0.004210 0.495261
Si Si5 0.742975 0.733290 0.976354
Si Si6 0.063811 0.004156 0.835363
Si Si7 0.426323 0.961802 0.195423
Si Si8 0.968761 0.321384 0.668280
O O1 0.759047 0.401920 0.313319
O O2 0.751315 0.145674 0.387802
O O3 0.457432 0.349579 0.070166
O O4 0.936249 0.311544 0.220023
O O5 0.345671 0.611698 0.113594
O O6 0.812446 0.621166 0.330208
O O7 0.682018 0.424967 0.479471
O O8 0.155141 0.251032 0.120236
O O9 0.000000 0.500000 0.000000
O O10 0.005818 0.049379 0.290030
O O11 0.323323 0.083712 0.597878
O O12 0.500000 0.000000 0.500000
O O13 0.989740 0.670382 0.181982
O O14 0.595268 0.879184 0.910174
O O15 0.041502 0.163918 0.729337
O O16 0.818680 0.028066 0.818608
O O17 0.325360 0.922858 0.049745
#
# Coordination Sequence:
#
# PCOD9094413 Si02
#       8
#     2   2   2   2   2   2   2   2
#     4  11  20  38  59  83 117 149 197 240 288 349
#     4  11  21  35  55  84 113 154 195 239 288 345
#     4  12  23  35  59  85 117 156 197 240 289 344
#     4   9  17  31  57  88 108 145 194 238 293 349
#     4  10  20  37  57  85 113 150 190 240 292 349
#     4   9  15  31  53  86 108 146 191 237 289 345
#     4   8  17  29  55  84 112 141 190 238 289 350
#     4  10  20  34  57  82 115 152 193 236 293 350
#
# _framework density 26.838486
#
# number of rings (size 3 to 8) (size 9 to 14) (size 15 to 20)
#    0.000    2.000    3.750    1.125    0.000    0.500 
#    0.000    0.000    0.000    7.500    0.000    0.000 
#    0.000    0.000    0.000    0.000    0.000    0.000 
#
# Total GULP energy -89296.861061 kJ/mol
# GULP energy per Si atom -5581.053816 kJ/mol
# Density = 2.677740 g / cm^3
# Si number density = 26.838486 Si / 1000 Ang^3
#
#
#
# Elastic Constant Matrix: (Units=GPa)
#
#
# Indices 1 2 3 4 5 6 
#
# 1 107.7501 8.4776 40.1626 5.6110 -15.8850 19.2984
# 2 8.4776 137.9880 52.9178 12.8961 -5.1568 12.7767
# 3 40.1626 52.9178 182.5162 34.3098 -22.2952 -0.8409
# 4 5.6110 12.8961 34.3098 49.8871 2.1509 -7.8244
# 5 -15.8850 -5.1568 -22.2952 2.1509 34.4416 1.4566
# 6 19.2984 12.7767 -0.8409 -7.8244 1.4566 29.6803
#
#
#
# Elastic Compliance Matrix: (Units=1/GPa)
#
#
# Indices 1 2 3 4 5 6 
#
# 1 0.012566 0.001334 -0.002204 -0.001964 0.005096 -0.009575
# 2 0.001334 0.008765 -0.002493 -0.001535 0.000627 -0.005146
# 3 -0.002204 -0.002493 0.008056 -0.004617 0.004058 0.001319
# 4 -0.001964 -0.001535 -0.004617 0.025484 -0.006089 0.008824
# 5 0.005096 0.000627 0.004058 -0.006089 0.034773 -0.006780
# 6 -0.009575 -0.005146 0.001319 0.008824 -0.006780 0.044830
#
#
# Mechanical properties :
#
#
# Convention : Reuss Voigt Hill
#
# Bulk Modulus (GPa) = 44.13153 70.15225 57.14189
# Shear Modulus (GPa) = 33.61251 44.58156 39.09703
#
# Velocity S-wave (km/s) = 3.54276 4.08009 3.82088
# Velocity P-wave (km/s) = 5.76316 6.95641 6.38771
#
# Compressibility (1/GPa) = 0.02265953
#
# Stress axis : x y z
#
# Youngs Moduli (GPa) = 79.58104 114.09508 124.12384
#
# Poissons Ratio (x) = -0.15219 0.27361
# Poissons Ratio (y) = -0.10615 0.30946
# Poissons Ratio (z) = 0.17542 0.28446
#
# Static dielectric constant tensor:
#      x y z
#    x 2.097990 0.022080 -0.006460 
#    y 0.022080 2.117540 -0.047220 
#    z -0.006460 -0.047220 2.254690 
# 
# From -- ./inp_files/209987.got.cif
#   From: 2010.05.17/outbox.cif.g08.bks.cpg/sg2_105_cif.got.tgz:209987.got - 2010.06.03 11:33:40.
