data_PCOD9094433
_publ_section_title
;
Structure prediction by ZEFSAII (Michael W. Deem and Ramdas Pophale) SiO2 
 PCOD9094433
Probable space group: P -1
;
_chemical_formula_sum "Si O2"
_cell_formula_units_Z 16
_cell_length_a 16.893698
_cell_length_b 14.279170
_cell_length_c 16.505405
_cell_angle_alpha 43.945956
_cell_angle_beta 162.475084
_cell_angle_gamma 137.334320
_cell_volume 809.082405
_symmetry_space_group_name_H-M "P -1"
_symmetry_group_IT_number 2
_symmetry_cell_setting 'triclinic'
loop_
_space_group_symop_operation_xyz
x,y,z
-x,-y,-z
loop_
_atom_site_type_symbol
_atom_site_label
_atom_site_fract_x
_atom_site_fract_y
_atom_site_fract_z
Si Si1 0.440309 0.144446 0.170212
Si Si2 0.294934 0.598600 0.228260
Si Si3 0.675750 0.418778 0.910809
Si Si4 0.724137 0.376150 0.626702
Si Si5 0.518821 0.702346 0.039471
Si Si6 0.721178 0.090756 0.720124
Si Si7 0.958369 0.529158 0.534944
Si Si8 0.015563 0.765194 0.252969
O O1 0.745173 0.173879 0.486054
O O2 0.276929 0.001811 0.140572
O O3 0.419435 0.160833 0.042778
O O4 0.277138 0.253674 0.980038
O O5 0.500000 0.500000 0.500000
O O6 0.337836 0.656853 0.142886
O O7 0.306460 0.676557 0.276138
O O8 0.000000 0.500000 0.000000
O O9 0.489818 0.530591 0.656948
O O10 0.551604 0.306808 0.928458
O O11 0.980231 0.515105 0.161961
O O12 0.662414 0.235216 0.603024
O O13 0.736714 0.611801 0.290578
O O14 0.240093 0.619060 0.782388
O O15 0.974226 0.140717 0.875495
O O16 0.500000 0.000000 0.500000
O O17 0.917548 0.375802 0.625365
O O18 0.000000 0.500000 0.500000
#
# Coordination Sequence:
#
# PCOD9094433 Si02
#       8
#     2   2   2   2   2   2   2   2
#     4  11  22  35  47  66  99 139 169 207 249 293
#     4   8  16  32  55  79 106 128 159 215 275 315
#     4  10  20  34  57  85 104 129 171 219 271 319
#     4  10  20  37  55  80 107 136 171 217 265 308
#     4  12  21  33  50  74 103 134 167 212 265 310
#     4  10  23  37  52  73 103 143 185 213 242 301
#     4  12  21  34  50  72 100 134 173 213 263 308
#     4  11  21  35  50  67  94 132 178 215 249 291
#
# _framework density 19.775487999999999
#
# number of rings (size 3 to 8) (size 9 to 14) (size 15 to 20)
#    0.000    1.500    2.500    3.750    0.000    5.000 
#    0.000    0.000    0.000    0.750    0.000    0.000 
#    0.000   19.000    0.000    0.000    0.000    2.875 
#
# Total GULP energy -89100.463220 kJ/mol
# GULP energy per Si atom -5568.778951 kJ/mol
# Density = 1.973048 g / cm^3
# Si number density = 19.775488 Si / 1000 Ang^3
#
#
#
# Elastic Constant Matrix: (Units=GPa)
#
#
# Indices 1 2 3 4 5 6 
#
# 1 170.5471 32.6945 9.5609 -6.5493 -17.9224 32.4594
# 2 32.6945 48.5491 -0.3951 -12.3492 -8.8743 17.8518
# 3 9.5609 -0.3951 106.1448 5.3517 17.2287 3.1830
# 4 -6.5493 -12.3492 5.3517 21.3132 7.1505 -12.1521
# 5 -17.9224 -8.8743 17.2287 7.1505 28.8962 -7.4297
# 6 32.4594 17.8518 3.1830 -12.1521 -7.4297 40.0343
#
#
#
# Elastic Compliance Matrix: (Units=1/GPa)
#
#
# Indices 1 2 3 4 5 6 
#
# 1 0.007856 -0.003650 -0.001032 -0.003642 0.003975 -0.005028
# 2 -0.003650 0.028528 -0.000351 0.011363 0.002393 -0.005841
# 3 -0.001032 -0.000351 0.010827 -0.001825 -0.007204 -0.001758
# 4 -0.003642 0.011363 -0.001825 0.065239 -0.009702 0.016033
# 5 0.003975 0.002393 -0.007204 -0.009702 0.044934 0.001676
# 6 -0.005028 -0.005841 -0.001758 0.016033 0.001676 0.036977
#
#
# Mechanical properties :
#
#
# Convention : Reuss Voigt Hill
#
# Bulk Modulus (GPa) = 26.92191 45.44020 36.18105
# Shear Modulus (GPa) = 23.06178 36.94078 30.00128
#
# Velocity S-wave (km/s) = 3.41864 4.32674 3.89921
# Velocity P-wave (km/s) = 5.40612 6.92739 6.21349
#
# Compressibility (1/GPa) = 0.03714447
#
# Stress axis : x y z
#
# Youngs Moduli (GPa) = 127.29441 35.05290 92.36399
#
# Poissons Ratio (x) = 0.12794 0.09533
# Poissons Ratio (y) = 0.46460 0.03245
# Poissons Ratio (z) = 0.13138 0.01231
#
# Static dielectric constant tensor:
#      x y z
#    x 1.826460 0.064660 -0.037510 
#    y 0.064660 1.718850 -0.036100 
#    z -0.037510 -0.036100 1.710220 
# 
# From -- ./inp_files/82583.got.cif
#   From: 2010.05.17/outbox.cif.g08.bks.cpg/sg2_42_cif.got.tgz:82583.got - 2010.06.03 11:33:40.
