data_PCOD9094259
_publ_section_title
;
Structure prediction by ZEFSAII (Michael W. Deem and Ramdas Pophale) SiO2 
 PCOD9094259
Probable space group: P -1
;
_chemical_formula_sum "Si O2"
_cell_formula_units_Z 16
_cell_length_a 6.512252
_cell_length_b 18.162752
_cell_length_c 11.721630
_cell_angle_alpha 59.674102
_cell_angle_beta 74.918941
_cell_angle_gamma 115.067347
_cell_volume 861.974692
_symmetry_space_group_name_H-M "P -1"
_symmetry_group_IT_number 2
_symmetry_cell_setting 'triclinic'
loop_
_space_group_symop_operation_xyz
x,y,z
-x,-y,-z
loop_
_atom_site_type_symbol
_atom_site_label
_atom_site_fract_x
_atom_site_fract_y
_atom_site_fract_z
Si Si1 0.063382 0.920126 0.171418
Si Si2 0.828649 0.231819 0.616013
Si Si3 0.377525 0.168580 0.892572
Si Si4 0.464400 0.233353 0.276379
Si Si5 0.646800 0.919354 0.386964
Si Si6 0.894069 0.630453 0.941931
Si Si7 0.869853 0.820659 0.859581
Si Si8 0.670897 0.616295 0.735286
O O1 0.117388 0.840040 0.266637
O O2 0.889693 0.876259 0.112877
O O3 0.866653 0.913776 0.298563
O O4 0.329940 0.055027 0.014080
O O5 0.657399 0.249436 0.710857
O O6 0.624383 0.152118 0.601206
O O7 0.119902 0.343392 0.432079
O O8 0.337853 0.209051 0.983005
O O9 0.432157 0.142059 0.432261
O O10 0.267563 0.178064 0.236755
O O11 0.373116 0.294210 0.309915
O O12 0.796804 0.328785 0.120738
O O13 0.821047 0.053634 0.265309
O O14 0.896307 0.726756 0.915123
O O15 0.818061 0.619188 0.827064
O O16 0.637798 0.509248 0.129961
#
# Coordination Sequence:
#
# PCOD9094259 Si02
#       8
#     2   2   2   2   2   2   2   2
#     4   9  18  34  55  81 115 146 188 231 268 326
#     4  11  19  34  62  86 108 148 185 238 279 316
#     4   9  20  35  53  83 114 150 185 223 276 335
#     4  11  20  37  58  83 111 150 184 231 283 327
#     4  10  20  34  55  90 116 139 185 229 282 338
#     4  10  22  39  57  79 114 152 186 232 277 327
#     4  10  23  37  53  83 122 150 178 221 280 351
#     4  10  21  38  59  85 107 141 201 237 267 323
#
# _framework density 18.562031000000001
#
# number of rings (size 3 to 8) (size 9 to 14) (size 15 to 20)
#    0.000    2.000    2.500    1.875    0.000    3.500 
#    0.000    0.625    0.000    1.500    0.000    0.000 
#    0.000    0.000    0.000    0.000    0.000    0.000 
#
# Total GULP energy -89301.085579 kJ/mol
# GULP energy per Si atom -5581.317849 kJ/mol
# Density = 1.851978 g / cm^3
# Si number density = 18.562031 Si / 1000 Ang^3
#
#
#
# Elastic Constant Matrix: (Units=GPa)
#
#
# Indices 1 2 3 4 5 6 
#
# 1 24.2493 -8.0897 11.9368 -1.1064 3.2538 2.3118
# 2 -8.0897 39.5293 18.2349 6.9072 2.7442 2.1467
# 3 11.9368 18.2349 117.0576 3.9826 -13.6401 3.7468
# 4 -1.1064 6.9072 3.9826 16.4110 7.4143 -2.6483
# 5 3.2538 2.7442 -13.6401 7.4143 22.1464 -2.9830
# 6 2.3118 2.1467 3.7468 -2.6483 -2.9830 10.6093
#
#
#
# Elastic Compliance Matrix: (Units=1/GPa)
#
#
# Indices 1 2 3 4 5 6 
#
# 1 0.057435 0.018158 -0.010865 0.005907 -0.021643 -0.016963
# 2 0.018158 0.035779 -0.007919 -0.009286 -0.010719 -0.013731
# 3 -0.010865 -0.007919 0.012475 -0.005774 0.012412 0.001612
# 4 0.005907 -0.009286 -0.005774 0.082042 -0.028715 0.015037
# 5 -0.021643 -0.010719 0.012412 -0.028715 0.068901 0.014707
# 6 -0.016963 -0.013731 0.001612 0.015037 0.014707 0.108051
#
#
# Mechanical properties :
#
#
# Convention : Reuss Voigt Hill
#
# Bulk Modulus (GPa) = 9.57517 25.00004 17.28760
# Shear Modulus (GPa) = 12.47664 20.41695 16.44680
#
# Velocity S-wave (km/s) = 2.59542 3.32012 2.97988
# Velocity P-wave (km/s) = 3.76181 5.30991 4.60144
#
# Compressibility (1/GPa) = 0.10443684
#
# Stress axis : x y z
#
# Youngs Moduli (GPa) = 17.41096 27.94922 80.15724
#
# Poissons Ratio (x) = -0.50750 0.87094
# Poissons Ratio (y) = -0.31614 0.63475
# Poissons Ratio (z) = 0.18918 0.22132
#
# Static dielectric constant tensor:
#      x y z
#    x 1.637870 0.005230 -0.012030 
#    y 0.005230 1.615600 0.005870 
#    z -0.012030 0.005870 1.667670 
# 
# From -- ./inp_files/66214.got.cif
#   From: 2010.05.17/outbox.cif.g08.bks.cpg/sg2_34_cif.got.tgz:66214.got - 2010.06.03 11:33:40.
