data_PCOD9094427
_publ_section_title
;
Structure prediction by ZEFSAII (Michael W. Deem and Ramdas Pophale) SiO2 
 PCOD9094427
Probable space group: P -1
;
_chemical_formula_sum "Si O2"
_cell_formula_units_Z 16
_cell_length_a 15.679695
_cell_length_b 10.605749
_cell_length_c 20.186466
_cell_angle_alpha 146.853675
_cell_angle_beta 21.779902
_cell_angle_gamma 147.402485
_cell_volume 645.179646
_symmetry_space_group_name_H-M "P -1"
_symmetry_group_IT_number 2
_symmetry_cell_setting 'triclinic'
loop_
_space_group_symop_operation_xyz
x,y,z
-x,-y,-z
loop_
_atom_site_type_symbol
_atom_site_label
_atom_site_fract_x
_atom_site_fract_y
_atom_site_fract_z
Si Si1 0.762999 0.312315 0.265203
Si Si2 0.398512 0.583626 0.042892
Si Si3 0.630760 0.156720 0.102094
Si Si4 0.315158 0.622724 0.339930
Si Si5 0.990829 0.367581 0.562962
Si Si6 0.713844 0.825665 0.536439
Si Si7 0.887870 0.605154 0.051634
Si Si8 0.553144 0.881734 0.475644
O O1 0.786111 0.594576 0.362016
O O2 0.519100 0.169680 0.337037
O O3 0.686901 0.248317 0.367008
O O4 0.004438 0.282330 0.047287
O O5 0.130576 0.574776 0.256805
O O6 0.556228 0.862914 0.031221
O O7 0.500000 0.500000 0.000000
O O8 0.437923 0.407783 0.880157
O O9 0.392086 0.202552 0.324991
O O10 0.739468 0.315676 0.028658
O O11 0.857304 0.298624 0.048988
O O12 0.145428 0.547788 0.363809
O O13 0.256404 0.484041 0.392069
O O14 0.306377 0.888801 0.479916
O O15 0.920515 0.078119 0.488567
O O16 0.715069 0.719146 0.267182
O O17 0.500000 0.000000 0.500000
#
# Coordination Sequence:
#
# PCOD9094427 Si02
#       8
#     2   2   2   2   2   2   2   2
#     4  10  20  34  57  84 115 151 185 239 289 337
#     4   9  19  31  51  87 123 143 168 227 304 352
#     4   9  18  33  56  92 121 138 176 243 298 345
#     4  10  21  33  54  80 113 150 190 222 289 343
#     4   9  18  31  54  88 113 142 171 240 292 346
#     4   9  16  32  56  89 123 136 175 237 310 339
#     4  10  22  34  57  86 114 150 193 236 283 340
#     4  12  26  42  56  77 120 163 200 233 268 345
#
# _framework density 24.799294
#
# number of rings (size 3 to 8) (size 9 to 14) (size 15 to 20)
#    0.000    2.250    2.500    0.000   10.500    0.500 
#    0.000    0.000    0.000    1.500    0.000    0.000 
#    0.000    0.000    0.000    0.000    0.000    0.000 
#
# Total GULP energy -89160.945769 kJ/mol
# GULP energy per Si atom -5572.559111 kJ/mol
# Density = 2.474285 g / cm^3
# Si number density = 24.799294 Si / 1000 Ang^3
#
#
#
# Elastic Constant Matrix: (Units=GPa)
#
#
# Indices 1 2 3 4 5 6 
#
# 1 29.8014 14.5090 18.5933 -18.7117 -0.5987 -0.2092
# 2 14.5090 129.5701 54.0924 -35.7188 11.4294 -19.7168
# 3 18.5933 54.0924 103.2028 -25.4610 49.1816 -13.2168
# 4 -18.7117 -35.7188 -25.4610 37.5648 -20.5828 15.9609
# 5 -0.5987 11.4294 49.1816 -20.5828 13.2778 -16.4090
# 6 -0.2092 -19.7168 -13.2168 15.9609 -16.4090 25.3802
#
#
#
# Elastic Compliance Matrix: (Units=1/GPa)
#
#
# Indices 1 2 3 4 5 6 
#
# 1 0.043702 -0.004321 0.007691 0.021548 -0.024356 -0.028288
# 2 -0.004321 0.009028 0.001329 0.001765 -0.010176 -0.000019
# 3 0.007691 0.001329 0.002772 0.015345 0.019583 0.005550
# 4 0.021548 0.001765 0.015345 0.052217 -0.026042 -0.040134
# 5 -0.024356 -0.010176 0.019583 -0.026042 -0.035354 -0.004389
# 6 -0.028288 -0.000019 0.005550 -0.040134 -0.004389 0.064444
#
#
# Mechanical properties :
#
#
# Convention : Reuss Voigt Hill
#
# Bulk Modulus (GPa) = 15.40812 48.55149 31.97980
# Shear Modulus (GPa) = 33.54710 26.93654 30.24182
#
# Velocity S-wave (km/s) = 3.68196 3.29930 3.49587
# Velocity P-wave (km/s) = 4.92974 5.84244 5.40539
#
# Compressibility (1/GPa) = 0.06490086
#
# Stress axis : x y z
#
# Youngs Moduli (GPa) = 22.88227 110.76421 360.79200
#
# Poissons Ratio (x) = 0.47858 -2.77490
# Poissons Ratio (y) = 0.09887 -0.47952
# Poissons Ratio (z) = -0.17599 -0.14721
#
# Static dielectric constant tensor:
#      x y z
#    x 2.213550 0.015150 -0.072930 
#    y 0.015150 2.005510 -0.043260 
#    z -0.072930 -0.043260 2.155070 
# 
# From -- ./inp_files/305657.got.cif
#   From: 2010.05.17/outbox.cif.g08.bks.cpg/sg2_153_cif.got.tgz:305657.got - 2010.06.03 11:33:40.
