data_PCOD9094615
_publ_section_title
;
Structure prediction by ZEFSAII (Michael W. Deem and Ramdas Pophale) SiO2 
 PCOD9094615
Probable space group: P -1
;
_chemical_formula_sum "Si O2"
_cell_formula_units_Z 14
_cell_length_a 5.721659
_cell_length_b 17.935071
_cell_length_c 10.727368
_cell_angle_alpha 31.110790
_cell_angle_beta 79.120368
_cell_angle_gamma 81.872300
_cell_volume 558.123115
_symmetry_space_group_name_H-M "P -1"
_symmetry_group_IT_number 2
_symmetry_cell_setting 'triclinic'
loop_
_space_group_symop_operation_xyz
x,y,z
-x,-y,-z
loop_
_atom_site_type_symbol
_atom_site_label
_atom_site_fract_x
_atom_site_fract_y
_atom_site_fract_z
Si Si1 0.885054 0.830132 0.439946
Si Si2 0.202748 0.555024 0.566542
Si Si3 0.692574 0.106235 0.396889
Si Si4 0.021049 0.110437 0.150573
Si Si5 0.398074 0.728120 0.579714
Si Si6 0.207480 0.427192 0.004667
Si Si7 0.271457 0.353463 0.619506
O O1 0.657435 0.798195 0.419756
O O2 0.158225 0.783851 0.456649
O O3 0.890323 0.998761 0.228847
O O4 0.811081 0.732663 0.709188
O O5 0.179388 0.433357 0.850375
O O6 0.248221 0.490472 0.518315
O O7 0.448364 0.646570 0.441027
O O8 0.947551 0.627665 0.481411
O O9 0.832294 0.180953 0.160130
O O10 0.640895 0.222644 0.342194
O O11 0.500000 0.000000 0.500000
O O12 0.837800 0.993195 0.624839
O O13 0.194121 0.216479 0.906341
O O14 0.410685 0.554546 0.820525
O O15 0.000000 0.500000 0.000000
#
# Coordination Sequence:
#
# PCOD9094615 Si02
#       7
#     2   2   2   2   2   2   2
#     4  10  21  37  57  94 125 157 201 261 320 369
#     4  10  24  44  62  93 125 172 219 251 314 374
#     4  10  20  34  58  98 129 159 204 268 322 370
#     4  10  22  36  61  93 128 160 208 263 324 366
#     4  10  21  36  55  90 128 159 195 250 324 372
#     4  10  23  41  68  94 130 163 212 271 316 375
#     4  10  24  43  65  89 129 175 210 260 304 387
#
# _framework density 25.084071999999999
#
# number of rings (size 3 to 8) (size 9 to 14) (size 15 to 20)
#    0.000    2.000    1.429    0.429   10.000    4.571 
#    2.571    0.000    0.000   22.286    0.000    0.000 
#    0.000    0.000    0.000    0.000    0.000    0.000 
#
# Total GULP energy -78065.739870 kJ/mol
# GULP energy per Si atom -5576.124276 kJ/mol
# Density = 2.502698 g / cm^3
# Si number density = 25.084072 Si / 1000 Ang^3
#
#
#
# Elastic Constant Matrix: (Units=GPa)
#
#
# Indices 1 2 3 4 5 6 
#
# 1 169.9877 49.6423 18.1060 -11.9102 -33.0390 21.0655
# 2 49.6423 81.0929 1.3937 -9.2652 -16.6592 8.6945
# 3 18.1060 1.3937 77.6053 -16.2603 -25.7810 2.7489
# 4 -11.9102 -9.2652 -16.2603 16.7409 13.3018 -14.4164
# 5 -33.0390 -16.6592 -25.7810 13.3018 36.7620 -5.2052
# 6 21.0655 8.6945 2.7489 -14.4164 -5.2052 48.4194
#
#
#
# Elastic Compliance Matrix: (Units=1/GPa)
#
#
# Indices 1 2 3 4 5 6 
#
# 1 0.008559 -0.004042 -0.000684 -0.005618 0.006862 -0.003894
# 2 -0.004042 0.016204 0.003386 0.007799 0.003454 0.001350
# 3 -0.000684 0.003386 0.019383 0.017055 0.008998 0.004634
# 4 -0.005618 0.007799 0.017055 0.134240 -0.032958 0.036501
# 5 0.006862 0.003454 0.008998 -0.032958 0.051989 -0.008340
# 6 -0.003894 0.001350 0.004634 0.036501 -0.008340 0.031812
#
#
# Mechanical properties :
#
#
# Convention : Reuss Voigt Hill
#
# Bulk Modulus (GPa) = 24.11701 51.88557 38.00129
# Shear Modulus (GPa) = 17.94118 37.68738 27.81428
#
# Velocity S-wave (km/s) = 2.67730 3.88034 3.33354
# Velocity P-wave (km/s) = 4.38094 6.38793 5.47715
#
# Compressibility (1/GPa) = 0.04146450
#
# Stress axis : x y z
#
# Youngs Moduli (GPa) = 116.83970 61.71433 51.59176
#
# Poissons Ratio (x) = 0.24947 0.03528
# Poissons Ratio (y) = 0.47230 -0.17467
# Poissons Ratio (z) = 0.07989 -0.20894
#
# Static dielectric constant tensor:
#      x y z
#    x 2.123250 0.006060 -0.017040 
#    y 0.006060 2.093370 -0.015470 
#    z -0.017040 -0.015470 1.927450 
# 
# From -- ./inp_files/123477.got.cif
#   From: 2010.05.17/outbox.cif.g08.bks.cpg/sg2_62_cif.got.tgz:123477.got - 2010.06.03 11:33:40.
