data_PCOD9094839
_publ_section_title
;
Structure prediction by ZEFSAII (Michael W. Deem and Ramdas Pophale) SiO2 
 PCOD9094839
Probable space group: P -1
;
_chemical_formula_sum "Si O2"
_cell_formula_units_Z 15
_cell_length_a 13.735294
_cell_length_b 8.441471
_cell_length_c 11.634486
_cell_angle_alpha 109.555957
_cell_angle_beta 111.896673
_cell_angle_gamma 34.887005
_cell_volume 714.840455
_symmetry_space_group_name_H-M "P -1"
_symmetry_group_IT_number 2
_symmetry_cell_setting 'triclinic'
loop_
_space_group_symop_operation_xyz
x,y,z
-x,-y,-z
loop_
_atom_site_type_symbol
_atom_site_label
_atom_site_fract_x
_atom_site_fract_y
_atom_site_fract_z
Si Si1 0.000000 0.000000 0.000000
Si Si2 0.096004 0.668530 0.130735
Si Si3 0.053752 0.365004 0.765925
Si Si4 0.809284 0.172378 0.355819
Si Si5 0.459612 0.416494 0.861312
Si Si6 0.202145 0.029162 0.246740
Si Si7 0.331864 0.281573 0.929363
Si Si8 0.181538 0.816826 0.384386
O O1 0.063082 0.021679 0.913826
O O2 0.909683 0.969644 0.869532
O O3 0.202728 0.626930 0.266085
O O4 0.030153 0.581504 0.135011
O O5 0.206726 0.534555 0.028689
O O6 0.221224 0.266449 0.832875
O O7 0.912196 0.658818 0.712827
O O8 0.107176 0.120791 0.674912
O O9 0.666275 0.357972 0.239824
O O10 0.739943 0.299795 0.483306
O O11 0.972224 0.086324 0.378223
O O12 0.383243 0.348802 0.872547
O O13 0.634607 0.146580 0.804861
O O14 0.500000 0.500000 0.000000
O O15 0.244002 0.893281 0.355134
O O16 0.500000 0.000000 0.000000
#
# Coordination Sequence:
#
# PCOD9094839 Si02
#       8
#     1   2   2   2   2   2   2   2
#     4  10  20  34  62  84 118 154 212 240 296 378
#     4  10  21  37  64  91 119 167 208 255 305 381
#     4  11  23  37  63  92 131 162 209 260 323 376
#     4  10  23  43  65  96 121 167 211 270 305 377
#     4  12  26  39  63  93 132 164 213 261 318 371
#     4  11  23  39  63  93 120 173 201 261 313 384
#     4  12  24  37  58  96 133 160 203 270 324 367
#     4   9  21  42  69  87 123 168 221 248 310 385
#
# _framework density 20.983702999999998
#
# number of rings (size 3 to 8) (size 9 to 14) (size 15 to 20)
#    0.000    1.333    1.333    4.400   11.200    1.067 
#    0.000    1.333    0.000    8.800    0.000    0.000 
#    0.000    0.000    0.000    0.000    0.000    0.000 
#
# Total GULP energy -83544.668367 kJ/mol
# GULP energy per Si atom -5569.644558 kJ/mol
# Density = 2.093594 g / cm^3
# Si number density = 20.983703 Si / 1000 Ang^3
#
#
#
# Elastic Constant Matrix: (Units=GPa)
#
#
# Indices 1 2 3 4 5 6 
#
# 1 151.4399 16.9368 28.4837 -0.1868 -10.1232 -3.3292
# 2 16.9368 46.3001 16.3669 -8.2575 7.2921 -10.4631
# 3 28.4837 16.3669 112.8093 -5.8829 -18.3858 -3.4870
# 4 -0.1868 -8.2575 -5.8829 24.5987 0.7816 -2.5485
# 5 -10.1232 7.2921 -18.3858 0.7816 25.2377 7.1097
# 6 -3.3292 -10.4631 -3.4870 -2.5485 7.1097 27.4755
#
#
#
# Elastic Compliance Matrix: (Units=1/GPa)
#
#
# Indices 1 2 3 4 5 6 
#
# 1 0.007407 -0.003792 -0.000807 -0.001731 0.004057 -0.001859
# 2 -0.003792 0.035498 -0.006567 0.013020 -0.022381 0.019224
# 3 -0.000807 -0.006567 0.011721 -0.000184 0.011257 -0.004041
# 4 -0.001731 0.013020 -0.000184 0.046444 -0.009247 0.011426
# 5 0.004057 -0.022381 0.011257 -0.009247 0.062890 -0.023734
# 6 -0.001859 0.019224 -0.004041 0.011426 -0.023734 0.050180
#
#
# Mechanical properties :
#
#
# Convention : Reuss Voigt Hill
#
# Bulk Modulus (GPa) = 30.96511 48.23599 39.60055
# Shear Modulus (GPa) = 20.22341 32.04652 26.13497
#
# Velocity S-wave (km/s) = 3.10783 3.91219 3.53298
# Velocity P-wave (km/s) = 5.25993 6.59123 5.96285
#
# Compressibility (1/GPa) = 0.03229441
#
# Stress axis : x y z
#
# Youngs Moduli (GPa) = 135.00212 28.17037 85.31570
#
# Poissons Ratio (x) = 0.10683 0.06882
# Poissons Ratio (y) = 0.51197 0.56028
# Poissons Ratio (z) = 0.10891 0.18500
#
# Static dielectric constant tensor:
#      x y z
#    x 1.751450 -0.048750 -0.004340 
#    y -0.048750 1.576290 0.053630 
#    z -0.004340 0.053630 1.768330 
# 
# From -- ./inp_files/417885.got.cif
#   From: 2010.05.17/outbox.cif.g08.bks.cpg/sg2_209_cif.got.tgz:417885.got - 2010.06.03 11:33:40.
