data_PCOD9094494
_publ_section_title
;
Structure prediction by ZEFSAII (Michael W. Deem and Ramdas Pophale) SiO2 
 PCOD9094494
Probable space group: P -1
;
_chemical_formula_sum "Si O2"
_cell_formula_units_Z 16
_cell_length_a 20.380967
_cell_length_b 9.655019
_cell_length_c 9.821833
_cell_angle_alpha 92.785459
_cell_angle_beta 113.335829
_cell_angle_gamma 31.914547
_cell_volume 755.700128
_symmetry_space_group_name_H-M "P -1"
_symmetry_group_IT_number 2
_symmetry_cell_setting 'triclinic'
loop_
_space_group_symop_operation_xyz
x,y,z
-x,-y,-z
loop_
_atom_site_type_symbol
_atom_site_label
_atom_site_fract_x
_atom_site_fract_y
_atom_site_fract_z
Si Si1 0.138497 0.171016 0.446730
Si Si2 0.556749 0.678444 0.052433
Si Si3 0.564757 0.271736 0.811897
Si Si4 0.793681 0.698242 0.324749
Si Si5 0.826022 0.354222 0.444065
Si Si6 0.304978 0.667574 0.131332
Si Si7 0.689820 0.401899 0.560939
Si Si8 0.933650 0.684289 0.090420
O O1 0.234195 0.096508 0.632537
O O2 0.975392 0.386199 0.389168
O O3 0.067225 0.413531 0.299862
O O4 0.234399 0.882079 0.432296
O O5 0.543148 0.565733 0.133123
O O6 0.675918 0.566873 0.232424
O O7 0.637016 0.514685 0.962992
O O8 0.365712 0.059061 0.887856
O O9 0.572637 0.412397 0.763470
O O10 0.495245 0.287271 0.643013
O O11 0.759098 0.913344 0.993649
O O12 0.810950 0.546114 0.442614
O O13 0.792958 0.336049 0.559345
O O14 0.000000 0.000000 0.500000
O O15 0.308027 0.587368 0.274762
O O16 0.125171 0.055084 0.970472
O O17 0.000000 0.500000 0.000000
#
# Coordination Sequence:
#
# PCOD9094494 Si02
#       8
#     2   2   2   2   2   2   2   2
#     4  11  21  37  66  95 124 153 214 260 317 356
#     4  11  22  40  64  90 125 171 211 253 311 380
#     4   9  20  33  61  90 127 159 208 255 313 361
#     4  11  23  40  64  94 120 163 210 266 303 370
#     4  11  25  42  65  89 130 165 214 258 314 370
#     4  10  21  34  63  92 130 157 212 252 320 368
#     4  11  21  40  63  94 126 170 202 257 317 379
#     4  10  20  34  57  93 128 158 195 262 316 365
#
# _framework density 21.172422000000001
#
# number of rings (size 3 to 8) (size 9 to 14) (size 15 to 20)
#    0.750    0.750    3.750    1.875    1.750    3.000 
#    0.000    1.250    2.750    0.000    0.000    0.000 
#    0.000    0.000    0.000    0.000    0.000    0.000 
#
# Total GULP energy -89192.917804 kJ/mol
# GULP energy per Si atom -5574.557363 kJ/mol
# Density = 2.112423 g / cm^3
# Si number density = 21.172422 Si / 1000 Ang^3
#
#
#
# Elastic Constant Matrix: (Units=GPa)
#
#
# Indices 1 2 3 4 5 6 
#
# 1 94.6316 26.0747 44.2413 12.3366 -17.3677 -5.6025
# 2 26.0747 55.6052 8.7266 14.1053 -1.4157 -8.4091
# 3 44.2413 8.7266 80.0031 8.6723 -15.2794 -10.0232
# 4 12.3366 14.1053 8.6723 36.7107 -14.3117 -9.5838
# 5 -17.3677 -1.4157 -15.2794 -14.3117 36.4601 1.0121
# 6 -5.6025 -8.4091 -10.0232 -9.5838 1.0121 17.3025
#
#
#
# Elastic Compliance Matrix: (Units=1/GPa)
#
#
# Indices 1 2 3 4 5 6 
#
# 1 0.016936 -0.006964 -0.008114 -0.000142 0.004423 -0.002938
# 2 -0.006964 0.023670 0.002014 -0.007288 -0.004600 0.006648
# 3 -0.008114 0.002014 0.018668 0.001898 0.004505 0.009953
# 4 -0.000142 -0.007288 0.001898 0.040878 0.015957 0.019220
# 5 0.004423 -0.004600 0.004505 0.015957 0.037272 0.008465
# 6 -0.002938 0.006648 0.009953 0.019220 0.008465 0.075991
#
#
# Mechanical properties :
#
#
# Convention : Reuss Voigt Hill
#
# Bulk Modulus (GPa) = 30.16952 43.14724 36.65838
# Shear Modulus (GPa) = 19.95264 28.17448 24.06356
#
# Velocity S-wave (km/s) = 3.07316 3.65186 3.37494
# Velocity P-wave (km/s) = 5.18390 6.18099 5.70427
#
# Compressibility (1/GPa) = 0.03314604
#
# Stress axis : x y z
#
# Youngs Moduli (GPa) = 59.04723 42.24672 53.56621
#
# Poissons Ratio (x) = 0.29421 0.43463
# Poissons Ratio (y) = 0.41120 -0.10786
# Poissons Ratio (z) = 0.47910 -0.08506
#
# Static dielectric constant tensor:
#      x y z
#    x 1.784920 -0.004890 0.002650 
#    y -0.004890 1.768920 -0.039710 
#    z 0.002650 -0.039710 1.899580 
# 
# From -- ./inp_files/353506.got.cif
#   From: 2010.05.17/outbox.cif.g08.bks.cpg/sg2_177_cif.got.tgz:353506.got - 2010.06.03 11:33:40.
