data_PCOD9094745
_publ_section_title
;
Structure prediction by ZEFSAII (Michael W. Deem and Ramdas Pophale) SiO2 
 PCOD9094745
Probable space group: P -1
;
_chemical_formula_sum "Si O2"
_cell_formula_units_Z 14
_cell_length_a 8.297725
_cell_length_b 7.096840
_cell_length_c 14.844854
_cell_angle_alpha 77.943940
_cell_angle_beta 80.956284
_cell_angle_gamma 137.067285
_cell_volume 515.350523
_symmetry_space_group_name_H-M "P -1"
_symmetry_group_IT_number 2
_symmetry_cell_setting 'triclinic'
loop_
_space_group_symop_operation_xyz
x,y,z
-x,-y,-z
loop_
_atom_site_type_symbol
_atom_site_label
_atom_site_fract_x
_atom_site_fract_y
_atom_site_fract_z
Si Si1 0.866992 0.082982 0.089274
Si Si2 0.897656 0.074302 0.882950
Si Si3 0.643430 0.643624 0.375560
Si Si4 0.142283 0.143858 0.375475
Si Si5 0.794948 0.248871 0.621287
Si Si6 0.593768 0.179961 0.068558
Si Si7 0.212709 0.638100 0.690350
O O1 0.656436 0.050520 0.135151
O O2 0.936925 0.960675 0.152038
O O3 0.144045 0.455490 0.014194
O O4 0.801369 0.952860 0.005947
O O5 0.092650 0.437439 0.813579
O O6 0.631725 0.883688 0.871960
O O7 0.500000 0.500000 0.500000
O O8 0.423486 0.507146 0.336077
O O9 0.705198 0.478483 0.360825
O O10 0.922528 0.009964 0.337074
O O11 0.208580 0.987887 0.354499
O O12 0.000000 0.000000 0.500000
O O13 0.000000 0.500000 0.500000
O O14 0.955985 0.473905 0.672965
O O15 0.487453 0.010748 0.644561
O O16 0.500000 0.000000 0.000000
#
# Coordination Sequence:
#
# PCOD9094745 Si02
#       7
#     2   2   2   2   2   2   2
#     4   9  19  36  60  89 123 170 206 246 314 392
#     4  10  20  34  60  91 122 164 211 256 319 370
#     4   8  14  27  47  70  99 136 180 229 293 340
#     4   8  14  26  48  68  91 128 175 224 276 347
#     4  10  20  36  56  80 112 153 201 254 317 371
#     4   9  18  35  59  85 123 167 204 252 307 387
#     4  10  21  34  57  88 116 154 208 267 304 373
#
# _framework density 27.165976000000001
#
# number of rings (size 3 to 8) (size 9 to 14) (size 15 to 20)
#    0.000    2.857    0.000    0.857    2.000    0.000 
#    0.000    0.000   12.571   12.000    0.000    0.000 
#    0.000    0.000    0.000    0.000    0.000    0.000 
#
# Total GULP energy -78188.362733 kJ/mol
# GULP energy per Si atom -5584.883052 kJ/mol
# Density = 2.710414 g / cm^3
# Si number density = 27.165976 Si / 1000 Ang^3
#
#
#
# Elastic Constant Matrix: (Units=GPa)
#
#
# Indices 1 2 3 4 5 6 
#
# 1 151.5996 80.1985 20.7262 -3.1452 15.0768 42.4593
# 2 80.1985 211.2669 28.3131 -7.2390 14.1482 44.4325
# 3 20.7262 28.3131 84.7942 8.8715 6.7917 8.6860
# 4 -3.1452 -7.2390 8.8715 40.4774 -7.6218 -12.3021
# 5 15.0768 14.1482 6.7917 -7.6218 29.8414 0.9032
# 6 42.4593 44.4325 8.6860 -12.3021 0.9032 66.6418
#
#
#
# Elastic Compliance Matrix: (Units=1/GPa)
#
#
# Indices 1 2 3 4 5 6 
#
# 1 0.009606 -0.002373 -0.000580 -0.001721 -0.003893 -0.004728
# 2 -0.002373 0.006441 -0.001209 0.000176 -0.001457 -0.002573
# 3 -0.000580 -0.001209 0.013149 -0.004116 -0.003140 -0.001256
# 4 -0.001721 0.000176 -0.004116 0.029263 0.008991 0.006796
# 5 -0.003893 -0.001457 -0.003140 0.008991 0.039028 0.004992
# 6 -0.004728 -0.002573 -0.001256 0.006796 0.004992 0.021084
#
#
# Mechanical properties :
#
#
# Convention : Reuss Voigt Hill
#
# Bulk Modulus (GPa) = 47.90676 78.45961 63.18319
# Shear Modulus (GPa) = 37.35454 48.62029 42.98742
#
# Velocity S-wave (km/s) = 3.71219 4.23513 3.98225
# Velocity P-wave (km/s) = 6.00391 7.27045 6.66732
#
# Compressibility (1/GPa) = 0.02087388
#
# Stress axis : x y z
#
# Youngs Moduli (GPa) = 104.09628 155.26032 76.04926
#
# Poissons Ratio (x) = 0.36843 0.04408
# Poissons Ratio (y) = 0.24702 0.09193
# Poissons Ratio (z) = 0.06034 0.18768
#
# Static dielectric constant tensor:
#      x y z
#    x 2.203430 0.074220 -0.012490 
#    y 0.074220 2.114000 0.032040 
#    z -0.012490 0.032040 2.057440 
# 
# From -- ./inp_files/35469.got.cif
#   From: 2010.05.17/outbox.cif.g08.bks.cpg/sg2_18_cif.got.tgz:35469.got - 2010.06.03 11:33:40.
