data_PCOD9094421
_publ_section_title
;
Structure prediction by ZEFSAII (Michael W. Deem and Ramdas Pophale) SiO2 
 PCOD9094421
Probable space group: P -1
;
_chemical_formula_sum "Si O2"
_cell_formula_units_Z 16
_cell_length_a 5.205615
_cell_length_b 12.052168
_cell_length_c 16.689635
_cell_angle_alpha 61.377381
_cell_angle_beta 107.872962
_cell_angle_gamma 119.567226
_cell_volume 796.019538
_symmetry_space_group_name_H-M "P -1"
_symmetry_group_IT_number 2
_symmetry_cell_setting 'triclinic'
loop_
_space_group_symop_operation_xyz
x,y,z
-x,-y,-z
loop_
_atom_site_type_symbol
_atom_site_label
_atom_site_fract_x
_atom_site_fract_y
_atom_site_fract_z
Si Si1 0.145064 0.691507 0.031026
Si Si2 0.965649 0.388129 0.346390
Si Si3 0.286141 0.440337 0.096387
Si Si4 0.958313 0.798139 0.114163
Si Si5 0.626326 0.900589 0.912235
Si Si6 0.833621 0.597270 0.472888
Si Si7 0.361706 0.412371 0.709467
Si Si8 0.696631 0.289703 0.197075
O O1 0.313385 0.595068 0.056830
O O2 0.109570 0.710081 0.114037
O O3 0.319258 0.840222 0.954028
O O4 0.829286 0.611929 0.985558
O O5 0.015160 0.325897 0.457348
O O6 0.290146 0.492395 0.306550
O O7 0.786854 0.481933 0.317512
O O8 0.789992 0.274488 0.301661
O O9 0.555493 0.401708 0.153816
O O10 0.003089 0.352219 0.155438
O O11 0.727373 0.703133 0.190072
O O12 0.203629 0.934638 0.131031
O O13 0.823208 0.850425 0.007798
O O14 0.535825 0.830825 0.839949
O O15 0.500000 0.500000 0.500000
O O16 0.792742 0.662392 0.362905
O O17 0.000000 0.500000 0.500000
#
# Coordination Sequence:
#
# PCOD9094421 Si02
#       8
#     2   2   2   2   2   2   2   2
#     4  10  21  35  53  73 107 144 188 227 276 304
#     4  10  20  34  57  83 110 133 167 224 285 329
#     4  10  22  33  55  78 109 136 180 229 273 324
#     4  11  22  38  53  73 107 153 193 220 259 312
#     4  10  24  37  51  71 111 153 190 225 254 311
#     4   8  16  33  53  79 109 132 162 215 278 330
#     4  10  21  35  56  83 105 138 179 219 268 327
#     4  11  21  37  52  82 108 144 177 221 279 320
#
# _framework density 20.100010999999999
#
# number of rings (size 3 to 8) (size 9 to 14) (size 15 to 20)
#    0.000    2.000    1.250    1.875    7.000    1.500 
#    0.000    0.000    0.000    0.750    0.000    0.000 
#    0.000   15.250    0.000    0.000    0.000    6.625 
#
# Total GULP energy -89233.735812 kJ/mol
# GULP energy per Si atom -5577.108488 kJ/mol
# Density = 2.005426 g / cm^3
# Si number density = 20.100011 Si / 1000 Ang^3
#
#
#
# Elastic Constant Matrix: (Units=GPa)
#
#
# Indices 1 2 3 4 5 6 
#
# 1 97.7116 8.3940 14.8167 4.4325 -6.6252 -6.8755
# 2 8.3940 102.0615 53.7324 37.2333 -7.4213 8.7122
# 3 14.8167 53.7324 104.3530 49.3832 -7.5367 -2.9309
# 4 4.4325 37.2333 49.3832 39.7162 1.3220 0.0885
# 5 -6.6252 -7.4213 -7.5367 1.3220 21.2215 5.6156
# 6 -6.8755 8.7122 -2.9309 0.0885 5.6156 19.4208
#
#
#
# Elastic Compliance Matrix: (Units=1/GPa)
#
#
# Indices 1 2 3 4 5 6 
#
# 1 0.010829 -0.000752 -0.001645 0.001483 0.001521 0.003476
# 2 -0.000752 0.017740 -0.001726 -0.014682 0.009202 -0.011079
# 3 -0.001645 -0.001726 0.026116 -0.030997 0.009700 0.001470
# 4 0.001483 -0.014682 -0.030997 0.078060 -0.022840 0.008682
# 5 0.001521 0.009202 0.009700 -0.022840 0.060876 -0.019624
# 6 0.003476 -0.011079 0.001470 0.008682 -0.019624 0.063548
#
#
# Mechanical properties :
#
#
# Convention : Reuss Voigt Hill
#
# Bulk Modulus (GPa) = 21.53360 50.89026 36.21193
# Shear Modulus (GPa) = 17.80043 31.21721 24.50882
#
# Velocity S-wave (km/s) = 2.97912 3.94521 3.49570
# Velocity P-wave (km/s) = 4.75079 6.79164 5.86073
#
# Compressibility (1/GPa) = 0.04643905
#
# Stress axis : x y z
#
# Youngs Moduli (GPa) = 92.34762 56.37101 38.29125
#
# Poissons Ratio (x) = 0.04238 0.06297
# Poissons Ratio (y) = 0.06943 0.06609
# Poissons Ratio (z) = 0.15188 0.09730
#
# Static dielectric constant tensor:
#      x y z
#    x 1.782830 0.008870 0.028180 
#    y 0.008870 1.727440 0.060510 
#    z 0.028180 0.060510 1.779460 
# 
# From -- ./inp_files/548859.got.cif
#   From: 2010.05.17/outbox.cif.g08.bks.cpg/sg2_275_cif.got.tgz:548859.got - 2010.06.03 11:33:40.
