data_PCOD9094398
_publ_section_title
;
Structure prediction by ZEFSAII (Michael W. Deem and Ramdas Pophale) SiO2 
 PCOD9094398
Probable space group: P -1
;
_chemical_formula_sum "Si O2"
_cell_formula_units_Z 14
_cell_length_a 8.136014
_cell_length_b 13.347336
_cell_length_c 14.141526
_cell_angle_alpha 149.199635
_cell_angle_beta 141.525134
_cell_angle_gamma 44.997654
_cell_volume 486.335200
_symmetry_space_group_name_H-M "P -1"
_symmetry_group_IT_number 2
_symmetry_cell_setting 'triclinic'
loop_
_space_group_symop_operation_xyz
x,y,z
-x,-y,-z
loop_
_atom_site_type_symbol
_atom_site_label
_atom_site_fract_x
_atom_site_fract_y
_atom_site_fract_z
Si Si1 0.716683 0.961001 0.675722
Si Si2 0.678117 0.074629 0.337774
Si Si3 0.248918 0.797756 0.859632
Si Si4 0.331208 0.444710 0.469047
Si Si5 0.031027 0.647704 0.924756
Si Si6 0.213937 0.213404 0.631437
Si Si7 0.229763 0.331259 0.982198
O O1 0.419644 0.046248 0.641398
O O2 0.705370 0.813537 0.464230
O O3 0.816831 0.162041 0.843452
O O4 0.943522 0.889545 0.796214
O O5 0.512794 0.271737 0.466424
O O6 0.908690 0.170093 0.462367
O O7 0.439564 0.978375 0.091939
O O8 0.854206 0.862844 0.262979
O O9 0.238957 0.638402 0.642730
O O10 0.467521 0.658580 0.907546
O O11 0.500000 0.500000 0.500000
O O12 0.080346 0.362532 0.239826
O O13 0.204294 0.436810 0.844596
O O14 0.797670 0.681132 0.925506
O O15 0.000000 0.500000 0.000000
#
# Coordination Sequence:
#
# PCOD9094398 Si02
#       7
#     2   2   2   2   2   2   2
#     4  11  21  35  53  87 118 144 172 219 292 339
#     4  10  20  35  56  80 113 145 174 234 275 315
#     4  10  20  34  57  79 113 140 179 231 274 325
#     4  12  18  29  58  87 105 137 178 220 298 325
#     4  12  20  34  56  81 118 144 177 231 271 331
#     4  11  22  32  53  88 117 145 171 217 289 351
#     4  10  22  37  57  79 108 150 193 229 266 306
#
# _framework density 28.786728
#
# number of rings (size 3 to 8) (size 9 to 14) (size 15 to 20)
#    0.857    0.286    7.143    0.429    0.000    2.286 
#    0.000    2.857    0.000    1.714    0.000    0.000 
#    0.000    0.000    0.000    0.000    0.000    0.000 
#
# Total GULP energy -78050.138931 kJ/mol
# GULP energy per Si atom -5575.009924 kJ/mol
# Density = 2.872121 g / cm^3
# Si number density = 28.786728 Si / 1000 Ang^3
#
#
#
# Elastic Constant Matrix: (Units=GPa)
#
#
# Indices 1 2 3 4 5 6 
#
# 1 -2464.7748-1282.7961 1000.8496 841.4829 845.7022 -860.1366
# 2 -1282.7961 -444.3387 530.2972 452.7963 459.0006 -457.3050
# 3 1000.8496 530.2972 -247.1665 -307.1188 -348.9877 301.8025
# 4 841.4829 452.7963 -307.1188 -216.7302 -290.1446 273.9051
# 5 845.7022 459.0006 -348.9877 -290.1446 -243.0353 275.0990
# 6 -860.1366 -457.3050 301.8025 273.9051 275.0990 -220.2931
#
#
#
# Elastic Compliance Matrix: (Units=1/GPa)
#
#
# Indices 1 2 3 4 5 6 
#
# 1 0.006979 -0.003495 0.001987 0.004727 0.008973 -0.000191
# 2 -0.003495 0.004718 -0.000234 -0.001017 -0.002092 -0.000345
# 3 0.001987 -0.000234 0.008524 -0.002606 0.003236 0.005204
# 4 0.004727 -0.001017 -0.002606 0.016502 0.001811 0.002863
# 5 0.008973 -0.002092 0.003236 0.001811 0.026177 0.008682
# 6 -0.000191 -0.000345 0.005204 0.002863 0.008682 0.018456
#
#
# Mechanical properties :
#
#
# Convention : Reuss Voigt Hill
#
# Bulk Modulus (GPa) = 59.74198 -295.50873 -117.88337
# Shear Modulus (GPa) = 55.29813 -362.98713 -153.84450
#
# Velocity S-wave (km/s) = 4.38763 -11.24140 -7.31839
# Velocity P-wave (km/s) = 6.81665 16.47329 10.60431
#
# Compressibility (1/GPa) = 0.01673865
#
# Stress axis : x y z
#
# Youngs Moduli (GPa) = 143.27742 211.97485 117.31228
#
# Poissons Ratio (x) = 0.74077 -0.23315
# Poissons Ratio (y) = 0.50070 0.02746
# Poissons Ratio (z) = -0.28475 0.04962
#
# Static dielectric constant tensor:
#      x y z
#    x 2.808660 0.113640 -0.014620 
#    y 0.113640 2.485350 -0.037250 
#    z -0.014620 -0.037250 2.194280 
# 
# From -- ./inp_files/596197.got.cif
#   From: 2010.05.17/outbox.cif.g08.bks.cpg/sg2_299_cif.got.tgz:596197.got - 2010.06.03 11:33:40.
