data_PCOD9094999
_publ_section_title
;
Structure prediction by ZEFSAII (Michael W. Deem and Ramdas Pophale) SiO2 
 PCOD9094999
Probable space group: P -1
;
_chemical_formula_sum "Si O2"
_cell_formula_units_Z 14
_cell_length_a 26.520259
_cell_length_b 5.378419
_cell_length_c 11.616014
_cell_angle_alpha 95.614517
_cell_angle_beta 26.161216
_cell_angle_gamma 100.260134
_cell_volume 711.445112
_symmetry_space_group_name_H-M "P -1"
_symmetry_group_IT_number 2
_symmetry_cell_setting 'triclinic'
loop_
_space_group_symop_operation_xyz
x,y,z
-x,-y,-z
loop_
_atom_site_type_symbol
_atom_site_label
_atom_site_fract_x
_atom_site_fract_y
_atom_site_fract_z
Si Si1 0.728943 0.860722 0.299142
Si Si2 0.048669 0.012233 0.028759
Si Si3 0.024443 0.492244 0.691084
Si Si4 0.490178 0.067872 0.347410
Si Si5 0.743662 0.297745 0.884365
Si Si6 0.893610 0.127628 0.763708
Si Si7 0.382097 0.530779 0.645319
O O1 0.605235 0.951158 0.560646
O O2 0.695587 0.566200 0.313809
O O3 0.810759 0.919767 0.243645
O O4 0.806596 0.989346 0.036178
O O5 0.007728 0.245599 0.188628
O O6 0.007399 0.741064 0.164714
O O7 0.000000 0.000000 0.000000
O O8 0.162251 0.547322 0.386879
O O9 0.955157 0.393285 0.711030
O O10 0.459981 0.317571 0.482612
O O11 0.450115 0.813795 0.491390
O O12 0.629122 0.131499 0.050882
O O13 0.815224 0.142620 0.813210
O O14 0.697790 0.475546 0.080219
O O15 0.000000 0.000000 0.500000
#
# Coordination Sequence:
#
# PCOD9094999 Si02
#       7
#     2   2   2   2   2   2   2
#     4   9  21  36  58  82 118 144 209 231 293 344
#     4  11  24  44  66  85 109 150 203 264 309 351
#     4  11  25  39  59  91 118 155 197 243 307 350
#     4  10  23  33  56  84 123 163 198 230 274 342
#     4  12  20  36  57  85 131 157 196 229 284 359
#     4  11  21  36  57  90 130 169 188 237 290 356
#     4  10  20  35  51  88 119 164 192 225 278 342
#
# _framework density 19.678256000000001
#
# number of rings (size 3 to 8) (size 9 to 14) (size 15 to 20)
#    0.857    0.571    1.429    5.143    2.000    3.429 
#    0.000    0.000    0.000    1.714    0.000    0.000 
#    0.000    0.000    0.000    0.000    0.000    0.000 
#
# Total GULP energy -78059.994924 kJ/mol
# GULP energy per Si atom -5575.713923 kJ/mol
# Density = 1.963347 g / cm^3
# Si number density = 19.678256 Si / 1000 Ang^3
#
#
#
# Elastic Constant Matrix: (Units=GPa)
#
#
# Indices 1 2 3 4 5 6 
#
# 1 113.0263 10.1570 36.6669 -1.5819 -39.3722 -7.6364
# 2 10.1570 92.4415 24.0944 -6.9510 -9.2296 -2.7113
# 3 36.6669 24.0944 99.0283 -3.2677 -43.5028 -3.1400
# 4 -1.5819 -6.9510 -3.2677 28.8167 -3.1882 -5.4599
# 5 -39.3722 -9.2296 -43.5028 -3.1882 33.3293 1.1712
# 6 -7.6364 -2.7113 -3.1400 -5.4599 1.1712 24.8801
#
#
#
# Elastic Compliance Matrix: (Units=1/GPa)
#
#
# Indices 1 2 3 4 5 6 
#
# 1 0.017846 -0.000141 0.007645 0.006496 0.031419 0.006374
# 2 -0.000141 0.011788 -0.002871 0.002746 -0.000439 0.001502
# 3 0.007645 -0.002871 0.028988 0.009233 0.046761 0.005517
# 4 0.006496 0.002746 0.009233 0.041601 0.024063 0.011455
# 5 0.031419 -0.000439 0.046761 0.024063 0.129819 0.014666
# 6 0.006374 0.001502 0.005517 0.011455 0.014666 0.044832
#
#
# Mechanical properties :
#
#
# Convention : Reuss Voigt Hill
#
# Bulk Modulus (GPa) = 14.73001 49.59252 32.16127
# Shear Modulus (GPa) = 17.34689 32.97708 25.16198
#
# Velocity S-wave (km/s) = 2.97227 4.09811 3.57973
# Velocity P-wave (km/s) = 4.39100 6.90283 5.78489
#
# Compressibility (1/GPa) = 0.06788860
#
# Stress axis : x y z
#
# Youngs Moduli (GPa) = 56.03429 84.83156 34.49762
#
# Poissons Ratio (x) = 0.01198 -0.26374
# Poissons Ratio (y) = 0.00791 0.09903
# Poissons Ratio (z) = -0.42839 0.24352
#
# Static dielectric constant tensor:
#      x y z
#    x 1.764400 -0.026370 -0.089850 
#    y -0.026370 1.748610 -0.004490 
#    z -0.089850 -0.004490 1.719350 
# 
# From -- ./inp_files/473169.got.cif
#   From: 2010.05.17/outbox.cif.g08.bks.cpg/sg2_237_cif.got.tgz:473169.got - 2010.06.03 11:33:40.
