data_PCOD9094324
_publ_section_title
;
Structure prediction by ZEFSAII (Michael W. Deem and Ramdas Pophale) SiO2 
 PCOD9094324
Probable space group: P -1
;
_chemical_formula_sum "Si O2"
_cell_formula_units_Z 16
_cell_length_a 8.504270
_cell_length_b 10.015109
_cell_length_c 14.270197
_cell_angle_alpha 142.728314
_cell_angle_beta 100.062498
_cell_angle_gamma 65.568323
_cell_volume 643.320025
_symmetry_space_group_name_H-M "P -1"
_symmetry_group_IT_number 2
_symmetry_cell_setting 'triclinic'
loop_
_space_group_symop_operation_xyz
x,y,z
-x,-y,-z
loop_
_atom_site_type_symbol
_atom_site_label
_atom_site_fract_x
_atom_site_fract_y
_atom_site_fract_z
Si Si1 0.020017 0.388197 0.324491
Si Si2 0.295865 0.190711 0.393014
Si Si3 0.742631 0.357827 0.744108
Si Si4 0.106354 0.632926 0.039545
Si Si5 0.574320 0.210159 0.284224
Si Si6 0.532847 0.646423 0.171948
Si Si7 0.828804 0.815742 0.965443
Si Si8 0.236854 0.703016 0.487130
O O1 0.124707 0.221545 0.331036
O O2 0.089861 0.213787 0.144888
O O3 0.104533 0.582182 0.425720
O O4 0.807194 0.557247 0.415346
O O5 0.437858 0.166166 0.313380
O O6 0.406659 0.942045 0.323548
O O7 0.533464 0.444807 0.795313
O O8 0.789742 0.580048 0.847696
O O9 0.796621 0.190021 0.562104
O O10 0.834709 0.265670 0.805151
O O11 0.264080 0.428015 0.875823
O O12 0.978752 0.815156 0.050426
O O13 0.000000 0.500000 0.000000
O O14 0.444467 0.484355 0.386626
O O15 0.740484 0.159576 0.342993
O O16 0.646954 0.043586 0.107698
O O17 0.500000 0.500000 0.000000
#
# Coordination Sequence:
#
# PCOD9094324 Si02
#       8
#     2   2   2   2   2   2   2   2
#     4   9  21  39  62  85 114 150 193 242 285 341
#     4  10  20  38  60  86 116 151 192 237 291 337
#     4   9  19  36  55  79 112 148 187 230 278 344
#     4   9  18  33  52  79 114 146 185 231 274 333
#     4  10  20  36  61  84 113 149 190 246 286 336
#     4  10  20  34  56  84 116 152 188 234 284 341
#     4  10  20  37  59  85 113 151 196 235 285 339
#     4   9  20  37  57  84 113 147 193 237 292 339
#
# _framework density 24.870978999999998
#
# number of rings (size 3 to 8) (size 9 to 14) (size 15 to 20)
#    0.000    2.500    0.000    2.250    0.000    9.500 
#    0.000   10.625    0.000   15.750    0.000    0.000 
#    0.000    0.000    0.000    0.000    0.000    0.000 
#
# Total GULP energy -89131.984800 kJ/mol
# GULP energy per Si atom -5570.749050 kJ/mol
# Density = 2.481437 g / cm^3
# Si number density = 24.870979 Si / 1000 Ang^3
#
#
#
# Elastic Constant Matrix: (Units=GPa)
#
#
# Indices 1 2 3 4 5 6 
#
# 1 85.2838 25.8630 32.2750 -4.0931 -27.3961 -9.0549
# 2 25.8630 49.0279 36.5336 -27.1989 -16.6929 2.1785
# 3 32.2750 36.5336 141.8357 -23.0630 -42.4039 -9.6128
# 4 -4.0931 -27.1989 -23.0630 40.2610 2.0658 -8.1822
# 5 -27.3961 -16.6929 -42.4039 2.0658 35.5649 -2.2187
# 6 -9.0549 2.1785 -9.6128 -8.1822 -2.2187 20.0809
#
#
#
# Elastic Compliance Matrix: (Units=1/GPa)
#
#
# Indices 1 2 3 4 5 6 
#
# 1 0.019341 -0.007312 0.003383 0.000826 0.016280 0.013269
# 2 -0.007312 0.046015 -0.000939 0.030138 0.013409 0.005023
# 3 0.003383 -0.000939 0.015735 0.010871 0.021290 0.015942
# 4 0.000826 0.030138 0.010871 0.055845 0.026244 0.027961
# 5 0.016280 0.013409 0.021290 0.026244 0.072985 0.034835
# 6 0.013269 0.005023 0.015942 0.027961 0.034835 0.078111
#
#
# Mechanical properties :
#
#
# Convention : Reuss Voigt Hill
#
# Bulk Modulus (GPa) = 14.01427 51.72118 32.86772
# Shear Modulus (GPa) = 15.54958 31.27975 23.41467
#
# Velocity S-wave (km/s) = 2.50313 3.55023 3.07163
# Velocity P-wave (km/s) = 3.74182 6.13567 5.08172
#
# Compressibility (1/GPa) = 0.07135584
#
# Stress axis : x y z
#
# Youngs Moduli (GPa) = 51.70407 21.73212 63.55093
#
# Poissons Ratio (x) = 0.15890 -0.21500
# Poissons Ratio (y) = 0.37806 0.05966
# Poissons Ratio (z) = -0.17492 0.02040
#
# Static dielectric constant tensor:
#      x y z
#    x 2.094810 -0.071200 -0.020310 
#    y -0.071200 2.024600 -0.021050 
#    z -0.020310 -0.021050 2.099650 
# 
# From -- ./inp_files/499521.got.cif
#   From: 2010.05.17/outbox.cif.g08.bks.cpg/sg2_250_cif.got.tgz:499521.got - 2010.06.03 11:33:40.
