data_PCOD9094056
_publ_section_title
;
Structure prediction by ZEFSAII (Michael W. Deem and Ramdas Pophale) SiO2 
 PCOD9094056
Probable space group: P -1
;
_chemical_formula_sum "Si O2"
_cell_formula_units_Z 14
_cell_length_a 6.574833
_cell_length_b 5.308183
_cell_length_c 22.173435
_cell_angle_alpha 81.995904
_cell_angle_beta 125.779627
_cell_angle_gamma 108.389308
_cell_volume 594.725313
_symmetry_space_group_name_H-M "P -1"
_symmetry_group_IT_number 2
_symmetry_cell_setting 'triclinic'
loop_
_space_group_symop_operation_xyz
x,y,z
-x,-y,-z
loop_
_atom_site_type_symbol
_atom_site_label
_atom_site_fract_x
_atom_site_fract_y
_atom_site_fract_z
Si Si1 0.491261 0.745393 0.066276
Si Si2 0.079885 0.825529 0.798543
Si Si3 0.217918 0.615590 0.703776
Si Si4 0.704100 0.572698 0.836982
Si Si5 0.379035 0.548130 0.414366
Si Si6 0.084166 0.011427 0.945379
Si Si7 0.582271 0.912945 0.656055
O O1 0.342232 0.550425 0.100011
O O2 0.675662 0.990866 0.129005
O O3 0.715267 0.724786 0.057313
O O4 0.264869 0.812568 0.986441
O O5 0.180108 0.722573 0.759416
O O6 0.915719 0.581214 0.820702
O O7 0.871443 0.976991 0.734363
O O8 0.427108 0.456815 0.759463
O O9 0.375625 0.830296 0.676589
O O10 0.931718 0.490567 0.632445
O O11 0.824876 0.888703 0.864962
O O12 0.500000 0.500000 0.500000
O O13 0.426643 0.336224 0.381219
O O14 0.478237 0.847660 0.397647
O O15 0.000000 0.000000 0.000000
#
# Coordination Sequence:
#
# PCOD9094056 Si02
#       7
#     2   2   2   2   2   2   2
#     4  10  20  34  53  76 111 149 192 250 303 356
#     4   9  20  37  57  85 116 151 200 248 299 363
#     4  10  22  39  62  88 121 158 199 253 309 363
#     4  10  20  35  55  81 109 150 199 245 305 367
#     4  11  24  42  65  95 128 163 206 252 303 367
#     4  10  21  34  49  76 109 147 195 247 302 363
#     4  10  23  41  64  94 126 164 207 250 304 367
#
# _framework density 23.540281
#
# number of rings (size 3 to 8) (size 9 to 14) (size 15 to 20)
#    0.000    2.000    0.000    2.571    0.000    8.571 
#    0.000    0.000    0.000    0.000    0.000    0.000 
#    0.000    0.000    0.000    0.000    0.000    0.000 
#
# Total GULP energy -78050.741733 kJ/mol
# GULP energy per Si atom -5575.052981 kJ/mol
# Density = 2.348670 g / cm^3
# Si number density = 23.540281 Si / 1000 Ang^3
#
#
#
# Elastic Constant Matrix: (Units=GPa)
#
#
# Indices 1 2 3 4 5 6 
#
# 1 135.4009 45.0051 40.0455 -5.7282 -23.0649 32.9274
# 2 45.0051 78.0913 26.2307 -22.7859 -13.6600 9.9569
# 3 40.0455 26.2307 115.9734 -15.6656 -19.1723 1.4090
# 4 -5.7282 -22.7859 -15.6656 44.3914 7.3349 -2.9684
# 5 -23.0649 -13.6600 -19.1723 7.3349 25.6705 -5.3131
# 6 32.9274 9.9569 1.4090 -2.9684 -5.3131 34.6988
#
#
#
# Elastic Compliance Matrix: (Units=1/GPa)
#
#
# Indices 1 2 3 4 5 6 
#
# 1 0.013457 -0.005541 -0.002790 -0.003779 0.005971 -0.010476
# 2 -0.005541 0.019039 -0.000891 0.008429 0.002265 0.000899
# 3 -0.002790 -0.000891 0.010933 0.002411 0.005213 0.003463
# 4 -0.003779 0.008429 0.002411 0.028159 -0.004581 0.002777
# 5 0.005971 0.002265 0.005213 -0.004581 0.050908 0.000876
# 6 -0.010476 0.000899 0.003463 0.002777 0.000876 0.038734
#
#
# Mechanical properties :
#
#
# Convention : Reuss Voigt Hill
#
# Bulk Modulus (GPa) = 40.02223 61.33645 50.67934
# Shear Modulus (GPa) = 26.59548 35.49777 31.04662
#
# Velocity S-wave (km/s) = 3.36488 3.88746 3.63557
# Velocity P-wave (km/s) = 5.66878 6.80164 6.26088
#
# Compressibility (1/GPa) = 0.02498612
#
# Stress axis : x y z
#
# Youngs Moduli (GPa) = 74.31066 52.52317 91.46831
#
# Poissons Ratio (x) = 0.29103 0.25516
# Poissons Ratio (y) = 0.41176 0.08148
# Poissons Ratio (z) = 0.20729 0.04679
#
# Static dielectric constant tensor:
#      x y z
#    x 1.990320 -0.000270 0.000430 
#    y -0.000270 1.973260 -0.016950 
#    z 0.000430 -0.016950 1.877040 
# 
# From -- ./inp_files/8935.got.cif
#   From: 2010.05.17/outbox.cif.g08.bks.cpg/sg2_5_cif.got.tgz:8935.got - 2010.06.03 11:33:40.
