data_PCOD9094743
_publ_section_title
;
Structure prediction by ZEFSAII (Michael W. Deem and Ramdas Pophale) SiO2 
 PCOD9094743
Probable space group: P -1
;
_chemical_formula_sum "Si O2"
_cell_formula_units_Z 12
_cell_length_a 8.711725
_cell_length_b 8.993264
_cell_length_c 13.637958
_cell_angle_alpha 105.717641
_cell_angle_beta 108.634509
_cell_angle_gamma 32.022596
_cell_volume 536.869393
_symmetry_space_group_name_H-M "P -1"
_symmetry_group_IT_number 2
_symmetry_cell_setting 'triclinic'
loop_
_space_group_symop_operation_xyz
x,y,z
-x,-y,-z
loop_
_atom_site_type_symbol
_atom_site_label
_atom_site_fract_x
_atom_site_fract_y
_atom_site_fract_z
Si Si1 0.123946 0.808882 0.222691
Si Si2 0.754277 0.000008 0.508552
Si Si3 0.823667 0.296838 0.000015
Si Si4 0.324882 0.253438 0.643620
Si Si5 0.681299 0.253289 0.356315
Si Si6 0.098806 0.191023 0.222737
O O1 0.405165 0.553079 0.302557
O O2 0.109714 0.999955 0.219394
O O3 0.152528 0.687030 0.107484
O O4 0.833685 0.018536 0.265898
O O5 0.828149 0.777035 0.434702
O O6 0.051901 0.845004 0.577119
O O7 0.525134 0.155145 0.577090
O O8 0.606588 0.222826 0.434621
O O9 0.955007 0.312922 0.107541
O O10 0.500000 0.500000 0.000000
O O11 0.000000 0.000000 0.000000
O O12 0.102534 0.553204 0.697393
O O13 0.567706 0.018646 0.734028
#
# Coordination Sequence:
#
# PCOD9094743 Si02
#       6
#     2   2   2   2   2   2
#     4  11  22  39  62  93 122 157 196 260 302 359
#     4  10  26  42  62  88 120 174 200 250 292 364
#     4  10  20  34  60  91 122 151 198 247 310 352
#     4  11  24  41  63  86 128 157 211 240 307 353
#     4  11  24  41  63  86 128 157 211 240 307 353
#     4  11  22  39  62  93 122 157 196 260 302 359
#
# _framework density 22.351804000000001
#
# number of rings (size 3 to 8) (size 9 to 14) (size 15 to 20)
#    0.000    1.333    1.667    5.000    0.000    9.333 
#    0.000    0.000    0.000    6.000    0.000    0.000 
#    0.000    0.000    0.000    0.000    0.000    0.000 
#
# Total GULP energy -67135.699372 kJ/mol
# GULP energy per Si atom -5594.641614 kJ/mol
# Density = 2.230093 g / cm^3
# Si number density = 22.351804 Si / 1000 Ang^3
#
#
#
# Elastic Constant Matrix: (Units=GPa)
#
#
# Indices 1 2 3 4 5 6 
#
# 1 42.9130 13.0463 32.1764 -1.0626 0.2454 4.0304
# 2 13.0463 158.7823 49.9926 1.3873 -1.6416 -8.2120
# 3 32.1764 49.9926 160.4277 -1.1325 -1.6136 16.5824
# 4 -1.0626 1.3873 -1.1325 39.4766 3.1374 -1.8887
# 5 0.2454 -1.6416 -1.6136 3.1374 4.2591 0.5324
# 6 4.0304 -8.2120 16.5824 -1.8887 0.5324 21.7520
#
#
#
# Elastic Compliance Matrix: (Units=1/GPa)
#
#
# Indices 1 2 3 4 5 6 
#
# 1 0.027602 -0.000743 -0.005214 0.000907 -0.004367 -0.001234
# 2 -0.000743 0.007475 -0.002679 -0.000240 0.001468 0.004945
# 3 -0.005214 -0.002679 0.008866 -0.000426 0.003808 -0.006934
# 4 0.000907 -0.000240 -0.000426 0.027134 -0.020660 0.002928
# 5 -0.004367 0.001468 0.003808 -0.020660 0.253461 -0.009537
# 6 -0.001234 0.004945 -0.006934 0.002928 -0.009537 0.053842
#
#
# Mechanical properties :
#
#
# Convention : Reuss Voigt Hill
#
# Bulk Modulus (GPa) = 37.49355 61.39485 49.44420
# Shear Modulus (GPa) = 12.35961 30.89138 21.62550
#
# Velocity S-wave (km/s) = 2.35406 3.72163 3.11385
# Velocity P-wave (km/s) = 4.91930 6.78193 5.92427
#
# Compressibility (1/GPa) = 0.02667125
#
# Stress axis : x y z
#
# Youngs Moduli (GPa) = 36.22918 133.77348 112.79200
#
# Poissons Ratio (x) = 0.09940 0.58815
# Poissons Ratio (y) = 0.02692 0.30211
# Poissons Ratio (z) = 0.18892 0.35831
#
# Static dielectric constant tensor:
#      x y z
#    x 1.828060 0.027770 -0.000920 
#    y 0.027770 1.827990 -0.004750 
#    z -0.000920 -0.004750 1.929910 
# 
# From -- ./inp_files/493448.got.cif
#   From: 2010.05.17/outbox.cif.g08.bks.cpg/sg2_247_cif.got.tgz:493448.got - 2010.06.03 11:33:40.
