data_PCOD9094231
_publ_section_title
;
Structure prediction by ZEFSAII (Michael W. Deem and Ramdas Pophale) SiO2 
 PCOD9094231
Probable space group: P -1
;
_chemical_formula_sum "Si O2"
_cell_formula_units_Z 14
_cell_length_a 17.400993
_cell_length_b 11.110749
_cell_length_c 11.387503
_cell_angle_alpha 142.811430
_cell_angle_beta 39.471153
_cell_angle_gamma 149.893063
_cell_volume 642.174073
_symmetry_space_group_name_H-M "P -1"
_symmetry_group_IT_number 2
_symmetry_cell_setting 'triclinic'
loop_
_space_group_symop_operation_xyz
x,y,z
-x,-y,-z
loop_
_atom_site_type_symbol
_atom_site_label
_atom_site_fract_x
_atom_site_fract_y
_atom_site_fract_z
Si Si1 0.032436 0.004816 0.304869
Si Si2 0.463039 0.266422 0.284699
Si Si3 0.248658 0.593416 0.822978
Si Si4 0.740739 0.927250 0.088642
Si Si5 0.467681 0.442694 0.157239
Si Si6 0.873778 0.163831 0.722378
Si Si7 0.342928 0.748465 0.560506
O O1 0.855579 0.719308 0.298481
O O2 0.015633 0.219990 0.522193
O O3 0.125923 0.991430 0.288810
O O4 0.111049 0.027090 0.107517
O O5 0.500000 0.500000 0.500000
O O6 0.598412 0.260297 0.160636
O O7 0.469965 0.337212 0.196252
O O8 0.281437 0.002996 0.306123
O O9 0.314998 0.710464 0.705820
O O10 0.130347 0.631622 0.046763
O O11 0.648560 0.705839 0.124043
O O12 0.774029 0.191476 0.287345
O O13 0.605093 0.776375 0.027671
O O14 0.361887 0.532360 0.344048
O O15 0.500000 0.000000 0.500000
#
# Coordination Sequence:
#
# PCOD9094231 Si02
#       7
#     2   2   2   2   2   2   2
#     4  11  22  37  59  91 116 149 199 244 295 338
#     4  12  21  39  60  87 121 157 195 233 295 352
#     4  12  23  37  62  88 119 154 193 247 291 345
#     4  10  21  36  60  84 116 153 197 239 292 338
#     4  10  20  38  57  84 118 156 192 241 283 347
#     4  11  23  37  58  86 119 153 193 242 291 343
#     4  10  20  34  55  86 114 147 193 240 286 340
#
# _framework density 21.800943
#
# number of rings (size 3 to 8) (size 9 to 14) (size 15 to 20)
#    0.000    1.143    5.714    0.857    2.000    0.000 
#    0.000    0.714    0.000    0.857    0.000    0.000 
#    0.000    0.000    0.000    0.000    0.000    0.000 
#
# Total GULP energy -78023.440327 kJ/mol
# GULP energy per Si atom -5573.102881 kJ/mol
# Density = 2.175132 g / cm^3
# Si number density = 21.800943 Si / 1000 Ang^3
#
#
#
# Elastic Constant Matrix: (Units=GPa)
#
#
# Indices 1 2 3 4 5 6 
#
# 1 47.9633 13.7294 -5.1505 -7.6178 -3.9564 15.2014
# 2 13.7294 68.6408 16.0299 -7.5076 -3.5226 -1.6656
# 3 -5.1505 16.0299 140.7813 -11.0705 -24.3435 -4.9142
# 4 -7.6178 -7.5076 -11.0705 47.7598 1.0528 2.7423
# 5 -3.9564 -3.5226 -24.3435 1.0528 29.6326 -0.2290
# 6 15.2014 -1.6656 -4.9142 2.7423 -0.2290 33.9627
#
#
#
# Elastic Compliance Matrix: (Units=1/GPa)
#
#
# Indices 1 2 3 4 5 6 
#
# 1 0.027943 -0.005701 0.002425 0.004752 0.004778 -0.012787
# 2 -0.005701 0.016330 -0.001958 0.001042 -0.000443 0.002982
# 3 0.002425 -0.001958 0.008826 0.001965 0.007272 -0.000014
# 4 0.004752 0.001042 0.001965 0.022488 0.001546 -0.003597
# 5 0.004778 -0.000443 0.007272 0.001546 0.040244 -0.000961
# 6 -0.012787 0.002982 -0.000014 -0.003597 -0.000961 0.035596
#
#
# Mechanical properties :
#
#
# Convention : Reuss Voigt Hill
#
# Bulk Modulus (GPa) = 23.45734 34.06700 28.76217
# Shear Modulus (GPa) = 28.39208 37.78948 33.09078
#
# Velocity S-wave (km/s) = 3.61270 4.16791 3.90020
# Velocity P-wave (km/s) = 5.30898 6.23076 5.78825
#
# Compressibility (1/GPa) = 0.04263057
#
# Stress axis : x y z
#
# Youngs Moduli (GPa) = 35.78703 61.23752 113.29581
#
# Poissons Ratio (x) = 0.34910 -0.27472
# Poissons Ratio (y) = 0.20401 0.22189
# Poissons Ratio (z) = -0.08678 0.11993
#
# Static dielectric constant tensor:
#      x y z
#    x 1.748380 0.027790 -0.029780 
#    y 0.027790 1.900090 -0.017010 
#    z -0.029780 -0.017010 1.872350 
# 
# From -- ./inp_files/252122.got.cif
#   From: 2010.05.17/outbox.cif.g08.bks.cpg/sg2_127_cif.got.tgz:252122.got - 2010.06.03 11:33:40.
