data_PCOD9094038
_publ_section_title
;
Structure prediction by ZEFSAII (Michael W. Deem and Ramdas Pophale) SiO2 
 PCOD9094038
Probable space group: P -1
;
_chemical_formula_sum "Si O2"
_cell_formula_units_Z 14
_cell_length_a 9.007966
_cell_length_b 15.124148
_cell_length_c 19.302519
_cell_angle_alpha 19.537206
_cell_angle_beta 115.638455
_cell_angle_gamma 104.320066
_cell_volume 671.261449
_symmetry_space_group_name_H-M "P -1"
_symmetry_group_IT_number 2
_symmetry_cell_setting 'triclinic'
loop_
_space_group_symop_operation_xyz
x,y,z
-x,-y,-z
loop_
_atom_site_type_symbol
_atom_site_label
_atom_site_fract_x
_atom_site_fract_y
_atom_site_fract_z
Si Si1 0.252960 0.843333 0.740147
Si Si2 0.373369 0.119016 0.681963
Si Si3 0.491152 0.590649 0.307130
Si Si4 0.686739 0.663922 0.766015
Si Si5 0.207722 0.253557 0.690253
Si Si6 0.170699 0.926592 0.517210
Si Si7 0.581755 0.468953 0.266349
O O1 0.314097 0.747258 0.743688
O O2 0.337571 0.003686 0.686188
O O3 0.266497 0.567260 0.991169
O O4 0.021350 0.082109 0.508924
O O5 0.423286 0.379759 0.485138
O O6 0.201621 0.228334 0.623807
O O7 0.542399 0.801557 0.987588
O O8 0.631317 0.652733 0.335609
O O9 0.619049 0.418108 0.391964
O O10 0.309658 0.917726 0.998386
O O11 0.614540 0.534199 0.786141
O O12 0.500000 0.000000 0.500000
O O13 0.851701 0.736675 0.730393
O O14 0.000000 0.500000 0.500000
O O15 0.260166 0.784311 0.566136
#
# Coordination Sequence:
#
# PCOD9094038 Si02
#       7
#     2   2   2   2   2   2   2
#     4  10  21  34  53  82 118 148 193 243 275 339
#     4  10  21  39  59  84 116 148 189 237 288 346
#     4  10  21  41  62  85 120 149 185 241 291 347
#     4   9  18  33  53  74 106 155 192 227 277 328
#     4  10  23  41  63  89 112 148 192 236 293 354
#     4  10  20  34  52  82 116 154 194 234 283 330
#     4   9  20  34  56  83 112 151 194 228 281 343
#
# _framework density 20.856255999999998
#
# number of rings (size 3 to 8) (size 9 to 14) (size 15 to 20)
#    0.000    2.286    0.000    1.714    2.000    8.000 
#    2.571    0.000    0.000    0.000    0.000    0.000 
#    0.000    0.000    0.000    0.000    0.000    0.000 
#
# Total GULP energy -78008.549651 kJ/mol
# GULP energy per Si atom -5572.039261 kJ/mol
# Density = 2.080879 g / cm^3
# Si number density = 20.856256 Si / 1000 Ang^3
#
#
#
# Elastic Constant Matrix: (Units=GPa)
#
#
# Indices 1 2 3 4 5 6 
#
# 1 64.6486 4.1785 23.0507 -10.0877 -16.0880 2.7735
# 2 4.1785 76.8843 15.2161 3.5787 -6.8808 -12.0256
# 3 23.0507 15.2161 72.9637 -8.9748 -31.7963 11.0567
# 4 -10.0877 3.5787 -8.9748 28.0953 3.7101 -5.6111
# 5 -16.0880 -6.8808 -31.7963 3.7101 36.4371 -7.1073
# 6 2.7735 -12.0256 11.0567 -5.6111 -7.1073 30.3495
#
#
#
# Elastic Compliance Matrix: (Units=1/GPa)
#
#
# Indices 1 2 3 4 5 6 
#
# 1 0.018676 0.000122 -0.003260 0.005305 0.005222 0.001733
# 2 0.000122 0.015141 -0.004136 -0.001857 0.000931 0.007369
# 3 -0.003260 -0.004136 0.024673 0.003792 0.017862 -0.005445
# 4 0.005305 -0.001857 0.003792 0.039697 0.002287 0.005273
# 5 0.005222 0.000931 0.017862 0.002287 0.046182 0.004622
# 6 0.001733 0.007369 -0.005445 0.005273 0.004622 0.039752
#
#
# Mechanical properties :
#
#
# Convention : Reuss Voigt Hill
#
# Bulk Modulus (GPa) = 22.75699 33.26521 28.01110
# Shear Modulus (GPa) = 23.43942 30.44647 26.94295
#
# Velocity S-wave (km/s) = 3.35603 3.82491 3.59812
# Velocity P-wave (km/s) = 5.09434 5.95743 5.54271
#
# Compressibility (1/GPa) = 0.04394255
#
# Stress axis : x y z
#
# Youngs Moduli (GPa) = 53.54564 66.04668 40.52949
#
# Poissons Ratio (x) = -0.00803 0.13211
# Poissons Ratio (y) = -0.00651 0.16761
# Poissons Ratio (z) = 0.17454 0.27314
#
# Static dielectric constant tensor:
#      x y z
#    x 1.854310 0.029650 0.026570 
#    y 0.029650 1.871320 0.016720 
#    z 0.026570 0.016720 1.775230 
# 
# From -- ./inp_files/46680.got.cif
#   From: 2010.05.17/outbox.cif.g08.bks.cpg/sg2_24_cif.got.tgz:46680.got - 2010.06.03 11:33:40.
