data_PCOD9094526
_publ_section_title
;
Structure prediction by ZEFSAII (Michael W. Deem and Ramdas Pophale) SiO2 
 PCOD9094526
Probable space group: P -1
;
_chemical_formula_sum "Si O2"
_cell_formula_units_Z 16
_cell_length_a 19.218194
_cell_length_b 7.960487
_cell_length_c 13.943228
_cell_angle_alpha 124.612282
_cell_angle_beta 20.046630
_cell_angle_gamma 119.193444
_cell_volume 593.790079
_symmetry_space_group_name_H-M "P -1"
_symmetry_group_IT_number 2
_symmetry_cell_setting 'triclinic'
loop_
_space_group_symop_operation_xyz
x,y,z
-x,-y,-z
loop_
_atom_site_type_symbol
_atom_site_label
_atom_site_fract_x
_atom_site_fract_y
_atom_site_fract_z
Si Si1 0.455680 0.353175 0.598150
Si Si2 0.202366 0.706356 0.347507
Si Si3 0.544364 0.913748 0.658991
Si Si4 0.917463 0.810357 0.340027
Si Si5 0.014900 0.290081 0.180040
Si Si6 0.969372 0.160095 0.989251
Si Si7 0.570801 0.578364 0.689646
Si Si8 0.128543 0.072497 0.270239
O O1 0.500000 0.500000 0.500000
O O2 0.491200 0.139891 0.423857
O O3 0.577327 0.374725 0.547120
O O4 0.211599 0.404299 0.956049
O O5 0.146259 0.638217 0.503913
O O6 0.216468 0.955604 0.416626
O O7 0.390926 0.593043 0.005291
O O8 0.997420 0.730825 0.555063
O O9 0.782721 0.928982 0.352834
O O10 0.524359 0.745222 0.715077
O O11 0.363870 0.094533 0.983163
O O12 0.020487 0.709937 0.077196
O O13 0.759030 0.663228 0.527160
O O14 0.111647 0.867947 0.162790
O O15 0.923045 0.266148 0.185151
O O16 0.112357 0.049719 0.999173
O O17 0.000000 0.000000 0.500000
#
# Coordination Sequence:
#
# PCOD9094526 Si02
#       8
#     2   2   2   2   2   2   2   2
#     4   9  19  30  49  70  94 127 162 197 228 284
#     4   9  18  27  48  74  97 122 154 200 238 281
#     4   9  16  31  48  73  97 127 159 190 239 278
#     4   8  17  28  48  75  94 122 159 200 234 275
#     4   9  16  30  47  74  96 121 157 200 241 273
#     4   8  15  29  51  67  99 121 154 204 234 278
#     4  10  16  30  48  72  97 126 163 194 228 276
#     4  10  18  29  47  76 102 123 150 198 243 284
#
# _framework density 26.945547999999999
#
# number of rings (size 3 to 8) (size 9 to 14) (size 15 to 20)
#    0.750    2.250    1.250    1.125    0.000    1.500 
#    0.000    3.125    0.000    0.000    0.000    1.750 
#    0.000    0.000    0.000    0.000    0.000    0.000 
#
# Total GULP energy -89131.498526 kJ/mol
# GULP energy per Si atom -5570.718658 kJ/mol
# Density = 2.688422 g / cm^3
# Si number density = 26.945548 Si / 1000 Ang^3
#
#
#
# Elastic Constant Matrix: (Units=GPa)
#
#
# Indices 1 2 3 4 5 6 
#
# 1 73.9272 4.0933 22.0336 -7.8905 30.7182 12.4244
# 2 4.0933 59.8808 19.4719 -2.2367 5.8726 3.2263
# 3 22.0336 19.4719 144.3570 -21.9744 47.8864 3.1538
# 4 -7.8905 -2.2367 -21.9744 27.5379 1.4965 5.1606
# 5 30.7182 5.8726 47.8864 1.4965 39.4436 -1.1787
# 6 12.4244 3.2263 3.1538 5.1606 -1.1787 30.0079
#
#
#
# Elastic Compliance Matrix: (Units=1/GPa)
#
#
# Indices 1 2 3 4 5 6 
#
# 1 0.037233 -0.000450 0.016567 0.031208 -0.050958 -0.024477
# 2 -0.000450 0.017556 -0.002717 -0.000691 0.001024 -0.001256
# 3 0.016567 -0.002717 0.023663 0.028669 -0.042782 -0.015665
# 4 0.031208 -0.000691 0.028669 0.077425 -0.062891 -0.031646
# 5 -0.050958 0.001024 -0.042782 -0.062891 0.120437 0.041031
# 6 -0.024477 -0.001256 -0.015665 -0.031646 0.041031 0.052294
#
#
# Mechanical properties :
#
#
# Convention : Reuss Voigt Hill
#
# Bulk Modulus (GPa) = 9.50101 41.04029 25.27065
# Shear Modulus (GPa) = 14.84155 34.90231 24.87193
#
# Velocity S-wave (km/s) = 2.34945 3.60292 3.04146
# Velocity P-wave (km/s) = 3.30054 5.70718 4.66184
#
# Compressibility (1/GPa) = 0.10525192
#
# Stress axis : x y z
#
# Youngs Moduli (GPa) = 26.85793 56.96217 42.26004
#
# Poissons Ratio (x) = 0.02565 -0.70013
# Poissons Ratio (y) = 0.01209 0.11480
# Poissons Ratio (z) = -0.44496 0.15474
#
# Static dielectric constant tensor:
#      x y z
#    x 2.262970 0.007680 -0.047260 
#    y 0.007680 2.247120 0.006710 
#    z -0.047260 0.006710 2.201560 
# 
# From -- ./inp_files/540851.got.cif
#   From: 2010.05.17/outbox.cif.g08.bks.cpg/sg2_271_cif.got.tgz:540851.got - 2010.06.03 11:33:40.
