data_PCOD9094873
_publ_section_title
;
Structure prediction by ZEFSAII (Michael W. Deem and Ramdas Pophale) SiO2 
 PCOD9094873
Probable space group: P -1
;
_chemical_formula_sum "Si O2"
_cell_formula_units_Z 16
_cell_length_a 7.452939
_cell_length_b 11.138260
_cell_length_c 12.580882
_cell_angle_alpha 54.399469
_cell_angle_beta 76.789902
_cell_angle_gamma 48.795979
_cell_volume 618.058509
_symmetry_space_group_name_H-M "P -1"
_symmetry_group_IT_number 2
_symmetry_cell_setting 'triclinic'
loop_
_space_group_symop_operation_xyz
x,y,z
-x,-y,-z
loop_
_atom_site_type_symbol
_atom_site_label
_atom_site_fract_x
_atom_site_fract_y
_atom_site_fract_z
Si Si1 0.567640 0.339026 0.160105
Si Si2 0.537577 0.216848 0.439943
Si Si3 0.033571 0.221276 0.819169
Si Si4 0.818305 0.692773 0.853664
Si Si5 0.794704 0.483426 0.519654
Si Si6 0.909629 0.763148 0.586293
Si Si7 0.013574 0.923311 0.899981
Si Si8 0.531319 0.070536 0.849188
O O1 0.540517 0.347965 0.285891
O O2 0.402558 0.289149 0.171115
O O3 0.854373 0.164850 0.183877
O O4 0.500000 0.500000 0.000000
O O5 0.470588 0.305856 0.522376
O O6 0.309647 0.227225 0.434896
O O7 0.780538 0.990084 0.504917
O O8 0.851019 0.348833 0.682365
O O9 0.245492 0.232602 0.775038
O O10 0.944433 0.240674 0.942199
O O11 0.136494 0.002075 0.894492
O O12 0.967101 0.671895 0.742433
O O13 0.682077 0.891113 0.837750
O O14 0.000000 0.500000 0.000000
O O15 0.000000 0.500000 0.500000
O O16 0.866512 0.366104 0.460651
O O17 0.721265 0.097989 0.836285
O O18 0.500000 0.000000 0.000000
#
# Coordination Sequence:
#
# PCOD9094873 Si02
#       8
#     2   2   2   2   2   2   2   2
#     4  11  20  34  61  92 130 172 213 272 330 385
#     4   9  19  35  58  96 125 166 228 264 320 398
#     4  10  20  37  62  94 129 168 219 268 325 391
#     4  11  23  40  60  94 131 165 218 274 330 397
#     4  10  20  34  62  97 124 172 225 266 321 397
#     4   9  20  36  60  90 128 171 219 275 322 390
#     4  10  20  36  61  93 129 172 212 272 335 383
#     4  10  22  38  61  94 130 170 212 267 325 399
#
# _framework density 25.887515
#
# number of rings (size 3 to 8) (size 9 to 14) (size 15 to 20)
#    0.000    2.000    1.250    2.250    5.250    5.000 
#    0.000    0.000    0.000    7.500    0.000    0.000 
#    0.000    0.000    0.000    0.000    0.000    0.000 
#
# Total GULP energy -89354.712087 kJ/mol
# GULP energy per Si atom -5584.669505 kJ/mol
# Density = 2.582859 g / cm^3
# Si number density = 25.887515 Si / 1000 Ang^3
#
#
#
# Elastic Constant Matrix: (Units=GPa)
#
#
# Indices 1 2 3 4 5 6 
#
# 1 88.9865 15.5802 16.4284 9.3441 -18.5445 -4.6782
# 2 15.5802 173.8080 78.7222 51.1927 -9.7097 -16.9359
# 3 16.4284 78.7222 151.7537 25.1383 -3.0039 -11.0592
# 4 9.3441 51.1927 25.1383 48.8842 -5.5914 -6.3096
# 5 -18.5445 -9.7097 -3.0039 -5.5914 30.7246 5.1233
# 6 -4.6782 -16.9359 -11.0592 -6.3096 5.1233 17.9091
#
#
#
# Elastic Compliance Matrix: (Units=1/GPa)
#
#
# Indices 1 2 3 4 5 6 
#
# 1 0.013145 0.000124 -0.001125 -0.001159 0.007607 0.000272
# 2 0.000124 0.010307 -0.003652 -0.008288 0.000734 0.004394
# 3 -0.001125 -0.003652 0.008783 -0.000384 -0.001367 0.001932
# 4 -0.001159 -0.008288 -0.000384 0.029978 0.001822 0.001663
# 5 0.007607 0.000734 -0.001367 0.001822 0.039016 -0.008682
# 6 0.000272 0.004394 0.001932 0.001663 -0.008682 0.064326
#
#
# Mechanical properties :
#
#
# Convention : Reuss Voigt Hill
#
# Bulk Modulus (GPa) = 43.61440 70.66777 57.14108
# Shear Modulus (GPa) = 27.39647 39.75807 33.57727
#
# Velocity S-wave (km/s) = 3.25666 3.92318 3.60536
# Velocity P-wave (km/s) = 5.57004 6.91947 6.28110
#
# Compressibility (1/GPa) = 0.02292821
#
# Stress axis : x y z
#
# Youngs Moduli (GPa) = 76.07534 97.02222 113.85063
#
# Poissons Ratio (x) = -0.01203 0.12808
# Poissons Ratio (y) = -0.00943 0.41584
# Poissons Ratio (z) = 0.08558 0.35437
#
# Static dielectric constant tensor:
#      x y z
#    x 2.048370 -0.002720 0.038870 
#    y -0.002720 2.101090 -0.062220 
#    z 0.038870 -0.062220 2.127430 
# 
# From -- ./inp_files/392056.got.cif
#   From: 2010.05.17/outbox.cif.g08.bks.cpg/sg2_197_cif.got.tgz:392056.got - 2010.06.03 11:33:40.
