data_PCOD9094199
_publ_section_title
;
Structure prediction by ZEFSAII (Michael W. Deem and Ramdas Pophale) SiO2 
 PCOD9094199
Probable space group: P -1
;
_chemical_formula_sum "Si O2"
_cell_formula_units_Z 16
_cell_length_a 5.992555
_cell_length_b 11.980547
_cell_length_c 7.993979
_cell_angle_alpha 95.674052
_cell_angle_beta 102.560605
_cell_angle_gamma 86.859439
_cell_volume 557.112452
_symmetry_space_group_name_H-M "P -1"
_symmetry_group_IT_number 2
_symmetry_cell_setting 'triclinic'
loop_
_space_group_symop_operation_xyz
x,y,z
-x,-y,-z
loop_
_atom_site_type_symbol
_atom_site_label
_atom_site_fract_x
_atom_site_fract_y
_atom_site_fract_z
Si Si1 0.707782 0.902060 0.417433
Si Si2 0.968885 0.303351 0.538586
Si Si3 0.238065 0.439173 0.838253
Si Si4 0.001073 0.656929 0.914089
Si Si5 0.571703 0.416064 0.348377
Si Si6 0.717700 0.233706 0.790139
Si Si7 0.853349 0.934081 0.101241
Si Si8 0.334433 0.175416 0.244331
O O1 0.506356 0.833666 0.286612
O O2 0.629924 0.910759 0.604183
O O3 0.933335 0.822857 0.480066
O O4 0.778068 0.979466 0.280524
O O5 0.839736 0.378272 0.393376
O O6 0.770431 0.304139 0.646072
O O7 0.183404 0.366400 0.654748
O O8 0.448750 0.511027 0.816146
O O9 0.027970 0.529660 0.841557
O O10 0.189810 0.354139 0.969648
O O11 0.916600 0.762019 0.804194
O O12 0.249025 0.688539 0.032993
O O13 0.500000 0.500000 0.500000
O O14 0.466071 0.291666 0.308990
O O15 0.947280 0.156138 0.830052
O O16 0.650359 0.887348 0.942548
O O17 0.000000 0.000000 0.000000
#
# Coordination Sequence:
#
# PCOD9094199 Si02
#       8
#     2   2   2   2   2   2   2   2
#     4  11  22  43  72  91 132 172 210 275 335 389
#     4  10  20  38  57  89 131 176 222 268 315 375
#     4  10  20  34  55  82 131 180 220 277 318 360
#     4   9  20  39  56  89 130 172 231 271 318 383
#     4  12  23  34  59  96 136 177 230 271 319 385
#     4   9  20  40  67  92 127 170 211 266 329 395
#     4  10  25  47  70 102 131 158 213 277 335 408
#     4  11  23  41  66  97 128 176 221 260 334 394
#
# _framework density 28.719515000000001
#
# number of rings (size 3 to 8) (size 9 to 14) (size 15 to 20)
#    0.000    1.750    1.250    3.375    1.750    1.500 
#    0.000    0.625    0.000    0.000    0.000    0.000 
#    0.000    0.000    0.000    0.000    0.000    0.000 
#
# Total GULP energy -89133.389468 kJ/mol
# GULP energy per Si atom -5570.836842 kJ/mol
# Density = 2.865415 g / cm^3
# Si number density = 28.719515 Si / 1000 Ang^3
#
#
#
# Elastic Constant Matrix: (Units=GPa)
#
#
# Indices 1 2 3 4 5 6 
#
# 1 60.4892 13.8649 28.9707 10.4104 -14.4138 4.8191
# 2 13.8649 94.7076 53.4664 -4.8515 -7.3492 36.4804
# 3 28.9707 53.4664 189.9623 -38.4428 -8.5661 13.9927
# 4 10.4104 -4.8515 -38.4428 58.5806 8.3136 -6.1609
# 5 -14.4138 -7.3492 -8.5661 8.3136 49.6311 1.3374
# 6 4.8191 36.4804 13.9927 -6.1609 1.3374 40.1013
#
#
#
# Elastic Compliance Matrix: (Units=1/GPa)
#
#
# Indices 1 2 3 4 5 6 
#
# 1 0.021987 0.000822 -0.004697 -0.008283 0.007172 -0.003263
# 2 0.000822 0.020112 -0.005204 -0.004215 0.003492 -0.017342
# 3 -0.004697 -0.005204 0.008437 0.006566 -0.001871 0.003426
# 4 -0.008283 -0.004215 0.006566 0.024045 -0.006097 0.006436
# 5 0.007172 0.003492 -0.001871 -0.006097 0.023585 -0.005109
# 6 -0.003263 -0.017342 0.003426 0.006436 -0.005109 0.041069
#
#
# Mechanical properties :
#
#
# Convention : Reuss Voigt Hill
#
# Bulk Modulus (GPa) = 30.88520 59.75146 45.31833
# Shear Modulus (GPa) = 29.72897 46.25308 37.99103
#
# Velocity S-wave (km/s) = 3.22086 4.01747 3.64102
# Velocity P-wave (km/s) = 4.96078 6.50926 5.78705
#
# Compressibility (1/GPa) = 0.03237797
#
# Stress axis : x y z
#
# Youngs Moduli (GPa) = 45.48048 49.72264 118.52038
#
# Poissons Ratio (x) = -0.04086 0.55669
# Poissons Ratio (y) = -0.03737 0.61677
# Poissons Ratio (z) = 0.21362 0.25875
#
# Static dielectric constant tensor:
#      x y z
#    x 2.310700 0.060800 -0.113370 
#    y 0.060800 2.257620 0.103080 
#    z -0.113370 0.103080 2.617040 
# 
# From -- ./inp_files/135173.got.cif
#   From: 2010.05.17/outbox.cif.g08.bks.cpg/sg2_68_cif.got.tgz:135173.got - 2010.06.03 11:33:40.
