data_PCOD9094110
_publ_section_title
;
Structure prediction by ZEFSAII (Michael W. Deem and Ramdas Pophale) SiO2 
 PCOD9094110
Probable space group: P -1
;
_chemical_formula_sum "Si O2"
_cell_formula_units_Z 14
_cell_length_a 13.259939
_cell_length_b 18.553250
_cell_length_c 8.921970
_cell_angle_alpha 49.296107
_cell_angle_beta 69.702863
_cell_angle_gamma 30.247494
_cell_volume 690.511454
_symmetry_space_group_name_H-M "P -1"
_symmetry_group_IT_number 2
_symmetry_cell_setting 'triclinic'
loop_
_space_group_symop_operation_xyz
x,y,z
-x,-y,-z
loop_
_atom_site_type_symbol
_atom_site_label
_atom_site_fract_x
_atom_site_fract_y
_atom_site_fract_z
Si Si1 0.173916 0.465301 0.085630
Si Si2 0.667019 0.072606 0.166014
Si Si3 0.781042 0.784689 0.599683
Si Si4 0.836830 0.254300 0.529151
Si Si5 0.692110 0.485792 0.813848
Si Si6 0.498024 0.656680 0.355035
Si Si7 0.793599 0.237500 0.247269
O O1 0.425407 0.266491 0.130635
O O2 0.138085 0.384066 0.266671
O O3 0.199214 0.516554 0.140951
O O4 0.955209 0.666310 0.813214
O O5 0.775932 0.879530 0.365148
O O6 0.594234 0.176158 0.905742
O O7 0.880904 0.963883 0.280185
O O8 0.500000 0.000000 0.500000
O O9 0.689834 0.450770 0.428626
O O10 0.720773 0.244940 0.643976
O O11 0.786449 0.306918 0.307680
O O12 0.621899 0.571941 0.567153
O O13 0.446921 0.636152 0.811441
O O14 0.848307 0.264408 0.044813
O O15 0.000000 0.000000 0.500000
#
# Coordination Sequence:
#
# PCOD9094110 Si02
#       7
#     2   2   2   2   2   2   2
#     4  10  20  38  60  82 107 137 183 236 275 318
#     4  11  19  34  59  82 107 145 186 224 267 321
#     4   9  20  36  60  85 103 134 185 233 277 325
#     4  10  21  36  54  79 113 155 187 215 261 321
#     4  10  21  35  52  80 113 143 177 225 275 316
#     4  10  22  35  51  81 120 151 180 216 264 330
#     4  10  20  34  54  79 108 145 187 225 263 314
#
# _framework density 20.274826000000001
#
# number of rings (size 3 to 8) (size 9 to 14) (size 15 to 20)
#    0.000    2.000    0.000    3.857    0.000    8.000 
#    0.000    0.714    0.000   12.000    0.000    0.000 
#    0.000    0.000    0.000    0.000    0.000    0.000 
#
# Total GULP energy -78144.585836 kJ/mol
# GULP energy per Si atom -5581.756131 kJ/mol
# Density = 2.022868 g / cm^3
# Si number density = 20.274826 Si / 1000 Ang^3
#
#
#
# Elastic Constant Matrix: (Units=GPa)
#
#
# Indices 1 2 3 4 5 6 
#
# 1 123.5051 23.5990 86.2507 6.5614 9.5201 12.6825
# 2 23.5990 35.3799 34.2632 -3.5492 10.4063 -3.9009
# 3 86.2507 34.2632 204.0439 11.0040 -11.8581 11.2400
# 4 6.5614 -3.5492 11.0040 26.4997 -7.2190 5.3298
# 5 9.5201 10.4063 -11.8581 -7.2190 44.9731 -4.0191
# 6 12.6825 -3.9009 11.2400 5.3298 -4.0191 22.9702
#
#
#
# Elastic Compliance Matrix: (Units=1/GPa)
#
#
# Indices 1 2 3 4 5 6 
#
# 1 0.013121 -0.003853 -0.004712 -0.001694 -0.003926 -0.005887
# 2 -0.003853 0.041444 -0.006646 0.004891 -0.008872 0.009730
# 3 -0.004712 -0.006646 0.008437 -0.001743 0.004347 -0.001491
# 4 -0.001694 0.004891 -0.001743 0.042154 0.004971 -0.006293
# 5 -0.003926 -0.008872 0.004347 0.004971 0.027256 0.002150
# 6 -0.005887 0.009730 -0.001491 -0.006293 0.002150 0.051003
#
#
# Mechanical properties :
#
#
# Convention : Reuss Voigt Hill
#
# Bulk Modulus (GPa) = 30.69321 72.35055 51.52188
# Shear Modulus (GPa) = 22.25226 33.47634 27.86430
#
# Velocity S-wave (km/s) = 3.31650 4.06782 3.71122
# Velocity P-wave (km/s) = 5.46232 7.60429 6.62051
#
# Compressibility (1/GPa) = 0.03258049
#
# Stress axis : x y z
#
# Youngs Moduli (GPa) = 76.21561 24.12915 118.52067
#
# Poissons Ratio (x) = 0.09297 0.55844
# Poissons Ratio (y) = 0.29365 0.78769
# Poissons Ratio (z) = 0.35911 0.16036
#
# Static dielectric constant tensor:
#      x y z
#    x 1.744440 -0.003340 -0.043070 
#    y -0.003340 1.757010 -0.041440 
#    z -0.043070 -0.041440 1.820210 
# 
# From -- ./inp_files/34464.got.cif
#   From: 2010.05.17/outbox.cif.g08.bks.cpg/sg2_18_cif.got.tgz:34464.got - 2010.06.03 11:33:40.
