data_PCOD9094652
_publ_section_title
;
Structure prediction by ZEFSAII (Michael W. Deem and Ramdas Pophale) SiO2 
 PCOD9094652
Probable space group: P -1
;
_chemical_formula_sum "Si O2"
_cell_formula_units_Z 14
_cell_length_a 15.888250
_cell_length_b 14.704515
_cell_length_c 8.656598
_cell_angle_alpha 140.791850
_cell_angle_beta 145.653727
_cell_angle_gamma 33.457623
_cell_volume 604.542413
_symmetry_space_group_name_H-M "P -1"
_symmetry_group_IT_number 2
_symmetry_cell_setting 'triclinic'
loop_
_space_group_symop_operation_xyz
x,y,z
-x,-y,-z
loop_
_atom_site_type_symbol
_atom_site_label
_atom_site_fract_x
_atom_site_fract_y
_atom_site_fract_z
Si Si1 0.813262 0.941421 0.039749
Si Si2 0.380386 0.731370 0.288035
Si Si3 0.877935 0.618056 0.609100
Si Si4 0.238836 0.768844 0.466549
Si Si5 0.739563 0.420705 0.308870
Si Si6 0.823867 0.476168 0.813770
Si Si7 0.392647 0.145362 0.150356
O O1 0.022866 0.869510 0.256205
O O2 0.724364 0.142227 0.216403
O O3 0.793052 0.822465 0.724332
O O4 0.735805 0.889640 0.996741
O O5 0.315307 0.770792 0.417803
O O6 0.548950 0.535747 0.258176
O O7 0.460231 0.844247 0.513970
O O8 0.240064 0.735152 0.962693
O O9 0.755798 0.549084 0.387248
O O10 0.000000 0.500000 0.500000
O O11 0.011905 0.568807 0.891077
O O12 0.290765 0.578333 0.335152
O O13 0.873680 0.370623 0.589363
O O14 0.717794 0.672497 0.862647
O O15 0.500000 0.000000 0.000000
#
# Coordination Sequence:
#
# PCOD9094652 Si02
#       7
#     2   2   2   2   2   2   2
#     4  10  20  37  60  87 121 165 199 248 309 361
#     4  10  20  37  58  88 126 164 199 249 308 357
#     4  11  21  38  64  92 124 161 205 255 308 365
#     4  10  21  36  61  89 124 158 205 252 305 364
#     4  10  20  34  59  89 121 160 208 249 296 365
#     4  10  22  38  64  92 123 162 211 250 302 369
#     4  11  21  39  65  90 123 164 206 253 306 366
#
# _framework density 23.158010999999998
#
# number of rings (size 3 to 8) (size 9 to 14) (size 15 to 20)
#    0.000    1.714    4.286    2.143    2.000    2.286 
#    0.000    1.429    0.000    7.714    0.000    0.000 
#    0.000    0.000    0.000    0.000    0.000    0.000 
#
# Total GULP energy -77955.094556 kJ/mol
# GULP energy per Si atom -5568.221040 kJ/mol
# Density = 2.310530 g / cm^3
# Si number density = 23.158011 Si / 1000 Ang^3
#
#
#
# Elastic Constant Matrix: (Units=GPa)
#
#
# Indices 1 2 3 4 5 6 
#
# 1 125.1285 17.3792 15.4847 4.5507 8.0012 -30.6012
# 2 17.3792 29.7186 20.2129 17.8558 5.0459 -4.8040
# 3 15.4847 20.2129 110.3620 17.5400 -7.3478 -10.8789
# 4 4.5507 17.8558 17.5400 26.8322 -2.2555 -4.9596
# 5 8.0012 5.0459 -7.3478 -2.2555 45.2592 12.0691
# 6 -30.6012 -4.8040 -10.8789 -4.9596 12.0691 27.8978
#
#
#
# Elastic Compliance Matrix: (Units=1/GPa)
#
#
# Indices 1 2 3 4 5 6 
#
# 1 0.013250 -0.007083 -0.000119 0.005142 -0.005762 0.016674
# 2 -0.007083 0.067492 -0.005595 -0.041133 -0.008734 -0.001863
# 3 -0.000119 -0.005595 0.010859 -0.002861 0.001767 0.001867
# 4 0.005142 -0.041133 -0.002861 0.067400 0.004588 0.007438
# 5 -0.005762 -0.008734 0.001767 0.004588 0.029716 -0.019176
# 6 0.016674 -0.001863 0.001867 0.007438 -0.019176 0.064161
#
#
# Mechanical properties :
#
#
# Convention : Reuss Voigt Hill
#
# Bulk Modulus (GPa) = 15.14995 41.26252 28.20624
# Shear Modulus (GPa) = 16.64037 34.14002 25.39020
#
# Velocity S-wave (km/s) = 2.68350 3.84372 3.31477
# Velocity P-wave (km/s) = 4.01967 6.12825 5.18234
#
# Compressibility (1/GPa) = 0.06600683
#
# Stress axis : x y z
#
# Youngs Moduli (GPa) = 75.47446 14.81650 92.08937
#
# Poissons Ratio (x) = 0.10494 0.01095
# Poissons Ratio (y) = 0.53457 0.51527
# Poissons Ratio (z) = 0.00898 0.08290
#
# Static dielectric constant tensor:
#      x y z
#    x 1.876770 -0.011200 0.009560 
#    y -0.011200 1.983690 -0.044030 
#    z 0.009560 -0.044030 2.024370 
# 
# From -- ./inp_files/316127.got.cif
#   From: 2010.05.17/outbox.cif.g08.bks.cpg/sg2_159_cif.got.tgz:316127.got - 2010.06.03 11:33:40.
