data_PCOD9094608
_publ_section_title
;
Structure prediction by ZEFSAII (Michael W. Deem and Ramdas Pophale) SiO2 
 PCOD9094608
Probable space group: P -1
;
_chemical_formula_sum "Si O2"
_cell_formula_units_Z 14
_cell_length_a 9.329206
_cell_length_b 9.215854
_cell_length_c 10.017635
_cell_angle_alpha 114.847420
_cell_angle_beta 47.116299
_cell_angle_gamma 97.821026
_cell_volume 557.934810
_symmetry_space_group_name_H-M "P -1"
_symmetry_group_IT_number 2
_symmetry_cell_setting 'triclinic'
loop_
_space_group_symop_operation_xyz
x,y,z
-x,-y,-z
loop_
_atom_site_type_symbol
_atom_site_label
_atom_site_fract_x
_atom_site_fract_y
_atom_site_fract_z
Si Si1 0.951537 0.361185 0.376117
Si Si2 0.356591 0.573568 0.929793
Si Si3 0.308119 0.028911 0.279466
Si Si4 0.377743 0.362511 0.423584
Si Si5 0.926480 0.674054 0.186389
Si Si6 0.613917 0.722594 0.041225
Si Si7 0.976736 0.996489 0.302424
O O1 0.763290 0.462895 0.454855
O O2 0.000000 0.500000 0.500000
O O3 0.151678 0.306880 0.142751
O O4 0.910297 0.189582 0.387756
O O5 0.408209 0.621254 0.764897
O O6 0.503628 0.638552 0.963500
O O7 0.125402 0.649809 0.147918
O O8 0.406188 0.378241 0.850811
O O9 0.331235 0.211306 0.309586
O O10 0.148745 0.032146 0.499162
O O11 0.210209 0.970094 0.187126
O O12 0.505872 0.911138 0.166554
O O13 0.287404 0.320261 0.606058
O O14 0.934111 0.848510 0.180050
O O15 0.000000 0.500000 0.000000
#
# Coordination Sequence:
#
# PCOD9094608 Si02
#       7
#     2   2   2   2   2   2   2
#     4  12  21  35  60  99 131 160 190 256 322 383
#     4  11  22  36  63  90 126 163 202 249 318 362
#     4  10  20  34  58  94 127 157 194 255 318 383
#     4  11  23  40  63  94 127 160 205 257 318 372
#     4  11  25  45  63  87 122 172 221 255 294 361
#     4  11  22  33  60 100 133 153 199 245 325 392
#     4  10  21  35  60  87 130 159 205 250 315 360
#
# _framework density 25.092538000000001
#
# number of rings (size 3 to 8) (size 9 to 14) (size 15 to 20)
#    0.000    1.143    5.714    0.857    4.000    1.714 
#    0.000    0.714    0.000    4.286    0.000    0.000 
#    0.000    0.000    0.000    0.000    0.000    0.000 
#
# Total GULP energy -78085.808757 kJ/mol
# GULP energy per Si atom -5577.557768 kJ/mol
# Density = 2.503543 g / cm^3
# Si number density = 25.092538 Si / 1000 Ang^3
#
#
#
# Elastic Constant Matrix: (Units=GPa)
#
#
# Indices 1 2 3 4 5 6 
#
# 1 20.8006 27.0812 17.0052 1.3549 1.3914 -2.4409
# 2 27.0812 223.8061 38.2837 12.9885 8.3062 -1.3664
# 3 17.0052 38.2837 108.3998 -6.9116 -19.5875 2.9121
# 4 1.3549 12.9885 -6.9116 51.4853 1.0469 -5.7616
# 5 1.3914 8.3062 -19.5875 1.0469 31.9934 16.5302
# 6 -2.4409 -1.3664 2.9121 -5.7616 16.5302 35.8275
#
#
#
# Elastic Compliance Matrix: (Units=1/GPa)
#
#
# Indices 1 2 3 4 5 6 
#
# 1 0.067174 -0.005497 -0.011627 -0.000282 -0.014870 0.012127
# 2 -0.005497 0.005617 -0.001737 -0.001332 -0.002782 0.001050
# 3 -0.011627 -0.001737 0.014526 0.001479 0.014092 -0.008303
# 4 -0.000282 -0.001332 0.001479 0.020405 -0.001315 0.003698
# 5 -0.014870 -0.002782 0.014092 -0.001315 0.055902 -0.028268
# 6 0.012127 0.001050 -0.008303 0.003698 -0.028268 0.043090
#
#
# Mechanical properties :
#
#
# Convention : Reuss Voigt Hill
#
# Bulk Modulus (GPa) = 20.16342 57.52741 38.84542
# Shear Modulus (GPa) = 19.15925 41.90366 30.53146
#
# Velocity S-wave (km/s) = 2.76623 4.09095 3.49198
# Velocity P-wave (km/s) = 4.27268 6.72982 5.63676
#
# Compressibility (1/GPa) = 0.04959475
#
# Stress axis : x y z
#
# Youngs Moduli (GPa) = 14.88664 178.01612 68.83974
#
# Poissons Ratio (x) = 0.97857 0.80042
# Poissons Ratio (y) = 0.08183 0.11961
# Poissons Ratio (z) = 0.17309 0.30929
#
# Static dielectric constant tensor:
#      x y z
#    x 2.038620 0.039970 0.063020 
#    y 0.039970 2.075940 0.038000 
#    z 0.063020 0.038000 2.046930 
# 
# From -- ./inp_files/175484.got.cif
#   From: 2010.05.17/outbox.cif.g08.bks.cpg/sg2_88_cif.got.tgz:175484.got - 2010.06.03 11:33:40.
