data_PCOD9094386
_publ_section_title
;
Structure prediction by ZEFSAII (Michael W. Deem and Ramdas Pophale) SiO2 
 PCOD9094386
Probable space group: P -1
;
_chemical_formula_sum "Si O2"
_cell_formula_units_Z 11
_cell_length_a 5.822230
_cell_length_b 7.786905
_cell_length_c 16.741490
_cell_angle_alpha 144.692729
_cell_angle_beta 101.691360
_cell_angle_gamma 91.316294
_cell_volume 405.095396
_symmetry_space_group_name_H-M "P -1"
_symmetry_group_IT_number 2
_symmetry_cell_setting 'triclinic'
loop_
_space_group_symop_operation_xyz
x,y,z
-x,-y,-z
loop_
_atom_site_type_symbol
_atom_site_label
_atom_site_fract_x
_atom_site_fract_y
_atom_site_fract_z
Si Si1 0.243587 0.256062 0.573960
Si Si2 0.500000 0.500000 0.500000
Si Si3 0.985872 0.751583 0.720732
Si Si4 0.316635 0.754054 0.287652
Si Si5 0.566326 0.904514 0.199917
Si Si6 0.108744 0.690890 0.998146
O O1 0.168862 0.565725 0.689598
O O2 0.505139 0.296106 0.650389
O O3 0.286438 0.102148 0.432484
O O4 0.000000 0.000000 0.500000
O O5 0.504920 0.222747 0.333338
O O6 0.763144 0.499656 0.563120
O O7 0.146089 0.002535 0.761820
O O8 0.929953 0.970990 0.867673
O O9 0.464717 0.735550 0.211214
O O10 0.044510 0.504631 0.160520
O O11 0.400219 0.746485 0.051728
O O12 0.000000 0.500000 0.000000
#
# Coordination Sequence:
#
# PCOD9094386 Si02
#       6
#     2   1   2   2   2   2
#     4  11  25  43  65  92 131 179 219 260 325 393
#     4  10  20  34  56  92 128 156 210 268 306 368
#     4  11  23  40  66  98 126 172 221 265 327 385
#     4  10  23  43  63  94 135 170 212 269 322 385
#     4  10  20  38  67  94 124 165 216 271 323 376
#     4   9  22  40  62  97 133 165 212 272 325 381
#
# _framework density 27.154097
#
# number of rings (size 3 to 8) (size 9 to 14) (size 15 to 20)
#    0.000    1.818    0.000    2.727    0.000   16.727 
#    0.000    1.818    0.000    0.000    0.000    0.000 
#    0.000    0.000    0.000    0.000    0.000    0.000 
#
# Total GULP energy -61373.779790 kJ/mol
# GULP energy per Si atom -5579.434526 kJ/mol
# Density = 2.709229 g / cm^3
# Si number density = 27.154097 Si / 1000 Ang^3
#
#
#
# Elastic Constant Matrix: (Units=GPa)
#
#
# Indices 1 2 3 4 5 6 
#
# 1 82.2037 24.0731 50.3769 -12.8181 4.8037 -5.2065
# 2 24.0731 71.3644 42.1068 -1.5325 -0.7469 -33.9294
# 3 50.3769 42.1068 192.2187 -14.2217 9.4871 -35.0300
# 4 -12.8181 -1.5325 -14.2217 34.8979 -18.3546 2.5193
# 5 4.8037 -0.7469 9.4871 -18.3546 70.0297 1.4979
# 6 -5.2065 -33.9294 -35.0300 2.5193 1.4979 66.0057
#
#
#
# Elastic Compliance Matrix: (Units=1/GPa)
#
#
# Indices 1 2 3 4 5 6 
#
# 1 0.016229 -0.004877 -0.003447 0.004926 0.000662 -0.003260
# 2 -0.004877 0.021267 -0.001784 -0.002286 -0.000003 0.009688
# 3 -0.003447 -0.001784 0.007063 0.001083 -0.000510 0.002530
# 4 0.004926 -0.002286 0.001083 0.035592 0.008857 -0.001771
# 5 0.000662 -0.000003 -0.000510 0.008857 0.016645 -0.000936
# 6 -0.003260 0.009688 0.002530 -0.001771 -0.000936 0.021305
#
#
# Mechanical properties :
#
#
# Convention : Reuss Voigt Hill
#
# Bulk Modulus (GPa) = 41.08104 64.32226 52.70165
# Shear Modulus (GPa) = 34.14585 49.46865 41.80725
#
# Velocity S-wave (km/s) = 3.54995 4.27286 3.92807
# Velocity P-wave (km/s) = 5.65372 6.93414 6.32641
#
# Compressibility (1/GPa) = 0.02434213
#
# Stress axis : x y z
#
# Youngs Moduli (GPa) = 61.61953 47.02031 141.58511
#
# Poissons Ratio (x) = 0.22934 0.48805
# Poissons Ratio (y) = 0.30055 0.25257
# Poissons Ratio (z) = 0.21241 0.08388
#
# Static dielectric constant tensor:
#      x y z
#    x 2.262320 0.131860 0.013120 
#    y 0.131860 2.233620 0.041330 
#    z 0.013120 0.041330 2.085630 
# 
# From -- ./inp_files/41982.got.cif
#   From: 2010.05.17/outbox.cif.g08.bks.cpg/sg2_21_cif.got.tgz:41982.got - 2010.06.03 11:33:40.
