data_PCOD9094397
_publ_section_title
;
Structure prediction by ZEFSAII (Michael W. Deem and Ramdas Pophale) SiO2 
 PCOD9094397
Probable space group: P -1
;
_chemical_formula_sum "Si O2"
_cell_formula_units_Z 16
_cell_length_a 9.090709
_cell_length_b 5.128054
_cell_length_c 16.719840
_cell_angle_alpha 91.686752
_cell_angle_beta 102.765573
_cell_angle_gamma 125.413823
_cell_volume 607.251321
_symmetry_space_group_name_H-M "P -1"
_symmetry_group_IT_number 2
_symmetry_cell_setting 'triclinic'
loop_
_space_group_symop_operation_xyz
x,y,z
-x,-y,-z
loop_
_atom_site_type_symbol
_atom_site_label
_atom_site_fract_x
_atom_site_fract_y
_atom_site_fract_z
Si Si1 0.335784 0.083370 0.383212
Si Si2 0.022360 0.156787 0.598271
Si Si3 0.282862 0.634461 0.516913
Si Si4 0.342776 0.542291 0.903097
Si Si5 0.245519 0.572387 0.240093
Si Si6 0.600050 0.308369 0.914442
Si Si7 0.370767 0.151522 0.667437
Si Si8 0.867344 0.354571 0.246133
O O1 0.305419 0.802043 0.437893
O O2 0.302634 0.911718 0.291246
O O3 0.188781 0.139212 0.404212
O O4 0.550073 0.384782 0.433946
O O5 0.078974 0.312002 0.517380
O O6 0.199546 0.174041 0.647714
O O7 0.040152 0.421332 0.662713
O O8 0.327667 0.916039 0.587399
O O9 0.434804 0.358529 0.893218
O O10 0.180213 0.478633 0.824440
O O11 0.507834 0.929316 0.914516
O O12 0.287586 0.499129 0.989251
O O13 0.275928 0.576310 0.149449
O O14 0.406909 0.550825 0.297711
O O15 0.024795 0.317516 0.232537
O O16 0.328089 0.951621 0.743199
#
# Coordination Sequence:
#
# PCOD9094397 Si02
#       8
#     2   2   2   2   2   2   2   2
#     4   9  19  36  54  81 113 148 198 247 296 362
#     4  10  20  34  57  79 110 155 196 244 299 358
#     4   9  19  36  55  74 114 152 190 252 298 352
#     4  10  21  40  66  92 125 161 204 250 303 368
#     4  10  20  38  58  84 117 157 197 247 305 365
#     4  10  21  40  66  93 123 164 201 250 308 364
#     4  10  20  36  55  82 113 153 201 244 301 358
#     4  10  21  36  57  85 118 155 197 248 297 363
#
# _framework density 26.348236
#
# number of rings (size 3 to 8) (size 9 to 14) (size 15 to 20)
#    0.000    2.250    1.250    1.125    0.000    2.000 
#    4.500    5.625    0.000    4.500    0.000    0.000 
#    0.000    0.000    0.000    0.000    0.000    0.000 
#
# Total GULP energy -89438.666294 kJ/mol
# GULP energy per Si atom -5589.916643 kJ/mol
# Density = 2.628827 g / cm^3
# Si number density = 26.348236 Si / 1000 Ang^3
#
#
#
# Elastic Constant Matrix: (Units=GPa)
#
#
# Indices 1 2 3 4 5 6 
#
# 1 168.7974 10.9046 55.1505 -14.7590 -19.9823 22.2065
# 2 10.9046 55.7338 -11.3946 4.5638 -11.3784 6.8280
# 3 55.1505 -11.3946 120.5797 -17.5760 -23.1158 9.1761
# 4 -14.7590 4.5638 -17.5760 18.7548 1.6183 -1.7802
# 5 -19.9823 -11.3784 -23.1158 1.6183 59.6433 -1.5618
# 6 22.2065 6.8280 9.1761 -1.7802 -1.5618 47.5996
#
#
#
# Elastic Compliance Matrix: (Units=1/GPa)
#
#
# Indices 1 2 3 4 5 6 
#
# 1 0.007736 -0.001855 -0.002803 0.003578 0.000986 -0.002637
# 2 -0.001855 0.020588 0.003299 -0.004035 0.004623 -0.002723
# 3 -0.002803 0.003299 0.011858 0.007657 0.004052 -0.001033
# 4 0.003578 -0.004035 0.007657 0.064139 0.001653 -0.000113
# 5 0.000986 0.004623 0.004052 0.001653 0.019472 -0.001203
# 6 -0.002637 -0.002723 -0.001033 -0.000113 -0.001203 0.022785
#
#
# Mechanical properties :
#
#
# Convention : Reuss Voigt Hill
#
# Bulk Modulus (GPa) = 26.69147 50.49243 38.59195
# Shear Modulus (GPa) = 30.90544 44.56290 37.73417
#
# Velocity S-wave (km/s) = 3.42857 4.11701 3.78846
# Velocity P-wave (km/s) = 5.08190 6.46566 5.81509
#
# Compressibility (1/GPa) = 0.03746516
#
# Stress axis : x y z
#
# Youngs Moduli (GPa) = 129.26327 48.57239 84.32922
#
# Poissons Ratio (x) = 0.09012 0.23634
# Poissons Ratio (y) = 0.23983 -0.27823
# Poissons Ratio (z) = 0.36227 -0.16026
#
# Static dielectric constant tensor:
#      x y z
#    x 2.167550 0.046400 0.059540 
#    y 0.046400 2.187480 0.008380 
#    z 0.059540 0.008380 2.098030 
# 
# From -- ./inp_files/56289.got.cif
#   From: 2010.05.17/outbox.cif.g08.bks.cpg/sg2_29_cif.got.tgz:56289.got - 2010.06.03 11:33:40.
