data_PCOD9094454
_publ_section_title
;
Structure prediction by ZEFSAII (Michael W. Deem and Ramdas Pophale) SiO2 
 PCOD9094454
Probable space group: P -1
;
_chemical_formula_sum "Si O2"
_cell_formula_units_Z 16
_cell_length_a 23.426288
_cell_length_b 8.917711
_cell_length_c 8.972499
_cell_angle_alpha 99.490503
_cell_angle_beta 149.148045
_cell_angle_gamma 102.468345
_cell_volume 670.785643
_symmetry_space_group_name_H-M "P -1"
_symmetry_group_IT_number 2
_symmetry_cell_setting 'triclinic'
loop_
_space_group_symop_operation_xyz
x,y,z
-x,-y,-z
loop_
_atom_site_type_symbol
_atom_site_label
_atom_site_fract_x
_atom_site_fract_y
_atom_site_fract_z
Si Si1 0.068420 0.252794 0.893929
Si Si2 0.576328 0.317697 0.791886
Si Si3 0.291939 0.559274 0.220853
Si Si4 0.098606 0.749732 0.248363
Si Si5 0.340810 0.960879 0.402580
Si Si6 0.684912 0.289362 0.308926
Si Si7 0.136832 0.992455 0.130050
Si Si8 0.451083 0.400520 0.039577
O O1 0.124194 0.328622 0.861229
O O2 0.206679 0.486533 0.324134
O O3 0.073921 0.084305 0.929792
O O4 0.914075 0.178282 0.609680
O O5 0.649541 0.405433 0.809990
O O6 0.411996 0.068751 0.415584
O O7 0.548468 0.453889 0.827627
O O8 0.696175 0.339954 0.167749
O O9 0.426687 0.602234 0.622886
O O10 0.286586 0.735825 0.260344
O O11 0.262686 0.834096 0.576630
O O12 0.032131 0.793031 0.975527
O O13 0.000000 0.500000 0.000000
O O14 0.213066 0.957119 0.170822
O O15 0.498432 0.130630 0.885528
O O16 0.274649 0.174131 0.584005
O O17 0.500000 0.500000 0.000000
#
# Coordination Sequence:
#
# PCOD9094454 Si02
#       8
#     2   2   2   2   2   2   2   2
#     4  11  21  37  56  84 114 149 197 233 277 335
#     4  10  21  37  54  84 120 151 184 229 286 347
#     4  12  22  34  56  85 119 155 184 226 289 340
#     4  10  22  36  57  86 112 147 193 242 280 329
#     4  10  20  34  57  86 118 147 186 233 287 345
#     4   9  19  38  56  83 117 144 191 236 286 327
#     4  12  20  36  61  87 113 149 184 241 291 328
#     4  12  20  37  58  88 119 146 184 237 286 345
#
# _framework density 23.852630000000001
#
# number of rings (size 3 to 8) (size 9 to 14) (size 15 to 20)
#    0.750    0.500    3.750    4.125    0.000    1.500 
#    0.000    0.625    0.000    0.750    0.000    0.000 
#    0.000    0.000    0.000    0.000    0.000    0.000 
#
# Total GULP energy -89339.181843 kJ/mol
# GULP energy per Si atom -5583.698865 kJ/mol
# Density = 2.379834 g / cm^3
# Si number density = 23.852630 Si / 1000 Ang^3
#
#
#
# Elastic Constant Matrix: (Units=GPa)
#
#
# Indices 1 2 3 4 5 6 
#
# 1 138.2269 75.3728 7.5020 -14.5480 8.4619 16.0314
# 2 75.3728 172.8651 9.3965 -6.7652 7.3545 -3.9106
# 3 7.5020 9.3965 23.5140 -1.1507 4.4717 -1.8541
# 4 -14.5480 -6.7652 -1.1507 22.8153 5.5058 10.6514
# 5 8.4619 7.3545 4.4717 5.5058 22.0141 -6.0361
# 6 16.0314 -3.9106 -1.8541 10.6514 -6.0361 57.6924
#
#
#
# Elastic Compliance Matrix: (Units=1/GPa)
#
#
# Indices 1 2 3 4 5 6 
#
# 1 0.012261 -0.004695 -0.000540 0.011359 -0.007698 -0.006645
# 2 -0.004695 0.007873 -0.001682 -0.001916 0.000599 0.002201
# 3 -0.000540 -0.001682 0.045340 0.003818 -0.009450 -0.000200
# 4 0.011359 -0.001916 0.003818 0.065267 -0.025735 -0.017906
# 5 -0.007698 0.000599 -0.009450 -0.025735 0.060081 0.012913
# 6 -0.006645 0.002201 -0.000200 -0.017906 0.012913 0.023980
#
#
# Mechanical properties :
#
#
# Convention : Reuss Voigt Hill
#
# Bulk Modulus (GPa) = 19.36481 57.68319 38.52400
# Shear Modulus (GPa) = 20.33754 36.66002 28.49878
#
# Velocity S-wave (km/s) = 2.92316 3.92463 3.46032
# Velocity P-wave (km/s) = 4.41919 6.69124 5.67018
#
# Compressibility (1/GPa) = 0.05164007
#
# Stress axis : x y z
#
# Youngs Moduli (GPa) = 81.55623 127.01940 22.05535
#
# Poissons Ratio (x) = 0.59638 0.01191
# Poissons Ratio (y) = 0.38292 0.03710
# Poissons Ratio (z) = 0.04403 0.21368
#
# Static dielectric constant tensor:
#      x y z
#    x 2.017460 0.062020 0.052200 
#    y 0.062020 1.978610 0.051580 
#    z 0.052200 0.051580 1.991670 
# 
# From -- ./inp_files/341945.got.cif
#   From: 2010.05.17/outbox.cif.g08.bks.cpg/sg2_171_cif.got.tgz:341945.got - 2010.06.03 11:33:40.
