data_PCOD9094055
_publ_section_title
;
Structure prediction by ZEFSAII (Michael W. Deem and Ramdas Pophale) SiO2 
 PCOD9094055
Probable space group: P -1
;
_chemical_formula_sum "Si O2"
_cell_formula_units_Z 8
_cell_length_a 8.832486
_cell_length_b 8.832435
_cell_length_c 6.281353
_cell_angle_alpha 62.934850
_cell_angle_beta 117.065373
_cell_angle_gamma 114.634251
_cell_volume 374.727804
_symmetry_space_group_name_H-M "P -1"
_symmetry_group_IT_number 2
_symmetry_cell_setting 'triclinic'
loop_
_space_group_symop_operation_xyz
x,y,z
-x,-y,-z
loop_
_atom_site_type_symbol
_atom_site_label
_atom_site_fract_x
_atom_site_fract_y
_atom_site_fract_z
Si Si1 0.246107 0.072014 0.281622
Si Si2 0.454017 0.863043 0.251051
Si Si3 0.863042 0.454017 0.748947
Si Si4 0.072012 0.246106 0.718377
O O1 0.369755 0.150354 0.507720
O O2 0.347028 0.951040 0.294206
O O3 0.210795 0.210798 0.999999
O O4 0.056456 0.943546 0.307933
O O5 0.323776 0.676223 0.221996
O O6 0.500000 0.000000 0.000000
O O7 0.849647 0.630247 0.507720
O O8 0.951037 0.347027 0.705789
O O9 0.000000 0.500000 0.000000
#
# Coordination Sequence:
#
# PCOD9094055 Si02
#       4
#     2   2   2   2
#     4   9  19  36  55  74  99 133 171 208 247 294
#     4  10  20  34  53  76 103 133 166 207 251 297
#     4  10  20  34  53  76 103 133 166 207 251 297
#     4   9  19  36  55  74  99 133 171 208 247 294
#
# _framework density 21.34883
#
# number of rings (size 3 to 8) (size 9 to 14) (size 15 to 20)
#    0.000    2.500    0.000    1.500    0.000    5.000 
#    0.000   10.000    0.000    0.000    0.000    0.000 
#    0.000    0.000    0.000    0.000    0.000    0.000 
#
# Total GULP energy -44673.100622 kJ/mol
# GULP energy per Si atom -5584.137578 kJ/mol
# Density = 2.130024 g / cm^3
# Si number density = 21.348830 Si / 1000 Ang^3
#
#
#
# Elastic Constant Matrix: (Units=GPa)
#
#
# Indices 1 2 3 4 5 6 
#
# 1 44.5446 36.4045 46.2040 3.6592 -0.2028 23.2845
# 2 36.4045 98.8578 97.4270 2.2340 -8.2170 51.3341
# 3 46.2040 97.4270 237.7128 -8.5838 12.2560 70.3717
# 4 3.6592 2.2340 -8.5838 35.0926 3.6312 5.3875
# 5 -0.2028 -8.2170 12.2560 3.6312 32.4496 -5.8654
# 6 23.2845 51.3341 70.3717 5.3875 -5.8654 51.0775
#
#
#
# Elastic Compliance Matrix: (Units=1/GPa)
#
#
# Indices 1 2 3 4 5 6 
#
# 1 0.033705 -0.008509 -0.001811 -0.002584 -0.001739 -0.004246
# 2 -0.008509 0.026643 -0.005093 -0.000338 0.005914 -0.015166
# 3 -0.001811 -0.005093 0.009872 0.005060 -0.007226 -0.009020
# 4 -0.002584 -0.000338 0.005060 0.032278 -0.007379 -0.009706
# 5 -0.001739 0.005914 -0.007226 -0.007379 0.037649 0.009907
# 6 -0.004246 -0.015166 -0.009020 -0.009706 0.009907 0.051344
#
#
# Mechanical properties :
#
#
# Convention : Reuss Voigt Hill
#
# Bulk Modulus (GPa) = 25.38432 82.35403 53.86918
# Shear Modulus (GPa) = 21.23605 37.12926 29.18265
#
# Velocity S-wave (km/s) = 3.15734 4.17486 3.70123
# Velocity P-wave (km/s) = 5.02073 7.86756 6.59948
#
# Compressibility (1/GPa) = 0.03939440
#
# Stress axis : x y z
#
# Youngs Moduli (GPa) = 29.66896 37.53357 101.29987
#
# Poissons Ratio (x) = 0.31937 0.18341
# Poissons Ratio (y) = 0.25245 0.51594
# Poissons Ratio (z) = 0.05372 0.19117
#
# Static dielectric constant tensor:
#      x y z
#    x 1.797450 -0.008870 0.001930 
#    y -0.008870 1.791000 -0.001350 
#    z 0.001930 -0.001350 1.737130 
# 
# From -- ./inp_files/15246.got.cif
#   From: 2010.05.17/outbox.cif.g08.bks.cpg/sg2_8_cif.got.tgz:15246.got - 2010.06.03 11:33:40.
