data_PCOD9094082
_publ_section_title
;
Structure prediction by ZEFSAII (Michael W. Deem and Ramdas Pophale) SiO2 
 PCOD9094082
Probable space group: P -1
;
_chemical_formula_sum "Si O2"
_cell_formula_units_Z 16
_cell_length_a 12.827165
_cell_length_b 18.911688
_cell_length_c 5.556222
_cell_angle_alpha 85.190014
_cell_angle_beta 99.339671
_cell_angle_gamma 34.959879
_cell_volume 703.801871
_symmetry_space_group_name_H-M "P -1"
_symmetry_group_IT_number 2
_symmetry_cell_setting 'triclinic'
loop_
_space_group_symop_operation_xyz
x,y,z
-x,-y,-z
loop_
_atom_site_type_symbol
_atom_site_label
_atom_site_fract_x
_atom_site_fract_y
_atom_site_fract_z
Si Si1 0.775165 0.098043 0.869164
Si Si2 0.395938 0.137476 0.438283
Si Si3 0.558607 0.050753 0.023019
Si Si4 0.774219 0.099470 0.372346
Si Si5 0.617122 0.343726 0.695055
Si Si6 0.048156 0.661468 0.777042
Si Si7 0.524182 0.598372 0.869936
Si Si8 0.977319 0.238155 0.758089
O O1 0.753844 0.069233 0.620798
O O2 0.641764 0.244617 0.758983
O O3 0.734644 0.084986 0.109890
O O4 0.000000 0.000000 0.000000
O O5 0.471262 0.129536 0.716424
O O6 0.158509 0.262957 0.332859
O O7 0.500000 0.000000 0.500000
O O8 0.457721 0.136169 0.206480
O O9 0.500000 0.000000 0.000000
O O10 0.795692 0.911588 0.157019
O O11 0.630458 0.249399 0.267053
O O12 0.000000 0.000000 0.500000
O O13 0.475856 0.438469 0.384379
O O14 0.827290 0.257678 0.722741
O O15 0.552933 0.401174 0.925121
O O16 0.075453 0.686981 0.524752
O O17 0.254608 0.503165 0.948780
O O18 0.029399 0.720426 0.994159
#
# Coordination Sequence:
#
# PCOD9094082 Si02
#       8
#     2   2   2   2   2   2   2   2
#     4   8  14  27  46  61  77 108 140 174 219 251
#     4  10  16  30  46  61  76 103 156 192 222 249
#     4  10  16  30  46  61  76 103 156 192 222 249
#     4   8  14  27  46  61  77 108 140 174 219 251
#     4  10  21  33  42  62  92 119 148 184 209 259
#     4  12  21  30  46  62  84 123 158 183 214 255
#     4  10  21  33  42  62  92 119 148 184 209 259
#     4  12  21  30  46  62  84 123 158 183 214 255
#
# _framework density 22.733668999999999
#
# number of rings (size 3 to 8) (size 9 to 14) (size 15 to 20)
#    0.000    2.000    5.000    1.500    0.000    3.000 
#    0.000    0.000    0.000    0.000    0.000    0.000 
#    0.000    0.000    0.000  108.000    0.000    0.000 
#
# Total GULP energy -89258.104014 kJ/mol
# GULP energy per Si atom -5578.631501 kJ/mol
# Density = 2.268193 g / cm^3
# Si number density = 22.733669 Si / 1000 Ang^3
#
#
#
# Elastic Constant Matrix: (Units=GPa)
#
#
# Indices 1 2 3 4 5 6 
#
# 1 33.0903 23.1095 23.6283 -4.9520 -4.8594 -19.2018
# 2 23.1095 105.3711 69.8064 -1.6593 -5.0043 -27.4658
# 3 23.6283 69.8064 224.4362 39.4529 3.8158 -19.7671
# 4 -4.9520 -1.6593 39.4529 79.1891 -12.6104 0.0718
# 5 -4.8594 -5.0043 3.8158 -12.6104 22.6618 -0.3336
# 6 -19.2018 -27.4658 -19.7671 0.0718 -0.3336 41.2726
#
#
#
# Elastic Compliance Matrix: (Units=1/GPa)
#
#
# Indices 1 2 3 4 5 6 
#
# 1 0.049755 -0.001855 -0.004554 0.007819 0.015669 0.019846
# 2 -0.001855 0.015074 -0.004564 0.003372 0.005679 0.007023
# 3 -0.004554 -0.004564 0.007160 -0.004891 -0.005938 -0.001766
# 4 0.007819 0.003372 -0.004891 0.017716 0.013156 0.003614
# 5 0.015669 0.005679 -0.005938 0.013156 0.057190 0.008665
# 6 0.019846 0.007023 -0.001766 0.003614 0.008665 0.037353
#
#
# Mechanical properties :
#
#
# Convention : Reuss Voigt Hill
#
# Bulk Modulus (GPa) = 19.98282 66.22067 43.10175
# Shear Modulus (GPa) = 22.43416 45.04827 33.74121
#
# Velocity S-wave (km/s) = 3.14479 4.45631 3.85671
# Velocity P-wave (km/s) = 4.68991 7.46126 6.23160
#
# Compressibility (1/GPa) = 0.05004298
#
# Stress axis : x y z
#
# Youngs Moduli (GPa) = 20.09853 66.34029 139.66843
#
# Poissons Ratio (x) = 0.12304 0.63607
# Poissons Ratio (y) = 0.03728 0.63743
# Poissons Ratio (z) = 0.09153 0.30277
#
# Static dielectric constant tensor:
#      x y z
#    x 1.867270 -0.012790 0.024650 
#    y -0.012790 1.855260 0.077480 
#    z 0.024650 0.077480 1.830060 
# 
# From -- ./inp_files/74461.got.cif
#   From: 2010.05.17/outbox.cif.g08.bks.cpg/sg2_38_cif.got.tgz:74461.got - 2010.06.03 11:33:40.
