data_PCOD9094572
_publ_section_title
;
Structure prediction by ZEFSAII (Michael W. Deem and Ramdas Pophale) SiO2 
 PCOD9094572
Probable space group: P -1
;
_chemical_formula_sum "Si O2"
_cell_formula_units_Z 14
_cell_length_a 20.950864
_cell_length_b 16.236923
_cell_length_c 6.847267
_cell_angle_alpha 122.792770
_cell_angle_beta 136.403889
_cell_angle_gamma 26.172729
_cell_volume 661.976558
_symmetry_space_group_name_H-M "P -1"
_symmetry_group_IT_number 2
_symmetry_cell_setting 'triclinic'
loop_
_space_group_symop_operation_xyz
x,y,z
-x,-y,-z
loop_
_atom_site_type_symbol
_atom_site_label
_atom_site_fract_x
_atom_site_fract_y
_atom_site_fract_z
Si Si1 0.489698 0.595406 0.824640
Si Si2 0.016175 0.201831 0.948071
Si Si3 0.160500 0.125836 0.751446
Si Si4 0.125751 0.978038 0.249377
Si Si5 0.571506 0.568109 0.405689
Si Si6 0.048622 0.558923 0.592020
Si Si7 0.564415 0.704475 0.921665
O O1 0.306039 0.781774 0.525188
O O2 0.502945 0.466251 0.711175
O O3 0.630253 0.539895 0.953197
O O4 0.487934 0.641072 0.097054
O O5 0.121844 0.139727 0.908364
O O6 0.802556 0.357987 0.635103
O O7 0.998009 0.313891 0.189004
O O8 0.127830 0.016604 0.082177
O O9 0.070521 0.306690 0.694324
O O10 0.052569 0.137293 0.415772
O O11 0.377103 0.915738 0.887191
O O12 0.000000 0.000000 0.000000
O O13 0.523925 0.705712 0.612003
O O14 0.000000 0.500000 0.500000
O O15 0.269847 0.370412 0.797604
#
# Coordination Sequence:
#
# PCOD9094572 Si02
#       7
#     2   2   2   2   2   2   2
#     4  10  20  34  58  88 123 170 220 251 305 373
#     4  10  21  41  64  90 130 168 212 262 315 378
#     4  10  23  40  61  94 127 167 212 260 319 381
#     4  10  20  37  56  89 130 173 211 255 300 368
#     4  10  20  37  58  87 124 177 213 254 304 376
#     4  10  23  44  69  93 122 163 212 272 332 383
#     4  10  22  40  61  88 131 162 208 265 319 375
#
# _framework density 21.148785
#
# number of rings (size 3 to 8) (size 9 to 14) (size 15 to 20)
#    0.000    2.000    1.429    1.286    0.000    8.571 
#   10.286    0.714    0.000    0.000    0.000    6.000 
#    0.000    0.000    0.000    0.000    0.000    0.000 
#
# Total GULP energy -78066.260945 kJ/mol
# GULP energy per Si atom -5576.161496 kJ/mol
# Density = 2.110065 g / cm^3
# Si number density = 21.148785 Si / 1000 Ang^3
#
#
#
# Elastic Constant Matrix: (Units=GPa)
#
#
# Indices 1 2 3 4 5 6 
#
# 1 160.8731 49.8409 85.5109 -15.5998 -3.6200 12.6149
# 2 49.8409 67.9274 52.2595 -21.3156 -6.5080 -12.7667
# 3 85.5109 52.2595 102.0043 -22.5581 -16.0170 -11.0737
# 4 -15.5998 -21.3156 -22.5581 31.9020 -4.4126 3.1269
# 5 -3.6200 -6.5080 -16.0170 -4.4126 54.5314 3.0255
# 6 12.6149 -12.7667 -11.0737 3.1269 3.0255 35.0877
#
#
#
# Elastic Compliance Matrix: (Units=1/GPa)
#
#
# Indices 1 2 3 4 5 6 
#
# 1 0.014508 -0.004734 -0.012217 -0.004120 -0.002959 -0.010172
# 2 -0.004734 0.029158 -0.007264 0.011362 0.001459 0.008880
# 3 -0.012217 -0.007264 0.027762 0.008831 0.006683 0.009148
# 4 -0.004120 0.011362 0.008831 0.043754 0.007001 0.003900
# 5 -0.002959 0.001459 0.006683 0.007001 0.020774 0.001289
# 6 -0.010172 0.008880 0.009148 0.003900 0.001289 0.037817
#
#
# Mechanical properties :
#
#
# Convention : Reuss Voigt Hill
#
# Bulk Modulus (GPa) = 43.48145 78.44749 60.96447
# Shear Modulus (GPa) = 21.75163 33.85044 27.80104
#
# Velocity S-wave (km/s) = 3.21051 4.00507 3.62960
# Velocity P-wave (km/s) = 5.86068 7.65253 6.81574
#
# Compressibility (1/GPa) = 0.02299831
#
# Stress axis : x y z
#
# Youngs Moduli (GPa) = 68.92673 34.29607 36.02071
#
# Poissons Ratio (x) = 0.16237 0.44006
# Poissons Ratio (y) = 0.32633 0.26164
# Poissons Ratio (z) = 0.84206 0.24911
#
# Static dielectric constant tensor:
#      x y z
#    x 1.821730 -0.014490 -0.011080 
#    y -0.014490 1.864150 -0.034260 
#    z -0.011080 -0.034260 1.783310 
# 
# From -- ./inp_files/97220.got.cif
#   From: 2010.05.17/outbox.cif.g08.bks.cpg/sg2_49_cif.got.tgz:97220.got - 2010.06.03 11:33:40.
