data_PCOD9094907
_publ_section_title
;
Structure prediction by ZEFSAII (Michael W. Deem and Ramdas Pophale) SiO2 
 PCOD9094907
Probable space group: P -1
;
_chemical_formula_sum "Si O2"
_cell_formula_units_Z 16
_cell_length_a 5.378563
_cell_length_b 16.585036
_cell_length_c 19.076905
_cell_angle_alpha 24.192288
_cell_angle_beta 72.379849
_cell_angle_gamma 66.699135
_cell_volume 632.811169
_symmetry_space_group_name_H-M "P -1"
_symmetry_group_IT_number 2
_symmetry_cell_setting 'triclinic'
loop_
_space_group_symop_operation_xyz
x,y,z
-x,-y,-z
loop_
_atom_site_type_symbol
_atom_site_label
_atom_site_fract_x
_atom_site_fract_y
_atom_site_fract_z
Si Si1 0.452629 0.311925 0.871407
Si Si2 0.631334 0.656902 0.436138
Si Si3 0.815392 0.562516 0.708910
Si Si4 0.334928 0.797594 0.208986
Si Si5 0.915663 0.114836 0.619003
Si Si6 0.951234 0.874449 0.673223
Si Si7 0.546459 0.762467 0.711618
Si Si8 0.156886 0.991404 0.829860
O O1 0.128791 0.418969 0.808526
O O2 0.551289 0.187682 0.889215
O O3 0.633551 0.467792 0.748441
O O4 0.556574 0.155130 0.051181
O O5 0.563088 0.737734 0.298139
O O6 0.752943 0.412419 0.621375
O O7 0.337353 0.724462 0.446818
O O8 0.808752 0.782155 0.357988
O O9 0.864456 0.773489 0.511903
O O10 0.658987 0.613292 0.755433
O O11 0.079544 0.982303 0.112375
O O12 0.053721 0.944657 0.800777
O O13 0.821006 0.028191 0.625544
O O14 0.254998 0.751132 0.769434
O O15 0.767061 0.737892 0.772872
O O16 0.000000 0.000000 0.500000
O O17 0.500000 0.000000 0.500000
#
# Coordination Sequence:
#
# PCOD9094907 Si02
#       8
#     2   2   2   2   2   2   2   2
#     4  12  28  43  68  95 140 180 219 266 332 402
#     4  10  22  40  67  97 132 167 227 280 325 375
#     4  12  25  43  69 102 130 172 225 276 326 387
#     4  10  22  41  65  98 124 176 227 279 319 382
#     4  11  23  39  68 101 131 170 224 276 327 388
#     4  10  20  34  64 102 127 159 211 276 328 376
#     4  10  20  36  64 100 130 157 214 282 324 378
#     4  11  26  42  64  94 139 180 217 270 336 395
#
# _framework density 25.284002000000001
#
# number of rings (size 3 to 8) (size 9 to 14) (size 15 to 20)
#    0.000    1.250    3.750    2.250    8.750    0.500 
#    0.000    0.000    0.000    4.500    0.000    0.000 
#    0.000    0.000    0.000    0.000    0.000    0.000 
#
# Total GULP energy -89588.844620 kJ/mol
# GULP energy per Si atom -5599.302789 kJ/mol
# Density = 2.522645 g / cm^3
# Si number density = 25.284002 Si / 1000 Ang^3
#
#
#
# Elastic Constant Matrix: (Units=GPa)
#
#
# Indices 1 2 3 4 5 6 
#
# 1 146.3440 33.1770 11.0831 -9.0816 9.2962 7.3280
# 2 33.1770 134.1348 17.1563 0.8231 12.5735 22.7279
# 3 11.0831 17.1563 48.3540 7.5353 9.3970 0.6108
# 4 -9.0816 0.8231 7.5353 10.6186 3.7433 5.1991
# 5 9.2962 12.5735 9.3970 3.7433 39.3764 -5.0221
# 6 7.3280 22.7279 0.6108 5.1991 -5.0221 42.9464
#
#
#
# Elastic Compliance Matrix: (Units=1/GPa)
#
#
# Indices 1 2 3 4 5 6 
#
# 1 0.008248 -0.001143 -0.002733 0.011046 -0.002282 -0.002368
# 2 -0.001143 0.009339 -0.003046 0.004290 -0.003106 -0.005586
# 3 -0.002733 -0.003046 0.026150 -0.021974 -0.002007 0.004132
# 4 0.011046 0.004290 -0.021974 0.134607 -0.014312 -0.021811
# 5 -0.002282 -0.003106 -0.002007 -0.014312 0.029693 0.007266
# 6 -0.002368 -0.005586 0.004132 -0.021811 0.007266 0.030077
#
#
# Mechanical properties :
#
#
# Convention : Reuss Voigt Hill
#
# Bulk Modulus (GPa) = 33.45246 50.18506 41.81876
# Shear Modulus (GPa) = 19.08965 36.41603 27.75284
#
# Velocity S-wave (km/s) = 2.75072 3.79922 3.31667
# Velocity P-wave (km/s) = 4.83198 6.25596 5.58950
#
# Compressibility (1/GPa) = 0.02989317
#
# Stress axis : x y z
#
# Youngs Moduli (GPa) = 121.23587 107.07913 38.24086
#
# Poissons Ratio (x) = 0.12242 0.10451
# Poissons Ratio (y) = 0.13861 0.11648
# Poissons Ratio (z) = 0.33133 0.32615
#
# Static dielectric constant tensor:
#      x y z
#    x 1.957600 -0.032240 -0.025670 
#    y -0.032240 1.943890 0.002460 
#    z -0.025670 0.002460 2.081820 
# 
# From -- ./inp_files/124744.got.cif
#   From: 2010.05.17/outbox.cif.g08.bks.cpg/sg2_63_cif.got.tgz:124744.got - 2010.06.03 11:33:40.
