data_PCOD9094921
_publ_section_title
;
Structure prediction by ZEFSAII (Michael W. Deem and Ramdas Pophale) SiO2 
 PCOD9094921
Probable space group: P -1
;
_chemical_formula_sum "Si O2"
_cell_formula_units_Z 16
_cell_length_a 15.142770
_cell_length_b 8.262977
_cell_length_c 9.240758
_cell_angle_alpha 74.265464
_cell_angle_beta 103.417559
_cell_angle_gamma 48.882238
_cell_volume 691.240901
_symmetry_space_group_name_H-M "P -1"
_symmetry_group_IT_number 2
_symmetry_cell_setting 'triclinic'
loop_
_space_group_symop_operation_xyz
x,y,z
-x,-y,-z
loop_
_atom_site_type_symbol
_atom_site_label
_atom_site_fract_x
_atom_site_fract_y
_atom_site_fract_z
Si Si1 0.646270 0.729192 0.048593
Si Si2 0.076708 0.278600 0.196866
Si Si3 0.881961 0.928278 0.358059
Si Si4 0.521805 0.071956 0.342665
Si Si5 0.301602 0.484212 0.579215
Si Si6 0.660000 0.214774 0.463095
Si Si7 0.113818 0.406898 0.719325
Si Si8 0.013216 0.991544 0.181525
O O1 0.704395 0.521954 0.245802
O O2 0.763221 0.708287 0.100921
O O3 0.606900 0.734058 0.869643
O O4 0.500000 0.000000 0.000000
O O5 0.028398 0.441527 0.285218
O O6 0.244344 0.008487 0.321445
O O7 0.006918 0.193977 0.178771
O O8 0.000000 0.500000 0.000000
O O9 0.830882 0.828882 0.289851
O O10 0.043848 0.654857 0.537425
O O11 0.897471 0.048979 0.213469
O O12 0.782550 0.088966 0.421056
O O13 0.565708 0.200659 0.365434
O O14 0.500000 0.000000 0.500000
O O15 0.637486 0.784397 0.379759
O O16 0.397407 0.518540 0.581118
O O17 0.165975 0.713765 0.369613
O O18 0.000000 0.000000 0.000000
#
# Coordination Sequence:
#
# PCOD9094921 Si02
#       8
#     2   2   2   2   2   2   2   2
#     4  10  21  40  66  90 122 180 218 264 316 381
#     4  10  23  37  61  92 129 168 207 265 336 401
#     4  10  20  37  62  99 127 167 213 264 329 401
#     4  11  26  45  70  95 128 177 226 275 328 383
#     4  10  23  44  67  91 139 165 221 276 318 401
#     4  10  24  42  65  97 128 170 220 271 332 395
#     4  10  20  34  64  88 125 169 211 265 318 382
#     4  11  23  37  62 100 136 170 209 268 345 394
#
# _framework density 23.146778000000001
#
# number of rings (size 3 to 8) (size 9 to 14) (size 15 to 20)
#    0.000    1.750    1.250    2.250    8.750    2.500 
#    0.000    0.000    0.000    0.000    0.000    0.000 
#    0.000    0.000    0.000    0.000    0.000    0.000 
#
# Total GULP energy -89138.925583 kJ/mol
# GULP energy per Si atom -5571.182849 kJ/mol
# Density = 2.309410 g / cm^3
# Si number density = 23.146778 Si / 1000 Ang^3
#
#
#
# Elastic Constant Matrix: (Units=GPa)
#
#
# Indices 1 2 3 4 5 6 
#
# 1 88.7234 1.5204 51.2026 4.1444 15.1858 20.4779
# 2 1.5204 45.0513 9.4513 3.1683 4.5408 9.9239
# 3 51.2026 9.4513 170.1639 18.4984 0.8883 7.8835
# 4 4.1444 3.1683 18.4984 31.1760 1.5265 -3.9422
# 5 15.1858 4.5408 0.8883 1.5265 44.1281 7.6784
# 6 20.4779 9.9239 7.8835 -3.9422 7.6784 27.8995
#
#
#
# Elastic Compliance Matrix: (Units=1/GPa)
#
#
# Indices 1 2 3 4 5 6 
#
# 1 0.017419 0.003484 -0.004749 -0.001125 -0.004184 -0.011690
# 2 0.003484 0.025269 -0.001555 -0.003431 -0.001715 -0.011119
# 3 -0.004749 -0.001555 0.007754 -0.003781 0.001618 0.000868
# 4 -0.001125 -0.003431 -0.003781 0.036019 -0.001951 0.008741
# 5 -0.004184 -0.001715 0.001618 -0.001951 0.024997 -0.003931
# 6 -0.011690 -0.011119 0.000868 0.008741 -0.003931 0.050450
#
#
# Mechanical properties :
#
#
# Convention : Reuss Voigt Hill
#
# Bulk Modulus (GPa) = 22.31991 47.58746 34.95369
# Shear Modulus (GPa) = 27.40002 36.75833 32.07918
#
# Velocity S-wave (km/s) = 3.44430 3.98936 3.72681
# Velocity P-wave (km/s) = 5.04790 6.46712 5.80108
#
# Compressibility (1/GPa) = 0.04480305
#
# Stress axis : x y z
#
# Youngs Moduli (GPa) = 57.40876 39.57424 128.95780
#
# Poissons Ratio (x) = -0.13789 0.61244
# Poissons Ratio (y) = -0.20004 0.20052
# Poissons Ratio (z) = 0.27264 0.06154
#
# Static dielectric constant tensor:
#      x y z
#    x 1.944250 -0.020270 -0.056260 
#    y -0.020270 1.990940 -0.000900 
#    z -0.056260 -0.000900 1.931310 
# 
# From -- ./inp_files/262597.got.cif
#   From: 2010.05.17/outbox.cif.g08.bks.cpg/sg2_132_cif.got.tgz:262597.got - 2010.06.03 11:33:40.
