data_PCOD9094942
_publ_section_title
;
Structure prediction by ZEFSAII (Michael W. Deem and Ramdas Pophale) SiO2 
 PCOD9094942
Probable space group: P -1
;
_chemical_formula_sum "Si O2"
_cell_formula_units_Z 16
_cell_length_a 14.309762
_cell_length_b 8.699871
_cell_length_c 11.314167
_cell_angle_alpha 101.190963
_cell_angle_beta 29.731134
_cell_angle_gamma 107.651517
_cell_volume 658.466242
_symmetry_space_group_name_H-M "P -1"
_symmetry_group_IT_number 2
_symmetry_cell_setting 'triclinic'
loop_
_space_group_symop_operation_xyz
x,y,z
-x,-y,-z
loop_
_atom_site_type_symbol
_atom_site_label
_atom_site_fract_x
_atom_site_fract_y
_atom_site_fract_z
Si Si1 0.511085 0.811695 0.492703
Si Si2 0.108756 0.214827 0.288115
Si Si3 0.419998 0.888381 0.853560
Si Si4 0.931918 0.397242 0.354769
Si Si5 0.973547 0.264840 0.822554
Si Si6 0.472378 0.745490 0.273658
Si Si7 0.240005 0.118724 0.379370
Si Si8 0.952495 0.805940 0.011215
O O1 0.434302 0.782519 0.705815
O O2 0.415516 0.711669 0.468165
O O3 0.718498 0.768961 0.261022
O O4 0.500000 0.000000 0.500000
O O5 0.195884 0.194350 0.316916
O O6 0.034570 0.369131 0.357926
O O7 0.300939 0.239465 0.997058
O O8 0.910010 0.062958 0.473080
O O9 0.530297 0.859731 0.845384
O O10 0.534418 0.072555 0.723636
O O11 0.188346 0.865429 0.098969
O O12 0.701431 0.375433 0.624203
O O13 0.022240 0.564312 0.212850
O O14 0.966265 0.258582 0.205131
O O15 0.174160 0.219548 0.570707
O O16 0.955125 0.252886 0.982131
O O17 0.000000 0.000000 0.000000
#
# Coordination Sequence:
#
# PCOD9094942 Si02
#       8
#     2   2   2   2   2   2   2   2
#     4  10  20  34  65 100 124 161 217 269 323 381
#     4  11  24  44  70  98 126 174 234 279 321 389
#     4  11  21  41  68  97 129 173 224 271 329 394
#     4  12  26  43  65 102 141 172 213 276 340 392
#     4  12  26  43  65 102 141 172 213 276 340 392
#     4  11  21  41  68  97 129 173 224 271 329 394
#     4  11  24  44  70  98 126 174 234 279 321 389
#     4  12  21  42  72  95 137 178 220 267 322 397
#
# _framework density 24.298888999999999
#
# number of rings (size 3 to 8) (size 9 to 14) (size 15 to 20)
#    0.000    0.750    5.000    4.875    0.000    3.000 
#    0.000    2.500    0.000    0.000    0.000    0.000 
#    0.000    0.000    0.000    0.000    0.000    0.000 
#
# Total GULP energy -89273.940318 kJ/mol
# GULP energy per Si atom -5579.621270 kJ/mol
# Density = 2.424358 g / cm^3
# Si number density = 24.298889 Si / 1000 Ang^3
#
#
#
# Elastic Constant Matrix: (Units=GPa)
#
#
# Indices 1 2 3 4 5 6 
#
# 1 167.6211 23.4435 26.9793 -7.8032 -18.8576 -40.3821
# 2 23.4435 48.8401 8.7474 -14.6058 6.4482 -13.9091
# 3 26.9793 8.7474 66.2348 -1.3523 -11.5440 -3.8761
# 4 -7.8032 -14.6058 -1.3523 27.6727 -3.4772 12.1377
# 5 -18.8576 6.4482 -11.5440 -3.4772 46.2555 6.2276
# 6 -40.3821 -13.9091 -3.8761 12.1377 6.2276 27.2705
#
#
#
# Elastic Compliance Matrix: (Units=1/GPa)
#
#
# Indices 1 2 3 4 5 6 
#
# 1 0.010482 -0.001496 -0.003018 -0.004975 0.001163 0.016278
# 2 -0.001496 0.027880 -0.003380 0.009657 -0.005764 0.008542
# 3 -0.003018 -0.003380 0.017244 0.001024 0.004319 -0.005185
# 4 -0.004975 0.009657 0.001024 0.052028 0.004353 -0.026447
# 5 0.001163 -0.005764 0.004319 0.004353 0.025426 -0.008348
# 6 0.016278 0.008542 -0.005185 -0.026447 -0.008348 0.078071
#
#
# Mechanical properties :
#
#
# Convention : Reuss Voigt Hill
#
# Bulk Modulus (GPa) = 25.11512 44.55960 34.83736
# Shear Modulus (GPa) = 20.81660 35.14147 27.97904
#
# Velocity S-wave (km/s) = 2.93010 3.80704 3.39699
# Velocity P-wave (km/s) = 4.66965 6.14025 5.45474
#
# Compressibility (1/GPa) = 0.03981665
#
# Stress axis : x y z
#
# Youngs Moduli (GPa) = 95.40451 35.86751 57.99135
#
# Poissons Ratio (x) = 0.05367 0.17503
# Poissons Ratio (y) = 0.14275 0.19602
# Poissons Ratio (z) = 0.28795 0.12124
#
# Static dielectric constant tensor:
#      x y z
#    x 1.940230 0.006750 0.032590 
#    y 0.006750 1.922670 0.024060 
#    z 0.032590 0.024060 1.949350 
# 
# From -- ./inp_files/447466.got.cif
#   From: 2010.05.17/outbox.cif.g08.bks.cpg/sg2_224_cif.got.tgz:447466.got - 2010.06.03 11:33:40.
