data_PCOD9094510
_publ_section_title
;
Structure prediction by ZEFSAII (Michael W. Deem and Ramdas Pophale) SiO2 
 PCOD9094510
Probable space group: P -1
;
_chemical_formula_sum "Si O2"
_cell_formula_units_Z 14
_cell_length_a 9.081564
_cell_length_b 9.351437
_cell_length_c 10.522990
_cell_angle_alpha 110.707486
_cell_angle_beta 97.865003
_cell_angle_gamma 124.045663
_cell_volume 624.695276
_symmetry_space_group_name_H-M "P -1"
_symmetry_group_IT_number 2
_symmetry_cell_setting 'triclinic'
loop_
_space_group_symop_operation_xyz
x,y,z
-x,-y,-z
loop_
_atom_site_type_symbol
_atom_site_label
_atom_site_fract_x
_atom_site_fract_y
_atom_site_fract_z
Si Si1 0.942452 0.350307 0.597592
Si Si2 0.619410 0.333162 0.686532
Si Si3 0.168983 0.334676 0.847599
Si Si4 0.397872 0.766007 0.063190
Si Si5 0.180446 0.044542 0.609094
Si Si6 0.906766 0.769849 0.909995
Si Si7 0.790886 0.209403 0.195629
O O1 0.752477 0.325676 0.602379
O O2 0.023014 0.315861 0.722844
O O3 0.888011 0.174971 0.442810
O O4 0.125063 0.584432 0.658327
O O5 0.662293 0.281993 0.812112
O O6 0.383830 0.169843 0.592937
O O7 0.690038 0.557911 0.779984
O O8 0.215380 0.191370 0.770544
O O9 0.366960 0.571190 0.950155
O O10 0.073571 0.275446 0.957028
O O11 0.607880 0.989505 0.154093
O O12 0.271444 0.773609 0.948404
O O13 0.000000 0.000000 0.500000
O O14 0.029961 0.776370 0.814912
O O15 0.000000 0.000000 0.000000
#
# Coordination Sequence:
#
# PCOD9094510 Si02
#       7
#     2   2   2   2   2   2   2
#     4   9  18  37  56  76 106 144 183 211 258 318
#     4  10  20  34  58  79 104 143 183 218 264 315
#     4   9  19  34  56  80 109 140 173 219 270 318
#     4   9  18  32  57  83 106 134 177 222 271 317
#     4  10  21  35  56  78 106 144 183 220 256 315
#     4  10  21  32  53  83 114 135 169 223 276 319
#     4   9  18  33  53  82 111 137 169 223 269 311
#
# _framework density 22.410924999999999
#
# number of rings (size 3 to 8) (size 9 to 14) (size 15 to 20)
#    0.000    2.571    0.000    1.286    4.000    4.571 
#    0.000    0.714    3.143    1.714    0.000    0.000 
#    0.000    0.000    0.000    0.000    0.000    0.000 
#
# Total GULP energy -78002.842523 kJ/mol
# GULP energy per Si atom -5571.631609 kJ/mol
# Density = 2.235992 g / cm^3
# Si number density = 22.410925 Si / 1000 Ang^3
#
#
#
# Elastic Constant Matrix: (Units=GPa)
#
#
# Indices 1 2 3 4 5 6 
#
# 1 80.3493 29.3944 47.5879 23.4117 -10.9081 3.8041
# 2 29.3944 118.2344 44.7244 42.3705 -10.8944 1.2816
# 3 47.5879 44.7244 126.6569 41.4660 -10.1064 2.0010
# 4 23.4117 42.3705 41.4660 50.9630 -7.3088 -2.2228
# 5 -10.9081 -10.8944 -10.1064 -7.3088 41.0255 0.0487
# 6 3.8041 1.2816 2.0010 -2.2228 0.0487 27.3742
#
#
#
# Elastic Compliance Matrix: (Units=1/GPa)
#
#
# Indices 1 2 3 4 5 6 
#
# 1 0.016965 -0.001199 -0.004876 -0.002559 0.002538 -0.002157
# 2 -0.001199 0.012410 -0.000904 -0.008911 0.001168 -0.001074
# 3 -0.004876 -0.000904 0.012402 -0.007096 0.000255 -0.000763
# 4 -0.002559 -0.008911 -0.007096 0.034347 0.001319 0.004078
# 5 0.002538 0.001168 0.000255 0.001319 0.025658 -0.000365
# 6 -0.002157 -0.001074 -0.000763 0.004078 -0.000365 0.037268
#
#
# Mechanical properties :
#
#
# Convention : Reuss Voigt Hill
#
# Bulk Modulus (GPa) = 35.94728 63.18377 49.56553
# Shear Modulus (GPa) = 30.81047 37.44146 34.12597
#
# Velocity S-wave (km/s) = 3.71185 4.09183 3.90646
# Velocity P-wave (km/s) = 5.86901 7.11186 6.52012
#
# Compressibility (1/GPa) = 0.02781851
#
# Stress axis : x y z
#
# Youngs Moduli (GPa) = 58.94643 80.57725 80.62990
#
# Poissons Ratio (x) = 0.09659 0.39317
# Poissons Ratio (y) = 0.07066 0.07293
# Poissons Ratio (z) = 0.28744 0.07288
#
# Static dielectric constant tensor:
#      x y z
#    x 1.813420 -0.035860 0.019930 
#    y -0.035860 1.885600 0.024700 
#    z 0.019930 0.024700 1.911190 
# 
# From -- ./inp_files/347254.got.cif
#   From: 2010.05.17/outbox.cif.g08.bks.cpg/sg2_174_cif.got.tgz:347254.got - 2010.06.03 11:33:40.
