data_PCOD9094093
_publ_section_title
;
Structure prediction by ZEFSAII (Michael W. Deem and Ramdas Pophale) SiO2 
 PCOD9094093
Probable space group: P -1
;
_chemical_formula_sum "Si O2"
_cell_formula_units_Z 16
_cell_length_a 14.112011
_cell_length_b 5.373365
_cell_length_c 10.369843
_cell_angle_alpha 99.751122
_cell_angle_beta 58.005863
_cell_angle_gamma 98.443028
_cell_volume 655.722675
_symmetry_space_group_name_H-M "P -1"
_symmetry_group_IT_number 2
_symmetry_cell_setting 'triclinic'
loop_
_space_group_symop_operation_xyz
x,y,z
-x,-y,-z
loop_
_atom_site_type_symbol
_atom_site_label
_atom_site_fract_x
_atom_site_fract_y
_atom_site_fract_z
Si Si1 0.945587 0.994228 0.399215
Si Si2 0.564053 0.986971 0.232494
Si Si3 0.148135 0.327782 0.205501
Si Si4 0.358607 0.070536 0.120012
Si Si5 0.994245 0.733489 0.118157
Si Si6 0.809202 0.914447 0.090679
Si Si7 0.250929 0.716564 0.363678
Si Si8 0.434772 0.446626 0.303472
O O1 0.819820 0.072216 0.503165
O O2 0.021785 0.211968 0.288886
O O3 0.000000 0.000000 0.500000
O O4 0.966716 0.733605 0.288627
O O5 0.686485 0.002367 0.212028
O O6 0.510229 0.707933 0.281119
O O7 0.486563 0.223764 0.330765
O O8 0.593865 0.992840 0.058281
O O9 0.171714 0.563539 0.303805
O O10 0.231009 0.134494 0.193166
O O11 0.192839 0.331979 0.025667
O O12 0.348381 0.854078 0.216621
O O13 0.423219 0.316250 0.158139
O O14 0.888729 0.874215 0.150334
O O15 0.000000 0.500000 0.000000
O O16 0.115202 0.879100 0.026415
O O17 0.308041 0.538725 0.410823
#
# Coordination Sequence:
#
# PCOD9094093 Si02
#       8
#     2   2   2   2   2   2   2   2
#     4  11  22  40  63  98 133 175 218 267 338 408
#     4  11  23  35  63  88 128 173 230 270 333 384
#     4   9  20  35  59  90 127 173 215 273 327 405
#     4  10  20  34  53  91 130 171 213 276 333 391
#     4  10  23  43  66  94 132 168 216 276 331 396
#     4   9  22  40  62  93 123 166 225 272 330 391
#     4  11  22  36  59  89 139 171 220 270 340 389
#     4  11  23  37  55  92 130 178 220 280 326 394
#
# _framework density 24.400556999999999
#
# number of rings (size 3 to 8) (size 9 to 14) (size 15 to 20)
#    0.000    1.750    2.500    1.125    8.750    0.000 
#    2.250    0.000    0.000    1.500    0.000    0.000 
#    0.000    0.000    0.000    0.000    0.000    0.000 
#
# Total GULP energy -89270.750647 kJ/mol
# GULP energy per Si atom -5579.421915 kJ/mol
# Density = 2.434502 g / cm^3
# Si number density = 24.400557 Si / 1000 Ang^3
#
#
#
# Elastic Constant Matrix: (Units=GPa)
#
#
# Indices 1 2 3 4 5 6 
#
# 1 131.3025 37.0680 1.1479 9.3606 -16.9053 -2.0342
# 2 37.0680 109.2771 15.3646 19.5404 -6.6320 -1.9629
# 3 1.1479 15.3646 52.8080 22.4892 0.5736 4.2837
# 4 9.3606 19.5404 22.4892 19.7576 5.7028 -0.9820
# 5 -16.9053 -6.6320 0.5736 5.7028 24.1786 2.5632
# 6 -2.0342 -1.9629 4.2837 -0.9820 2.5632 34.5916
#
#
#
# Elastic Compliance Matrix: (Units=1/GPa)
#
#
# Indices 1 2 3 4 5 6 
#
# 1 0.010069 -0.001396 0.005498 -0.012480 0.009601 -0.001234
# 2 -0.001396 0.012849 0.004496 -0.019258 0.007088 -0.000982
# 3 0.005498 0.004496 0.045922 -0.065622 0.020365 -0.008480
# 4 -0.012480 -0.019258 -0.065622 0.166392 -0.053284 0.014972
# 5 0.009601 0.007088 0.020365 -0.053284 0.062920 -0.007730
# 6 -0.001234 -0.000982 -0.008480 0.014972 -0.007730 0.030828
#
#
# Mechanical properties :
#
#
# Convention : Reuss Voigt Hill
#
# Bulk Modulus (GPa) = 11.62315 44.50541 28.06428
# Shear Modulus (GPa) = 14.68590 31.69271 23.18930
#
# Velocity S-wave (km/s) = 2.45596 3.60787 3.08613
# Velocity P-wave (km/s) = 3.57996 5.96948 4.92193
#
# Compressibility (1/GPa) = 0.08603519
#
# Stress axis : x y z
#
# Youngs Moduli (GPa) = 99.31595 77.82878 21.77606
#
# Poissons Ratio (x) = 0.10868 -0.11973
# Poissons Ratio (y) = 0.13868 -0.09791
# Poissons Ratio (z) = -0.54605 -0.34992
#
# Static dielectric constant tensor:
#      x y z
#    x 2.000170 -0.019500 0.013420 
#    y -0.019500 2.013020 0.058580 
#    z 0.013420 0.058580 2.099190 
# 
# From -- ./inp_files/442156.got.cif
#   From: 2010.05.17/outbox.cif.g08.bks.cpg/sg2_222_cif.got.tgz:442156.got - 2010.06.03 11:33:40.
