data_PCOD9094198
_publ_section_title
;
Structure prediction by ZEFSAII (Michael W. Deem and Ramdas Pophale) SiO2 
 PCOD9094198
Probable space group: P -1
;
_chemical_formula_sum "Si O2"
_cell_formula_units_Z 16
_cell_length_a 21.832675
_cell_length_b 5.479665
_cell_length_c 12.037523
_cell_angle_alpha 83.341894
_cell_angle_beta 153.111330
_cell_angle_gamma 91.093261
_cell_volume 635.411210
_symmetry_space_group_name_H-M "P -1"
_symmetry_group_IT_number 2
_symmetry_cell_setting 'triclinic'
loop_
_space_group_symop_operation_xyz
x,y,z
-x,-y,-z
loop_
_atom_site_type_symbol
_atom_site_label
_atom_site_fract_x
_atom_site_fract_y
_atom_site_fract_z
Si Si1 0.078714 0.651185 0.205045
Si Si2 0.879072 0.799886 0.581398
Si Si3 0.738768 0.952162 0.928082
Si Si4 0.518583 0.475499 0.167987
Si Si5 0.383450 0.047567 0.712302
Si Si6 0.296907 0.548404 0.998419
Si Si7 0.849500 0.105130 0.895523
Si Si8 0.049123 0.830133 0.484801
O O1 0.146087 0.482264 0.426511
O O2 0.959202 0.861413 0.048471
O O3 0.000000 0.500000 0.000000
O O4 0.176688 0.752288 0.270491
O O5 0.768991 0.939299 0.485273
O O6 0.859310 0.997005 0.440526
O O7 0.045076 0.759362 0.869500
O O8 0.707108 0.200824 0.943703
O O9 0.671424 0.717789 0.870913
O O10 0.725639 0.054757 0.774540
O O11 0.902754 0.822396 0.193720
O O12 0.611236 0.678838 0.338363
O O13 0.566514 0.179975 0.275765
O O14 0.500000 0.500000 0.000000
O O15 0.392389 0.546888 0.045101
O O16 0.500000 0.000000 0.000000
O O17 0.144471 0.579826 0.694720
O O18 0.000000 0.000000 0.500000
#
# Coordination Sequence:
#
# PCOD9094198 Si02
#       8
#     2   2   2   2   2   2   2   2
#     4   9  19  35  59  83 118 144 187 238 294 349
#     4  10  20  34  55  82 118 155 188 233 289 334
#     4  10  22  34  56  79 115 150 188 229 284 350
#     4  10  21  36  54  74 108 148 200 242 272 311
#     4  10  21  36  53  80 111 153 194 240 275 324
#     4  11  21  37  52  79 112 159 194 229 278 335
#     4   9  20  36  56  89 118 145 188 237 291 353
#     4   9  19  32  47  78 114 154 188 220 266 344
#
# _framework density 25.180541000000002
#
# number of rings (size 3 to 8) (size 9 to 14) (size 15 to 20)
#    0.000    2.250    0.000    2.625    8.750    3.000 
#    4.500    0.000    0.000    0.000    0.000    5.250 
#    0.000    0.000    0.000    0.000    0.000    0.000 
#
# Total GULP energy -89087.893692 kJ/mol
# GULP energy per Si atom -5567.993356 kJ/mol
# Density = 2.512323 g / cm^3
# Si number density = 25.180541 Si / 1000 Ang^3
#
#
#
# Elastic Constant Matrix: (Units=GPa)
#
#
# Indices 1 2 3 4 5 6 
#
# 1 164.4831 75.2243 25.1137 -6.8636 27.5349 29.0395
# 2 75.2243 148.7631 26.4772 -36.3834 9.3251 13.0260
# 3 25.1137 26.4772 44.4665 -5.3655 16.4987 -5.0021
# 4 -6.8636 -36.3834 -5.3655 35.3800 -1.2989 1.4996
# 5 27.5349 9.3251 16.4987 -1.2989 36.7477 -2.4060
# 6 29.0395 13.0260 -5.0021 1.4996 -2.4060 41.1765
#
#
#
# Elastic Compliance Matrix: (Units=1/GPa)
#
#
# Indices 1 2 3 4 5 6 
#
# 1 0.010691 -0.004886 -0.001837 -0.003193 -0.006483 -0.006480
# 2 -0.004886 0.012840 -0.004684 0.011711 0.002825 -0.001447
# 3 -0.001837 -0.004684 0.030914 -0.001139 -0.010966 0.005934
# 4 -0.003193 0.011711 -0.001139 0.039684 0.001140 -0.002970
# 5 -0.006483 0.002825 -0.010966 0.001140 0.036608 0.004444
# 6 -0.006480 -0.001447 0.005934 -0.002970 0.004444 0.030402
#
#
# Mechanical properties :
#
#
# Convention : Reuss Voigt Hill
#
# Bulk Modulus (GPa) = 31.61448 67.92701 49.77074
# Shear Modulus (GPa) = 25.70735 38.05401 31.88068
#
# Velocity S-wave (km/s) = 3.19865 3.89169 3.56207
# Velocity P-wave (km/s) = 5.12096 6.87228 6.06022
#
# Compressibility (1/GPa) = 0.03163108
#
# Stress axis : x y z
#
# Youngs Moduli (GPa) = 93.53900 77.88007 32.34734
#
# Poissons Ratio (x) = 0.38052 0.05943
# Poissons Ratio (y) = 0.45703 0.15151
# Poissons Ratio (z) = 0.17186 0.36478
#
# Static dielectric constant tensor:
#      x y z
#    x 1.822930 0.043180 0.409910 
#    y 0.043180 2.142010 0.045080 
#    z 0.409910 0.045080 0.900410 
# 
# From -- ./inp_files/94812.got.cif
#   From: 2010.05.17/outbox.cif.g08.bks.cpg/sg2_48_cif.got.tgz:94812.got - 2010.06.03 11:33:40.
