data_PCOD9094157
_publ_section_title
;
Structure prediction by ZEFSAII (Michael W. Deem and Ramdas Pophale) SiO2 
 PCOD9094157
Probable space group: P -1
;
_chemical_formula_sum "Si O2"
_cell_formula_units_Z 15
_cell_length_a 5.113466
_cell_length_b 5.100048
_cell_length_c 21.393121
_cell_angle_alpha 99.547134
_cell_angle_beta 77.460042
_cell_angle_gamma 83.378527
_cell_volume 530.380501
_symmetry_space_group_name_H-M "P -1"
_symmetry_group_IT_number 2
_symmetry_cell_setting 'triclinic'
loop_
_space_group_symop_operation_xyz
x,y,z
-x,-y,-z
loop_
_atom_site_type_symbol
_atom_site_label
_atom_site_fract_x
_atom_site_fract_y
_atom_site_fract_z
Si Si1 0.547335 0.305063 0.879535
Si Si2 0.479085 0.142392 0.751316
Si Si3 0.986951 0.230605 0.060917
Si Si4 0.355205 0.991800 0.623452
Si Si5 0.093451 0.292642 0.432678
Si Si6 0.903473 0.442768 0.677616
Si Si7 0.500000 0.500000 0.000000
Si Si8 0.981347 0.618600 0.804615
O O1 0.487354 0.087157 0.823107
O O2 0.774384 0.433116 0.836105
O O3 0.307247 0.560942 0.922900
O O4 0.581520 0.207474 0.944127
O O5 0.746020 0.221277 0.707876
O O6 0.267240 0.423124 0.776073
O O7 0.370277 0.956104 0.697498
O O8 0.220762 0.403788 0.039467
O O9 0.994500 0.172855 0.133217
O O10 0.000000 0.000000 0.000000
O O11 0.651027 0.934651 0.574552
O O12 0.154689 0.828546 0.590055
O O13 0.205582 0.299013 0.640348
O O14 0.215592 0.452093 0.377079
O O15 0.000000 0.500000 0.500000
O O16 0.892116 0.673275 0.739970
#
# Coordination Sequence:
#
# PCOD9094157 Si02
#       8
#     2   2   2   2   2   2   1   2
#     4   9  18  36  59  85 124 168 214 279 344 399
#     4   9  18  41  67  91 123 175 225 283 347 407
#     4  10  20  36  57  84 126 168 226 277 342 420
#     4  11  24  46  69 102 136 183 231 276 352 420
#     4  12  28  45  68 106 143 178 233 287 341 433
#     4  10  22  44  73  94 140 182 225 292 351 402
#     4  10  20  34  54  86 120 168 214 278 342 398
#     4   8  18  35  64  85 119 171 220 275 351 401
#
# _framework density 28.281580000000002
#
# number of rings (size 3 to 8) (size 9 to 14) (size 15 to 20)
#    0.000    2.133    1.333    0.800    3.733    3.200 
#    2.400    1.333    0.000    0.000    0.000    0.000 
#    0.000    0.000    0.000    0.000    0.000    0.000 
#
# Total GULP energy -83695.857948 kJ/mol
# GULP energy per Si atom -5579.723863 kJ/mol
# Density = 2.821721 g / cm^3
# Si number density = 28.281580 Si / 1000 Ang^3
#
#
#
# Elastic Constant Matrix: (Units=GPa)
#
#
# Indices 1 2 3 4 5 6 
#
# 1 142.7077 20.1920 37.8449 19.9197 -8.7090 1.8953
# 2 20.1920 52.1485 33.6760 5.2771 -4.9320 3.0635
# 3 37.8449 33.6760 243.2289 52.4842 20.1164 -34.8260
# 4 19.9197 5.2771 52.4842 50.1549 -7.4513 -9.3114
# 5 -8.7090 -4.9320 20.1164 -7.4513 52.5136 11.8539
# 6 1.8953 3.0635 -34.8260 -9.3114 11.8539 25.1004
#
#
#
# Elastic Compliance Matrix: (Units=1/GPa)
#
#
# Indices 1 2 3 4 5 6 
#
# 1 0.008087 -0.001516 -0.001440 -0.001983 0.002442 -0.004312
# 2 -0.001516 0.025792 -0.007167 0.003790 0.009028 -0.015835
# 3 -0.001440 -0.007167 0.010202 -0.007658 -0.009718 0.016887
# 4 -0.001983 0.003790 -0.007658 0.028777 0.007951 -0.004018
# 5 0.002442 0.009028 -0.009718 0.007951 0.031134 -0.026524
# 6 -0.004312 -0.015835 0.016887 -0.004018 -0.026524 0.076563
#
#
# Mechanical properties :
#
#
# Convention : Reuss Voigt Hill
#
# Bulk Modulus (GPa) = 41.95575 69.05675 55.50625
# Shear Modulus (GPa) = 23.95267 48.64526 36.29896
#
# Velocity S-wave (km/s) = 2.91337 4.15183 3.58646
# Velocity P-wave (km/s) = 5.11705 6.88870 6.06788
#
# Compressibility (1/GPa) = 0.02383464
#
# Stress axis : x y z
#
# Youngs Moduli (GPa) = 123.65728 38.77192 98.02190
#
# Poissons Ratio (x) = 0.05880 0.14113
# Poissons Ratio (y) = 0.18753 0.70249
# Poissons Ratio (z) = 0.17804 0.27787
#
# Static dielectric constant tensor:
#      x y z
#    x 2.151430 0.193200 -0.071080 
#    y 0.193200 1.883830 0.348270 
#    z -0.071080 0.348270 1.966240 
# 
# From -- ./inp_files/603008.got.cif
#   From: 2010.05.17/outbox.cif.g08.bks.cpg/sg2_302_cif.got.tgz:603008.got - 2010.06.03 11:33:40.
