data_PCOD9094744
_publ_section_title
;
Structure prediction by ZEFSAII (Michael W. Deem and Ramdas Pophale) SiO2 
 PCOD9094744
Probable space group: P -1
;
_chemical_formula_sum "Si O2"
_cell_formula_units_Z 16
_cell_length_a 9.967436
_cell_length_b 5.185900
_cell_length_c 20.273499
_cell_angle_alpha 65.152028
_cell_angle_beta 118.979554
_cell_angle_gamma 136.138421
_cell_volume 630.861241
_symmetry_space_group_name_H-M "P -1"
_symmetry_group_IT_number 2
_symmetry_cell_setting 'triclinic'
loop_
_space_group_symop_operation_xyz
x,y,z
-x,-y,-z
loop_
_atom_site_type_symbol
_atom_site_label
_atom_site_fract_x
_atom_site_fract_y
_atom_site_fract_z
Si Si1 0.079287 0.697741 0.753271
Si Si2 0.624487 0.511096 0.879339
Si Si3 0.792290 0.092825 0.971576
Si Si4 0.104172 0.191345 0.604501
Si Si5 0.245624 0.353831 0.867459
Si Si6 0.149719 0.794707 0.376038
Si Si7 0.328193 0.484943 0.494589
Si Si8 0.814980 0.703252 0.767364
O O1 0.245373 0.693801 0.824488
O O2 0.976114 0.449604 0.690654
O O3 0.887344 0.489184 0.779229
O O4 0.154187 0.083023 0.696190
O O5 0.648303 0.198915 0.932184
O O6 0.415906 0.406379 0.860227
O O7 0.660666 0.563379 0.803866
O O8 0.776457 0.896060 0.919716
O O9 0.000000 0.500000 0.000000
O O10 0.743443 0.784819 0.044879
O O11 0.275044 0.378380 0.570274
O O12 0.026323 0.400856 0.589791
O O13 0.889782 0.839504 0.558591
O O14 0.027479 0.027251 0.819546
O O15 0.332194 0.823615 0.440618
O O16 0.235676 0.191640 0.323434
O O17 0.500000 0.500000 0.500000
#
# Coordination Sequence:
#
# PCOD9094744 Si02
#       8
#     2   2   2   2   2   2   2   2
#     4   9  21  41  65  90 128 173 216 268 333 393
#     4  12  28  45  70 102 132 179 225 283 337 404
#     4  12  27  46  71  99 136 177 224 280 341 403
#     4   9  19  39  59  87 124 168 209 263 323 392
#     4  11  25  43  69  96 132 172 222 278 335 403
#     4   9  19  38  59  87 126 168 211 264 326 392
#     4  10  20  34  60  91 122 162 212 267 321 385
#     4  10  23  41  67  91 130 173 220 272 335 397
#
# _framework density 25.362155000000001
#
# number of rings (size 3 to 8) (size 9 to 14) (size 15 to 20)
#    0.000    1.750    1.250    1.500    7.000    1.500 
#    0.000   11.250    0.000    0.000    0.000    0.000 
#    0.000    0.000    0.000    0.000    0.000    0.000 
#
# Total GULP energy -89172.467698 kJ/mol
# GULP energy per Si atom -5573.279231 kJ/mol
# Density = 2.530443 g / cm^3
# Si number density = 25.362155 Si / 1000 Ang^3
#
#
#
# Elastic Constant Matrix: (Units=GPa)
#
#
# Indices 1 2 3 4 5 6 
#
# 1 235.4555 32.8478 96.7997 -40.3734 -4.5693 -3.7473
# 2 32.8478 43.0951 40.0805 -5.2086 5.0276 -5.7086
# 3 96.7997 40.0805 153.3935 -45.1747 2.3517 -4.3121
# 4 -40.3734 -5.2086 -45.1747 39.7748 -5.3612 0.5454
# 5 -4.5693 5.0276 2.3517 -5.3612 64.3598 0.7155
# 6 -3.7473 -5.7086 -4.3121 0.5454 0.7155 45.2533
#
#
#
# Elastic Compliance Matrix: (Units=1/GPa)
#
#
# Indices 1 2 3 4 5 6 
#
# 1 0.006102 -0.002254 -0.002257 0.003469 0.000981 -0.000051
# 2 -0.002254 0.034112 -0.010293 -0.010004 -0.003319 0.003309
# 3 -0.002257 -0.010293 0.014400 0.012881 0.001194 -0.000287
# 4 0.003469 -0.010004 0.012881 0.042540 0.004104 -0.000325
# 5 0.000981 -0.003319 0.001194 0.004104 0.016171 -0.000529
# 6 -0.000051 0.003309 -0.000287 -0.000325 -0.000529 0.022496
#
#
# Mechanical properties :
#
#
# Convention : Reuss Voigt Hill
#
# Bulk Modulus (GPa) = 39.99034 85.71112 62.85073
# Shear Modulus (GPa) = 28.77447 47.35864 38.06656
#
# Velocity S-wave (km/s) = 3.37195 4.32591 3.87837
# Velocity P-wave (km/s) = 5.56435 7.66939 6.70006
#
# Compressibility (1/GPa) = 0.02500604
#
# Stress axis : x y z
#
# Youngs Moduli (GPa) = 163.86890 29.31504 69.44464
#
# Poissons Ratio (x) = 0.06609 0.15672
# Poissons Ratio (y) = 0.36944 0.71479
# Poissons Ratio (z) = 0.36982 0.30174
#
# Static dielectric constant tensor:
#      x y z
#    x 2.252990 -0.265780 0.016610 
#    y -0.265780 2.444190 -0.060800 
#    z 0.016610 -0.060800 2.017850 
# 
# From -- ./inp_files/585615.got.cif
#   From: 2010.05.17/outbox.cif.g08.bks.cpg/sg2_293_cif.got.tgz:585615.got - 2010.06.03 11:33:40.
