data_PCOD9094941
_publ_section_title
;
Structure prediction by ZEFSAII (Michael W. Deem and Ramdas Pophale) SiO2 
 PCOD9094941
Probable space group: P -1
;
_chemical_formula_sum "Si O2"
_cell_formula_units_Z 16
_cell_length_a 12.705771
_cell_length_b 21.190317
_cell_length_c 7.863350
_cell_angle_alpha 84.388969
_cell_angle_beta 62.858539
_cell_angle_gamma 29.105487
_cell_volume 658.959322
_symmetry_space_group_name_H-M "P -1"
_symmetry_group_IT_number 2
_symmetry_cell_setting 'triclinic'
loop_
_space_group_symop_operation_xyz
x,y,z
-x,-y,-z
loop_
_atom_site_type_symbol
_atom_site_label
_atom_site_fract_x
_atom_site_fract_y
_atom_site_fract_z
Si Si1 0.377190 0.150431 0.516419
Si Si2 0.339019 0.159323 0.900501
Si Si3 0.814973 0.355184 0.428152
Si Si4 0.647687 0.307323 0.205519
Si Si5 0.626714 0.669646 0.800466
Si Si6 0.116422 0.716031 0.240982
Si Si7 0.275152 0.978661 0.035780
Si Si8 0.022041 0.552203 0.084350
O O1 0.545795 0.070954 0.232242
O O2 0.274509 0.273974 0.614513
O O3 0.082773 0.246669 0.687326
O O4 0.533077 0.048348 0.609242
O O5 0.570058 0.078635 0.884891
O O6 0.151108 0.194836 0.113151
O O7 0.024259 0.364281 0.027872
O O8 0.500000 0.500000 0.500000
O O9 0.695501 0.481761 0.565895
O O10 0.894404 0.270073 0.549880
O O11 0.547471 0.289909 0.212826
O O12 0.867841 0.233737 0.919032
O O13 0.880306 0.184690 0.233679
O O14 0.397667 0.845548 0.952016
O O15 0.000000 0.500000 0.500000
O O16 0.678502 0.608374 0.960950
O O17 0.500000 0.500000 0.000000
O O18 0.000000 0.500000 0.000000
#
# Coordination Sequence:
#
# PCOD9094941 Si02
#       8
#     2   2   2   2   2   2   2   2
#     4  10  21  39  67  94 130 173 214 270 320 383
#     4  10  21  39  66  95 127 170 225 261 321 387
#     4  11  22  41  66  96 128 173 228 274 311 390
#     4  11  27  40  64 100 134 172 215 274 341 388
#     4  12  21  41  71  92 123 176 227 267 321 392
#     4  10  20  40  63  93 128 168 220 268 319 383
#     4  12  23  44  64  98 141 173 212 267 340 399
#     4  10  20  34  65 100 120 162 228 276 301 374
#
# _framework density 24.280709999999999
#
# number of rings (size 3 to 8) (size 9 to 14) (size 15 to 20)
#    0.750    0.500    3.750    4.125    1.750    0.500 
#    2.250    1.250    0.000    3.750    0.000    0.000 
#    0.000    0.000    0.000    0.000    0.000    0.000 
#
# Total GULP energy -89318.401016 kJ/mol
# GULP energy per Si atom -5582.400064 kJ/mol
# Density = 2.422545 g / cm^3
# Si number density = 24.280710 Si / 1000 Ang^3
#
#
#
# Elastic Constant Matrix: (Units=GPa)
#
#
# Indices 1 2 3 4 5 6 
#
# 1 125.4444 32.3055 18.3213 1.5533 13.8018 -22.1215
# 2 32.3055 158.7523 9.6038 -8.0715 0.3715 -20.6458
# 3 18.3213 9.6038 58.8904 -17.0103 18.7309 8.1590
# 4 1.5533 -8.0715 -17.0103 37.1396 2.4938 11.3902
# 5 13.8018 0.3715 18.7309 2.4938 33.6669 6.6117
# 6 -22.1215 -20.6458 8.1590 11.3902 6.6117 51.7304
#
#
#
# Elastic Compliance Matrix: (Units=1/GPa)
#
#
# Indices 1 2 3 4 5 6 
#
# 1 0.010287 -0.001295 -0.004142 -0.004207 -0.002728 0.005811
# 2 -0.001295 0.006939 -0.001155 0.000300 0.000633 0.002251
# 3 -0.004142 -0.001155 0.028942 0.016785 -0.013923 -0.008713
# 4 -0.004207 0.000300 0.016785 0.039046 -0.008176 -0.011879
# 5 -0.002728 0.000633 -0.013923 -0.008176 0.039554 -0.001973
# 6 0.005811 0.002251 -0.008713 -0.011879 -0.001973 0.026956
#
#
# Mechanical properties :
#
#
# Convention : Reuss Voigt Hill
#
# Bulk Modulus (GPa) = 30.31770 51.50537 40.91153
# Shear Modulus (GPa) = 28.42496 43.36450 35.89473
#
# Velocity S-wave (km/s) = 3.42523 4.23065 3.84907
# Velocity P-wave (km/s) = 5.30626 6.71737 6.05308
#
# Compressibility (1/GPa) = 0.03298404
#
# Stress axis : x y z
#
# Youngs Moduli (GPa) = 97.21097 144.11335 34.55238
#
# Poissons Ratio (x) = 0.18658 0.14311
# Poissons Ratio (y) = 0.12585 0.03991
# Poissons Ratio (z) = 0.40264 0.16647
#
# Static dielectric constant tensor:
#      x y z
#    x 1.884880 -0.008280 0.036080 
#    y -0.008280 2.113140 0.040810 
#    z 0.036080 0.040810 2.084030 
# 
# From -- ./inp_files/281965.got.cif
#   From: 2010.05.17/outbox.cif.g08.bks.cpg/sg2_141_cif.got.tgz:281965.got - 2010.06.03 11:33:40.
