data_PCOD9094675
_publ_section_title
;
Structure prediction by ZEFSAII (Michael W. Deem and Ramdas Pophale) SiO2 
 PCOD9094675
Probable space group: P -1
;
_chemical_formula_sum "Si O2"
_cell_formula_units_Z 14
_cell_length_a 9.752112
_cell_length_b 7.705275
_cell_length_c 10.036280
_cell_angle_alpha 132.530531
_cell_angle_beta 94.871475
_cell_angle_gamma 83.931470
_cell_volume 552.540984
_symmetry_space_group_name_H-M "P -1"
_symmetry_group_IT_number 2
_symmetry_cell_setting 'triclinic'
loop_
_space_group_symop_operation_xyz
x,y,z
-x,-y,-z
loop_
_atom_site_type_symbol
_atom_site_label
_atom_site_fract_x
_atom_site_fract_y
_atom_site_fract_z
Si Si1 0.832853 0.354019 0.364588
Si Si2 0.474953 0.247321 0.034677
Si Si3 0.555054 0.786937 0.296273
Si Si4 0.852666 0.807660 0.699201
Si Si5 0.811516 0.873544 0.032320
Si Si6 0.147726 0.381456 0.772739
Si Si7 0.087630 0.760141 0.171328
O O1 0.774844 0.570081 0.560980
O O2 0.755037 0.120131 0.221138
O O3 0.845971 0.467696 0.280250
O O4 0.989806 0.268588 0.369039
O O5 0.501861 0.191639 0.850265
O O6 0.310884 0.296361 0.064005
O O7 0.535334 0.509663 0.198446
O O8 0.500000 0.000000 0.000000
O O9 0.721372 0.801321 0.308357
O O10 0.500000 0.000000 0.500000
O O11 0.819408 0.019989 0.705797
O O12 0.846810 0.907315 0.898360
O O13 0.952915 0.805277 0.085291
O O14 0.993661 0.291573 0.728214
O O15 0.165841 0.554251 0.988851
#
# Coordination Sequence:
#
# PCOD9094675 Si02
#       7
#     2   2   2   2   2   2   2
#     4  10  20  34  59  92 131 167 214 269 335 405
#     4  11  26  47  77 100 133 193 239 284 349 410
#     4  11  27  50  70 104 143 181 239 296 337 412
#     4  10  20  35  57  97 130 166 211 269 336 413
#     4  11  19  41  63  93 131 167 219 275 334 404
#     4  11  20  40  65  92 131 174 213 276 346 404
#     4  10  20  36  66  93 129 172 206 271 348 398
#
# _framework density 25.337486999999999
#
# number of rings (size 3 to 8) (size 9 to 14) (size 15 to 20)
#    0.000    1.429    4.286    1.714    0.000    3.429 
#    5.143    0.000    0.000    0.000    0.000    0.000 
#    0.000    0.000    0.000    0.000    0.000    0.000 
#
# Total GULP energy -78032.777376 kJ/mol
# GULP energy per Si atom -5573.769813 kJ/mol
# Density = 2.527982 g / cm^3
# Si number density = 25.337487 Si / 1000 Ang^3
#
#
#
# Elastic Constant Matrix: (Units=GPa)
#
#
# Indices 1 2 3 4 5 6 
#
# 1 71.2696 1.3505 28.2095 -3.9681 -13.3094 5.7193
# 2 1.3505 126.0098 43.3774 -3.3888 -5.0049 0.1758
# 3 28.2095 43.3774 156.0504 23.6179 -11.2507 0.4887
# 4 -3.9681 -3.3888 23.6179 26.6519 -2.5837 2.9277
# 5 -13.3094 -5.0049 -11.2507 -2.5837 30.8165 7.5124
# 6 5.7193 0.1758 0.4887 2.9277 7.5124 24.6123
#
#
#
# Elastic Compliance Matrix: (Units=1/GPa)
#
#
# Indices 1 2 3 4 5 6 
#
# 1 0.018744 0.002008 -0.004588 0.008939 0.009505 -0.008243
# 2 0.002008 0.009361 -0.003584 0.005030 0.001901 -0.001641
# 3 -0.004588 -0.003584 0.009717 -0.010031 -0.000397 0.002213
# 4 0.008939 0.005030 -0.010031 0.050255 0.007728 -0.010251
# 5 0.009505 0.001901 -0.000397 0.007728 0.041196 -0.015708
# 6 -0.008243 -0.001641 0.002213 -0.010251 -0.015708 0.048527
#
#
# Mechanical properties :
#
#
# Convention : Reuss Voigt Hill
#
# Bulk Modulus (GPa) = 39.22746 55.46718 47.34732
# Shear Modulus (GPa) = 25.17287 35.10898 30.14092
#
# Velocity S-wave (km/s) = 3.15541 3.72648 3.45277
# Velocity P-wave (km/s) = 5.36573 6.36037 5.88411
#
# Compressibility (1/GPa) = 0.02549235
#
# Stress axis : x y z
#
# Youngs Moduli (GPa) = 53.35173 106.82333 102.91749
#
# Poissons Ratio (x) = -0.21450 0.47221
# Poissons Ratio (y) = -0.10713 0.36888
# Poissons Ratio (z) = 0.24479 0.38288
#
# Static dielectric constant tensor:
#      x y z
#    x 2.144690 -0.023860 0.033370 
#    y -0.023860 2.181880 0.108540 
#    z 0.033370 0.108540 2.106740 
# 
# From -- ./inp_files/415933.got.cif
#   From: 2010.05.17/outbox.cif.g08.bks.cpg/sg2_208_cif.got.tgz:415933.got - 2010.06.03 11:33:40.
