data_PCOD9094284
_publ_section_title
;
Structure prediction by ZEFSAII (Michael W. Deem and Ramdas Pophale) SiO2 
 PCOD9094284
Probable space group: P -1
;
_chemical_formula_sum "Si O2"
_cell_formula_units_Z 16
_cell_length_a 17.630994
_cell_length_b 12.017985
_cell_length_c 8.871359
_cell_angle_alpha 47.936624
_cell_angle_beta 30.478316
_cell_angle_gamma 50.356798
_cell_volume 698.595567
_symmetry_space_group_name_H-M "P -1"
_symmetry_group_IT_number 2
_symmetry_cell_setting 'triclinic'
loop_
_space_group_symop_operation_xyz
x,y,z
-x,-y,-z
loop_
_atom_site_type_symbol
_atom_site_label
_atom_site_fract_x
_atom_site_fract_y
_atom_site_fract_z
Si Si1 0.741951 0.037451 0.101379
Si Si2 0.029924 0.635365 0.095675
Si Si3 0.738333 0.485385 0.679838
Si Si4 0.409080 0.237555 0.464969
Si Si5 0.801692 0.247128 0.049500
Si Si6 0.678546 0.610379 0.208112
Si Si7 0.205693 0.783098 0.414557
Si Si8 0.560328 0.297744 0.681217
O O1 0.578451 0.149239 0.274082
O O2 0.695195 0.873845 0.327669
O O3 0.825928 0.094242 0.049256
O O4 0.826509 0.075864 0.770305
O O5 0.054321 0.710825 0.146350
O O6 0.874213 0.581473 0.377388
O O7 0.153816 0.480255 0.018229
O O8 0.082161 0.749556 0.778295
O O9 0.598476 0.613460 0.760074
O O10 0.739601 0.385107 0.917833
O O11 0.772086 0.365934 0.594281
O O12 0.343958 0.290011 0.693796
O O13 0.672122 0.243284 0.399448
O O14 0.583771 0.470676 0.518544
O O15 0.606770 0.698433 0.102069
O O16 0.361467 0.795003 0.227446
#
# Coordination Sequence:
#
# PCOD9094284 Si02
#       8
#     2   2   2   2   2   2   2   2
#     4  10  22  36  53  78 106 140 175 209 265 309
#     4  10  20  34  56  80 107 131 176 221 257 298
#     4  11  20  33  56  83 102 137 177 214 257 305
#     4  11  21  35  54  77 111 136 171 220 256 309
#     4   9  19  35  58  77 107 135 173 216 261 308
#     4   9  17  30  54  77 104 135 159 223 261 299
#     4   9  19  34  56  79 104 134 175 217 255 310
#     4   9  16  32  55  81 103 128 175 215 273 294
#
# _framework density 22.903092000000001
#
# number of rings (size 3 to 8) (size 9 to 14) (size 15 to 20)
#    0.000    2.500    3.750    0.750    0.000    6.000 
#    0.000    1.875   11.000    0.000    0.000    0.000 
#    0.000    0.000    0.000    0.000    0.000    0.000 
#
# Total GULP energy -89402.654796 kJ/mol
# GULP energy per Si atom -5587.665925 kJ/mol
# Density = 2.285096 g / cm^3
# Si number density = 22.903092 Si / 1000 Ang^3
#
#
#
# Elastic Constant Matrix: (Units=GPa)
#
#
# Indices 1 2 3 4 5 6 
#
# 1 99.7321 32.4649 40.1257 0.9283 8.4799 22.1820
# 2 32.4649 45.2995 31.6980 -11.9010 -3.1770 11.6691
# 3 40.1257 31.6980 51.2019 -11.6706 -4.4003 14.6427
# 4 0.9283 -11.9010 -11.6706 24.1217 -0.5942 -2.8229
# 5 8.4799 -3.1770 -4.4003 -0.5942 30.6874 9.1469
# 6 22.1820 11.6691 14.6427 -2.8229 9.1469 25.6407
#
#
#
# Elastic Compliance Matrix: (Units=1/GPa)
#
#
# Indices 1 2 3 4 5 6 
#
# 1 0.018974 -0.007182 -0.011928 -0.010817 -0.006337 -0.005265
# 2 -0.007182 0.044155 -0.016692 0.013550 0.005904 -0.004964
# 3 -0.011928 -0.016692 0.046653 0.013747 0.011944 -0.011474
# 4 -0.010817 0.013550 0.013747 0.055241 0.007843 -0.001376
# 5 -0.006337 0.005904 0.011944 0.007843 0.042248 -0.018234
# 6 -0.005265 -0.004964 -0.011474 -0.001376 -0.018234 0.058720
#
#
# Mechanical properties :
#
#
# Convention : Reuss Voigt Hill
#
# Bulk Modulus (GPa) = 26.19229 44.97898 35.58563
# Shear Modulus (GPa) = 14.27263 22.21963 18.24613
#
# Velocity S-wave (km/s) = 2.49906 3.11812 2.82559
# Velocity P-wave (km/s) = 4.44837 5.71358 5.12020
#
# Compressibility (1/GPa) = 0.03817917
#
# Stress axis : x y z
#
# Youngs Moduli (GPa) = 52.70309 22.64763 21.43486
#
# Poissons Ratio (x) = 0.16265 0.25568
# Poissons Ratio (y) = 0.37850 0.35778
# Poissons Ratio (z) = 0.62865 0.37802
#
# Static dielectric constant tensor:
#      x y z
#    x 1.913310 -0.031260 0.016690 
#    y -0.031260 1.847620 0.019110 
#    z 0.016690 0.019110 1.856090 
# 
# From -- ./inp_files/330666.got.cif
#   From: 2010.05.17/outbox.cif.g08.bks.cpg/sg2_166_cif.got.tgz:330666.got - 2010.06.03 11:33:40.
