data_PCOD9094840
_publ_section_title
;
Structure prediction by ZEFSAII (Michael W. Deem and Ramdas Pophale) SiO2 
 PCOD9094840
Probable space group: P -1
;
_chemical_formula_sum "Si O2"
_cell_formula_units_Z 16
_cell_length_a 8.957864
_cell_length_b 25.520487
_cell_length_c 9.173221
_cell_angle_alpha 121.876543
_cell_angle_beta 89.596258
_cell_angle_gamma 138.645631
_cell_volume 847.180522
_symmetry_space_group_name_H-M "P -1"
_symmetry_group_IT_number 2
_symmetry_cell_setting 'triclinic'
loop_
_space_group_symop_operation_xyz
x,y,z
-x,-y,-z
loop_
_atom_site_type_symbol
_atom_site_label
_atom_site_fract_x
_atom_site_fract_y
_atom_site_fract_z
Si Si1 0.882023 0.830107 0.338307
Si Si2 0.737237 0.257712 0.933061
Si Si3 0.200607 0.014963 0.354277
Si Si4 0.252385 0.046368 0.848732
Si Si5 0.744651 0.637860 0.020963
Si Si6 0.499442 0.929264 0.844022
Si Si7 0.060577 0.352754 0.659706
Si Si8 0.217537 0.635363 0.150408
O O1 0.840821 0.743866 0.177264
O O2 0.570187 0.739014 0.289186
O O3 0.944785 0.890071 0.276909
O O4 0.171494 0.955128 0.622337
O O5 0.557866 0.190147 0.987746
O O6 0.850223 0.361686 0.006933
O O7 0.030610 0.318552 0.022871
O O8 0.473730 0.138210 0.642014
O O9 0.029422 0.008771 0.263768
O O10 0.353030 0.025148 0.250523
O O11 0.305060 0.042600 0.005026
O O12 0.826834 0.641091 0.185436
O O13 0.375241 0.492077 0.785764
O O14 0.153876 0.773138 0.610635
O O15 0.500000 0.000000 0.000000
O O16 0.851660 0.334464 0.691116
O O17 0.000000 0.500000 0.000000
#
# Coordination Sequence:
#
# PCOD9094840 Si02
#       8
#     2   2   2   2   2   2   2   2
#     4  11  20  34  63  95 110 147 204 248 295 342
#     4  10  20  38  60  93 117 148 198 249 295 340
#     4  11  21  39  60  84 122 149 199 251 287 345
#     4  11  22  37  63  85 121 158 190 242 305 348
#     4  10  20  34  62  84 120 148 194 247 298 333
#     4  12  25  40  59  86 122 161 196 236 296 360
#     4  10  21  39  56  89 121 153 195 246 291 348
#     4  11  18  34  62  91 118 145 191 251 290 342
#
# _framework density 18.886174
#
# number of rings (size 3 to 8) (size 9 to 14) (size 15 to 20)
#    0.000    1.250    6.250    1.875    1.750    1.000 
#    0.000    0.625    0.000    1.500    0.000    0.000 
#    0.000    0.000    0.000    0.000    0.000    0.000 
#
# Total GULP energy -89257.039609 kJ/mol
# GULP energy per Si atom -5578.564976 kJ/mol
# Density = 1.884319 g / cm^3
# Si number density = 18.886174 Si / 1000 Ang^3
#
#
#
# Elastic Constant Matrix: (Units=GPa)
#
#
# Indices 1 2 3 4 5 6 
#
# 1 54.8754 24.1305 7.5085 12.6128 -10.3779 -3.6053
# 2 24.1305 93.3239 21.3727 19.8197 -5.4540 -3.7020
# 3 7.5085 21.3727 53.2829 11.7102 -11.3406 -11.5519
# 4 12.6128 19.8197 11.7102 32.8309 -6.4528 -1.5873
# 5 -10.3779 -5.4540 -11.3406 -6.4528 27.1989 9.4501
# 6 -3.6053 -3.7020 -11.5519 -1.5873 9.4501 25.0999
#
#
#
# Elastic Compliance Matrix: (Units=1/GPa)
#
#
# Indices 1 2 3 4 5 6 
#
# 1 0.022565 -0.004670 0.001309 -0.004936 0.006973 0.000218
# 2 -0.004670 0.013929 -0.004168 -0.005526 -0.001991 -0.000134
# 3 0.001309 -0.004168 0.024414 -0.005168 0.005724 0.008328
# 4 -0.004936 -0.005526 -0.005168 0.038381 0.005145 -0.003412
# 5 0.006973 -0.001991 0.005724 0.005145 0.047585 -0.014248
# 6 0.000218 -0.000134 0.008328 -0.003412 -0.014248 0.048834
#
#
# Mechanical properties :
#
#
# Convention : Reuss Voigt Hill
#
# Bulk Modulus (GPa) = 21.80917 34.16729 27.98823
# Shear Modulus (GPa) = 22.11910 26.92397 24.52153
#
# Velocity S-wave (km/s) = 3.42596 3.77980 3.60722
# Velocity P-wave (km/s) = 5.21751 6.09751 5.67459
#
# Compressibility (1/GPa) = 0.04585228
#
# Stress axis : x y z
#
# Youngs Moduli (GPa) = 44.31657 71.79129 40.95935
#
# Poissons Ratio (x) = 0.33527 -0.05363
# Poissons Ratio (y) = 0.20696 0.17070
# Poissons Ratio (z) = -0.05803 0.29919
#
# Static dielectric constant tensor:
#      x y z
#    x 1.676850 0.003150 -0.000660 
#    y 0.003150 1.681950 0.014580 
#    z -0.000660 0.014580 1.650640 
# 
# From -- ./inp_files/175118.got.cif
#   From: 2010.05.17/outbox.cif.g08.bks.cpg/sg2_88_cif.got.tgz:175118.got - 2010.06.03 11:33:40.
