data_PCOD9094213
_publ_section_title
;
Structure prediction by ZEFSAII (Michael W. Deem and Ramdas Pophale) SiO2 
 PCOD9094213
Probable space group: P -1
;
_chemical_formula_sum "Si O2"
_cell_formula_units_Z 10
_cell_length_a 11.658451
_cell_length_b 5.331908
_cell_length_c 14.362889
_cell_angle_alpha 102.778330
_cell_angle_beta 31.749824
_cell_angle_gamma 89.741622
_cell_volume 424.688394
_symmetry_space_group_name_H-M "P -1"
_symmetry_group_IT_number 2
_symmetry_cell_setting 'triclinic'
loop_
_space_group_symop_operation_xyz
x,y,z
-x,-y,-z
loop_
_atom_site_type_symbol
_atom_site_label
_atom_site_fract_x
_atom_site_fract_y
_atom_site_fract_z
Si Si1 0.241199 0.370005 0.764105
Si Si2 0.460876 0.240273 0.413300
Si Si3 0.151433 0.115463 0.281476
Si Si4 0.318532 0.879939 0.349309
Si Si5 0.510273 0.623544 0.903359
O O1 0.246660 0.359409 0.645655
O O2 0.410037 0.546238 0.675893
O O3 0.361216 0.050052 0.688354
O O4 0.000000 0.500000 0.000000
O O5 0.382059 0.127009 0.365877
O O6 0.229736 0.368744 0.270899
O O7 0.884609 0.159757 0.451979
O O8 0.224670 0.955577 0.315852
O O9 0.315379 0.933914 0.069932
O O10 0.520072 0.577165 0.170650
O O11 0.500000 0.500000 0.000000
#
# Coordination Sequence:
#
# PCOD9094213 Si02
#       5
#     2   2   2   2   2
#     4  10  22  45  66  88 123 157 195 262 316 357
#     4  10  23  40  65  95 120 154 209 249 302 375
#     4   9  19  35  54  77 122 156 189 233 287 340
#     4  10  20  34  55  84 113 156 192 238 288 344
#     4   9  18  34  51  77 114 155 194 236 277 340
#
# _framework density 23.546676000000001
#
# number of rings (size 3 to 8) (size 9 to 14) (size 15 to 20)
#    0.000    2.400    0.000    1.200    2.800    1.600 
#    7.200    0.000    0.000    0.000    0.000    0.000 
#    0.000    0.000    0.000    0.000    0.000    0.000 
#
# Total GULP energy -55727.714710 kJ/mol
# GULP energy per Si atom -5572.771471 kJ/mol
# Density = 2.349308 g / cm^3
# Si number density = 23.546676 Si / 1000 Ang^3
#
#
#
# Elastic Constant Matrix: (Units=GPa)
#
#
# Indices 1 2 3 4 5 6 
#
# 1 33.5744 4.9916 18.0706 15.7196 17.7103 13.0023
# 2 4.9916 112.6399 22.3018 -7.8082 17.4481 21.5431
# 3 18.0706 22.3018 144.3257 -1.9834 22.9743 17.0347
# 4 15.7196 -7.8082 -1.9834 37.9974 9.7969 15.5690
# 5 17.7103 17.4481 22.9743 9.7969 16.0809 8.3545
# 6 13.0023 21.5431 17.0347 15.5690 8.3545 39.3059
#
#
#
# Elastic Compliance Matrix: (Units=1/GPa)
#
#
# Indices 1 2 3 4 5 6 
#
# 1 0.098437 0.019465 0.008871 0.007403 -0.135720 -0.021160
# 2 0.019465 0.018334 0.004341 0.014152 -0.049123 -0.013534
# 3 0.008871 0.004341 0.011247 0.008985 -0.032465 -0.006847
# 4 0.007403 0.014152 0.008985 0.049955 -0.055277 -0.022137
# 5 -0.135720 -0.049123 -0.032465 -0.055277 0.324894 0.038728
# 6 -0.021160 -0.013534 -0.006847 -0.022137 0.038728 0.043363
#
#
# Mechanical properties :
#
#
# Convention : Reuss Voigt Hill
#
# Bulk Modulus (GPa) = 5.17138 42.36313 23.76726
# Shear Modulus (GPa) = 9.16871 35.02191 22.09531
#
# Velocity S-wave (km/s) = 1.97542 3.86079 3.06659
# Velocity P-wave (km/s) = 2.72104 6.15666 4.75965
#
# Compressibility (1/GPa) = 0.19337181
#
# Stress axis : x y z
#
# Youngs Moduli (GPa) = 10.15881 54.54217 88.91559
#
# Poissons Ratio (x) = -1.06166 -0.78876
# Poissons Ratio (y) = -0.19774 -0.38600
# Poissons Ratio (z) = -0.09012 -0.23678
#
# Static dielectric constant tensor:
#      x y z
#    x 1.927790 -0.030000 -0.009690 
#    y -0.030000 1.949180 0.039470 
#    z -0.009690 0.039470 1.988350 
# 
# From -- ./inp_files/30452.got.cif
#   From: 2010.05.17/outbox.cif.g08.bks.cpg/sg2_16_cif.got.tgz:30452.got - 2010.06.03 11:33:40.
