data_PCOD9094487
_publ_section_title
;
Structure prediction by ZEFSAII (Michael W. Deem and Ramdas Pophale) SiO2 
 PCOD9094487
Probable space group: P -1
;
_chemical_formula_sum "Si O2"
_cell_formula_units_Z 14
_cell_length_a 18.201457
_cell_length_b 10.336979
_cell_length_c 9.426360
_cell_angle_alpha 107.658614
_cell_angle_beta 40.326723
_cell_angle_gamma 139.445925
_cell_volume 563.401939
_symmetry_space_group_name_H-M "P -1"
_symmetry_group_IT_number 2
_symmetry_cell_setting 'triclinic'
loop_
_space_group_symop_operation_xyz
x,y,z
-x,-y,-z
loop_
_atom_site_type_symbol
_atom_site_label
_atom_site_fract_x
_atom_site_fract_y
_atom_site_fract_z
Si Si1 0.171517 0.854909 0.240943
Si Si2 0.093380 0.065487 0.730334
Si Si3 0.480995 0.175007 0.499142
Si Si4 0.841362 0.352297 0.050641
Si Si5 0.780618 0.636667 0.812627
Si Si6 0.507849 0.621338 0.210913
Si Si7 0.363738 0.068990 0.322730
O O1 0.984941 0.780378 0.477540
O O2 0.224234 0.868203 0.330128
O O3 0.394886 0.159736 0.958142
O O4 0.090586 0.646060 0.196466
O O5 0.243838 0.329687 0.512453
O O6 0.263083 0.115213 0.509087
O O7 0.892970 0.809959 0.845816
O O8 0.000000 0.000000 0.000000
O O9 0.738192 0.395399 0.195048
O O10 0.444275 0.283758 0.662747
O O11 0.380943 0.035055 0.446617
O O12 0.356675 0.950184 0.715399
O O13 0.000000 0.500000 0.000000
O O14 0.634976 0.615855 0.971345
O O15 0.613494 0.344374 0.995815
#
# Coordination Sequence:
#
# PCOD9094487 Si02
#       7
#     2   2   2   2   2   2   2
#     4  10  23  40  60  90 123 161 200 246 303 357
#     4  10  20  34  57  91 126 164 202 239 291 356
#     4  10  22  41  63  87 118 158 200 253 301 348
#     4  10  24  44  65  86 111 153 210 254 299 357
#     4  10  21  35  58  90 126 163 197 238 294 358
#     4  10  21  37  60  89 125 162 202 244 290 353
#     4  10  22  39  59  90 128 157 196 247 303 360
#
# _framework density 24.849045
#
# number of rings (size 3 to 8) (size 9 to 14) (size 15 to 20)
#    0.000    2.000    0.000    2.143    0.000   18.286 
#    0.000    1.429    0.000    0.000    0.000    0.000 
#    0.000    0.000    0.000    0.000    0.000    0.000 
#
# Total GULP energy -78124.074272 kJ/mol
# GULP energy per Si atom -5580.291019 kJ/mol
# Density = 2.479249 g / cm^3
# Si number density = 24.849045 Si / 1000 Ang^3
#
#
#
# Elastic Constant Matrix: (Units=GPa)
#
#
# Indices 1 2 3 4 5 6 
#
# 1 80.9548 20.9737 35.8550 10.9521 3.6626 21.1677
# 2 20.9737 87.3549 53.2808 29.7261 -3.3917 19.8436
# 3 35.8550 53.2808 110.4891 11.1233 5.2585 10.6739
# 4 10.9521 29.7261 11.1233 37.3551 -0.8548 7.5884
# 5 3.6626 -3.3917 5.2585 -0.8548 34.4508 -0.0968
# 6 21.1677 19.8436 10.6739 7.5884 -0.0968 31.4149
#
#
#
# Elastic Compliance Matrix: (Units=1/GPa)
#
#
# Indices 1 2 3 4 5 6 
#
# 1 0.017429 0.002849 -0.005591 -0.003539 -0.000837 -0.010791
# 2 0.002849 0.024889 -0.010544 -0.015323 0.003348 -0.010347
# 3 -0.005591 -0.010544 0.015212 0.004599 -0.002640 0.004140
# 4 -0.003539 -0.015323 0.004599 0.038362 -0.000879 0.001232
# 5 -0.000837 0.003348 -0.002640 -0.000879 0.029826 -0.000349
# 6 -0.010791 -0.010347 0.004140 0.001232 -0.000349 0.043934
#
#
# Mechanical properties :
#
#
# Convention : Reuss Voigt Hill
#
# Bulk Modulus (GPa) = 32.30140 55.44642 43.87391
# Shear Modulus (GPa) = 24.20787 31.89010 28.04899
#
# Velocity S-wave (km/s) = 3.12460 3.58628 3.36337
# Velocity P-wave (km/s) = 5.10341 6.28572 5.72516
#
# Compressibility (1/GPa) = 0.03095841
#
# Stress axis : x y z
#
# Youngs Moduli (GPa) = 57.37515 40.17761 65.73620
#
# Poissons Ratio (x) = -0.11445 0.36753
# Poissons Ratio (y) = -0.16344 0.69311
# Poissons Ratio (z) = 0.32078 0.42363
#
# Static dielectric constant tensor:
#      x y z
#    x 1.979400 -0.011670 0.001100 
#    y -0.011670 2.016880 0.029600 
#    z 0.001100 0.029600 2.059340 
# 
# From -- ./inp_files/333352.got.cif
#   From: 2010.05.17/outbox.cif.g08.bks.cpg/sg2_167_cif.got.tgz:333352.got - 2010.06.03 11:33:40.
