data_PCOD9094555
_publ_section_title
;
Structure prediction by ZEFSAII (Michael W. Deem and Ramdas Pophale) SiO2 
 PCOD9094555
Probable space group: P -1
;
_chemical_formula_sum "Si O2"
_cell_formula_units_Z 16
_cell_length_a 12.135285
_cell_length_b 13.065509
_cell_length_c 20.161287
_cell_angle_alpha 26.594065
_cell_angle_beta 134.362159
_cell_angle_gamma 116.884098
_cell_volume 860.687826
_symmetry_space_group_name_H-M "P -1"
_symmetry_group_IT_number 2
_symmetry_cell_setting 'triclinic'
loop_
_space_group_symop_operation_xyz
x,y,z
-x,-y,-z
loop_
_atom_site_type_symbol
_atom_site_label
_atom_site_fract_x
_atom_site_fract_y
_atom_site_fract_z
Si Si1 0.190217 0.217815 0.408876
Si Si2 0.585037 0.353537 0.995321
Si Si3 0.128218 0.271525 0.496980
Si Si4 0.807326 0.694022 0.344341
Si Si5 0.472331 0.680124 0.153049
Si Si6 0.509513 0.115083 0.509829
Si Si7 0.224210 0.658335 0.748193
Si Si8 0.810064 0.586315 0.987569
O O1 0.171228 0.349760 0.397278
O O2 0.376262 0.102663 0.514227
O O3 0.027667 0.425803 0.170923
O O4 0.162518 0.969036 0.553537
O O5 0.483564 0.353313 0.886994
O O6 0.426983 0.513834 0.888759
O O7 0.709436 0.476978 0.963425
O O8 0.725329 0.049649 0.252829
O O9 0.154125 0.361265 0.528281
O O10 0.923241 0.336916 0.365926
O O11 0.641718 0.655965 0.277175
O O12 0.000000 0.500000 0.500000
O O13 0.713495 0.016214 0.098569
O O14 0.458182 0.422834 0.311583
O O15 0.500000 0.000000 0.500000
O O16 0.712652 0.900376 0.747346
O O17 0.226626 0.493801 0.908780
#
# Coordination Sequence:
#
# PCOD9094555 Si02
#       8
#     2   2   2   2   2   2   2   2
#     4  11  21  34  54  85 121 156 188 233 280 343
#     4  11  17  32  56  82 118 150 180 232 283 338
#     4  10  20  34  58  87 110 145 198 244 283 324
#     4  10  22  42  67  82 106 148 199 252 287 320
#     4  10  23  40  57  88 114 144 200 235 280 350
#     4  12  24  38  56  86 127 158 181 222 292 360
#     4  11  18  31  56  86 121 149 190 231 280 344
#     4  11  20  32  52  85 120 155 183 219 282 345
#
# _framework density 18.589783000000001
#
# number of rings (size 3 to 8) (size 9 to 14) (size 15 to 20)
#    0.000    1.250    5.000    2.625    0.000    1.500 
#    0.000    0.625    0.000    3.750    0.000    0.000 
#    0.000    0.000    0.000    0.000    0.000    0.000 
#
# Total GULP energy -89097.491887 kJ/mol
# GULP energy per Si atom -5568.593243 kJ/mol
# Density = 1.854747 g / cm^3
# Si number density = 18.589783 Si / 1000 Ang^3
#
#
#
# Elastic Constant Matrix: (Units=GPa)
#
#
# Indices 1 2 3 4 5 6 
#
# 1 43.0757 21.6253 12.6215 -3.2700 5.3282 -11.8881
# 2 21.6253 111.1914 31.0620 22.7031 -4.1260 -11.2333
# 3 12.6215 31.0620 83.7425 1.8480 -4.7563 -7.9313
# 4 -3.2700 22.7031 1.8480 37.3105 0.9634 -2.8171
# 5 5.3282 -4.1260 -4.7563 0.9634 27.0630 -7.3511
# 6 -11.8881 -11.2333 -7.9313 -2.8171 -7.3511 19.7782
#
#
#
# Elastic Compliance Matrix: (Units=1/GPa)
#
#
# Indices 1 2 3 4 5 6 
#
# 1 0.031798 -0.005962 -0.001556 0.007707 -0.003689 0.014829
# 2 -0.005962 0.013187 -0.003345 -0.008268 0.003635 0.002738
# 3 -0.001556 -0.003345 0.013974 0.001439 0.003347 0.004218
# 4 0.007707 -0.008268 0.001439 0.032823 -0.002541 0.004244
# 5 -0.003689 0.003635 0.003347 -0.002541 0.043529 0.017006
# 6 0.014829 0.002738 0.004218 0.004244 0.017006 0.069646
#
#
# Mechanical properties :
#
#
# Convention : Reuss Voigt Hill
#
# Bulk Modulus (GPa) = 26.85726 40.95856 33.90791
# Shear Modulus (GPa) = 20.91224 28.34371 24.62797
#
# Velocity S-wave (km/s) = 3.35764 3.90897 3.64375
# Velocity P-wave (km/s) = 5.43234 6.51568 5.99852
#
# Compressibility (1/GPa) = 0.03723388
#
# Stress axis : x y z
#
# Youngs Moduli (GPa) = 31.44864 75.83199 71.55988
#
# Poissons Ratio (x) = 0.45210 0.11137
# Poissons Ratio (y) = 0.18749 0.23934
# Poissons Ratio (z) = 0.04894 0.25363
#
# Static dielectric constant tensor:
#      x y z
#    x 1.648030 -0.027200 -0.015610 
#    y -0.027200 1.685330 0.012510 
#    z -0.015610 0.012510 1.677530 
# 
# From -- ./inp_files/433114.got.cif
#   From: 2010.05.17/outbox.cif.g08.bks.cpg/sg2_217_cif.got.tgz:433114.got - 2010.06.03 11:33:40.
