data_PCOD9094740
_publ_section_title
;
Structure prediction by ZEFSAII (Michael W. Deem and Ramdas Pophale) SiO2 
 PCOD9094740
Probable space group: P -1
;
_chemical_formula_sum "Si O2"
_cell_formula_units_Z 14
_cell_length_a 9.926836
_cell_length_b 12.447985
_cell_length_c 9.773062
_cell_angle_alpha 80.932268
_cell_angle_beta 59.531043
_cell_angle_gamma 36.533788
_cell_volume 541.214443
_symmetry_space_group_name_H-M "P -1"
_symmetry_group_IT_number 2
_symmetry_cell_setting 'triclinic'
loop_
_space_group_symop_operation_xyz
x,y,z
-x,-y,-z
loop_
_atom_site_type_symbol
_atom_site_label
_atom_site_fract_x
_atom_site_fract_y
_atom_site_fract_z
Si Si1 0.286908 0.231243 0.061034
Si Si2 0.926980 0.296056 0.556915
Si Si3 0.643992 0.593154 0.440880
Si Si4 0.538442 0.295332 0.984004
Si Si5 0.664541 0.128501 0.691385
Si Si6 0.896515 0.263416 0.901870
Si Si7 0.445366 0.132641 0.396569
O O1 0.954039 0.399871 0.236845
O O2 0.382483 0.274424 0.105048
O O3 0.363725 0.242479 0.872648
O O4 0.500000 0.000000 0.000000
O O5 0.647328 0.495423 0.569794
O O6 0.879443 0.293538 0.739305
O O7 0.146039 0.271717 0.448970
O O8 0.114039 0.091954 0.431030
O O9 0.403797 0.745221 0.415457
O O10 0.606879 0.727563 0.517986
O O11 0.759139 0.128749 0.783221
O O12 0.715909 0.258270 0.012263
O O13 0.289521 0.521801 0.998356
O O14 0.238545 0.051545 0.808042
O O15 0.500000 0.000000 0.500000
#
# Coordination Sequence:
#
# PCOD9094740 Si02
#       7
#     2   2   2   2   2   2   2
#     4  10  20  37  61  92 124 155 207 256 306 369
#     4  11  22  37  64  95 120 160 212 259 308 369
#     4  12  20  38  61  93 124 160 203 264 315 351
#     4   9  22  38  67  89 123 175 197 256 319 368
#     4  10  22  38  61  95 119 162 204 256 319 355
#     4  10  20  43  63  88 130 165 210 249 315 375
#     4  10  20  34  60  91 118 161 208 255 304 362
#
# _framework density 25.867747999999999
#
# number of rings (size 3 to 8) (size 9 to 14) (size 15 to 20)
#    0.857    0.857    4.286    2.571    0.000    0.571 
#    0.000    0.714    3.143    2.571    0.000    0.000 
#    0.000    0.000    0.000    0.000    0.000    0.000 
#
# Total GULP energy -78254.533372 kJ/mol
# GULP energy per Si atom -5589.609527 kJ/mol
# Density = 2.580887 g / cm^3
# Si number density = 25.867748 Si / 1000 Ang^3
#
#
#
# Elastic Constant Matrix: (Units=GPa)
#
#
# Indices 1 2 3 4 5 6 
#
# 1 63.8189 -15.6516 5.4282 2.9405 -0.2827 24.6385
# 2 -15.6516 87.0779 -1.3684 -10.9085 16.6966 11.7385
# 3 5.4282 -1.3684 100.0387 14.8799 8.5833 8.7771
# 4 2.9405 -10.9085 14.8799 39.7660 4.6925 11.7944
# 5 -0.2827 16.6966 8.5833 4.6925 33.5115 8.1911
# 6 24.6385 11.7385 8.7771 11.7944 8.1911 28.2785
#
#
#
# Elastic Compliance Matrix: (Units=1/GPa)
#
#
# Indices 1 2 3 4 5 6 
#
# 1 0.034095 0.012877 -0.000190 0.013001 0.002129 -0.041032
# 2 0.012877 0.019402 0.000310 0.011621 -0.005753 -0.022550
# 3 -0.000190 0.000310 0.010801 -0.003298 -0.002138 -0.001320
# 4 0.013001 0.011621 -0.003298 0.037868 -0.002777 -0.030118
# 5 0.002129 -0.005753 -0.002138 -0.002777 0.035607 -0.007959
# 6 -0.041032 -0.022550 -0.001320 -0.030118 -0.007959 0.095750
#
#
# Mechanical properties :
#
#
# Convention : Reuss Voigt Hill
#
# Bulk Modulus (GPa) = 11.07520 25.30577 18.19049
# Shear Modulus (GPa) = 21.04138 37.81303 29.42721
#
# Velocity S-wave (km/s) = 2.85515 3.82747 3.37649
# Velocity P-wave (km/s) = 3.89358 5.41634 4.71681
#
# Compressibility (1/GPa) = 0.09029184
#
# Stress axis : x y z
#
# Youngs Moduli (GPa) = 29.32958 51.54045 92.58759
#
# Poissons Ratio (x) = -0.66369 0.01763
# Poissons Ratio (y) = -0.37768 -0.02872
# Poissons Ratio (z) = 0.00558 -0.01599
#
# Static dielectric constant tensor:
#      x y z
#    x 2.124070 -0.029050 -0.063020 
#    y -0.029050 2.044960 -0.039210 
#    z -0.063020 -0.039210 2.057530 
# 
# From -- ./inp_files/431456.got.cif
#   From: 2010.05.17/outbox.cif.g08.bks.cpg/sg2_216_cif.got.tgz:431456.got - 2010.06.03 11:33:40.
