data_PCOD9094044
_publ_section_title
;
Structure prediction by ZEFSAII (Michael W. Deem and Ramdas Pophale) SiO2 
 PCOD9094044
Probable space group: P -1
;
_chemical_formula_sum "Si O2"
_cell_formula_units_Z 14
_cell_length_a 9.932264
_cell_length_b 11.768751
_cell_length_c 16.201493
_cell_angle_alpha 34.256352
_cell_angle_beta 149.515986
_cell_angle_gamma 127.742621
_cell_volume 506.427338
_symmetry_space_group_name_H-M "P -1"
_symmetry_group_IT_number 2
_symmetry_cell_setting 'triclinic'
loop_
_space_group_symop_operation_xyz
x,y,z
-x,-y,-z
loop_
_atom_site_type_symbol
_atom_site_label
_atom_site_fract_x
_atom_site_fract_y
_atom_site_fract_z
Si Si1 0.516478 0.963138 0.650719
Si Si2 0.518632 0.381890 0.755041
Si Si3 0.639740 0.387378 0.305455
Si Si4 0.808729 0.264055 0.297903
Si Si5 0.837971 0.625658 0.704930
Si Si6 0.571129 0.913055 0.244624
Si Si7 0.956172 0.187215 0.742177
O O1 0.271497 0.199638 0.384657
O O2 0.495964 0.800984 0.665631
O O3 0.419618 0.851071 0.745029
O O4 0.804930 0.010598 0.780597
O O5 0.513809 0.419589 0.828323
O O6 0.795046 0.414938 0.842586
O O7 0.475183 0.181211 0.811306
O O8 0.252123 0.593328 0.458779
O O9 0.731410 0.422864 0.240721
O O10 0.921502 0.259440 0.584510
O O11 0.869900 0.383020 0.178721
O O12 0.113415 0.077029 0.591559
O O13 0.621572 0.728223 0.452778
O O14 0.276150 0.101332 0.988796
#
# Coordination Sequence:
#
# PCOD9094044 Si02
#       7
#     2   2   2   2   2   2   2
#     4   9  16  34  53  77 105 137 177 208 257 313
#     4   9  19  34  54  78 107 135 174 211 259 309
#     4   8  18  33  54  77 100 145 168 211 259 309
#     4   8  19  30  55  77 108 131 178 205 270 300
#     4   9  18  31  56  77 103 139 173 216 251 311
#     4  10  20  34  52  86 101 135 175 216 256 310
#     4   9  19  33  58  76 104 137 175 214 255 302
#
# _framework density 27.644635999999998
#
# number of rings (size 3 to 8) (size 9 to 14) (size 15 to 20)
#    2.571    0.571    0.000    1.286    0.000    3.429 
#    0.000    0.714    0.000    4.286    0.000    0.000 
#    0.000    0.000    0.000    0.000    0.000    0.000 
#
# Total GULP energy -78127.302270 kJ/mol
# GULP energy per Si atom -5580.521591 kJ/mol
# Density = 2.758172 g / cm^3
# Si number density = 27.644636 Si / 1000 Ang^3
#
#
#
# Elastic Constant Matrix: (Units=GPa)
#
#
# Indices 1 2 3 4 5 6 
#
# 1 147.7561 47.0962 23.0771 12.0701 23.7387 -6.9097
# 2 47.0962 122.2330 28.3265 15.5559 2.9037 -9.2957
# 3 23.0771 28.3265 106.7683 7.0994 14.3899 -2.1134
# 4 12.0701 15.5559 7.0994 14.9520 -9.0568 6.5644
# 5 23.7387 2.9037 14.3899 -9.0568 32.5791 -3.1520
# 6 -6.9097 -9.2957 -2.1134 6.5644 -3.1520 44.3421
#
#
#
# Elastic Compliance Matrix: (Units=1/GPa)
#
#
# Indices 1 2 3 4 5 6 
#
# 1 0.010509 -0.001795 0.000896 -0.015472 -0.011929 0.002746
# 2 -0.001795 0.011091 -0.001371 -0.012348 -0.002154 0.003655
# 3 0.000896 -0.001371 0.011363 -0.010292 -0.008282 0.001329
# 4 -0.015472 -0.012348 -0.010292 0.139297 0.053486 -0.022310
# 5 -0.011929 -0.002154 -0.008282 0.053486 0.057473 -0.006538
# 6 0.002746 0.003655 0.001329 -0.022310 -0.006538 0.026647
#
#
# Mechanical properties :
#
#
# Convention : Reuss Voigt Hill
#
# Bulk Modulus (GPa) = 35.18356 63.75077 49.46716
# Shear Modulus (GPa) = 18.49142 36.92516 27.70829
#
# Velocity S-wave (km/s) = 2.58911 3.65870 3.16935
# Velocity P-wave (km/s) = 4.65754 6.39992 5.59695
#
# Compressibility (1/GPa) = 0.02842237
#
# Stress axis : x y z
#
# Youngs Moduli (GPa) = 95.15572 90.16207 88.00431
#
# Poissons Ratio (x) = 0.16188 -0.07883
# Poissons Ratio (y) = 0.17085 0.12063
# Poissons Ratio (z) = -0.08524 0.12359
#
# Static dielectric constant tensor:
#      x y z
#    x 2.184970 -0.000520 0.014670 
#    y -0.000520 2.192460 -0.028630 
#    z 0.014670 -0.028630 2.151780 
# 
# From -- ./inp_files/594724.got.cif
#   From: 2010.05.17/outbox.cif.g08.bks.cpg/sg2_298_cif.got.tgz:594724.got - 2010.06.03 11:33:40.
