data_PCOD9094697
_publ_section_title
;
Structure prediction by ZEFSAII (Michael W. Deem and Ramdas Pophale) SiO2 
 PCOD9094697
Probable space group: P -1
;
_chemical_formula_sum "Si O2"
_cell_formula_units_Z 10
_cell_length_a 16.019115
_cell_length_b 18.025623
_cell_length_c 7.653413
_cell_angle_alpha 140.713467
_cell_angle_beta 133.115067
_cell_angle_gamma 18.100351
_cell_volume 419.153396
_symmetry_space_group_name_H-M "P -1"
_symmetry_group_IT_number 2
_symmetry_cell_setting 'triclinic'
loop_
_space_group_symop_operation_xyz
x,y,z
-x,-y,-z
loop_
_atom_site_type_symbol
_atom_site_label
_atom_site_fract_x
_atom_site_fract_y
_atom_site_fract_z
Si Si1 0.047609 0.421125 0.209171
Si Si2 0.738050 0.005493 0.160062
Si Si3 0.585173 0.915354 0.228069
Si Si4 0.259688 0.807953 0.789692
Si Si5 0.309824 0.789468 0.214774
O O1 0.223695 0.240297 0.951120
O O2 0.783271 0.746167 0.370354
O O3 0.015247 0.316652 0.032345
O O4 0.281191 0.255519 0.374157
O O5 0.637223 0.160799 0.476561
O O6 0.812756 0.031043 0.169488
O O7 0.508696 0.848619 0.993670
O O8 0.500000 0.500000 0.500000
O O9 0.339046 0.794288 0.062201
O O10 0.002994 0.962777 0.746690
O O11 0.500000 0.500000 0.000000
#
# Coordination Sequence:
#
# PCOD9094697 Si02
#       5
#     2   2   2   2   2
#     4   8  16  30  54  86 113 149 194 241 298 359
#     4  10  20  34  60  81 117 160 193 243 304 349
#     4   8  16  30  54  86 113 147 197 240 299 356
#     4  11  24  38  58  84 121 158 203 250 295 354
#     4  11  24  38  55  86 120 158 203 247 293 359
#
# _framework density 23.857614999999999
#
# number of rings (size 3 to 8) (size 9 to 14) (size 15 to 20)
#    1.200    1.200    2.000    0.600    2.800    0.000 
#    0.000    0.000    0.000    4.800    0.000   11.200 
#    0.000    0.000    0.000    0.000    0.000    0.000 
#
# Total GULP energy -55823.247516 kJ/mol
# GULP energy per Si atom -5582.324752 kJ/mol
# Density = 2.380331 g / cm^3
# Si number density = 23.857615 Si / 1000 Ang^3
#
#
#
# Elastic Constant Matrix: (Units=GPa)
#
#
# Indices 1 2 3 4 5 6 
#
# 1 115.2722 28.2299 37.9180 -5.4561 -12.2315 27.2647
# 2 28.2299 134.4177 35.2162 23.2136 -9.3408 34.7369
# 3 37.9180 35.2162 125.3719 8.2275 -21.2718 12.1513
# 4 -5.4561 23.2136 8.2275 39.1478 12.5390 -2.1085
# 5 -12.2315 -9.3408 -21.2718 12.5390 30.9666 -7.1081
# 6 27.2647 34.7369 12.1513 -2.1085 -7.1081 46.0760
#
#
#
# Elastic Compliance Matrix: (Units=1/GPa)
#
#
# Indices 1 2 3 4 5 6 
#
# 1 0.011104 -0.000598 -0.002783 0.002132 0.000225 -0.005254
# 2 -0.000598 0.011647 -0.001053 -0.008538 0.004200 -0.007892
# 3 -0.002783 -0.001053 0.010687 -0.004504 0.007894 0.000634
# 4 0.002132 -0.008538 -0.004504 0.038257 -0.019133 0.005162
# 5 0.000225 0.004200 0.007894 -0.019133 0.047048 0.001002
# 6 -0.005254 -0.007892 0.000634 0.005162 0.001002 0.030986
#
#
# Mechanical properties :
#
#
# Convention : Reuss Voigt Hill
#
# Bulk Modulus (GPa) = 40.69879 64.19887 52.44883
# Shear Modulus (GPa) = 29.97827 41.48460 35.73144
#
# Velocity S-wave (km/s) = 3.54863 4.17447 3.87421
# Velocity P-wave (km/s) = 5.82121 7.08537 6.48417
#
# Compressibility (1/GPa) = 0.02457076
#
# Stress axis : x y z
#
# Youngs Moduli (GPa) = 90.05390 85.86060 93.56987
#
# Poissons Ratio (x) = 0.05133 0.26042
# Poissons Ratio (y) = 0.05383 0.09852
# Poissons Ratio (z) = 0.25063 0.09040
#
# Static dielectric constant tensor:
#      x y z
#    x 1.920700 0.005000 -0.068500 
#    y 0.005000 2.017610 0.017620 
#    z -0.068500 0.017620 1.866640 
# 
# From -- ./inp_files/318158.got.cif
#   From: 2010.05.17/outbox.cif.g08.bks.cpg/sg2_160_cif.got.tgz:318158.got - 2010.06.03 11:33:40.
