data_PCOD9094411
_publ_section_title
;
Structure prediction by ZEFSAII (Michael W. Deem and Ramdas Pophale) SiO2 
 PCOD9094411
Probable space group: P -1
;
_chemical_formula_sum "Si O2"
_cell_formula_units_Z 16
_cell_length_a 5.675994
_cell_length_b 9.052929
_cell_length_c 17.740797
_cell_angle_alpha 70.877921
_cell_angle_beta 69.767910
_cell_angle_gamma 112.165420
_cell_volume 673.148964
_symmetry_space_group_name_H-M "P -1"
_symmetry_group_IT_number 2
_symmetry_cell_setting 'triclinic'
loop_
_space_group_symop_operation_xyz
x,y,z
-x,-y,-z
loop_
_atom_site_type_symbol
_atom_site_label
_atom_site_fract_x
_atom_site_fract_y
_atom_site_fract_z
Si Si1 0.894232 0.329247 0.365596
Si Si2 0.431779 0.731731 0.016059
Si Si3 0.115813 0.334702 0.066624
Si Si4 0.649544 0.381050 0.526676
Si Si5 0.235988 0.243221 0.234662
Si Si6 0.489372 0.704731 0.282172
Si Si7 0.428582 0.017459 0.171868
Si Si8 0.832987 0.559924 0.203332
O O1 0.665249 0.273400 0.469787
O O2 0.812977 0.433973 0.296366
O O3 0.977258 0.203793 0.329423
O O4 0.218808 0.488969 0.336853
O O5 0.253528 0.554042 0.007476
O O6 0.168650 0.669274 0.114350
O O7 0.719058 0.721460 0.002694
O O8 0.570104 0.925842 0.924336
O O9 0.186910 0.315625 0.149145
O O10 0.770409 0.179543 0.126472
O O11 0.500000 0.500000 0.500000
O O12 0.471059 0.256583 0.639878
O O13 0.000000 0.500000 0.500000
O O14 0.235858 0.063230 0.239532
O O15 0.563468 0.409459 0.203023
O O16 0.768871 0.713094 0.212935
O O17 0.393214 0.826580 0.228986
#
# Coordination Sequence:
#
# PCOD9094411 Si02
#       8
#     2   2   2   2   2   2   2   2
#     4  10  20  38  64  88 110 149 204 249 290 357
#     4  10  21  32  56  83 109 158 204 237 284 356
#     4  10  20  34  57  82 113 155 204 240 286 351
#     4  10  20  41  67  93 118 161 207 251 302 376
#     4  10  20  35  59  87 112 152 202 245 293 352
#     4  10  24  38  59  89 117 153 192 247 311 363
#     4  11  22  38  54  84 125 154 190 245 306 352
#     4  11  20  36  60  82 115 150 202 247 286 353
#
# _framework density 23.768886999999999
#
# number of rings (size 3 to 8) (size 9 to 14) (size 15 to 20)
#    0.000    1.750    3.750    0.375    3.500    2.500 
#    0.000    1.875    0.000    3.000    0.000    0.000 
#    0.000    0.000    0.000    0.000    0.000    0.000 
#
# Total GULP energy -89281.129211 kJ/mol
# GULP energy per Si atom -5580.070576 kJ/mol
# Density = 2.371479 g / cm^3
# Si number density = 23.768887 Si / 1000 Ang^3
#
#
#
# Elastic Constant Matrix: (Units=GPa)
#
#
# Indices 1 2 3 4 5 6 
#
# 1 69.7849 29.0817 25.4510 12.7110 -5.1881 -8.7360
# 2 29.0817 57.4324 42.9818 23.1188 -16.9937 -29.9107
# 3 25.4510 42.9818 87.6716 33.5533 -4.4133 -23.3843
# 4 12.7110 23.1188 33.5533 35.3725 -4.0792 -12.3042
# 5 -5.1881 -16.9937 -4.4133 -4.0792 33.8390 5.4915
# 6 -8.7360 -29.9107 -23.3843 -12.3042 5.4915 51.3763
#
#
#
# Elastic Compliance Matrix: (Units=1/GPa)
#
#
# Indices 1 2 3 4 5 6 
#
# 1 0.018795 -0.011405 -0.000990 0.000108 -0.002376 -0.003615
# 2 -0.011405 0.050834 -0.012501 -0.008953 0.018169 0.017880
# 3 -0.000990 -0.012501 0.022856 -0.013665 -0.005134 0.000233
# 4 0.000108 -0.008953 -0.013665 0.046941 -0.000586 -0.000110
# 5 -0.002376 0.018169 -0.005134 -0.000586 0.036964 0.003746
# 6 -0.003615 0.017880 0.000233 -0.000110 0.003746 0.028938
#
#
# Mechanical properties :
#
#
# Convention : Reuss Voigt Hill
#
# Bulk Modulus (GPa) = 23.42284 45.54643 34.48463
# Shear Modulus (GPa) = 18.56323 31.94253 25.25288
#
# Velocity S-wave (km/s) = 2.79765 3.66987 3.26304
# Velocity P-wave (km/s) = 4.50684 6.09599 5.36063
#
# Compressibility (1/GPa) = 0.04269337
#
# Stress axis : x y z
#
# Youngs Moduli (GPa) = 53.20601 19.67180 43.75259
#
# Poissons Ratio (x) = 0.22436 0.04330
# Poissons Ratio (y) = 0.60683 0.54694
# Poissons Ratio (z) = 0.05265 0.24591
#
# Static dielectric constant tensor:
#      x y z
#    x 2.057110 -0.022200 -0.034010 
#    y -0.022200 1.961070 0.054630 
#    z -0.034010 0.054630 1.917010 
# 
# From -- ./inp_files/109469.got.cif
#   From: 2010.05.17/outbox.cif.g08.bks.cpg/sg2_55_cif.got.tgz:109469.got - 2010.06.03 11:33:40.
