data_PCOD9094053
_publ_section_title
;
Structure prediction by ZEFSAII (Michael W. Deem and Ramdas Pophale) SiO2 
 PCOD9094053
Probable space group: P -1
;
_chemical_formula_sum "Si O2"
_cell_formula_units_Z 10
_cell_length_a 13.194631
_cell_length_b 9.661281
_cell_length_c 13.330322
_cell_angle_alpha 151.859784
_cell_angle_beta 147.306570
_cell_angle_gamma 31.025447
_cell_volume 386.412428
_symmetry_space_group_name_H-M "P -1"
_symmetry_group_IT_number 2
_symmetry_cell_setting 'triclinic'
loop_
_space_group_symop_operation_xyz
x,y,z
-x,-y,-z
loop_
_atom_site_type_symbol
_atom_site_label
_atom_site_fract_x
_atom_site_fract_y
_atom_site_fract_z
Si Si1 0.970901 0.917667 0.253417
Si Si2 0.468928 0.841120 0.061132
Si Si3 0.365936 0.271303 0.671283
Si Si4 0.123436 0.484099 0.931336
Si Si5 0.949278 0.631601 0.680271
O O1 0.988546 0.718525 0.241618
O O2 0.753371 0.957304 0.047104
O O3 0.955240 0.275007 0.478107
O O4 0.144591 0.700550 0.177841
O O5 0.476582 0.486854 0.863024
O O6 0.506597 0.959615 0.277718
O O7 0.659301 0.773197 0.101541
O O8 0.267631 0.159778 0.425403
O O9 0.150125 0.537789 0.716568
O O10 0.993744 0.726455 0.887602
#
# Coordination Sequence:
#
# PCOD9094053 Si02
#       5
#     2   2   2   2   2
#     4  10  20  34  53  76 101 133 170 204 247 299
#     4   9  17  34  54  74 103 133 162 210 252 289
#     4   8  16  32  52  74 102 130 166 206 248 300
#     4  10  20  34  53  76 101 133 170 204 247 299
#     4   9  17  34  54  74 103 133 162 210 252 289
#
# _framework density 25.879083999999999
#
# number of rings (size 3 to 8) (size 9 to 14) (size 15 to 20)
#    0.000    2.800    0.000    1.200    0.000    0.000 
#    0.000   46.000    0.000   21.600    0.000    0.000 
#    0.000    0.000    0.000    0.000    0.000    0.000 
#
# Total GULP energy -55942.301245 kJ/mol
# GULP energy per Si atom -5594.230124 kJ/mol
# Density = 2.582018 g / cm^3
# Si number density = 25.879084 Si / 1000 Ang^3
#
#
#
# Elastic Constant Matrix: (Units=GPa)
#
#
# Indices 1 2 3 4 5 6 
#
# 1 114.5744 6.2150 22.7559 10.3712 -7.5592 27.7789
# 2 6.2150 58.9896 12.7965 1.7010 -5.3638 4.6525
# 3 22.7559 12.7965 68.8567 -13.5839 -3.7413 3.5191
# 4 10.3712 1.7010 -13.5839 40.5892 5.8832 -2.5195
# 5 -7.5592 -5.3638 -3.7413 5.8832 36.3684 -13.1147
# 6 27.7789 4.6525 3.5191 -2.5195 -13.1147 25.9072
#
#
#
# Elastic Compliance Matrix: (Units=1/GPa)
#
#
# Indices 1 2 3 4 5 6 
#
# 1 0.014096 0.000918 -0.005325 -0.006090 -0.002397 -0.016362
# 2 0.000918 0.018206 -0.003981 -0.002783 0.001810 -0.003067
# 3 -0.005325 -0.003981 0.018358 0.007877 0.000751 0.005077
# 4 -0.006090 -0.002783 0.007877 0.029843 -0.003055 0.007316
# 5 -0.002397 0.001810 0.000751 -0.003055 0.034867 0.019497
# 6 -0.016362 -0.003067 0.005077 0.007316 0.019497 0.066585
#
#
# Mechanical properties :
#
#
# Convention : Reuss Voigt Hill
#
# Bulk Modulus (GPa) = 29.51164 36.21728 32.86446
# Shear Modulus (GPa) = 23.80678 33.94984 28.87831
#
# Velocity S-wave (km/s) = 3.03631 3.62590 3.34412
# Velocity P-wave (km/s) = 4.87039 5.61736 5.25716
#
# Compressibility (1/GPa) = 0.03388493
#
# Stress axis : x y z
#
# Youngs Moduli (GPa) = 70.94355 54.92788 54.47303
#
# Poissons Ratio (x) = -0.05042 0.29004
# Poissons Ratio (y) = -0.06513 0.21683
# Poissons Ratio (z) = 0.37774 0.21865
#
# Static dielectric constant tensor:
#      x y z
#    x 2.042350 -0.002800 -0.059960 
#    y -0.002800 1.986670 -0.060750 
#    z -0.059960 -0.060750 2.097300 
# 
# From -- ./inp_files/18187.got.cif
#   From: 2010.05.17/outbox.cif.g08.bks.cpg/sg2_10_cif.got.tgz:18187.got - 2010.06.03 11:33:40.
