data_PCOD9094460
_publ_section_title
;
Structure prediction by ZEFSAII (Michael W. Deem and Ramdas Pophale) SiO2 
 PCOD9094460
Probable space group: P -1
;
_chemical_formula_sum "Si O2"
_cell_formula_units_Z 16
_cell_length_a 10.856116
_cell_length_b 17.469302
_cell_length_c 13.737714
_cell_angle_alpha 146.485897
_cell_angle_beta 46.120550
_cell_angle_gamma 145.012118
_cell_volume 824.433393
_symmetry_space_group_name_H-M "P -1"
_symmetry_group_IT_number 2
_symmetry_cell_setting 'triclinic'
loop_
_space_group_symop_operation_xyz
x,y,z
-x,-y,-z
loop_
_atom_site_type_symbol
_atom_site_label
_atom_site_fract_x
_atom_site_fract_y
_atom_site_fract_z
Si Si1 0.291073 0.523659 0.913554
Si Si2 0.944704 0.309124 0.721023
Si Si3 0.267439 0.884661 0.558436
Si Si4 0.189260 0.044138 0.511121
Si Si5 0.320734 0.697945 0.507638
Si Si6 0.797444 0.713166 0.105713
Si Si7 0.729006 0.800984 0.042498
Si Si8 0.999230 0.694861 0.802844
O O1 0.176319 0.428552 0.773907
O O2 0.258166 0.390729 0.873879
O O3 0.542852 0.683137 0.941812
O O4 0.171392 0.602374 0.102204
O O5 0.913014 0.251487 0.564806
O O6 0.819232 0.124176 0.649054
O O7 0.282790 0.779060 0.522380
O O8 0.500000 0.000000 0.500000
O O9 0.237454 0.022398 0.765482
O O10 0.427056 0.201461 0.513583
O O11 0.139345 0.101468 0.698774
O O12 0.000000 0.000000 0.500000
O O13 0.189939 0.494598 0.338793
O O14 0.214920 0.726439 0.685968
O O15 0.646739 0.681974 0.062637
O O16 0.968528 0.702381 0.942962
O O17 0.946664 0.822495 0.925654
#
# Coordination Sequence:
#
# PCOD9094460 Si02
#       8
#     2   2   2   2   2   2   2   2
#     4  11  20  32  54  83 125 145 187 252 279 351
#     4  11  22  32  49  91 114 149 185 242 306 326
#     4  12  20  35  60  85 119 151 196 248 287 341
#     4  12  22  36  59  87 117 150 195 249 294 341
#     4  11  22  40  59  86 120 153 197 240 293 352
#     4  10  20  34  58  86 108 150 199 235 286 340
#     4  10  20  34  57  87 112 150 201 231 296 339
#     4   9  23  37  58  89 115 154 198 235 294 349
#
# _framework density 19.407268999999999
#
# number of rings (size 3 to 8) (size 9 to 14) (size 15 to 20)
#    0.750    0.500    5.000    1.875    1.750    0.500 
#    0.000    0.625    0.000    0.750    3.250    0.000 
#    0.000    0.000    0.000    0.000    0.000    0.000 
#
# Total GULP energy -89103.213379 kJ/mol
# GULP energy per Si atom -5568.950836 kJ/mol
# Density = 1.936310 g / cm^3
# Si number density = 19.407269 Si / 1000 Ang^3
#
#
#
# Elastic Constant Matrix: (Units=GPa)
#
#
# Indices 1 2 3 4 5 6 
#
# 1 82.0564 24.4421 25.2661 6.3221 2.5595 20.4044
# 2 24.4421 32.0536 37.6211 -5.6512 6.8933 15.2272
# 3 25.2661 37.6211 126.2994 -1.3283 -6.6348 15.9400
# 4 6.3221 -5.6512 -1.3283 17.7366 1.7785 -5.4390
# 5 2.5595 6.8933 -6.6348 1.7785 37.7283 12.6360
# 6 20.4044 15.2272 15.9400 -5.4390 12.6360 20.4314
#
#
#
# Elastic Compliance Matrix: (Units=1/GPa)
#
#
# Indices 1 2 3 4 5 6 
#
# 1 0.025031 -0.016843 0.004368 -0.024811 0.013670 -0.030912
# 2 -0.016843 0.080688 -0.019689 0.028187 -0.014557 -0.011448
# 3 0.004368 -0.019689 0.014552 -0.010743 0.009678 -0.009887
# 4 -0.024811 0.028187 -0.010743 0.092771 -0.027836 0.054064
# 5 0.013670 -0.014557 0.009678 -0.027836 0.046920 -0.046782
# 6 -0.030912 -0.011448 -0.009887 0.054064 -0.046782 0.139386
#
#
# Mechanical properties :
#
#
# Convention : Reuss Voigt Hill
#
# Bulk Modulus (GPa) = 17.87524 46.11868 31.99696
# Shear Modulus (GPa) = 10.36653 25.38460 17.87556
#
# Velocity S-wave (km/s) = 2.31369 3.62054 3.03822
# Velocity P-wave (km/s) = 4.04576 6.42596 5.36941
#
# Compressibility (1/GPa) = 0.05594331
#
# Stress axis : x y z
#
# Youngs Moduli (GPa) = 39.95107 12.39340 68.72026
#
# Poissons Ratio (x) = 0.20874 -0.30019
# Poissons Ratio (y) = 0.67290 1.35302
# Poissons Ratio (z) = -0.17452 0.24401
#
# Static dielectric constant tensor:
#      x y z
#    x 1.733130 -0.045670 0.033040 
#    y -0.045670 1.742170 -0.015250 
#    z 0.033040 -0.015250 1.715340 
# 
# From -- ./inp_files/523821.got.cif
#   From: 2010.05.17/outbox.cif.g08.bks.cpg/sg2_262_cif.got.tgz:523821.got - 2010.06.03 11:33:40.
