data_PCOD9094215
_publ_section_title
;
Structure prediction by ZEFSAII (Michael W. Deem and Ramdas Pophale) SiO2 
 PCOD9094215
Probable space group: P -1
;
_chemical_formula_sum "Si O2"
_cell_formula_units_Z 14
_cell_length_a 8.179870
_cell_length_b 9.016991
_cell_length_c 14.756317
_cell_angle_alpha 43.236756
_cell_angle_beta 117.226453
_cell_angle_gamma 99.433753
_cell_volume 636.806730
_symmetry_space_group_name_H-M "P -1"
_symmetry_group_IT_number 2
_symmetry_cell_setting 'triclinic'
loop_
_space_group_symop_operation_xyz
x,y,z
-x,-y,-z
loop_
_atom_site_type_symbol
_atom_site_label
_atom_site_fract_x
_atom_site_fract_y
_atom_site_fract_z
Si Si1 0.329974 0.912863 0.539259
Si Si2 0.693716 0.826051 0.154934
Si Si3 0.793990 0.743315 0.018396
Si Si4 0.990565 0.239953 0.236090
Si Si5 0.798593 0.431461 0.473720
Si Si6 0.419917 0.757766 0.831354
Si Si7 0.931974 0.029989 0.799762
O O1 0.243448 0.740551 0.535884
O O2 0.412933 0.793636 0.706553
O O3 0.500000 0.000000 0.500000
O O4 0.146350 0.132389 0.400175
O O5 0.663721 0.667986 0.299437
O O6 0.853870 0.950393 0.161560
O O7 0.775638 0.692763 0.142077
O O8 0.500000 0.000000 0.000000
O O9 0.580222 0.850921 0.876704
O O10 0.896560 0.927293 0.931036
O O11 0.910100 0.507748 0.106645
O O12 0.800866 0.155122 0.235735
O O13 0.086559 0.144505 0.207057
O O14 0.000000 0.500000 0.500000
O O15 0.798981 0.281372 0.630252
O O16 0.500000 0.500000 0.000000
#
# Coordination Sequence:
#
# PCOD9094215 Si02
#       7
#     2   2   2   2   2   2   2
#     4  11  22  38  61  94 126 158 204 261 311 361
#     4  11  23  40  61  86 120 165 209 251 305 373
#     4  11  22  39  61  92 124 158 204 261 309 361
#     4  10  21  37  62  91 122 161 201 252 310 369
#     4   9  20  39  60  82 118 163 202 242 301 371
#     4  10  20  34  55  84 118 156 198 244 297 359
#     4  10  21  39  61  87 119 159 204 255 308 364
#
# _framework density 21.984691000000002
#
# number of rings (size 3 to 8) (size 9 to 14) (size 15 to 20)
#    0.000    1.714    0.000    5.571    0.000    4.571 
#    0.000    2.143    0.000    0.000    0.000    0.000 
#    0.000    0.000    0.000    0.000    0.000    0.000 
#
# Total GULP energy -77976.058585 kJ/mol
# GULP energy per Si atom -5569.718470 kJ/mol
# Density = 2.193465 g / cm^3
# Si number density = 21.984691 Si / 1000 Ang^3
#
#
#
# Elastic Constant Matrix: (Units=GPa)
#
#
# Indices 1 2 3 4 5 6 
#
# 1 72.5502 23.1129 53.5199 -8.4701 -6.9924 10.6893
# 2 23.1129 79.2948 33.7384 11.6960 -7.8057 15.4329
# 3 53.5199 33.7384 159.7163 -1.0234 10.1743 15.7354
# 4 -8.4701 11.6960 -1.0234 32.4594 3.0738 -2.3978
# 5 -6.9924 -7.8057 10.1743 3.0738 30.6352 -5.4387
# 6 10.6893 15.4329 15.7354 -2.3978 -5.4387 15.5071
#
#
#
# Elastic Compliance Matrix: (Units=1/GPa)
#
#
# Indices 1 2 3 4 5 6 
#
# 1 0.021092 -0.003395 -0.006456 0.005895 0.005167 -0.001885
# 2 -0.003395 0.018861 -0.001576 -0.009121 0.002758 -0.015275
# 3 -0.006456 -0.001576 0.009747 -0.000682 -0.006132 -0.006128
# 4 0.005895 -0.009121 -0.000682 0.036628 -0.002569 0.010468
# 5 0.005167 0.002758 -0.006132 -0.002569 0.039172 0.013257
# 6 -0.001885 -0.015275 -0.006128 0.010468 0.013257 0.093475
#
#
# Mechanical properties :
#
#
# Convention : Reuss Voigt Hill
#
# Bulk Modulus (GPa) = 37.24885 59.14484 48.19685
# Shear Modulus (GPa) = 19.93803 29.13301 24.53552
#
# Velocity S-wave (km/s) = 3.01475 3.64421 3.34432
# Velocity P-wave (km/s) = 5.39427 6.68342 6.07315
#
# Compressibility (1/GPa) = 0.02684647
#
# Stress axis : x y z
#
# Youngs Moduli (GPa) = 47.41179 53.01994 102.59093
#
# Poissons Ratio (x) = 0.17999 0.66235
# Poissons Ratio (y) = 0.16095 0.16167
# Poissons Ratio (z) = 0.30610 0.08355
#
# Static dielectric constant tensor:
#      x y z
#    x 1.878030 -0.004620 -0.023600 
#    y -0.004620 1.885920 0.011000 
#    z -0.023600 0.011000 1.826610 
# 
# From -- ./inp_files/207683.got.cif
#   From: 2010.05.17/outbox.cif.g08.bks.cpg/sg2_104_cif.got.tgz:207683.got - 2010.06.03 11:33:40.
