data_PCOD9094356
_publ_section_title
;
Structure prediction by ZEFSAII (Michael W. Deem and Ramdas Pophale) SiO2 
 PCOD9094356
Probable space group: P -1
;
_chemical_formula_sum "Si O2"
_cell_formula_units_Z 16
_cell_length_a 18.695403
_cell_length_b 5.785444
_cell_length_c 7.471803
_cell_angle_alpha 70.293197
_cell_angle_beta 88.617883
_cell_angle_gamma 118.038440
_cell_volume 655.109202
_symmetry_space_group_name_H-M "P -1"
_symmetry_group_IT_number 2
_symmetry_cell_setting 'triclinic'
loop_
_space_group_symop_operation_xyz
x,y,z
-x,-y,-z
loop_
_atom_site_type_symbol
_atom_site_label
_atom_site_fract_x
_atom_site_fract_y
_atom_site_fract_z
Si Si1 0.255784 0.892430 0.222680
Si Si2 0.259066 0.399024 0.964874
Si Si3 0.044665 0.724455 0.699585
Si Si4 0.899444 0.607122 0.500653
Si Si5 0.827096 0.301294 0.109171
Si Si6 0.415689 0.972858 0.735527
Si Si7 0.598823 0.155028 0.658539
Si Si8 0.684738 0.749160 0.366134
O O1 0.197315 0.616899 0.414308
O O2 0.349847 0.973259 0.221167
O O3 0.218406 0.794107 0.052961
O O4 0.246237 0.167517 0.172893
O O5 0.176367 0.414360 0.936031
O O6 0.342579 0.701834 0.913607
O O7 0.281298 0.329050 0.788907
O O8 0.070307 0.540180 0.611888
O O9 0.086408 0.685925 0.885218
O O10 0.950652 0.615231 0.673788
O O11 0.083358 0.070816 0.600947
O O12 0.761698 0.065369 0.316998
O O13 0.407945 0.913771 0.536513
O O14 0.506846 0.044993 0.763342
O O15 0.393996 0.221343 0.692556
O O16 0.652565 0.498297 0.575105
#
# Coordination Sequence:
#
# PCOD9094356 Si02
#       8
#     2   2   2   2   2   2   2   2
#     4  11  24  36  58  90 123 158 204 257 310 371
#     4   9  21  38  53  84 120 160 203 242 315 375
#     4  10  23  44  69  94 128 164 207 255 312 370
#     4  10  24  43  68 100 123 161 212 261 303 366
#     4  10  22  38  60  84 123 166 197 247 317 374
#     4   9  19  36  58  81 114 160 203 256 312 363
#     4  10  20  34  56  87 115 151 210 259 303 363
#     4   9  18  35  58  82 110 158 207 252 305 368
#
# _framework density 24.423407999999998
#
# number of rings (size 3 to 8) (size 9 to 14) (size 15 to 20)
#    0.000    2.250    0.000    1.125   10.500    2.000 
#    0.000    6.250    0.000    0.000    0.000    0.000 
#    0.000    0.000    0.000    0.000    0.000    0.000 
#
# Total GULP energy -89231.169978 kJ/mol
# GULP energy per Si atom -5576.948124 kJ/mol
# Density = 2.436782 g / cm^3
# Si number density = 24.423408 Si / 1000 Ang^3
#
#
#
# Elastic Constant Matrix: (Units=GPa)
#
#
# Indices 1 2 3 4 5 6 
#
# 1 143.4040 28.1418 21.4419 -11.1232 47.4270 4.1513
# 2 28.1418 79.6458 39.5737 -6.3037 10.4038 -10.5970
# 3 21.4419 39.5737 55.8753 -1.8981 26.7738 -1.1512
# 4 -11.1232 -6.3037 -1.8981 40.4069 -3.3941 10.4205
# 5 47.4270 10.4038 26.7738 -3.3941 43.4939 -4.7438
# 6 4.1513 -10.5970 -1.1512 10.4205 -4.7438 32.5214
#
#
#
# Elastic Compliance Matrix: (Units=1/GPa)
#
#
# Indices 1 2 3 4 5 6 
#
# 1 0.014418 -0.008274 0.010161 0.003571 -0.020627 -0.008330
# 2 -0.008274 0.026804 -0.024730 -0.000733 0.019078 0.011933
# 3 0.010161 -0.024730 0.048804 0.001639 -0.036550 -0.013484
# 4 0.003571 -0.000733 0.001639 0.028003 -0.003648 -0.010141
# 5 -0.020627 0.019078 -0.036550 -0.003648 0.065123 0.018224
# 6 -0.008330 0.011933 -0.013484 -0.010141 0.018224 0.041131
#
#
# Mechanical properties :
#
#
# Convention : Reuss Voigt Hill
#
# Bulk Modulus (GPa) = 22.55277 50.80444 36.67861
# Shear Modulus (GPa) = 17.55931 35.93561 26.74746
#
# Velocity S-wave (km/s) = 2.68424 3.83999 3.31291
# Velocity P-wave (km/s) = 4.34292 6.36454 5.44832
#
# Compressibility (1/GPa) = 0.04434045
#
# Stress axis : x y z
#
# Youngs Moduli (GPa) = 69.35875 37.30745 20.49004
#
# Poissons Ratio (x) = 0.30870 -0.20820
# Poissons Ratio (y) = 0.57390 0.50671
# Poissons Ratio (z) = -0.70477 0.92260
#
# Static dielectric constant tensor:
#      x y z
#    x 1.941710 -0.070460 -0.003610 
#    y -0.070460 2.126640 -0.005450 
#    z -0.003610 -0.005450 1.991490 
# 
# From -- ./inp_files/52485.got.cif
#   From: 2010.05.17/outbox.cif.g08.bks.cpg/sg2_27_cif.got.tgz:52485.got - 2010.06.03 11:33:40.
