data_PCOD9094797
_publ_section_title
;
Structure prediction by ZEFSAII (Michael W. Deem and Ramdas Pophale) SiO2 
 PCOD9094797
Probable space group: P -1
;
_chemical_formula_sum "Si O2"
_cell_formula_units_Z 16
_cell_length_a 6.523701
_cell_length_b 14.975451
_cell_length_c 14.506400
_cell_angle_alpha 53.642510
_cell_angle_beta 39.158682
_cell_angle_gamma 59.785991
_cell_volume 718.064745
_symmetry_space_group_name_H-M "P -1"
_symmetry_group_IT_number 2
_symmetry_cell_setting 'triclinic'
loop_
_space_group_symop_operation_xyz
x,y,z
-x,-y,-z
loop_
_atom_site_type_symbol
_atom_site_label
_atom_site_fract_x
_atom_site_fract_y
_atom_site_fract_z
Si Si1 0.772346 0.940483 0.185302
Si Si2 0.789284 0.439973 0.858546
Si Si3 0.148613 0.729555 0.282585
Si Si4 0.602826 0.855935 0.729554
Si Si5 0.364376 0.637773 0.854721
Si Si6 0.660448 0.606172 0.423958
Si Si7 0.285593 0.284388 0.047993
Si Si8 0.795441 0.195348 0.575330
O O1 0.473565 0.891789 0.266330
O O2 0.965494 0.835554 0.230413
O O3 0.624861 0.030686 0.255090
O O4 0.000000 0.000000 0.000000
O O5 0.704887 0.561784 0.767678
O O6 0.112622 0.369216 0.756583
O O7 0.797502 0.437857 0.966149
O O8 0.496671 0.371328 0.970920
O O9 0.128387 0.754877 0.382282
O O10 0.940179 0.623265 0.394347
O O11 0.514685 0.725616 0.113027
O O12 0.428571 0.754422 0.807152
O O13 0.688877 0.820945 0.827210
O O14 0.913280 0.861378 0.552307
O O15 0.088561 0.666977 0.858413
O O16 0.500000 0.500000 0.500000
O O17 0.372264 0.699361 0.487449
#
# Coordination Sequence:
#
# PCOD9094797 Si02
#       8
#     2   2   2   2   2   2   2   2
#     4  11  24  44  68  91 127 170 217 268 324 380
#     4   9  19  36  55  91 124 163 209 263 306 379
#     4  10  23  41  66  97 123 168 221 259 318 387
#     4  11  24  41  61  94 127 164 212 268 322 375
#     4  10  20  34  61  87 125 161 212 260 318 370
#     4  10  21  40  64  90 133 171 207 256 320 380
#     4  10  20  37  63  89 124 166 213 257 318 382
#     4  11  25  42  65  95 133 165 213 271 320 375
#
# _framework density 22.282111
#
# number of rings (size 3 to 8) (size 9 to 14) (size 15 to 20)
#    0.000    1.750    1.250    2.250    3.500    4.500 
#    0.000    3.750    0.000    0.000    0.000    0.000 
#    0.000    0.000    0.000    0.000    0.000    0.000 
#
# Total GULP energy -89107.155978 kJ/mol
# GULP energy per Si atom -5569.197249 kJ/mol
# Density = 2.223140 g / cm^3
# Si number density = 22.282111 Si / 1000 Ang^3
#
#
#
# Elastic Constant Matrix: (Units=GPa)
#
#
# Indices 1 2 3 4 5 6 
#
# 1 48.2073 -10.5798 33.7178 -9.2884 0.5308 2.9777
# 2 -10.5798 96.5286 28.2471 2.3555 -2.3240 2.1081
# 3 33.7178 28.2471 89.8626 8.1288 -13.5586 12.9729
# 4 -9.2884 2.3555 8.1288 40.3663 8.7614 -1.9077
# 5 0.5308 -2.3240 -13.5586 8.7614 21.3365 0.1962
# 6 2.9777 2.1081 12.9729 -1.9077 0.1962 32.7087
#
#
#
# Elastic Compliance Matrix: (Units=1/GPa)
#
#
# Indices 1 2 3 4 5 6 
#
# 1 0.048368 0.012539 -0.029542 0.022814 -0.028052 0.008004
# 2 0.012539 0.014714 -0.011665 0.006423 -0.008786 0.002964
# 3 -0.029542 -0.011665 0.033674 -0.019739 0.029072 -0.011240
# 4 0.022814 0.006423 -0.019739 0.040295 -0.029030 0.007862
# 5 -0.028052 -0.008786 0.029072 -0.029030 0.077101 -0.010566
# 6 0.008004 0.002964 -0.011240 0.007862 -0.010566 0.034633
#
#
# Mechanical properties :
#
#
# Convention : Reuss Voigt Hill
#
# Bulk Modulus (GPa) = 25.36655 37.48543 31.42599
# Shear Modulus (GPa) = 15.66114 31.09654 23.37884
#
# Velocity S-wave (km/s) = 2.65402 3.73980 3.24268
# Velocity P-wave (km/s) = 4.56078 5.95884 5.30606
#
# Compressibility (1/GPa) = 0.03942199
#
# Stress axis : x y z
#
# Youngs Moduli (GPa) = 20.67467 67.96063 29.69654
#
# Poissons Ratio (x) = -0.85217 0.87729
# Poissons Ratio (y) = -0.25924 0.34640
# Poissons Ratio (z) = 0.61077 0.79274
#
# Static dielectric constant tensor:
#      x y z
#    x 1.866400 -0.048120 -0.032000 
#    y -0.048120 1.902360 0.019820 
#    z -0.032000 0.019820 1.881480 
# 
# From -- ./inp_files/97581.got.cif
#   From: 2010.05.17/outbox.cif.g08.bks.cpg/sg2_49_cif.got.tgz:97581.got - 2010.06.03 11:33:40.
