data_PCOD9094052
_publ_section_title
;
Structure prediction by ZEFSAII (Michael W. Deem and Ramdas Pophale) SiO2 
 PCOD9094052
Probable space group: P -1
;
_chemical_formula_sum "Si O2"
_cell_formula_units_Z 16
_cell_length_a 8.030378
_cell_length_b 20.434591
_cell_length_c 7.308277
_cell_angle_alpha 138.166326
_cell_angle_beta 51.837786
_cell_angle_gamma 122.592977
_cell_volume 621.867914
_symmetry_space_group_name_H-M "P -1"
_symmetry_group_IT_number 2
_symmetry_cell_setting 'triclinic'
loop_
_space_group_symop_operation_xyz
x,y,z
-x,-y,-z
loop_
_atom_site_type_symbol
_atom_site_label
_atom_site_fract_x
_atom_site_fract_y
_atom_site_fract_z
Si Si1 0.502834 0.148305 0.410465
Si Si2 0.898213 0.123300 0.645982
Si Si3 0.242779 0.303757 0.908416
Si Si4 0.151025 0.444208 0.978000
Si Si5 0.329518 0.572163 0.816121
Si Si6 0.179328 0.977396 0.112891
Si Si7 0.722397 0.711348 0.729444
Si Si8 0.451145 0.112728 0.774018
O O1 0.464178 0.258886 0.625161
O O2 0.386184 0.128668 0.641805
O O3 0.376255 0.069726 0.190741
O O4 0.729590 0.113932 0.233679
O O5 0.864072 0.072205 0.762215
O O6 0.682038 0.155168 0.788421
O O7 0.069187 0.220979 0.758720
O O8 0.988596 0.033270 0.290327
O O9 0.241155 0.408678 0.031736
O O10 0.181360 0.302482 0.162563
O O11 0.263893 0.544638 0.013455
O O12 0.188881 0.358571 0.624875
O O13 0.897746 0.445671 0.167344
O O14 0.500000 0.500000 0.500000
O O15 0.471145 0.674264 0.874562
O O16 0.720588 0.822978 0.888679
O O17 0.500000 0.000000 0.500000
#
# Coordination Sequence:
#
# PCOD9094052 Si02
#       8
#     2   2   2   2   2   2   2   2
#     4   9  19  35  52  77 113 151 206 252 301 360
#     4  10  20  34  53  75 115 157 207 257 302 347
#     4  10  22  39  56  90 123 156 202 252 303 370
#     4  10  21  42  71  93 121 164 198 249 324 365
#     4   9  20  44  70  95 125 155 200 257 308 376
#     4   9  18  33  52  72 106 160 202 254 301 350
#     4  10  23  41  62  94 130 159 208 259 297 369
#     4  11  21  35  56  84 120 165 205 254 300 351
#
# _framework density 25.728936000000001
#
# number of rings (size 3 to 8) (size 9 to 14) (size 15 to 20)
#    0.000    2.250    1.250    0.750    3.500    2.000 
#    6.750    5.625    0.000    0.000    0.000    0.000 
#    0.000    0.000    0.000    0.000    0.000    0.000 
#
# Total GULP energy -89144.979985 kJ/mol
# GULP energy per Si atom -5571.561249 kJ/mol
# Density = 2.567038 g / cm^3
# Si number density = 25.728936 Si / 1000 Ang^3
#
#
#
# Elastic Constant Matrix: (Units=GPa)
#
#
# Indices 1 2 3 4 5 6 
#
# 1 68.5951 20.5087 23.7209 6.6349 -23.4166 -15.5808
# 2 20.5087 93.5370 8.6303 7.1584 -9.6740 -13.2031
# 3 23.7209 8.6303 81.0099 6.3470 -17.0538 -3.8411
# 4 6.6349 7.1584 6.3470 34.2326 -8.2625 -6.5050
# 5 -23.4166 -9.6740 -17.0538 -8.2625 40.5854 6.6450
# 6 -15.5808 -13.2031 -3.8411 -6.5050 6.6450 39.2984
#
#
#
# Elastic Compliance Matrix: (Units=1/GPa)
#
#
# Indices 1 2 3 4 5 6 
#
# 1 0.020968 -0.002552 -0.003720 0.000423 0.009092 0.005625
# 2 -0.002552 0.011795 -0.000161 -0.001305 0.000576 0.002622
# 3 -0.003720 -0.000161 0.014284 -0.001174 0.003735 -0.000959
# 4 0.000423 -0.001305 -0.001174 0.031637 0.005231 0.003967
# 5 0.009092 0.000576 0.003735 0.005231 0.032740 -0.000507
# 6 0.005625 0.002622 -0.000959 0.003967 -0.000507 0.029206
#
#
# Mechanical properties :
#
#
# Convention : Reuss Voigt Hill
#
# Bulk Modulus (GPa) = 29.25808 38.76242 34.01025
# Shear Modulus (GPa) = 30.32320 35.50875 32.91598
#
# Velocity S-wave (km/s) = 3.43675 3.71901 3.58066
# Velocity P-wave (km/s) = 5.21005 5.79136 5.50838
#
# Compressibility (1/GPa) = 0.03417859
#
# Stress axis : x y z
#
# Youngs Moduli (GPa) = 47.69086 84.78208 70.01078
#
# Poissons Ratio (x) = 0.21639 0.26047
# Poissons Ratio (y) = 0.12172 0.01130
# Poissons Ratio (z) = 0.17743 0.01368
#
# Static dielectric constant tensor:
#      x y z
#    x 2.067140 0.066750 -0.003670 
#    y 0.066750 2.165140 -0.004920 
#    z -0.003670 -0.004920 2.176090 
# 
# From -- ./inp_files/224187.got.cif
#   From: 2010.05.17/outbox.cif.g08.bks.cpg/sg2_113_cif.got.tgz:224187.got - 2010.06.03 11:33:40.
