data_PCOD9094271
_publ_section_title
;
Structure prediction by ZEFSAII (Michael W. Deem and Ramdas Pophale) SiO2 
 PCOD9094271
Probable space group: P -1
;
_chemical_formula_sum "Si O2"
_cell_formula_units_Z 14
_cell_length_a 20.678713
_cell_length_b 9.775118
_cell_length_c 7.667116
_cell_angle_alpha 132.220924
_cell_angle_beta 138.012715
_cell_angle_gamma 43.917748
_cell_volume 687.274462
_symmetry_space_group_name_H-M "P -1"
_symmetry_group_IT_number 2
_symmetry_cell_setting 'triclinic'
loop_
_space_group_symop_operation_xyz
x,y,z
-x,-y,-z
loop_
_atom_site_type_symbol
_atom_site_label
_atom_site_fract_x
_atom_site_fract_y
_atom_site_fract_z
Si Si1 0.871985 0.636339 0.885007
Si Si2 0.241010 0.888341 0.936661
Si Si3 0.149190 0.297310 0.479150
Si Si4 0.898763 0.385632 0.047074
Si Si5 0.368063 0.634494 0.664549
Si Si6 0.528256 0.188659 0.726464
Si Si7 0.779833 0.163995 0.758670
O O1 0.820138 0.651870 0.605342
O O2 0.840724 0.875155 0.071431
O O3 0.843937 0.517725 0.878307
O O4 0.000000 0.500000 0.000000
O O5 0.358337 0.877830 0.202544
O O6 0.208902 0.820873 0.996778
O O7 0.268952 0.743019 0.698375
O O8 0.151177 0.454206 0.758264
O O9 0.025654 0.325549 0.243866
O O10 0.215421 0.059144 0.454458
O O11 0.874751 0.194974 0.878363
O O12 0.435368 0.394876 0.636258
O O13 0.325561 0.676267 0.418746
O O14 0.443542 0.744000 0.969844
O O15 0.500000 0.000000 0.500000
#
# Coordination Sequence:
#
# PCOD9094271 Si02
#       7
#     2   2   2   2   2   2   2
#     4   9  18  34  57  82 113 151 188 227 272 330
#     4   9  20  38  56  84 119 141 188 237 274 337
#     4   9  20  37  50  81 116 145 193 232 264 329
#     4  10  20  34  56  77 113 155 187 227 276 323
#     4   9  21  38  58  83 111 141 189 233 281 337
#     4   9  20  41  61  79 111 148 182 236 289 331
#     4  11  21  34  57  85 110 147 185 230 283 329
#
# _framework density 20.370318000000001
#
# number of rings (size 3 to 8) (size 9 to 14) (size 15 to 20)
#    0.857    1.714    0.000    1.286    2.000    1.714 
#    2.571    0.714    0.000   12.857    0.000    0.000 
#    0.000    0.000    0.000    0.000    0.000    0.000 
#
# Total GULP energy -77954.035727 kJ/mol
# GULP energy per Si atom -5568.145409 kJ/mol
# Density = 2.032395 g / cm^3
# Si number density = 20.370318 Si / 1000 Ang^3
#
#
#
# Elastic Constant Matrix: (Units=GPa)
#
#
# Indices 1 2 3 4 5 6 
#
# 1 52.7740 35.2011 4.3205 -6.8543 -7.8254 16.4949
# 2 35.2011 135.3655 29.5450 -3.2530 -3.9142 -0.8627
# 3 4.3205 29.5450 44.4070 3.1454 1.5331 10.8398
# 4 -6.8543 -3.2530 3.1454 20.7398 0.7012 -4.4823
# 5 -7.8254 -3.9142 1.5331 0.7012 9.0192 -2.3434
# 6 16.4949 -0.8627 10.8398 -4.4823 -2.3434 37.5506
#
#
#
# Elastic Compliance Matrix: (Units=1/GPa)
#
#
# Indices 1 2 3 4 5 6 
#
# 1 0.032452 -0.009016 0.005309 0.004781 0.019275 -0.014221
# 2 -0.009016 0.011747 -0.008781 0.001691 0.000454 0.006996
# 3 0.005309 -0.008781 0.031772 -0.007001 -0.007441 -0.013006
# 4 0.004781 0.001691 -0.007001 0.052392 0.003673 0.006443
# 5 0.019275 0.000454 -0.007441 0.003673 0.129346 0.002202
# 6 -0.014221 0.006996 -0.013006 0.006443 0.002202 0.037699
#
#
# Mechanical properties :
#
#
# Convention : Reuss Voigt Hill
#
# Bulk Modulus (GPa) = 19.61034 41.18665 30.39850
# Shear Modulus (GPa) = 14.81991 24.36058 19.59024
#
# Velocity S-wave (km/s) = 2.70019 3.46191 3.10450
# Velocity P-wave (km/s) = 4.40105 6.02018 5.27313
#
# Compressibility (1/GPa) = 0.05099351
#
# Stress axis : x y z
#
# Youngs Moduli (GPa) = 30.81484 85.12831 31.47388
#
# Poissons Ratio (x) = 0.76752 -0.16708
# Poissons Ratio (y) = 0.27783 0.27639
# Poissons Ratio (z) = -0.16358 0.74755
#
# Static dielectric constant tensor:
#      x y z
#    x 1.770350 -0.017620 0.008920 
#    y -0.017620 1.720550 -0.028660 
#    z 0.008920 -0.028660 1.743470 
# 
# From -- ./inp_files/351542.got.cif
#   From: 2010.05.17/outbox.cif.g08.bks.cpg/sg2_176_cif.got.tgz:351542.got - 2010.06.03 11:33:40.
