data_PCOD9094081
_publ_section_title
;
Structure prediction by ZEFSAII (Michael W. Deem and Ramdas Pophale) SiO2 
 PCOD9094081
Probable space group: P -1
;
_chemical_formula_sum "Si O2"
_cell_formula_units_Z 16
_cell_length_a 29.849900
_cell_length_b 14.441549
_cell_length_c 7.701423
_cell_angle_alpha 135.814401
_cell_angle_beta 124.987962
_cell_angle_gamma 21.977203
_cell_volume 810.841547
_symmetry_space_group_name_H-M "P -1"
_symmetry_group_IT_number 2
_symmetry_cell_setting 'triclinic'
loop_
_space_group_symop_operation_xyz
x,y,z
-x,-y,-z
loop_
_atom_site_type_symbol
_atom_site_label
_atom_site_fract_x
_atom_site_fract_y
_atom_site_fract_z
Si Si1 0.180382 0.902302 0.345280
Si Si2 0.388843 0.238262 0.827659
Si Si3 0.105272 0.340085 0.904141
Si Si4 0.021996 0.608784 0.727984
Si Si5 0.091937 0.896373 0.418263
Si Si6 0.805225 0.546238 0.215718
Si Si7 0.666600 0.673080 0.583681
Si Si8 0.821687 0.554976 0.666197
O O1 0.101493 0.004653 0.459923
O O2 0.187015 0.043711 0.595946
O O3 0.311480 0.532953 0.128876
O O4 0.095568 0.069150 0.206172
O O5 0.332987 0.225322 0.772616
O O6 0.355485 0.317889 0.653758
O O7 0.540969 0.915823 0.739962
O O8 0.031989 0.586147 0.925628
O O9 0.182489 0.278208 0.102287
O O10 0.000000 0.500000 0.000000
O O11 0.151583 0.399818 0.671897
O O12 0.000000 0.500000 0.500000
O O13 0.206636 0.662081 0.495084
O O14 0.119866 0.713266 0.100840
O O15 0.944982 0.221474 0.586751
O O16 0.839049 0.469947 0.392298
O O17 0.698067 0.760682 0.755036
#
# Coordination Sequence:
#
# PCOD9094081 Si02
#       8
#     2   2   2   2   2   2   2   2
#     4  10  21  35  56  82 115 153 186 229 288 337
#     4   9  22  39  58  80 120 152 191 234 276 341
#     4  11  21  36  54  85 116 146 186 231 289 342
#     4  10  20  34  53  83 115 147 184 229 286 337
#     4  11  20  33  58  87 115 144 190 240 288 335
#     4  10  20  35  57  83 116 150 184 231 290 333
#     4  10  22  37  56  88 113 153 191 236 283 329
#     4  11  20  34  56  84 121 144 189 239 284 334
#
# _framework density 19.732585
#
# number of rings (size 3 to 8) (size 9 to 14) (size 15 to 20)
#    0.000    1.750    2.500    2.250    5.250    2.000 
#    0.000    0.625    0.000    1.500    0.000   14.875 
#    0.000    0.000    0.000    0.000    0.000    0.000 
#
# Total GULP energy -89090.445062 kJ/mol
# GULP energy per Si atom -5568.152816 kJ/mol
# Density = 1.968767 g / cm^3
# Si number density = 19.732585 Si / 1000 Ang^3
#
#
#
# Elastic Constant Matrix: (Units=GPa)
#
#
# Indices 1 2 3 4 5 6 
#
# 1 117.4712 40.9054 16.7254 4.2580 -0.6305 -25.9525
# 2 40.9054 79.9746 25.1669 1.6418 0.0699 -16.1651
# 3 16.7254 25.1669 70.4255 -8.4279 6.0410 -25.6803
# 4 4.2580 1.6418 -8.4279 23.5600 -3.8867 -5.6371
# 5 -0.6305 0.0699 6.0410 -3.8867 25.9087 -3.1730
# 6 -25.9525 -16.1651 -25.6803 -5.6371 -3.1730 44.9337
#
#
#
# Elastic Compliance Matrix: (Units=1/GPa)
#
#
# Indices 1 2 3 4 5 6 
#
# 1 0.011301 -0.005017 0.001010 0.000069 0.000720 0.005359
# 2 -0.005017 0.016708 -0.005065 -0.001943 0.000725 0.000026
# 3 0.001010 -0.005065 0.021706 0.010575 -0.001923 0.012357
# 4 0.000069 -0.001943 0.010575 0.050347 0.006584 0.012166
# 5 0.000720 0.000725 -0.001923 0.006584 0.040448 0.003260
# 6 0.005359 0.000026 0.012357 0.012166 0.003260 0.034178
#
#
# Mechanical properties :
#
#
# Convention : Reuss Voigt Hill
#
# Bulk Modulus (GPa) = 31.67412 48.16298 39.91855
# Shear Modulus (GPa) = 24.58732 31.21872 27.90302
#
# Velocity S-wave (km/s) = 3.53374 3.98186 3.76448
# Velocity P-wave (km/s) = 5.72156 6.75286 6.25849
#
# Compressibility (1/GPa) = 0.03157152
#
# Stress axis : x y z
#
# Youngs Moduli (GPa) = 88.48587 59.85040 46.07038
#
# Poissons Ratio (x) = 0.30026 -0.04651
# Poissons Ratio (y) = 0.44392 0.23333
# Poissons Ratio (z) = -0.08933 0.30312
#
# Static dielectric constant tensor:
#      x y z
#    x 1.776500 -0.009740 0.008600 
#    y -0.009740 1.746750 -0.048640 
#    z 0.008600 -0.048640 1.721140 
# 
# From -- ./inp_files/208971.got.cif
#   From: 2010.05.17/outbox.cif.g08.bks.cpg/sg2_105_cif.got.tgz:208971.got - 2010.06.03 11:33:40.
