data_PCOD9094564
_publ_section_title
;
Structure prediction by ZEFSAII (Michael W. Deem and Ramdas Pophale) SiO2 
 PCOD9094564
Probable space group: P -1
;
_chemical_formula_sum "Si O2"
_cell_formula_units_Z 16
_cell_length_a 21.045858
_cell_length_b 6.615553
_cell_length_c 5.145617
_cell_angle_alpha 70.326177
_cell_angle_beta 118.696136
_cell_angle_gamma 104.380548
_cell_volume 588.477401
_symmetry_space_group_name_H-M "P -1"
_symmetry_group_IT_number 2
_symmetry_cell_setting 'triclinic'
loop_
_space_group_symop_operation_xyz
x,y,z
-x,-y,-z
loop_
_atom_site_type_symbol
_atom_site_label
_atom_site_fract_x
_atom_site_fract_y
_atom_site_fract_z
Si Si1 0.532607 0.332310 0.832954
Si Si2 0.172617 0.110031 0.229206
Si Si3 0.749420 0.717492 0.210769
Si Si4 0.676196 0.371068 0.879854
Si Si5 0.060781 0.440551 0.443137
Si Si6 0.178224 0.727410 0.777102
Si Si7 0.944110 0.155989 0.125905
Si Si8 0.389563 0.315017 0.775983
O O1 0.500000 0.500000 0.500000
O O2 0.599833 0.237763 0.861046
O O3 0.458914 0.203649 0.854873
O O4 0.572564 0.483776 0.068486
O O5 0.193586 0.270688 0.442545
O O6 0.192521 0.886824 0.493042
O O7 0.219180 0.164024 0.037964
O O8 0.087010 0.051491 0.013864
O O9 0.675744 0.809433 0.135219
O O10 0.717296 0.476964 0.169507
O O11 0.651534 0.573068 0.584131
O O12 0.745184 0.279472 0.925194
O O13 0.137732 0.492717 0.717339
O O14 0.000000 0.500000 0.500000
O O15 0.026965 0.208769 0.366904
O O16 0.063800 0.627780 0.152628
O O17 0.115957 0.827438 0.776149
#
# Coordination Sequence:
#
# PCOD9094564 Si02
#       8
#     2   2   2   2   2   2   2   2
#     4   8  16  31  52  83 108 146 190 239 273 333
#     4  11  21  37  56  84 115 156 191 235 282 347
#     4  11  21  37  56  84 115 156 191 235 282 347
#     4  10  20  34  58  88 117 145 188 243 288 331
#     4   8  16  31  52  83 108 146 190 239 273 333
#     4  10  20  34  58  88 117 145 188 243 288 331
#     4   9  17  32  56  82 110 148 194 233 278 335
#     4   9  17  32  56  82 110 148 194 233 278 335
#
# _framework density 27.18881
#
# number of rings (size 3 to 8) (size 9 to 14) (size 15 to 20)
#    0.000    2.500    2.500    0.000    0.000    4.000 
#    0.000    0.000    0.000    3.000    0.000    0.000 
#    0.000    0.000    0.000    0.000    0.000    0.000 
#
# Total GULP energy -89362.143441 kJ/mol
# GULP energy per Si atom -5585.133965 kJ/mol
# Density = 2.712693 g / cm^3
# Si number density = 27.188810 Si / 1000 Ang^3
#
#
#
# Elastic Constant Matrix: (Units=GPa)
#
#
# Indices 1 2 3 4 5 6 
#
# 1 178.3692 36.4586 63.5406 -22.7399 6.5018 33.4128
# 2 36.4586 93.9721 34.9440 2.4913 -4.3343 24.9463
# 3 63.5406 34.9440 138.7569 21.0994 -0.5013 15.2840
# 4 -22.7399 2.4913 21.0994 38.9657 10.3723 -5.1860
# 5 6.5018 -4.3343 -0.5013 10.3723 54.9196 -3.3302
# 6 33.4128 24.9463 15.2840 -5.1860 -3.3302 52.1609
#
#
#
# Elastic Compliance Matrix: (Units=1/GPa)
#
#
# Indices 1 2 3 4 5 6 
#
# 1 0.009503 -0.001324 -0.004989 0.008721 -0.003124 -0.003324
# 2 -0.001324 0.013310 -0.001952 -0.001549 0.001177 -0.005024
# 3 -0.004989 -0.001952 0.011459 -0.009624 0.002357 -0.000034
# 4 0.008721 -0.001549 -0.009624 0.038476 -0.008433 0.001261
# 5 -0.003124 0.001177 0.002357 -0.008433 0.020359 0.001209
# 6 -0.003324 -0.005024 -0.000034 0.001261 0.001209 0.023916
#
#
# Mechanical properties :
#
#
# Convention : Reuss Voigt Hill
#
# Bulk Modulus (GPa) = 56.36998 75.66497 66.01747
# Shear Modulus (GPa) = 35.85036 47.61955 41.73495
#
# Velocity S-wave (km/s) = 3.63515 4.18956 3.92216
# Velocity P-wave (km/s) = 6.19652 7.16192 6.69664
#
# Compressibility (1/GPa) = 0.01773994
#
# Stress axis : x y z
#
# Youngs Moduli (GPa) = 105.23181 75.12936 87.26781
#
# Poissons Ratio (x) = 0.09950 0.43541
# Poissons Ratio (y) = 0.13936 0.17038
# Poissons Ratio (z) = 0.52504 0.14668
#
# Static dielectric constant tensor:
#      x y z
#    x 2.262790 -0.034720 0.010040 
#    y -0.034720 2.195020 0.058670 
#    z 0.010040 0.058670 2.231750 
# 
# From -- ./inp_files/51867.got.cif
#   From: 2010.05.17/outbox.cif.g08.bks.cpg/sg2_26_cif.got.tgz:51867.got - 2010.06.03 11:33:40.
