data_PCOD9094502
_publ_section_title
;
Structure prediction by ZEFSAII (Michael W. Deem and Ramdas Pophale) SiO2 
 PCOD9094502
Probable space group: P -1
;
_chemical_formula_sum "Si O2"
_cell_formula_units_Z 16
_cell_length_a 12.048370
_cell_length_b 8.124117
_cell_length_c 13.252984
_cell_angle_alpha 125.112164
_cell_angle_beta 42.882204
_cell_angle_gamma 97.253606
_cell_volume 612.217062
_symmetry_space_group_name_H-M "P -1"
_symmetry_group_IT_number 2
_symmetry_cell_setting 'triclinic'
loop_
_space_group_symop_operation_xyz
x,y,z
-x,-y,-z
loop_
_atom_site_type_symbol
_atom_site_label
_atom_site_fract_x
_atom_site_fract_y
_atom_site_fract_z
Si Si1 0.151603 0.257957 0.724193
Si Si2 0.247770 0.552989 0.896726
Si Si3 0.705151 0.266699 0.895906
Si Si4 0.143205 0.963844 0.803896
Si Si5 0.006985 0.196460 0.319851
Si Si6 0.311303 0.097299 0.352314
Si Si7 0.414298 0.744650 0.705385
Si Si8 0.880587 0.469178 0.695151
O O1 0.264534 0.372609 0.735048
O O2 0.261971 0.081339 0.497304
O O3 0.105911 0.158848 0.817812
O O4 0.924467 0.432849 0.912757
O O5 0.262343 0.743259 0.882695
O O6 0.393548 0.531952 0.880520
O O7 0.769207 0.383687 0.809127
O O8 0.878408 0.045427 0.771183
O O9 0.618274 0.134293 0.845565
O O10 0.320898 0.922931 0.737182
O O11 0.132032 0.785722 0.671263
O O12 0.000000 0.000000 0.000000
O O13 0.150216 0.269773 0.200567
O O14 0.873892 0.394797 0.559478
O O15 0.446740 0.201513 0.307211
O O16 0.103739 0.298015 0.519232
O O17 0.500000 0.500000 0.500000
#
# Coordination Sequence:
#
# PCOD9094502 Si02
#       8
#     2   2   2   2   2   2   2   2
#     4  11  22  40  66  97 125 171 225 266 322 395
#     4  11  23  40  64  96 128 170 220 264 331 395
#     4  11  21  40  67  93 131 168 224 272 323 392
#     4  12  23  39  65  95 131 168 223 276 314 395
#     4  10  20  34  57  98 121 162 220 265 321 379
#     4  11  22  40  67  92 131 173 214 267 338 392
#     4  12  25  43  62  98 137 174 211 272 342 392
#     4  10  20  36  64  91 127 167 214 275 315 391
#
# _framework density 26.134522
#
# number of rings (size 3 to 8) (size 9 to 14) (size 15 to 20)
#    0.000    1.000    5.000    3.000    1.750    1.000 
#    0.000    0.000    0.000    0.750    0.000    0.000 
#    0.000    0.000    0.000    0.000    0.000    0.000 
#
# Total GULP energy -89077.849292 kJ/mol
# GULP energy per Si atom -5567.365581 kJ/mol
# Density = 2.607504 g / cm^3
# Si number density = 26.134522 Si / 1000 Ang^3
#
#
#
# Elastic Constant Matrix: (Units=GPa)
#
#
# Indices 1 2 3 4 5 6 
#
# 1 158.6622 37.7770 56.3427 -4.0105 51.7386 44.7896
# 2 37.7770 114.4856 21.7327 -25.0166 9.1970 29.6676
# 3 56.3427 21.7327 66.0568 -14.9488 30.2419 8.3861
# 4 -4.0105 -25.0166 -14.9488 37.1087 6.2719 5.4966
# 5 51.7386 9.1970 30.2419 6.2719 49.2408 5.2588
# 6 44.7896 29.6676 8.3861 5.4966 5.2588 43.7362
#
#
#
# Elastic Compliance Matrix: (Units=1/GPa)
#
#
# Indices 1 2 3 4 5 6 
#
# 1 0.017459 0.002328 -0.005435 0.006286 -0.014376 -0.017478
# 2 0.002328 0.014749 0.000571 0.013406 -0.005820 -0.013484
# 3 -0.005435 0.000571 0.029303 0.014066 -0.014130 -0.000509
# 4 0.006286 0.013406 0.014066 0.049226 -0.021688 -0.021806
# 5 -0.014376 -0.005820 -0.014130 -0.021688 0.045957 0.018579
# 6 -0.017478 -0.013484 -0.000509 -0.021806 0.018579 0.050514
#
#
# Mechanical properties :
#
#
# Convention : Reuss Voigt Hill
#
# Bulk Modulus (GPa) = 17.71766 63.43440 40.57603
# Shear Modulus (GPa) = 21.63646 40.90728 31.27187
#
# Velocity S-wave (km/s) = 2.88043 3.96063 3.46290
# Velocity P-wave (km/s) = 4.22571 6.72610 5.61680
#
# Compressibility (1/GPa) = 0.05644085
#
# Stress axis : x y z
#
# Youngs Moduli (GPa) = 57.27725 67.80191 34.12634
#
# Poissons Ratio (x) = -0.15787 0.18547
# Poissons Ratio (y) = -0.13336 -0.01950
# Poissons Ratio (z) = 0.31129 -0.03875
#
# Static dielectric constant tensor:
#      x y z
#    x 2.125520 0.069750 -0.040900 
#    y 0.069750 2.002470 0.021280 
#    z -0.040900 0.021280 2.093320 
# 
# From -- ./inp_files/419677.got.cif
#   From: 2010.05.17/outbox.cif.g08.bks.cpg/sg2_210_cif.got.tgz:419677.got - 2010.06.03 11:33:40.
