data_PCOD9094575
_publ_section_title
;
Structure prediction by ZEFSAII (Michael W. Deem and Ramdas Pophale) SiO2 
 PCOD9094575
Probable space group: P -1
;
_chemical_formula_sum "Si O2"
_cell_formula_units_Z 14
_cell_length_a 9.670708
_cell_length_b 12.235625
_cell_length_c 22.322567
_cell_angle_alpha 151.874883
_cell_angle_beta 50.304679
_cell_angle_gamma 138.965067
_cell_volume 814.445082
_symmetry_space_group_name_H-M "P -1"
_symmetry_group_IT_number 2
_symmetry_cell_setting 'triclinic'
loop_
_space_group_symop_operation_xyz
x,y,z
-x,-y,-z
loop_
_atom_site_type_symbol
_atom_site_label
_atom_site_fract_x
_atom_site_fract_y
_atom_site_fract_z
Si Si1 0.436648 0.307205 0.272588
Si Si2 0.210044 0.251702 0.539147
Si Si3 0.887566 0.884695 0.829859
Si Si4 0.667907 0.005901 0.725250
Si Si5 0.798264 0.220339 0.239216
Si Si6 0.393485 0.077221 0.970649
Si Si7 0.156938 0.498403 0.005493
O O1 0.618971 0.606073 0.386323
O O2 0.347000 0.155478 0.287637
O O3 0.259141 0.282572 0.266427
O O4 0.533439 0.135079 0.134790
O O5 0.282043 0.132509 0.408625
O O6 0.171444 0.486613 0.640008
O O7 0.000000 0.000000 0.500000
O O8 0.021419 0.770577 0.767042
O O9 0.053405 0.190570 0.907984
O O10 0.728533 0.880934 0.922081
O O11 0.436453 0.955408 0.752681
O O12 0.821578 0.317641 0.853602
O O13 0.767439 0.069656 0.111313
O O14 0.608113 0.344450 0.014260
O O15 0.000000 0.500000 0.000000
#
# Coordination Sequence:
#
# PCOD9094575 Si02
#       7
#     2   2   2   2   2   2   2
#     4   9  19  35  56  84 106 151 187 222 276 326
#     4  10  21  39  61  78 104 150 196 226 270 333
#     4  12  20  35  60  84 122 143 174 241 284 320
#     4   9  19  38  58  76 112 145 194 226 253 357
#     4   9  21  38  53  85 111 148 183 228 288 315
#     4   9  20  35  53  84 120 147 187 218 267 354
#     4  10  20  34  58  89 110 148 188 215 286 331
#
# _framework density 17.189617999999999
#
# number of rings (size 3 to 8) (size 9 to 14) (size 15 to 20)
#    0.000    2.857    2.857    2.571    4.000    2.286 
#    2.571    3.571    0.000    0.000    0.000    0.000 
#    0.000    0.000    0.000    0.000    0.000    0.000 
#
# Total GULP energy -77976.824679 kJ/mol
# GULP energy per Si atom -5569.773191 kJ/mol
# Density = 1.715049 g / cm^3
# Si number density = 17.189618 Si / 1000 Ang^3
#
#
#
# Elastic Constant Matrix: (Units=GPa)
#
#
# Indices 1 2 3 4 5 6 
#
# 1 149.3544 29.1233 49.2174 1.2962 16.7950 20.3006
# 2 29.1233 48.1653 48.3048 -1.1768 9.1870 11.6502
# 3 49.2174 48.3048 92.9138 2.3701 18.5817 14.4028
# 4 1.2962 -1.1768 2.3701 37.0382 4.9590 3.3505
# 5 16.7950 9.1870 18.5817 4.9590 15.7200 6.9867
# 6 20.3006 11.6502 14.4028 3.3505 6.9867 11.2467
#
#
#
# Elastic Compliance Matrix: (Units=1/GPa)
#
#
# Indices 1 2 3 4 5 6 
#
# 1 0.009573 0.001147 -0.003302 0.001335 -0.001258 -0.013855
# 2 0.001147 0.049375 -0.023677 0.004455 0.010038 -0.030459
# 3 -0.003302 -0.023677 0.027350 -0.000615 -0.017729 0.006658
# 4 0.001335 0.004455 -0.000615 0.029111 -0.008094 -0.009880
# 5 -0.001258 0.010038 -0.017729 -0.008094 0.103675 -0.047416
# 6 -0.013855 -0.030459 0.006658 -0.009880 -0.047416 0.169347
#
#
# Mechanical properties :
#
#
# Convention : Reuss Voigt Hill
#
# Bulk Modulus (GPa) = 28.87238 60.41385 44.64311
# Shear Modulus (GPa) = 11.07074 23.72019 17.39546
#
# Velocity S-wave (km/s) = 2.54054 3.71875 3.18461
# Velocity P-wave (km/s) = 5.04368 7.32534 6.28885
#
# Compressibility (1/GPa) = 0.03463517
#
# Stress axis : x y z
#
# Youngs Moduli (GPa) = 104.45990 20.25302 36.56259
#
# Poissons Ratio (x) = -0.02323 0.12073
# Poissons Ratio (y) = -0.11982 0.86569
# Poissons Ratio (z) = 0.34493 0.47953
#
# Static dielectric constant tensor:
#      x y z
#    x 1.576440 0.004480 0.032740 
#    y 0.004480 1.606810 -0.025520 
#    z 0.032740 -0.025520 1.718110 
# 
# From -- ./inp_files/258262.got.cif
#   From: 2010.05.17/outbox.cif.g08.bks.cpg/sg2_130_cif.got.tgz:258262.got - 2010.06.03 11:33:40.
