data_PCOD9094560
_publ_section_title
;
Structure prediction by ZEFSAII (Michael W. Deem and Ramdas Pophale) SiO2 
 PCOD9094560
Probable space group: P -1
;
_chemical_formula_sum "Si O2"
_cell_formula_units_Z 15
_cell_length_a 15.819276
_cell_length_b 20.683370
_cell_length_c 7.966112
_cell_angle_alpha 51.718793
_cell_angle_beta 124.066655
_cell_angle_gamma 160.400764
_cell_volume 683.587436
_symmetry_space_group_name_H-M "P -1"
_symmetry_group_IT_number 2
_symmetry_cell_setting 'triclinic'
loop_
_space_group_symop_operation_xyz
x,y,z
-x,-y,-z
loop_
_atom_site_type_symbol
_atom_site_label
_atom_site_fract_x
_atom_site_fract_y
_atom_site_fract_z
Si Si1 0.889984 0.495716 0.480988
Si Si2 0.122464 0.880900 0.806800
Si Si3 0.648927 0.251098 0.954537
Si Si4 0.916294 0.211551 0.615402
Si Si5 0.000000 0.000000 0.000000
Si Si6 0.002192 0.365609 0.134481
Si Si7 0.633027 0.872857 0.663414
Si Si8 0.199461 0.281514 0.021582
O O1 0.773438 0.375394 0.718873
O O2 0.000000 0.500000 0.500000
O O3 0.097183 0.717394 0.400066
O O4 0.653814 0.356863 0.336910
O O5 0.226785 0.999158 0.561931
O O6 0.035724 0.724347 0.915749
O O7 0.352802 0.044051 0.932949
O O8 0.906003 0.775785 0.819029
O O9 0.776572 0.403110 0.992955
O O10 0.748884 0.231520 0.108135
O O11 0.670196 0.981113 0.648719
O O12 0.049736 0.341706 0.384108
O O13 0.101420 0.284750 0.793986
O O14 0.218794 0.091600 0.141429
O O15 0.083713 0.115065 0.076078
O O16 0.500000 0.500000 0.000000
#
# Coordination Sequence:
#
# PCOD9094560 Si02
#       8
#     2   2   2   2   1   2   2   2
#     4  10  20  34  58  87 119 154 189 233 288 350
#     4  10  21  37  61  85 111 155 194 236 286 345
#     4   9  19  36  56  85 118 153 191 229 281 347
#     4   9  20  39  54  84 118 151 186 238 291 338
#     4  10  22  44  62  84 118 148 194 254 298 340
#     4   9  18  37  58  81 121 150 187 235 282 348
#     4   9  20  41  61  82 117 150 195 241 289 348
#     4  11  24  41  61  84 115 153 200 247 293 340
#
# _framework density 21.943058000000001
#
# number of rings (size 3 to 8) (size 9 to 14) (size 15 to 20)
#    0.000    2.400    0.000    1.200    1.867    2.133 
#   14.400    6.000    0.000    0.000    0.000    0.000 
#    0.000    0.000    0.000    0.000    0.000    0.000 
#
# Total GULP energy -83539.567199 kJ/mol
# GULP energy per Si atom -5569.304480 kJ/mol
# Density = 2.189311 g / cm^3
# Si number density = 21.943058 Si / 1000 Ang^3
#
#
#
# Elastic Constant Matrix: (Units=GPa)
#
#
# Indices 1 2 3 4 5 6 
#
# 1 124.5652 50.9289 -19.7256 -9.3460 14.5159 -28.6271
# 2 50.9289 90.3468 6.8792 10.6322 -10.4983 -1.3586
# 3 -19.7256 6.8792 45.3355 6.3658 -1.6328 7.2021
# 4 -9.3460 10.6322 6.3658 28.3203 -1.3966 -3.8042
# 5 14.5159 -10.4983 -1.6328 -1.3966 28.3087 -2.3758
# 6 -28.6271 -1.3586 7.2021 -3.8042 -2.3758 34.5814
#
#
#
# Elastic Compliance Matrix: (Units=1/GPa)
#
#
# Indices 1 2 3 4 5 6 
#
# 1 0.022473 -0.016292 0.007129 0.013461 -0.015070 0.016925
# 2 -0.016292 0.023948 -0.006388 -0.013751 0.015208 -0.011683
# 3 0.007129 -0.006388 0.026204 -0.001404 -0.004606 -0.000278
# 4 0.013461 -0.013751 -0.001404 0.046891 -0.008471 0.015471
# 5 -0.015070 0.015208 -0.004606 -0.008471 0.047287 -0.008602
# 6 0.016925 -0.011683 -0.000278 0.015471 -0.008602 0.043638
#
#
# Mechanical properties :
#
#
# Convention : Reuss Voigt Hill
#
# Bulk Modulus (GPa) = 24.08243 37.37916 30.73079
# Shear Modulus (GPa) = 19.57831 33.05308 26.31569
#
# Velocity S-wave (km/s) = 2.99027 3.88533 3.46681
# Velocity P-wave (km/s) = 4.78759 6.09913 5.48272
#
# Compressibility (1/GPa) = 0.04152405
#
# Stress axis : x y z
#
# Youngs Moduli (GPa) = 44.49696 41.75651 38.16178
#
# Poissons Ratio (x) = 0.68029 -0.27205
# Poissons Ratio (y) = 0.72494 0.24378
# Poissons Ratio (z) = -0.31721 0.26674
#
# Static dielectric constant tensor:
#      x y z
#    x 1.806470 -0.033720 -0.027760 
#    y -0.033720 1.794010 -0.020900 
#    z -0.027760 -0.020900 1.822910 
# 
# From -- ./inp_files/236605.got.cif
#   From: 2010.05.17/outbox.cif.g08.bks.cpg/sg2_119_cif.got.tgz:236605.got - 2010.06.03 11:33:40.
