data_PCOD9094726
_publ_section_title
;
Structure prediction by ZEFSAII (Michael W. Deem and Ramdas Pophale) SiO2 
 PCOD9094726
Probable space group: P -1
;
_chemical_formula_sum "Si O2"
_cell_formula_units_Z 15
_cell_length_a 23.359302
_cell_length_b 5.359979
_cell_length_c 4.932736
_cell_angle_alpha 100.718173
_cell_angle_beta 84.495162
_cell_angle_gamma 64.132152
_cell_volume 534.963872
_symmetry_space_group_name_H-M "P -1"
_symmetry_group_IT_number 2
_symmetry_cell_setting 'triclinic'
loop_
_space_group_symop_operation_xyz
x,y,z
-x,-y,-z
loop_
_atom_site_type_symbol
_atom_site_label
_atom_site_fract_x
_atom_site_fract_y
_atom_site_fract_z
Si Si1 0.303559 0.743908 0.969951
Si Si2 0.424747 0.474270 0.161675
Si Si3 0.454218 0.943224 0.303050
Si Si4 0.760395 0.316272 0.480003
Si Si5 0.882497 0.849399 0.509255
Si Si6 0.938359 0.216436 0.890820
Si Si7 0.197089 0.321562 0.080383
Si Si8 0.000000 0.500000 0.500000
O O1 0.380005 0.603695 0.944652
O O2 0.280604 0.758657 0.294278
O O3 0.264140 0.051559 0.904398
O O4 0.277675 0.570199 0.757978
O O5 0.423694 0.741798 0.376486
O O6 0.404858 0.254312 0.275713
O O7 0.498208 0.255386 0.996718
O O8 0.500000 0.000000 0.500000
O O9 0.831638 0.044739 0.352410
O O10 0.779342 0.525364 0.677743
O O11 0.927895 0.966703 0.664752
O O12 0.838644 0.817543 0.751549
O O13 0.940343 0.559614 0.314967
O O14 0.860072 0.433700 0.023380
O O15 0.962235 0.386445 0.711059
O O16 0.000000 0.000000 0.000000
#
# Coordination Sequence:
#
# PCOD9094726 Si02
#       8
#     2   2   2   2   2   2   2   1
#     4  11  25  43  69 102 137 189 239 293 356 435
#     4  10  24  41  69 107 142 188 248 291 363 434
#     4  10  22  45  69 105 146 190 235 301 358 430
#     4  10  24  44  64  96 137 181 235 293 357 429
#     4   9  20  39  58  92 129 171 230 285 357 428
#     4  10  21  38  62  94 132 178 234 296 367 442
#     4   9  22  43  63  96 139 181 230 301 359 430
#     4  10  20  34  60  88 124 170 222 292 356 428
#
# _framework density 28.039276000000001
#
# number of rings (size 3 to 8) (size 9 to 14) (size 15 to 20)
#    0.000    2.133    0.000    0.800    3.733    8.533 
#    0.000    4.000    0.000    0.000    0.000    0.000 
#    0.000    0.000    0.000    0.000    0.000    0.000 
#
# Total GULP energy -83600.561359 kJ/mol
# GULP energy per Si atom -5573.370757 kJ/mol
# Density = 2.797546 g / cm^3
# Si number density = 28.039276 Si / 1000 Ang^3
#
#
#
# Elastic Constant Matrix: (Units=GPa)
#
#
# Indices 1 2 3 4 5 6 
#
# 1 95.0050 70.6989 41.3634 -18.2673 34.2438 -19.1902
# 2 70.6989 177.2915 38.9228 -18.5809 11.8074 -4.2321
# 3 41.3634 38.9228 90.8613 -22.5955 16.9648 4.0708
# 4 -18.2673 -18.5809 -22.5955 25.9064 -6.7525 0.7258
# 5 34.2438 11.8074 16.9648 -6.7525 62.1729 -14.7804
# 6 -19.1902 -4.2321 4.0708 0.7258 -14.7804 55.1223
#
#
#
# Elastic Compliance Matrix: (Units=1/GPa)
#
#
# Indices 1 2 3 4 5 6 
#
# 1 0.022624 -0.006784 -0.005040 0.004451 -0.008001 0.005524
# 2 -0.006784 0.008439 -0.000533 0.001400 0.002167 -0.001112
# 3 -0.005040 -0.000533 0.016467 0.010174 -0.001345 -0.003506
# 4 0.004451 0.001400 0.010174 0.051656 0.000182 0.000274
# 5 -0.008001 0.002167 -0.001345 0.000182 0.021219 0.003168
# 6 0.005524 -0.001112 -0.003506 0.000274 0.003168 0.021084
#
#
# Mechanical properties :
#
#
# Convention : Reuss Voigt Hill
#
# Bulk Modulus (GPa) = 43.83121 73.90311 58.86716
# Shear Modulus (GPa) = 28.76743 42.78516 35.77630
#
# Velocity S-wave (km/s) = 3.20655 3.91052 3.57590
# Velocity P-wave (km/s) = 5.41990 6.84133 6.17167
#
# Compressibility (1/GPa) = 0.02281479
#
# Stress axis : x y z
#
# Youngs Moduli (GPa) = 44.20111 118.50232 60.72864
#
# Poissons Ratio (x) = 0.80394 0.30606
# Poissons Ratio (y) = 0.29987 0.03238
# Poissons Ratio (z) = 0.22276 0.06319
#
# Static dielectric constant tensor:
#      x y z
#    x 2.202530 0.202060 0.146470 
#    y 0.202060 2.000630 -0.156310 
#    z 0.146470 -0.156310 2.170420 
# 
# From -- ./inp_files/121258.got.cif
#   From: 2010.05.17/outbox.cif.g08.bks.cpg/sg2_61_cif.got.tgz:121258.got - 2010.06.03 11:33:40.
