data_PCOD9094441
_publ_section_title
;
Structure prediction by ZEFSAII (Michael W. Deem and Ramdas Pophale) SiO2 
 PCOD9094441
Probable space group: P -1
;
_chemical_formula_sum "Si O2"
_cell_formula_units_Z 16
_cell_length_a 9.118275
_cell_length_b 9.106442
_cell_length_c 11.297968
_cell_angle_alpha 82.785348
_cell_angle_beta 76.969305
_cell_angle_gamma 134.846982
_cell_volume 590.440668
_symmetry_space_group_name_H-M "P -1"
_symmetry_group_IT_number 2
_symmetry_cell_setting 'triclinic'
loop_
_space_group_symop_operation_xyz
x,y,z
-x,-y,-z
loop_
_atom_site_type_symbol
_atom_site_label
_atom_site_fract_x
_atom_site_fract_y
_atom_site_fract_z
Si Si1 0.582770 0.627724 0.850537
Si Si2 0.723530 0.862893 0.422388
Si Si3 0.151586 0.410274 0.324305
Si Si4 0.921082 0.092470 0.868296
Si Si5 0.035143 0.619880 0.861220
Si Si6 0.975117 0.728418 0.397411
Si Si7 0.489792 0.808567 0.689805
Si Si8 0.220489 0.054883 0.856111
O O1 0.810658 0.891254 0.818491
O O2 0.433870 0.641958 0.813949
O O3 0.640859 0.541900 0.757015
O O4 0.500000 0.500000 0.000000
O O5 0.524212 0.755021 0.562525
O O6 0.827564 0.774779 0.432392
O O7 0.931055 0.133523 0.383157
O O8 0.648873 0.834694 0.303614
O O9 0.131044 0.510862 0.210019
O O10 0.134302 0.449832 0.458707
O O11 0.129253 0.153807 0.879801
O O12 0.017839 0.290751 0.744498
O O13 0.729635 0.970362 0.018016
O O14 0.290677 0.778794 0.745839
O O15 0.029626 0.787032 0.884974
O O16 0.000000 0.500000 0.000000
O O17 0.251830 0.939404 0.353806
#
# Coordination Sequence:
#
# PCOD9094441 Si02
#       8
#     2   2   2   2   2   2   2   2
#     4  11  18  29  50  74 100 131 167 203 245 296
#     4   9  14  29  51  75  99 120 170 219 242 284
#     4  10  16  30  48  70 101 128 162 214 242 279
#     4   9  17  32  53  77  94 133 170 208 249 290
#     4  11  22  33  46  75 110 133 163 202 253 308
#     4   9  15  29  51  75  99 119 173 218 242 283
#     4  10  18  28  49  74  99 132 162 211 256 281
#     4   9  18  32  52  72 104 132 165 204 253 298
#
# _framework density 27.098403999999999
#
# number of rings (size 3 to 8) (size 9 to 14) (size 15 to 20)
#    0.000    2.250    6.250    1.500    0.000    4.500 
#    0.000    2.500    0.000    3.000    0.000    0.000 
#    0.000    0.000    0.000    0.000    0.000    0.000 
#
# Total GULP energy -89244.111521 kJ/mol
# GULP energy per Si atom -5577.756970 kJ/mol
# Density = 2.703673 g / cm^3
# Si number density = 27.098404 Si / 1000 Ang^3
#
#
#
# Elastic Constant Matrix: (Units=GPa)
#
#
# Indices 1 2 3 4 5 6 
#
# 1 107.5074 18.1602 35.3018 3.8146 -10.6267 -6.6360
# 2 18.1602 55.1981 4.2274 -5.5480 -2.9181 1.8037
# 3 35.3018 4.2274 210.1489 16.5055 18.1306 19.0063
# 4 3.8146 -5.5480 16.5055 27.4504 9.0720 -2.1218
# 5 -10.6267 -2.9181 18.1306 9.0720 50.8082 -3.2149
# 6 -6.6360 1.8037 19.0063 -2.1218 -3.2149 32.1611
#
#
#
# Elastic Compliance Matrix: (Units=1/GPa)
#
#
# Indices 1 2 3 4 5 6 
#
# 1 0.011389 -0.003687 -0.002394 -0.001754 0.003604 0.004216
# 2 -0.003687 0.019805 0.000065 0.004536 -0.000572 -0.001668
# 3 -0.002394 0.000065 0.005992 -0.002803 -0.002417 -0.004465
# 4 -0.001754 0.004536 -0.002803 0.041614 -0.006337 0.003152
# 5 0.003604 -0.000572 -0.002417 -0.006337 0.022653 0.004051
# 6 0.004216 -0.001668 -0.004465 0.003152 0.004051 0.035308
#
#
# Mechanical properties :
#
#
# Convention : Reuss Voigt Hill
#
# Bulk Modulus (GPa) = 39.75473 54.24814 47.00144
# Shear Modulus (GPa) = 31.81113 43.09493 37.45303
#
# Velocity S-wave (km/s) = 3.42996 3.99220 3.72171
# Velocity P-wave (km/s) = 5.51258 6.42749 5.98753
#
# Compressibility (1/GPa) = 0.02515424
#
# Stress axis : x y z
#
# Youngs Moduli (GPa) = 87.80208 50.49254 166.89342
#
# Poissons Ratio (x) = 0.18618 0.39947
# Poissons Ratio (y) = 0.32375 -0.01084
# Poissons Ratio (z) = 0.21016 -0.00328
#
# Static dielectric constant tensor:
#      x y z
#    x 2.110080 0.079240 0.027120 
#    y 0.079240 2.264980 -0.003730 
#    z 0.027120 -0.003730 2.187980 
# 
# From -- ./inp_files/252443.got.cif
#   From: 2010.05.17/outbox.cif.g08.bks.cpg/sg2_127_cif.got.tgz:252443.got - 2010.06.03 11:33:40.
