data_PCOD9094166
_publ_section_title
;
Structure prediction by ZEFSAII (Michael W. Deem and Ramdas Pophale) SiO2 
 PCOD9094166
Probable space group: P -1
;
_chemical_formula_sum "Si O2"
_cell_formula_units_Z 16
_cell_length_a 16.025757
_cell_length_b 12.524672
_cell_length_c 6.302498
_cell_angle_alpha 49.363746
_cell_angle_beta 116.665574
_cell_angle_gamma 124.628539
_cell_volume 783.617266
_symmetry_space_group_name_H-M "P -1"
_symmetry_group_IT_number 2
_symmetry_cell_setting 'triclinic'
loop_
_space_group_symop_operation_xyz
x,y,z
-x,-y,-z
loop_
_atom_site_type_symbol
_atom_site_label
_atom_site_fract_x
_atom_site_fract_y
_atom_site_fract_z
Si Si1 0.390152 0.909580 0.091795
Si Si2 0.068570 0.359952 0.762689
Si Si3 0.121498 0.655186 0.220081
Si Si4 0.994026 0.117263 0.658570
Si Si5 0.818608 0.723460 0.658493
Si Si6 0.718722 0.116295 0.600648
Si Si7 0.238291 0.037432 0.532543
Si Si8 0.745458 0.363794 0.949634
O O1 0.380550 0.929977 0.304850
O O2 0.343676 0.730036 0.199749
O O3 0.500000 0.000000 0.000000
O O4 0.310812 0.971081 0.818089
O O5 0.140909 0.522416 0.540708
O O6 0.995734 0.380994 0.830636
O O7 0.002904 0.264382 0.616004
O O8 0.127357 0.273574 0.058021
O O9 0.187779 0.810235 0.221113
O O10 0.154631 0.644447 0.034988
O O11 0.092996 0.178556 0.536577
O O12 0.886216 0.053586 0.493004
O O13 0.000000 0.000000 0.000000
O O14 0.744388 0.805698 0.527610
O O15 0.766727 0.541950 0.774844
O O16 0.732440 0.982467 0.652993
O O17 0.722664 0.253621 0.270760
#
# Coordination Sequence:
#
# PCOD9094166 Si02
#       8
#     2   2   2   2   2   2   2   2
#     4  10  25  47  71  93 118 156 214 272 325 381
#     4  11  22  33  56  83 130 171 216 249 298 349
#     4  10  20  34  54  88 119 171 209 257 294 360
#     4  12  25  37  55  89 138 182 208 242 299 373
#     4  12  25  38  58  96 137 170 213 247 309 377
#     4  10  21  39  65  87 122 152 213 258 322 363
#     4  11  25  39  63  93 127 174 211 255 308 374
#     4  10  22  39  64  93 122 165 209 267 315 371
#
# _framework density 20.418130000000001
#
# number of rings (size 3 to 8) (size 9 to 14) (size 15 to 20)
#    0.000    1.250    5.000    0.375    7.000    2.500 
#    0.000    0.625    0.000    1.500    0.000    0.000 
#    0.000    0.000    0.000    0.000    0.000    0.000 
#
# Total GULP energy -89195.441077 kJ/mol
# GULP energy per Si atom -5574.715067 kJ/mol
# Density = 2.037166 g / cm^3
# Si number density = 20.418130 Si / 1000 Ang^3
#
#
#
# Elastic Constant Matrix: (Units=GPa)
#
#
# Indices 1 2 3 4 5 6 
#
# 1 114.2550 57.4761 54.5864 -10.8573 -31.1269 -17.0960
# 2 57.4761 115.3650 11.8427 -10.6797 -3.6221 -30.2575
# 3 54.5864 11.8427 68.0259 -4.9772 -7.5491 -1.8816
# 4 -10.8573 -10.6797 -4.9772 20.1802 -4.3456 0.5926
# 5 -31.1269 -3.6221 -7.5491 -4.3456 33.1086 3.2855
# 6 -17.0960 -30.2575 -1.8816 0.5926 3.2855 30.6098
#
#
#
# Elastic Compliance Matrix: (Units=1/GPa)
#
#
# Indices 1 2 3 4 5 6 
#
# 1 0.033717 -0.011979 -0.021003 0.012352 0.026966 0.002565
# 2 -0.011979 0.016839 0.006130 0.001729 -0.008912 0.011255
# 3 -0.021003 0.006130 0.028736 -0.003643 -0.012757 -0.002465
# 4 0.012352 0.001729 -0.003643 0.060008 0.018326 0.005255
# 5 0.026966 -0.008912 -0.012757 0.018326 0.054147 -0.000700
# 6 0.002565 0.011255 -0.002465 0.005255 -0.000700 0.045049
#
#
# Mechanical properties :
#
#
# Convention : Reuss Voigt Hill
#
# Bulk Modulus (GPa) = 39.08151 60.60625 49.84388
# Shear Modulus (GPa) = 16.62623 28.36244 22.49433
#
# Velocity S-wave (km/s) = 2.85667 3.73108 3.32276
# Velocity P-wave (km/s) = 5.48296 6.95042 6.25984
#
# Compressibility (1/GPa) = 0.02558755
#
# Stress axis : x y z
#
# Youngs Moduli (GPa) = 29.65870 59.38569 34.79919
#
# Poissons Ratio (x) = 0.71139 0.73089
# Poissons Ratio (y) = 0.35528 -0.21331
# Poissons Ratio (z) = 0.62292 -0.36402
#
# Static dielectric constant tensor:
#      x y z
#    x 1.726990 -0.006510 -0.032410 
#    y -0.006510 1.813600 -0.018550 
#    z -0.032410 -0.018550 1.825380 
# 
# From -- ./inp_files/108794.got.cif
#   From: 2010.05.17/outbox.cif.g08.bks.cpg/sg2_55_cif.got.tgz:108794.got - 2010.06.03 11:33:40.
