data_PCOD9094101
_publ_section_title
;
Structure prediction by ZEFSAII (Michael W. Deem and Ramdas Pophale) SiO2 
 PCOD9094101
Probable space group: P -1
;
_chemical_formula_sum "Si O2"
_cell_formula_units_Z 14
_cell_length_a 5.287549
_cell_length_b 23.548029
_cell_length_c 5.103039
_cell_angle_alpha 111.402832
_cell_angle_beta 99.692115
_cell_angle_gamma 53.905844
_cell_volume 477.098071
_symmetry_space_group_name_H-M "P -1"
_symmetry_group_IT_number 2
_symmetry_cell_setting 'triclinic'
loop_
_space_group_symop_operation_xyz
x,y,z
-x,-y,-z
loop_
_atom_site_type_symbol
_atom_site_label
_atom_site_fract_x
_atom_site_fract_y
_atom_site_fract_z
Si Si1 0.529760 0.758181 0.978768
Si Si2 0.844798 0.813215 0.504990
Si Si3 0.286721 0.955961 0.774292
Si Si4 0.106534 0.668944 0.530305
Si Si5 0.026037 0.099770 0.749414
Si Si6 0.786020 0.616127 0.015694
Si Si7 0.340622 0.471694 0.735089
O O1 0.655002 0.786021 0.274745
O O2 0.209200 0.836234 0.974715
O O3 0.497441 0.694130 0.981561
O O4 0.814470 0.713456 0.750674
O O5 0.607381 0.877865 0.779301
O O6 0.134120 0.734257 0.534797
O O7 0.911262 0.856485 0.378046
O O8 0.164774 0.927646 0.477397
O O9 0.317076 0.020554 0.774851
O O10 0.000000 0.000000 0.000000
O O11 0.990260 0.641289 0.228718
O O12 0.415053 0.588629 0.536685
O O13 0.712903 0.578387 0.166504
O O14 0.013587 0.549701 0.740216
O O15 0.500000 0.500000 0.000000
#
# Coordination Sequence:
#
# PCOD9094101 Si02
#       7
#     2   2   2   2   2   2   2
#     4  10  21  35  53  78 105 134 171 211 254 304
#     4  10  21  36  54  77 105 135 170 212 255 302
#     4  10  21  36  54  77 104 135 172 211 254 304
#     4  10  20  34  54  78 102 135 174 209 254 306
#     4  10  21  36  53  76 106 136 169 212 256 301
#     4   9  19  36  53  74 106 136 167 213 257 298
#     4   9  18  35  55  75 104 137 170 211 255 300
#
# _framework density 29.344069000000001
#
# number of rings (size 3 to 8) (size 9 to 14) (size 15 to 20)
#    0.000    2.286    0.000    2.143    0.000    3.429 
#    0.000    6.429    0.000    0.000    0.000    0.000 
#    0.000    0.000    0.000    0.000    0.000    0.000 
#
# Total GULP energy -78410.808275 kJ/mol
# GULP energy per Si atom -5600.772020 kJ/mol
# Density = 2.927728 g / cm^3
# Si number density = 29.344069 Si / 1000 Ang^3
#
#
#
# Elastic Constant Matrix: (Units=GPa)
#
#
# Indices 1 2 3 4 5 6 
#
# 1 70.0153 70.3975 20.2244 18.5690 -9.2017 6.9880
# 2 70.3975 246.3525 72.8557 51.0341 -17.9908 -0.0933
# 3 20.2244 72.8557 166.1304 63.9938 -27.6260 1.8688
# 4 18.5690 51.0341 63.9938 74.2657 -3.0322 -1.8079
# 5 -9.2017 -17.9908 -27.6260 -3.0322 66.7649 5.3669
# 6 6.9880 -0.0933 1.8688 -1.8079 5.3669 82.6085
#
#
#
# Elastic Compliance Matrix: (Units=1/GPa)
#
#
# Indices 1 2 3 4 5 6 
#
# 1 0.020661 -0.005644 0.001162 -0.002260 0.001862 -0.001951
# 2 -0.005644 0.006485 -0.001428 -0.001793 0.000260 0.000461
# 3 0.001162 -0.001428 0.010192 -0.007959 0.003691 -0.000744
# 4 -0.002260 -0.001793 -0.007959 0.022017 -0.003173 0.001057
# 5 0.001862 0.000260 0.003691 -0.003173 0.016800 -0.001402
# 6 -0.001951 0.000461 -0.000744 0.001057 -0.001402 0.012402
#
#
# Mechanical properties :
#
#
# Convention : Reuss Voigt Hill
#
# Bulk Modulus (GPa) = 39.18890 89.93926 64.56408
# Shear Modulus (GPa) = 45.92064 65.99584 55.95824
#
# Velocity S-wave (km/s) = 3.96018 4.74754 4.37162
# Velocity P-wave (km/s) = 5.85616 7.79543 6.89432
#
# Compressibility (1/GPa) = 0.02551743
#
# Stress axis : x y z
#
# Youngs Moduli (GPa) = 48.40085 154.20080 98.11353
#
# Poissons Ratio (x) = 0.87035 -0.11403
# Poissons Ratio (y) = 0.27319 0.14014
# Poissons Ratio (z) = -0.05625 0.22024
#
# Static dielectric constant tensor:
#      x y z
#    x 2.397850 -0.137190 0.005430 
#    y -0.137190 2.312490 -0.063460 
#    z 0.005430 -0.063460 2.263540 
# 
# From -- ./inp_files/7664.got.cif
#   From: 2010.05.17/outbox.cif.g08.bks.cpg/sg2_4_cif.got.tgz:7664.got - 2010.06.03 11:33:40.
