data_PCOD9094172
_publ_section_title
;
Structure prediction by ZEFSAII (Michael W. Deem and Ramdas Pophale) SiO2 
 PCOD9094172
Probable space group: P -1
;
_chemical_formula_sum "Si O2"
_cell_formula_units_Z 14
_cell_length_a 11.537700
_cell_length_b 12.503454
_cell_length_c 5.613301
_cell_angle_alpha 90.971221
_cell_angle_beta 78.068107
_cell_angle_gamma 117.629037
_cell_volume 699.023670
_symmetry_space_group_name_H-M "P -1"
_symmetry_group_IT_number 2
_symmetry_cell_setting 'triclinic'
loop_
_space_group_symop_operation_xyz
x,y,z
-x,-y,-z
loop_
_atom_site_type_symbol
_atom_site_label
_atom_site_fract_x
_atom_site_fract_y
_atom_site_fract_z
Si Si1 0.135630 0.693667 0.781009
Si Si2 0.895393 0.069670 0.287261
Si Si3 0.660268 0.511221 0.165915
Si Si4 0.879620 0.472114 0.816037
Si Si5 0.645406 0.338521 0.539457
Si Si6 0.573499 0.698562 0.058049
Si Si7 0.176666 0.071968 0.191918
O O1 0.123621 0.812635 0.740731
O O2 0.288100 0.716991 0.672736
O O3 0.016964 0.584796 0.677909
O O4 0.097870 0.627918 0.051641
O O5 0.051587 0.101469 0.245568
O O6 0.834775 0.004050 0.564962
O O7 0.838523 0.992280 0.063363
O O8 0.634773 0.451327 0.432678
O O9 0.648479 0.632621 0.154391
O O10 0.803951 0.527086 0.020895
O O11 0.543744 0.406360 0.052084
O O12 0.764024 0.397774 0.678617
O O13 0.504614 0.258078 0.721974
O O14 0.681775 0.807455 0.863759
#
# Coordination Sequence:
#
# PCOD9094172 Si02
#       7
#     2   2   2   2   2   2   2
#     4  10  20  36  59  82 120 154 192 244 298 352
#     4  10  23  43  63  89 117 154 203 249 292 348
#     4   9  19  35  56  87 116 149 194 241 301 352
#     4   9  19  35  56  87 116 149 194 241 301 352
#     4  10  20  34  54  90 116 150 192 242 294 368
#     4  10  20  36  59  82 120 154 192 244 298 352
#     4  10  23  43  63  89 117 154 203 249 292 348
#
# _framework density 20.027930999999999
#
# number of rings (size 3 to 8) (size 9 to 14) (size 15 to 20)
#    0.000    2.286    0.000    1.714    4.000    0.000 
#    7.714    1.429    0.000    0.000    0.000    0.000 
#    0.000    0.000    0.000    0.000    0.000    0.000 
#
# Total GULP energy -77986.478345 kJ/mol
# GULP energy per Si atom -5570.462739 kJ/mol
# Density = 1.998235 g / cm^3
# Si number density = 20.027931 Si / 1000 Ang^3
#
#
#
# Elastic Constant Matrix: (Units=GPa)
#
#
# Indices 1 2 3 4 5 6 
#
# 1 96.4215 45.4935 51.2352 -28.7535 1.9013 -15.6737
# 2 45.4935 65.8426 44.1906 -28.8341 -5.6067 -20.9254
# 3 51.2352 44.1906 93.2601 -22.1731 -6.3819 -9.7265
# 4 -28.7535 -28.8341 -22.1731 26.3782 8.1707 7.1004
# 5 1.9013 -5.6067 -6.3819 8.1707 36.1879 -12.5173
# 6 -15.6737 -20.9254 -9.7265 7.1004 -12.5173 26.8683
#
#
#
# Elastic Compliance Matrix: (Units=1/GPa)
#
#
# Indices 1 2 3 4 5 6 
#
# 1 0.019716 -0.004129 -0.006026 0.013862 -0.005989 -0.000349
# 2 -0.004129 0.045563 -0.009417 0.027693 0.008456 0.026289
# 3 -0.006026 -0.009417 0.017918 -0.001164 0.001046 -0.003567
# 4 0.013862 0.027693 -0.001164 0.088258 -0.017317 -0.002158
# 5 -0.005989 0.008456 0.001046 -0.017317 0.043078 0.028116
# 6 -0.000349 0.026289 -0.003567 -0.002158 0.028116 0.069867
#
#
# Mechanical properties :
#
#
# Convention : Reuss Voigt Hill
#
# Bulk Modulus (GPa) = 22.69911 59.70701 41.20306
# Shear Modulus (GPa) = 14.78291 25.52720 20.15506
#
# Velocity S-wave (km/s) = 2.71977 3.57400 3.17574
# Velocity P-wave (km/s) = 4.60665 6.84893 5.83648
#
# Compressibility (1/GPa) = 0.04405460
#
# Stress axis : x y z
#
# Youngs Moduli (GPa) = 50.71972 21.94755 55.81004
#
# Poissons Ratio (x) = 0.09062 0.33629
# Poissons Ratio (y) = 0.20942 0.52555
# Poissons Ratio (z) = 0.30562 0.20668
#
# Static dielectric constant tensor:
#      x y z
#    x 1.724780 0.003490 -0.025940 
#    y 0.003490 1.692410 0.070850 
#    z -0.025940 0.070850 1.833130 
# 
# From -- ./inp_files/64853.got.cif
#   From: 2010.05.17/outbox.cif.g08.bks.cpg/sg2_33_cif.got.tgz:64853.got - 2010.06.03 11:33:40.
