data_PCOD9094738
_publ_section_title
;
Structure prediction by ZEFSAII (Michael W. Deem and Ramdas Pophale) SiO2 
 PCOD9094738
Probable space group: P -1
;
_chemical_formula_sum "Si O2"
_cell_formula_units_Z 15
_cell_length_a 19.893026
_cell_length_b 10.991370
_cell_length_c 17.584599
_cell_angle_alpha 133.090285
_cell_angle_beta 20.421888
_cell_angle_gamma 143.579529
_cell_volume 748.337422
_symmetry_space_group_name_H-M "P -1"
_symmetry_group_IT_number 2
_symmetry_cell_setting 'triclinic'
loop_
_space_group_symop_operation_xyz
x,y,z
-x,-y,-z
loop_
_atom_site_type_symbol
_atom_site_label
_atom_site_fract_x
_atom_site_fract_y
_atom_site_fract_z
Si Si1 0.216669 0.995268 0.791250
Si Si2 0.000000 0.500000 0.500000
Si Si3 0.789090 0.003892 0.503338
Si Si4 0.231728 0.633476 0.600781
Si Si5 0.645864 0.459013 0.726841
Si Si6 0.856135 0.029286 0.965882
Si Si7 0.776096 0.213848 0.989222
Si Si8 0.871686 0.926939 0.687261
O O1 0.496890 0.226706 0.586028
O O2 0.201980 0.810822 0.685946
O O3 0.182089 0.939691 0.893916
O O4 0.000000 0.000000 0.000000
O O5 0.179431 0.517681 0.383197
O O6 0.117306 0.754818 0.503519
O O7 0.488141 0.839433 0.755340
O O8 0.892635 0.937199 0.300482
O O9 0.916071 0.003484 0.445898
O O10 0.243719 0.531439 0.468256
O O11 0.005255 0.449657 0.815230
O O12 0.657126 0.665182 0.807146
O O13 0.369982 0.225197 0.924108
O O14 0.834819 0.171231 0.991650
O O15 0.760160 0.042386 0.878129
O O16 0.000000 0.000000 0.500000
#
# Coordination Sequence:
#
# PCOD9094738 Si02
#       8
#     2   1   2   2   2   2   2   2
#     4  10  24  44  68  92 115 157 211 258 315 372
#     4  10  20  34  60  90 118 172 206 236 292 368
#     4  10  23  35  57  90 126 166 205 240 303 360
#     4  10  23  43  65  91 122 160 203 261 316 353
#     4  10  20  40  61  91 126 168 203 253 298 359
#     4  10  23  40  63  88 123 163 205 260 303 358
#     4  11  22  41  62  90 130 158 203 255 304 368
#     4  10  21  38  56  91 130 165 205 245 300 362
#
# _framework density 20.044432
#
# number of rings (size 3 to 8) (size 9 to 14) (size 15 to 20)
#    0.000    1.867    2.667    0.000    3.733    5.867 
#    0.000    1.333    0.000    0.000    0.000    0.000 
#    0.000    0.000    0.000    0.000    0.000    0.000 
#
# Total GULP energy -83571.803757 kJ/mol
# GULP energy per Si atom -5571.453584 kJ/mol
# Density = 1.999881 g / cm^3
# Si number density = 20.044432 Si / 1000 Ang^3
#
#
#
# Elastic Constant Matrix: (Units=GPa)
#
#
# Indices 1 2 3 4 5 6 
#
# 1 24.6165 6.7224 16.5319 -9.5726 2.0525 -2.7891
# 2 6.7224 62.1438 26.6771 -8.0636 -10.3552 1.9949
# 3 16.5319 26.6771 122.7906 -17.7826 -12.3237 -3.6382
# 4 -9.5726 -8.0636 -17.7826 21.9573 -0.6184 6.9938
# 5 2.0525 -10.3552 -12.3237 -0.6184 28.8698 4.3204
# 6 -2.7891 1.9949 -3.6382 6.9938 4.3204 17.0994
#
#
#
# Elastic Compliance Matrix: (Units=1/GPa)
#
#
# Indices 1 2 3 4 5 6 
#
# 1 0.051818 -0.002635 -0.004533 0.016965 -0.006578 0.002518
# 2 -0.002635 0.019847 -0.002424 0.006949 0.007622 -0.008029
# 3 -0.004533 -0.002424 0.010602 0.006469 0.004411 -0.001961
# 4 0.016965 0.006949 0.006469 0.069816 0.009684 -0.027670
# 5 -0.006578 0.007622 0.004411 0.009684 0.042274 -0.015666
# 6 0.002518 -0.008029 -0.001961 -0.027670 -0.015666 0.074687
#
#
# Mechanical properties :
#
#
# Convention : Reuss Voigt Hill
#
# Bulk Modulus (GPa) = 15.85197 34.37929 25.11563
# Shear Modulus (GPa) = 16.16788 24.22657 20.19723
#
# Velocity S-wave (km/s) = 2.84316 3.48033 3.17775
# Velocity P-wave (km/s) = 4.32477 5.77399 5.10111
#
# Compressibility (1/GPa) = 0.06308366
#
# Stress axis : x y z
#
# Youngs Moduli (GPa) = 19.29844 50.38635 94.32008
#
# Poissons Ratio (x) = 0.13278 0.42752
# Poissons Ratio (y) = 0.05085 0.22860
# Poissons Ratio (z) = 0.08747 0.12212
#
# Static dielectric constant tensor:
#      x y z
#    x 1.680690 0.008560 0.029590 
#    y 0.008560 1.705250 -0.002860 
#    z 0.029590 -0.002860 1.717170 
# 
# From -- ./inp_files/36920.got.cif
#   From: 2010.05.17/outbox.cif.g08.bks.cpg/sg2_19_cif.got.tgz:36920.got - 2010.06.03 11:33:40.
