data_PCOD9094195
_publ_section_title
;
Structure prediction by ZEFSAII (Michael W. Deem and Ramdas Pophale) SiO2 
 PCOD9094195
Probable space group: P -1
;
_chemical_formula_sum "Si O2"
_cell_formula_units_Z 10
_cell_length_a 5.363050
_cell_length_b 12.431676
_cell_length_c 12.693649
_cell_angle_alpha 145.262396
_cell_angle_beta 77.953338
_cell_angle_gamma 88.617305
_cell_volume 441.602975
_symmetry_space_group_name_H-M "P -1"
_symmetry_group_IT_number 2
_symmetry_cell_setting 'triclinic'
loop_
_space_group_symop_operation_xyz
x,y,z
-x,-y,-z
loop_
_atom_site_type_symbol
_atom_site_label
_atom_site_fract_x
_atom_site_fract_y
_atom_site_fract_z
Si Si1 0.427739 0.801518 0.733311
Si Si2 0.604865 0.781219 0.258484
Si Si3 0.897456 0.427191 0.345566
Si Si4 0.785201 0.336603 0.966728
Si Si5 0.421028 0.218172 0.053926
O O1 0.609816 0.605288 0.493640
O O2 0.150681 0.771661 0.767441
O O3 0.553171 0.797834 0.835329
O O4 0.417809 0.004697 0.842392
O O5 0.375477 0.748984 0.176056
O O6 0.891384 0.753988 0.152943
O O7 0.500000 0.000000 0.500000
O O8 0.686721 0.579833 0.162225
O O9 0.000000 0.500000 0.500000
O O10 0.121831 0.385722 0.201937
O O11 0.667450 0.273753 0.031998
#
# Coordination Sequence:
#
# PCOD9094195 Si02
#       5
#     2   2   2   2   2
#     4   9  19  35  52  77 120 151 187 228 281 336
#     4  10  22  45  64  87 122 152 194 257 308 353
#     4   9  18  34  51  76 114 153 188 231 276 333
#     4  10  23  40  65  93 116 154 204 244 300 364
#     4  10  20  34  55  82 111 152 189 235 281 339
#
# _framework density 22.644777000000001
#
# number of rings (size 3 to 8) (size 9 to 14) (size 15 to 20)
#    0.000    2.400    0.000    1.200    2.800    1.600 
#   10.800    0.000    0.000    0.000    0.000    0.000 
#    0.000    0.000    0.000    0.000    0.000    0.000 
#
# Total GULP energy -55748.857032 kJ/mol
# GULP energy per Si atom -5574.885703 kJ/mol
# Density = 2.259324 g / cm^3
# Si number density = 22.644777 Si / 1000 Ang^3
#
#
#
# Elastic Constant Matrix: (Units=GPa)
#
#
# Indices 1 2 3 4 5 6 
#
# 1 96.4710 26.3827 37.1047 1.5779 -0.1454 36.1753
# 2 26.3827 93.1413 59.7568 5.4826 -19.6881 35.7922
# 3 37.1047 59.7568 167.2818 14.5769 -0.3497 25.1181
# 4 1.5779 5.4826 14.5769 19.2154 12.4261 2.9617
# 5 -0.1454 -19.6881 -0.3497 12.4261 25.6599 -6.9315
# 6 36.1753 35.7922 25.1181 2.9617 -6.9315 46.6134
#
#
#
# Elastic Compliance Matrix: (Units=1/GPa)
#
#
# Indices 1 2 3 4 5 6 
#
# 1 0.015746 -0.000034 -0.002198 0.006453 -0.006435 -0.012377
# 2 -0.000034 0.024700 -0.005638 -0.016377 0.023745 -0.011330
# 3 -0.002198 -0.005638 0.008586 -0.003532 -0.002157 0.001312
# 4 0.006453 -0.016377 -0.003532 0.100550 -0.062966 -0.006282
# 5 -0.006435 0.023745 -0.002157 -0.062966 0.089010 0.005161
# 6 -0.012377 -0.011330 0.001312 -0.006282 0.005161 0.040218
#
#
# Mechanical properties :
#
#
# Convention : Reuss Voigt Hill
#
# Bulk Modulus (GPa) = 30.03706 67.04251 48.53979
# Shear Modulus (GPa) = 16.35870 33.87439 25.11654
#
# Velocity S-wave (km/s) = 2.69067 3.87189 3.33401
# Velocity P-wave (km/s) = 4.79022 7.04692 6.02517
#
# Compressibility (1/GPa) = 0.03329220
#
# Stress axis : x y z
#
# Youngs Moduli (GPa) = 63.50692 40.48543 116.47314
#
# Poissons Ratio (x) = 0.00139 0.25599
# Poissons Ratio (y) = 0.00217 0.65667
# Poissons Ratio (z) = 0.13958 0.22825
#
# Static dielectric constant tensor:
#      x y z
#    x 1.958360 -0.043440 -0.039550 
#    y -0.043440 1.856440 -0.004230 
#    z -0.039550 -0.004230 1.905500 
# 
# From -- ./inp_files/21811.got.cif
#   From: 2010.05.17/outbox.cif.g08.bks.cpg/sg2_11_cif.got.tgz:21811.got - 2010.06.03 11:33:40.
