data_PCOD9094815
_publ_section_title
;
Structure prediction by ZEFSAII (Michael W. Deem and Ramdas Pophale) SiO2 
 PCOD9094815
Probable space group: P -1
;
_chemical_formula_sum "Si O2"
_cell_formula_units_Z 14
_cell_length_a 14.882047
_cell_length_b 11.231576
_cell_length_c 11.339804
_cell_angle_alpha 36.589587
_cell_angle_beta 139.071079
_cell_angle_gamma 143.697624
_cell_volume 636.548385
_symmetry_space_group_name_H-M "P -1"
_symmetry_group_IT_number 2
_symmetry_cell_setting 'triclinic'
loop_
_space_group_symop_operation_xyz
x,y,z
-x,-y,-z
loop_
_atom_site_type_symbol
_atom_site_label
_atom_site_fract_x
_atom_site_fract_y
_atom_site_fract_z
Si Si1 0.402819 0.785774 0.989736
Si Si2 0.539055 0.802191 0.888299
Si Si3 0.107139 0.026655 0.902810
Si Si4 0.270618 0.970022 0.323032
Si Si5 0.528729 0.587039 0.723515
Si Si6 0.037902 0.466193 0.931011
Si Si7 0.185315 0.504363 0.512992
O O1 0.447828 0.876193 0.828022
O O2 0.216719 0.661443 0.924724
O O3 0.454783 0.588890 0.208221
O O4 0.500000 0.000000 0.000000
O O5 0.576896 0.905592 0.714935
O O6 0.719146 0.905864 0.033727
O O7 0.450889 0.526496 0.042826
O O8 0.096276 0.251380 0.685678
O O9 0.137826 0.990084 0.098665
O O10 0.981702 0.785743 0.911331
O O11 0.217317 0.701528 0.484967
O O12 0.330862 0.146781 0.350101
O O13 0.355085 0.558736 0.583066
O O14 0.917149 0.477674 0.708680
O O15 0.000000 0.500000 0.000000
#
# Coordination Sequence:
#
# PCOD9094815 Si02
#       7
#     2   2   2   2   2   2   2
#     4  10  21  37  60  84 114 152 195 242 287 334
#     4   7  16  31  59  80 111 142 189 225 275 330
#     4   8  18  36  57  89 111 148 191 231 280 348
#     4   9  16  33  64  91 112 154 187 232 290 342
#     4   9  18  35  61  87 120 146 194 238 281 339
#     4  11  23  39  60  78 117 161 192 234 296 338
#     4  10  20  34  61  90 112 149 199 235 280 351
#
# _framework density 21.993614000000001
#
# number of rings (size 3 to 8) (size 9 to 14) (size 15 to 20)
#    1.714    1.143    0.000    1.714    0.000    0.571 
#    0.000    5.000    0.000    4.286    0.000    0.000 
#    0.000    0.000    0.000    0.000    0.000    0.000 
#
# Total GULP energy -77956.563621 kJ/mol
# GULP energy per Si atom -5568.325973 kJ/mol
# Density = 2.194356 g / cm^3
# Si number density = 21.993614 Si / 1000 Ang^3
#
#
#
# Elastic Constant Matrix: (Units=GPa)
#
#
# Indices 1 2 3 4 5 6 
#
# 1 68.5205 25.2289 11.4207 2.9750 24.5454 -9.6748
# 2 25.2289 163.3811 44.3660 -17.0983 22.1959 -36.0304
# 3 11.4207 44.3660 84.6751 -22.9373 18.2180 -19.6826
# 4 2.9750 -17.0983 -22.9373 29.0424 0.8927 5.9763
# 5 24.5454 22.1959 18.2180 0.8927 14.5595 -7.1386
# 6 -9.6748 -36.0304 -19.6826 5.9763 -7.1386 26.7586
#
#
#
# Elastic Compliance Matrix: (Units=1/GPa)
#
#
# Indices 1 2 3 4 5 6 
#
# 1 0.055490 0.006291 0.024642 0.020087 -0.131762 0.007022
# 2 0.006291 0.011013 0.003799 0.007417 -0.027220 0.010980
# 3 0.024642 0.003799 0.035690 0.028520 -0.088721 0.010238
# 4 0.020087 0.007417 0.028520 0.061373 -0.083523 0.002239
# 5 -0.131762 -0.027220 -0.088721 -0.083523 0.442099 -0.012955
# 6 0.007022 0.010980 0.010238 0.002239 -0.012955 0.058269
#
#
# Mechanical properties :
#
#
# Convention : Reuss Voigt Hill
#
# Bulk Modulus (GPa) = 5.82559 53.17865 29.50212
# Shear Modulus (GPa) = 7.67236 29.77617 18.72426
#
# Velocity S-wave (km/s) = 1.86977 3.68347 2.92096
# Velocity P-wave (km/s) = 2.70479 6.50555 4.98187
#
# Compressibility (1/GPa) = 0.17165631
#
# Stress axis : x y z
#
# Youngs Moduli (GPa) = 18.02131 90.80000 28.01914
#
# Poissons Ratio (x) = -0.57122 -0.69044
# Poissons Ratio (y) = -0.11337 -0.10644
# Poissons Ratio (z) = -0.44408 -0.34495
#
# Static dielectric constant tensor:
#      x y z
#    x 1.861130 -0.021120 0.008050 
#    y -0.021120 1.864910 -0.014200 
#    z 0.008050 -0.014200 1.891770 
# 
# From -- ./inp_files/463515.got.cif
#   From: 2010.05.17/outbox.cif.g08.bks.cpg/sg2_232_cif.got.tgz:463515.got - 2010.06.03 11:33:40.
