data_PCOD9094754
_publ_section_title
;
Structure prediction by ZEFSAII (Michael W. Deem and Ramdas Pophale) SiO2 
 PCOD9094754
Probable space group: P -1
;
_chemical_formula_sum "Si O2"
_cell_formula_units_Z 15
_cell_length_a 5.081340
_cell_length_b 19.588084
_cell_length_c 12.434455
_cell_angle_alpha 27.525816
_cell_angle_beta 90.761670
_cell_angle_gamma 87.865125
_cell_volume 568.696368
_symmetry_space_group_name_H-M "P -1"
_symmetry_group_IT_number 2
_symmetry_cell_setting 'triclinic'
loop_
_space_group_symop_operation_xyz
x,y,z
-x,-y,-z
loop_
_atom_site_type_symbol
_atom_site_label
_atom_site_fract_x
_atom_site_fract_y
_atom_site_fract_z
Si Si1 0.947888 0.047355 0.268266
Si Si2 0.329675 0.228718 0.380949
Si Si3 0.000000 0.500000 0.500000
Si Si4 0.717552 0.717017 0.076851
Si Si5 0.308748 0.731384 0.876251
Si Si6 0.667304 0.242914 0.802391
Si Si7 0.425034 0.730628 0.465484
Si Si8 0.935149 0.552387 0.769166
O O1 0.817278 0.119336 0.275376
O O2 0.892574 0.879354 0.493130
O O3 0.803881 0.126019 0.051946
O O4 0.230082 0.112796 0.178015
O O5 0.518597 0.242371 0.263218
O O6 0.507831 0.174505 0.562450
O O7 0.191763 0.385861 0.203927
O O8 0.012574 0.388423 0.763719
O O9 0.183245 0.611153 0.407010
O O10 0.613561 0.699496 0.223155
O O11 0.520028 0.668739 0.055659
O O12 0.093223 0.620462 0.001202
O O13 0.655573 0.184237 0.763441
O O14 0.705992 0.635814 0.574537
O O15 0.206900 0.622693 0.651518
#
# Coordination Sequence:
#
# PCOD9094754 Si02
#       8
#     2   2   1   2   2   2   2   2
#     4  10  24  41  67  99 133 178 232 281 343 403
#     4  10  25  45  66  96 137 187 229 280 339 413
#     4  10  20  34  60  92 132 172 216 276 340 402
#     4  10  23  37  63  99 135 174 221 288 343 404
#     4  11  23  43  67 101 133 176 233 290 340 399
#     4  10  22  38  62  97 136 173 222 282 342 408
#     4  10  25  42  71 100 140 180 229 276 350 410
#     4  10  25  43  69 103 134 181 226 282 347 408
#
# _framework density 26.376113
#
# number of rings (size 3 to 8) (size 9 to 14) (size 15 to 20)
#    0.800    1.067    0.000    2.000   11.200    4.800 
#    0.000    1.333    0.000    0.000    0.000    0.000 
#    0.000    0.000    0.000    0.000    0.000    0.000 
#
# Total GULP energy -83739.741310 kJ/mol
# GULP energy per Si atom -5582.649421 kJ/mol
# Density = 2.631608 g / cm^3
# Si number density = 26.376113 Si / 1000 Ang^3
#
#
#
# Elastic Constant Matrix: (Units=GPa)
#
#
# Indices 1 2 3 4 5 6 
#
# 1 80.3363 42.4850 21.5866 0.6276 -24.7810 16.4819
# 2 42.4850 156.4002 62.1378 16.3921 -11.4860 14.4942
# 3 21.5866 62.1378 94.2602 -2.2644 -12.6241 0.3594
# 4 0.6276 16.3921 -2.2644 55.8689 7.4170 -8.1864
# 5 -24.7810 -11.4860 -12.6241 7.4170 45.6528 -5.6384
# 6 16.4819 14.4942 0.3594 -8.1864 -5.6384 26.2066
#
#
#
# Elastic Compliance Matrix: (Units=1/GPa)
#
#
# Indices 1 2 3 4 5 6 
#
# 1 0.018750 -0.002986 -0.001226 -0.001788 0.008279 -0.008901
# 2 -0.002986 0.010661 -0.006520 -0.004044 -0.000746 -0.005352
# 3 -0.001226 -0.006520 0.015533 0.003087 0.002179 0.005597
# 4 -0.001788 -0.004044 0.003087 0.021026 -0.003420 0.009151
# 5 0.008279 -0.000746 0.002179 -0.003420 0.027368 -0.000004
# 6 -0.008901 -0.005352 0.005597 0.009151 -0.000004 0.049498
#
#
# Mechanical properties :
#
#
# Convention : Reuss Voigt Hill
#
# Bulk Modulus (GPa) = 42.59169 64.82395 53.70782
# Shear Modulus (GPa) = 29.04854 39.19816 34.12335
#
# Velocity S-wave (km/s) = 3.32221 3.85921 3.60074
# Velocity P-wave (km/s) = 5.55869 6.66994 6.13951
#
# Compressibility (1/GPa) = 0.02347876
#
# Stress axis : x y z
#
# Youngs Moduli (GPa) = 53.33334 93.80277 64.38038
#
# Poissons Ratio (x) = 0.28010 0.07891
# Poissons Ratio (y) = 0.15926 0.41979
# Poissons Ratio (z) = 0.06537 0.61164
#
# Static dielectric constant tensor:
#      x y z
#    x 1.528580 0.210620 -0.011000 
#    y 0.210620 2.015330 0.074350 
#    z -0.011000 0.074350 2.048200 
# 
# From -- ./inp_files/369963.got.cif
#   From: 2010.05.17/outbox.cif.g08.bks.cpg/sg2_185_cif.got.tgz:369963.got - 2010.06.03 11:33:40.
