data_PCOD9094014
_publ_section_title
;
Structure prediction by ZEFSAII (Michael W. Deem and Ramdas Pophale) SiO2 
 PCOD9094014
Probable space group: P -1
;
_chemical_formula_sum "Si O2"
_cell_formula_units_Z 14
_cell_length_a 11.905363
_cell_length_b 11.749163
_cell_length_c 7.309456
_cell_angle_alpha 51.852960
_cell_angle_beta 117.802414
_cell_angle_gamma 85.143698
_cell_volume 600.518338
_symmetry_space_group_name_H-M "P -1"
_symmetry_group_IT_number 2
_symmetry_cell_setting 'triclinic'
loop_
_space_group_symop_operation_xyz
x,y,z
-x,-y,-z
loop_
_atom_site_type_symbol
_atom_site_label
_atom_site_fract_x
_atom_site_fract_y
_atom_site_fract_z
Si Si1 0.534803 0.332985 0.439546
Si Si2 0.836512 0.598398 0.189411
Si Si3 0.770117 0.140610 0.313991
Si Si4 0.840356 0.169761 0.747394
Si Si5 0.974318 0.752733 0.940455
Si Si6 0.211895 0.547369 0.067348
Si Si7 0.453592 0.329169 0.964269
O O1 0.706839 0.177993 0.757466
O O2 0.486422 0.303653 0.233210
O O3 0.386530 0.397154 0.386303
O O4 0.555164 0.495323 0.271304
O O5 0.823626 0.485772 0.131572
O O6 0.000000 0.500000 0.500000
O O7 0.837373 0.751650 0.932655
O O8 0.703602 0.657828 0.175420
O O9 0.772900 0.207168 0.456130
O O10 0.790187 0.276537 0.084626
O O11 0.602195 0.181382 0.122877
O O12 0.896824 0.940496 0.600765
O O13 0.900941 0.274484 0.789020
O O14 0.000000 0.000000 0.000000
O O15 0.071424 0.591962 0.041450
#
# Coordination Sequence:
#
# PCOD9094014 Si02
#       7
#     2   2   2   2   2   2   2
#     4   8  14  29  50  71  96 128 166 205 242 289
#     4  11  21  34  52  73 100 133 170 208 247 298
#     4   9  18  35  55  73  98 131 170 209 245 293
#     4   9  17  30  49  75 101 127 165 205 242 288
#     4  11  21  31  50  79 106 131 160 205 257 299
#     4  10  20  34  52  74 102 134 166 204 252 300
#     4   8  15  29  51  72  91 126 171 207 241 286
#
# _framework density 23.313192999999998
#
# number of rings (size 3 to 8) (size 9 to 14) (size 15 to 20)
#    0.000    2.571    0.000    5.143    0.000    1.143 
#    0.000    0.000    0.000    0.857    0.000    0.000 
#    0.000    0.000    0.000    0.000    0.000    0.000 
#
# Total GULP energy -77948.480609 kJ/mol
# GULP energy per Si atom -5567.748615 kJ/mol
# Density = 2.326013 g / cm^3
# Si number density = 23.313193 Si / 1000 Ang^3
#
#
#
# Elastic Constant Matrix: (Units=GPa)
#
#
# Indices 1 2 3 4 5 6 
#
# 1 113.0225 25.2159 34.6572 -1.7088 49.6932 5.4908
# 2 25.2159 52.4679 18.1424 7.9728 17.0598 -4.3633
# 3 34.6572 18.1424 81.3294 -1.8232 42.2578 2.9626
# 4 -1.7088 7.9728 -1.8232 24.7394 -0.9484 3.7565
# 5 49.6932 17.0598 42.2578 -0.9484 48.8179 0.0889
# 6 5.4908 -4.3633 2.9626 3.7565 0.0889 31.9583
#
#
#
# Elastic Compliance Matrix: (Units=1/GPa)
#
#
# Indices 1 2 3 4 5 6 
#
# 1 0.017448 -0.004105 0.003898 0.002697 -0.019641 -0.004182
# 2 -0.004105 0.024613 -0.003185 -0.009351 -0.001857 0.005465
# 3 0.003898 -0.003185 0.023603 0.002683 -0.023228 -0.003543
# 4 0.002697 -0.009351 0.002683 0.044887 -0.000915 -0.007262
# 5 -0.019641 -0.001857 -0.023228 -0.000915 0.061206 0.005212
# 6 -0.004182 0.005465 -0.003543 -0.007262 0.005212 0.033923
#
#
# Mechanical properties :
#
#
# Convention : Reuss Voigt Hill
#
# Bulk Modulus (GPa) = 16.98343 44.76120 30.87231
# Shear Modulus (GPa) = 21.54350 32.35673 26.95012
#
# Velocity S-wave (km/s) = 3.04318 3.72951 3.40369
# Velocity P-wave (km/s) = 4.43268 6.14714 5.35892
#
# Compressibility (1/GPa) = 0.05888093
#
# Stress axis : x y z
#
# Youngs Moduli (GPa) = 57.31450 40.62934 42.36715
#
# Poissons Ratio (x) = 0.16678 -0.16517
# Poissons Ratio (y) = 0.23527 0.13493
# Poissons Ratio (z) = -0.22344 0.12940
#
# Static dielectric constant tensor:
#      x y z
#    x 2.044820 -0.019940 -0.010600 
#    y -0.019940 1.920680 -0.012560 
#    z -0.010600 -0.012560 2.037440 
# 
# From -- ./inp_files/175062.got.cif
#   From: 2010.05.17/outbox.cif.g08.bks.cpg/sg2_88_cif.got.tgz:175062.got - 2010.06.03 11:33:40.
