data_PCOD9094274
_publ_section_title
;
Structure prediction by ZEFSAII (Michael W. Deem and Ramdas Pophale) SiO2 
 PCOD9094274
Probable space group: P -1
;
_chemical_formula_sum "Si O2"
_cell_formula_units_Z 12
_cell_length_a 13.445153
_cell_length_b 10.029543
_cell_length_c 6.230611
_cell_angle_alpha 60.865317
_cell_angle_beta 40.798626
_cell_angle_gamma 53.671478
_cell_volume 441.100111
_symmetry_space_group_name_H-M "P -1"
_symmetry_group_IT_number 2
_symmetry_cell_setting 'triclinic'
loop_
_space_group_symop_operation_xyz
x,y,z
-x,-y,-z
loop_
_atom_site_type_symbol
_atom_site_label
_atom_site_fract_x
_atom_site_fract_y
_atom_site_fract_z
Si Si1 0.211859 0.671463 0.548448
Si Si2 0.924284 0.812238 0.600784
Si Si3 0.137796 0.450218 0.532198
Si Si4 0.481883 0.253448 0.017444
Si Si5 0.280754 0.113052 0.736440
Si Si6 0.250161 0.885353 0.642091
O O1 0.192072 0.506572 0.631906
O O2 0.210398 0.729611 0.751591
O O3 0.067084 0.805935 0.538746
O O4 0.386413 0.671894 0.181912
O O5 0.990639 0.619932 0.568314
O O6 0.883635 0.954258 0.382360
O O7 0.757697 0.861485 0.972111
O O8 0.302412 0.397868 0.159835
O O9 0.131349 0.276524 0.746537
O O10 0.435446 0.141262 0.355052
O O11 0.573183 0.156234 0.733013
O O12 0.264841 0.948810 0.801795
#
# Coordination Sequence:
#
# PCOD9094274 Si02
#       6
#     2   2   2   2   2   2
#     4   8  18  33  54  75 103 138 172 207 255 308
#     4  10  20  34  56  78 104 134 174 212 256 302
#     4   8  18  33  54  75 103 138 172 207 255 308
#     4   8  18  33  54  75 103 138 172 207 255 308
#     4  10  20  34  56  78 104 134 174 212 256 302
#     4  10  20  34  56  78 104 134 174 212 256 302
#
# _framework density 27.204708
#
# number of rings (size 3 to 8) (size 9 to 14) (size 15 to 20)
#    3.000    0.000    0.000    2.000    0.000    2.000 
#    0.000    0.000    0.000    0.000    0.000    7.000 
#    0.000    0.000    0.000    0.000    0.000    0.000 
#
# Total GULP energy -66917.317277 kJ/mol
# GULP energy per Si atom -5576.443106 kJ/mol
# Density = 2.714279 g / cm^3
# Si number density = 27.204708 Si / 1000 Ang^3
#
#
#
# Elastic Constant Matrix: (Units=GPa)
#
#
# Indices 1 2 3 4 5 6 
#
# 1 63.6674 38.2182 14.8136 3.5778 -22.4187 4.9071
# 2 38.2182 107.8064 36.5586 24.0552 11.7168 16.9973
# 3 14.8136 36.5586 125.2324 16.5900 -10.4348 -1.0852
# 4 3.5778 24.0552 16.5900 46.2990 -5.8815 0.1935
# 5 -22.4187 11.7168 -10.4348 -5.8815 32.4748 3.1049
# 6 4.9071 16.9973 -1.0852 0.1935 3.1049 44.5098
#
#
#
# Elastic Compliance Matrix: (Units=1/GPa)
#
#
# Indices 1 2 3 4 5 6 
#
# 1 0.043826 -0.024757 0.003824 0.013523 0.042704 0.001678
# 2 -0.024757 0.027439 -0.005829 -0.014154 -0.030884 -0.005675
# 3 0.003824 -0.005829 0.009874 0.000180 0.007805 0.001500
# 4 0.013523 -0.014154 0.000180 0.030344 0.019766 0.002408
# 5 0.042704 -0.030884 0.007805 0.019766 0.077333 0.001796
# 6 0.001678 -0.005675 0.001500 0.002408 0.001796 0.024350
#
#
# Mechanical properties :
#
#
# Convention : Reuss Voigt Hill
#
# Bulk Modulus (GPa) = 36.21202 52.87633 44.54418
# Shear Modulus (GPa) = 18.12301 38.46444 28.29373
#
# Velocity S-wave (km/s) = 2.58383 3.76425 3.22845
# Velocity P-wave (km/s) = 4.71608 6.19447 5.50513
#
# Compressibility (1/GPa) = 0.02761514
#
# Stress axis : x y z
#
# Youngs Moduli (GPa) = 22.81771 36.44505 101.27682
#
# Poissons Ratio (x) = 0.90226 -0.38732
# Poissons Ratio (y) = 0.56489 0.59036
# Poissons Ratio (z) = -0.08726 0.21244
#
# Static dielectric constant tensor:
#      x y z
#    x 2.197960 0.006620 -0.033100 
#    y 0.006620 2.134730 0.079050 
#    z -0.033100 0.079050 2.183710 
# 
# From -- ./inp_files/275965.got.cif
#   From: 2010.05.17/outbox.cif.g08.bks.cpg/sg2_138_cif.got.tgz:275965.got - 2010.06.03 11:33:40.
