data_PCOD9094963
_publ_section_title
;
Structure prediction by ZEFSAII (Michael W. Deem and Ramdas Pophale) SiO2 
 PCOD9094963
Probable space group: P -1
;
_chemical_formula_sum "Si O2"
_cell_formula_units_Z 16
_cell_length_a 6.897508
_cell_length_b 15.849634
_cell_length_c 9.006374
_cell_angle_alpha 127.189319
_cell_angle_beta 104.328587
_cell_angle_gamma 108.241652
_cell_volume 608.350743
_symmetry_space_group_name_H-M "P -1"
_symmetry_group_IT_number 2
_symmetry_cell_setting 'triclinic'
loop_
_space_group_symop_operation_xyz
x,y,z
-x,-y,-z
loop_
_atom_site_type_symbol
_atom_site_label
_atom_site_fract_x
_atom_site_fract_y
_atom_site_fract_z
Si Si1 0.645054 0.328924 0.571564
Si Si2 0.779811 0.075425 0.077161
Si Si3 0.947263 0.729455 0.442533
Si Si4 0.434082 0.485576 0.146503
Si Si5 0.060849 0.676450 0.827057
Si Si6 0.142889 0.846223 0.310006
Si Si7 0.604147 0.396113 0.323455
Si Si8 0.662687 0.927081 0.609822
O O1 0.860416 0.309945 0.563963
O O2 0.745181 0.472092 0.806713
O O3 0.518060 0.307891 0.363138
O O4 0.463109 0.226623 0.557040
O O5 0.940826 0.128659 0.312731
O O6 0.868642 0.209072 0.152684
O O7 0.500000 0.000000 0.000000
O O8 0.777818 0.987413 0.856901
O O9 0.927157 0.750526 0.286084
O O10 0.712545 0.620637 0.378599
O O11 0.413399 0.387387 0.161539
O O12 0.500000 0.500000 0.000000
O O13 0.242602 0.636028 0.784392
O O14 0.793103 0.541961 0.587147
O O15 0.124134 0.752748 0.076902
O O16 0.407404 0.915998 0.521795
O O17 0.153552 0.965703 0.364214
#
# Coordination Sequence:
#
# PCOD9094963 Si02
#       8
#     2   2   2   2   2   2   2   2
#     4  11  23  44  69  93 129 173 219 262 329 387
#     4  11  16  35  65  97 129 163 218 263 316 385
#     4  11  22  43  67  99 130 172 216 264 328 386
#     4  12  29  44  62  98 135 167 222 277 317 389
#     4  10  20  34  66  98 122 172 221 260 322 392
#     4   9  19  33  64  97 134 162 209 268 323 387
#     4  11  21  42  60  93 129 172 219 272 318 382
#     4   9  19  36  60 102 129 165 215 264 318 394
#
# _framework density 26.300618
#
# number of rings (size 3 to 8) (size 9 to 14) (size 15 to 20)
#    0.000    1.500    5.000    1.125    5.250    0.500 
#    0.000    1.250    0.000    0.000    0.000    0.000 
#    0.000    0.000    0.000    0.000    0.000    0.000 
#
# Total GULP energy -89324.534269 kJ/mol
# GULP energy per Si atom -5582.783392 kJ/mol
# Density = 2.624076 g / cm^3
# Si number density = 26.300618 Si / 1000 Ang^3
#
#
#
# Elastic Constant Matrix: (Units=GPa)
#
#
# Indices 1 2 3 4 5 6 
#
# 1 68.4627 4.9565 11.3173 -15.9979 -9.2153 -6.2082
# 2 4.9565 146.4435 -7.7568 -16.4047 -10.6400 -9.5845
# 3 11.3173 -7.7568 88.2926 -30.9903 -20.1652 -19.3665
# 4 -15.9979 -16.4047 -30.9903 44.4594 5.2419 -2.1035
# 5 -9.2153 -10.6400 -20.1652 5.2419 27.9770 -0.3094
# 6 -6.2082 -9.5845 -19.3665 -2.1035 -0.3094 36.5242
#
#
#
# Elastic Compliance Matrix: (Units=1/GPa)
#
#
# Indices 1 2 3 4 5 6 
#
# 1 0.017592 0.001678 0.004384 0.009374 0.007906 0.006362
# 2 0.001678 0.008930 0.006372 0.007805 0.007151 0.006517
# 3 0.004384 0.006372 0.027471 0.021610 0.019822 0.018396
# 4 0.009374 0.007805 0.021610 0.043023 0.013767 0.017695
# 5 0.007906 0.007151 0.019822 0.013767 0.052941 0.014972
# 6 0.006362 0.006517 0.018396 0.017695 0.014972 0.041071
#
#
# Mechanical properties :
#
#
# Convention : Reuss Voigt Hill
#
# Bulk Modulus (GPa) = 12.68090 35.58140 24.13115
# Shear Modulus (GPa) = 25.98112 41.43759 33.70935
#
# Velocity S-wave (km/s) = 3.14642 3.97361 3.58396
# Velocity P-wave (km/s) = 4.24640 5.88310 5.13044
#
# Compressibility (1/GPa) = 0.07885874
#
# Stress axis : x y z
#
# Youngs Moduli (GPa) = 56.84455 111.98561 36.40167
#
# Poissons Ratio (x) = -0.18787 -0.15957
# Poissons Ratio (y) = -0.09536 -0.23194
# Poissons Ratio (z) = -0.24919 -0.71354
#
# Static dielectric constant tensor:
#      x y z
#    x 2.111070 -0.008430 0.093970 
#    y -0.008430 2.126820 0.075410 
#    z 0.093970 0.075410 2.344460 
# 
# From -- ./inp_files/218646.got.cif
#   From: 2010.05.17/outbox.cif.g08.bks.cpg/sg2_110_cif.got.tgz:218646.got - 2010.06.03 11:33:40.
