data_PCOD9094736
_publ_section_title
;
Structure prediction by ZEFSAII (Michael W. Deem and Ramdas Pophale) SiO2 
 PCOD9094736
Probable space group: P -1
;
_chemical_formula_sum "Si O2"
_cell_formula_units_Z 16
_cell_length_a 11.941625
_cell_length_b 7.918005
_cell_length_c 10.245437
_cell_angle_alpha 118.135096
_cell_angle_beta 105.141984
_cell_angle_gamma 116.805436
_cell_volume 608.805038
_symmetry_space_group_name_H-M "P -1"
_symmetry_group_IT_number 2
_symmetry_cell_setting 'triclinic'
loop_
_space_group_symop_operation_xyz
x,y,z
-x,-y,-z
loop_
_atom_site_type_symbol
_atom_site_label
_atom_site_fract_x
_atom_site_fract_y
_atom_site_fract_z
Si Si1 0.032348 0.915255 0.848212
Si Si2 0.261445 0.877620 0.182025
Si Si3 0.012729 0.245775 0.587222
Si Si4 0.331367 0.992638 0.681678
Si Si5 0.261892 0.823361 0.871430
Si Si6 0.933979 0.673746 0.070676
Si Si7 0.681412 0.468247 0.523052
Si Si8 0.462359 0.359259 0.615799
O O1 0.121049 0.818051 0.838619
O O2 0.866333 0.701177 0.651384
O O3 0.124587 0.175988 0.888641
O O4 0.000000 0.000000 0.000000
O O5 0.096549 0.808657 0.096528
O O6 0.366093 0.110937 0.398138
O O7 0.327939 0.902856 0.067853
O O8 0.203692 0.612839 0.126816
O O9 0.176684 0.529763 0.696485
O O10 0.017281 0.321423 0.766017
O O11 0.853347 0.153207 0.442459
O O12 0.000000 0.000000 0.500000
O O13 0.367753 0.021447 0.858137
O O14 0.352458 0.795307 0.571162
O O15 0.426776 0.243303 0.707387
O O16 0.633768 0.522179 0.664718
O O17 0.597406 0.497036 0.392849
#
# Coordination Sequence:
#
# PCOD9094736 Si02
#       8
#     2   2   2   2   2   2   2   2
#     4  12  21  38  63  98 133 164 211 279 331 386
#     4  10  20  40  59  91 127 172 214 263 327 384
#     4  11  22  36  60  94 138 170 209 271 341 391
#     4  12  24  40  65  97 135 165 221 269 329 390
#     4  11  24  37  62 100 134 165 211 278 339 393
#     4  10  20  34  60  89 124 170 215 261 328 388
#     4  11  25  42  68  99 125 178 227 272 318 389
#     4  11  24  46  69  90 133 179 228 266 317 393
#
# _framework density 26.280992999999999
#
# number of rings (size 3 to 8) (size 9 to 14) (size 15 to 20)
#    0.000    1.000    5.000    1.500    5.250    0.000 
#    0.000    0.625    0.000    6.750    0.000    0.000 
#    0.000    0.000    0.000    0.000    0.000    0.000 
#
# Total GULP energy -89460.995033 kJ/mol
# GULP energy per Si atom -5591.312190 kJ/mol
# Density = 2.622118 g / cm^3
# Si number density = 26.280993 Si / 1000 Ang^3
#
#
#
# Elastic Constant Matrix: (Units=GPa)
#
#
# Indices 1 2 3 4 5 6 
#
# 1 94.7037 35.3065 16.9989 1.9036 -6.4966 -23.6104
# 2 35.3065 129.2361 15.7187 0.2757 -2.3356 -3.8843
# 3 16.9989 15.7187 76.4225 4.3527 -19.4440 10.4997
# 4 1.9036 0.2757 4.3527 46.3978 14.4853 -15.7899
# 5 -6.4966 -2.3356 -19.4440 14.4853 31.8870 -7.7354
# 6 -23.6104 -3.8843 10.4997 -15.7899 -7.7354 46.9735
#
#
#
# Elastic Compliance Matrix: (Units=1/GPa)
#
#
# Indices 1 2 3 4 5 6 
#
# 1 0.014729 -0.003301 -0.003502 0.002237 0.001781 0.008958
# 2 -0.003301 0.008751 -0.001266 0.000301 -0.001119 -0.000736
# 3 -0.003502 -0.001266 0.018644 -0.007732 0.012479 -0.006576
# 4 0.002237 0.000301 -0.007732 0.030666 -0.015592 0.010618
# 5 0.001781 -0.001119 0.012479 -0.015592 0.046435 0.000419
# 6 0.008958 -0.000736 -0.006576 0.010618 0.000419 0.030839
#
#
# Mechanical properties :
#
#
# Convention : Reuss Voigt Hill
#
# Bulk Modulus (GPa) = 38.48608 48.49003 43.48806
# Shear Modulus (GPa) = 28.59359 40.54088 34.56724
#
# Velocity S-wave (km/s) = 3.30206 3.93185 3.63063
# Velocity P-wave (km/s) = 5.40499 6.25326 5.84454
#
# Compressibility (1/GPa) = 0.02598342
#
# Stress axis : x y z
#
# Youngs Moduli (GPa) = 67.89219 114.27639 53.63770
#
# Poissons Ratio (x) = 0.37726 0.18786
# Poissons Ratio (y) = 0.22413 0.06793
# Poissons Ratio (z) = 0.23779 0.14472
#
# Static dielectric constant tensor:
#      x y z
#    x 2.136340 0.023470 0.032580 
#    y 0.023470 2.261020 -0.061770 
#    z 0.032580 -0.061770 2.060400 
# 
# From -- ./inp_files/418211.got.cif
#   From: 2010.05.17/outbox.cif.g08.bks.cpg/sg2_210_cif.got.tgz:418211.got - 2010.06.03 11:33:40.
