data_PCOD9094005
_publ_section_title
;
Structure prediction by ZEFSAII (Michael W. Deem and Ramdas Pophale) SiO2 
 PCOD9094005
Probable space group: P -1
;
_chemical_formula_sum "Si O2"
_cell_formula_units_Z 15
_cell_length_a 5.781790
_cell_length_b 19.640099
_cell_length_c 21.284552
_cell_angle_alpha 24.818714
_cell_angle_beta 39.756238
_cell_angle_gamma 44.617630
_cell_volume 647.919048
_symmetry_space_group_name_H-M "P -1"
_symmetry_group_IT_number 2
_symmetry_cell_setting 'triclinic'
loop_
_space_group_symop_operation_xyz
x,y,z
-x,-y,-z
loop_
_atom_site_type_symbol
_atom_site_label
_atom_site_fract_x
_atom_site_fract_y
_atom_site_fract_z
Si Si1 0.500000 0.000000 0.000000
Si Si2 0.510820 0.103309 0.643207
Si Si3 0.568414 0.005145 0.582012
Si Si4 0.574623 0.892099 0.931542
Si Si5 0.290520 0.242870 0.341524
Si Si6 0.833812 0.557886 0.551623
Si Si7 0.031048 0.420800 0.854303
Si Si8 0.068998 0.310229 0.805415
O O1 0.421201 0.198712 0.841252
O O2 0.591965 0.977816 0.923342
O O3 0.217833 0.249268 0.593310
O O4 0.884155 0.181282 0.480669
O O5 0.414059 0.999216 0.689414
O O6 0.580190 0.007059 0.773589
O O7 0.493079 0.858449 0.672976
O O8 0.451175 0.175744 0.430212
O O9 0.000000 0.000000 0.500000
O O10 0.863711 0.739450 0.993951
O O11 0.181511 0.814409 0.073720
O O12 0.238166 0.435846 0.183636
O O13 0.425291 0.494471 0.696959
O O14 0.075106 0.470678 0.628471
O O15 0.000000 0.500000 0.500000
O O16 0.890204 0.363609 0.864158
#
# Coordination Sequence:
#
# PCOD9094005 Si02
#       8
#     1   2   2   2   2   2   2   2
#     4  10  20  34  52  72 102 148 188 222 266 314
#     4  10  20  34  56  84 108 140 184 229 271 318
#     4   9  18  33  58  84 108 137 175 225 279 324
#     4  10  21  36  54  77 108 144 185 223 271 325
#     4   9  18  36  58  82 109 138 178 225 273 327
#     4  10  20  34  53  79 109 141 185 232 270 316
#     4   9  20  36  54  77 108 146 180 219 275 327
#     4  10  20  35  52  73 106 145 183 224 270 324
#
# _framework density 23.151040999999999
#
# number of rings (size 3 to 8) (size 9 to 14) (size 15 to 20)
#    0.000    2.400    0.000    2.000    0.000    5.867 
#    0.000    4.667    0.000    8.000    0.000    0.000 
#    0.000    0.000    0.000    0.000    0.000    0.000 
#
# Total GULP energy -83539.424256 kJ/mol
# GULP energy per Si atom -5569.294950 kJ/mol
# Density = 2.309835 g / cm^3
# Si number density = 23.151041 Si / 1000 Ang^3
#
#
#
# Elastic Constant Matrix: (Units=GPa)
#
#
# Indices 1 2 3 4 5 6 
#
# 1 49.1829 34.8141 38.8153 3.5800 19.3033 10.1532
# 2 34.8141 158.5172 88.5663 -23.5193 40.8493 14.8434
# 3 38.8153 88.5663 110.4083 -20.9611 50.9808 11.0295
# 4 3.5800 -23.5193 -20.9611 39.5048 -7.8589 6.4696
# 5 19.3033 40.8493 50.9808 -7.8589 52.7735 11.4099
# 6 10.1532 14.8434 11.0295 6.4696 11.4099 32.1248
#
#
#
# Elastic Compliance Matrix: (Units=1/GPa)
#
#
# Indices 1 2 3 4 5 6 
#
# 1 0.031814 -0.001812 -0.011068 -0.009299 -0.000174 -0.003483
# 2 -0.001812 0.011987 -0.008256 0.003524 0.000540 -0.003033
# 3 -0.011068 -0.008256 0.028288 0.007589 -0.016149 0.001808
# 4 -0.009299 0.003524 0.007589 0.033628 0.000102 -0.008104
# 5 -0.000174 0.000540 -0.016149 0.000102 0.035807 -0.007389
# 6 -0.003483 -0.003033 0.001808 -0.008104 -0.007389 0.037267
#
#
# Mechanical properties :
#
#
# Convention : Reuss Voigt Hill
#
# Bulk Modulus (GPa) = 33.53854 71.38886 52.46370
# Shear Modulus (GPa) = 21.64488 35.27480 28.45984
#
# Velocity S-wave (km/s) = 3.06100 3.90767 3.50996
# Velocity P-wave (km/s) = 5.19723 7.15981 6.25596
#
# Compressibility (1/GPa) = 0.02981645
#
# Stress axis : x y z
#
# Youngs Moduli (GPa) = 31.43266 83.42552 35.35068
#
# Poissons Ratio (x) = 0.15114 0.39128
# Poissons Ratio (y) = 0.05695 0.29186
# Poissons Ratio (z) = 0.34791 0.68876
#
# Static dielectric constant tensor:
#      x y z
#    x 1.970060 -0.006390 -0.038950 
#    y -0.006390 1.859830 -0.001700 
#    z -0.038950 -0.001700 1.892500 
# 
# From -- ./inp_files/32520.got.cif
#   From: 2010.05.17/outbox.cif.g08.bks.cpg/sg2_17_cif.got.tgz:32520.got - 2010.06.03 11:33:40.
