data_PCOD9094040
_publ_section_title
;
Structure prediction by ZEFSAII (Michael W. Deem and Ramdas Pophale) SiO2 
 PCOD9094040
Probable space group: P -1
;
_chemical_formula_sum "Si O2"
_cell_formula_units_Z 16
_cell_length_a 12.195286
_cell_length_b 8.903352
_cell_length_c 9.646734
_cell_angle_alpha 57.735486
_cell_angle_beta 112.911913
_cell_angle_gamma 124.741333
_cell_volume 722.330538
_symmetry_space_group_name_H-M "P -1"
_symmetry_group_IT_number 2
_symmetry_cell_setting 'triclinic'
loop_
_space_group_symop_operation_xyz
x,y,z
-x,-y,-z
loop_
_atom_site_type_symbol
_atom_site_label
_atom_site_fract_x
_atom_site_fract_y
_atom_site_fract_z
Si Si1 0.469646 0.696970 0.055131
Si Si2 0.684489 0.064826 0.151638
Si Si3 0.994407 0.304546 0.158270
Si Si4 0.006026 0.179326 0.506477
Si Si5 0.400729 0.261131 0.193465
Si Si6 0.127549 0.471212 0.634323
Si Si7 0.885002 0.790390 0.991140
Si Si8 0.708067 0.083294 0.476185
O O1 0.443416 0.473149 0.186850
O O2 0.591458 0.869674 0.114086
O O3 0.348999 0.752964 0.992468
O O4 0.501753 0.715408 0.897507
O O5 0.839838 0.135440 0.165861
O O6 0.657723 0.029910 0.320237
O O7 0.035021 0.342424 0.319689
O O8 0.000000 0.500000 0.000000
O O9 0.081223 0.238859 0.135369
O O10 0.858378 0.101443 0.536956
O O11 0.118150 0.290324 0.622165
O O12 0.000000 0.000000 0.500000
O O13 0.379522 0.083319 0.374447
O O14 0.257958 0.212292 0.076935
O O15 0.116592 0.386101 0.825624
O O16 0.256668 0.687864 0.582287
O O17 0.000000 0.500000 0.500000
O O18 0.000000 0.000000 0.000000
#
# Coordination Sequence:
#
# PCOD9094040 Si02
#       8
#     2   2   2   2   2   2   2   2
#     4  10  23  42  62  82 116 158 205 248 288 351
#     4  10  22  41  61  85 116 158 199 244 296 348
#     4  11  21  35  59  87 118 149 187 236 290 352
#     4  10  20  34  52  83 121 153 184 229 288 353
#     4  11  23  40  61  88 117 155 200 247 297 349
#     4  10  20  36  55  82 123 160 188 229 291 361
#     4  12  22  36  61  91 121 152 191 239 296 354
#     4  10  21  38  58  82 116 152 197 244 293 350
#
# _framework density 22.150524000000001
#
# number of rings (size 3 to 8) (size 9 to 14) (size 15 to 20)
#    0.000    1.500    0.000    7.500    0.000    3.000 
#    0.000    1.250    0.000    0.000    0.000    0.000 
#    0.000    0.000    0.000    0.000    0.000    0.000 
#
# Total GULP energy -89430.166779 kJ/mol
# GULP energy per Si atom -5589.385424 kJ/mol
# Density = 2.210011 g / cm^3
# Si number density = 22.150524 Si / 1000 Ang^3
#
#
#
# Elastic Constant Matrix: (Units=GPa)
#
#
# Indices 1 2 3 4 5 6 
#
# 1 49.1808 6.1154 -5.7801 -0.7211 1.9784 -5.6573
# 2 6.1154 141.4641 26.9872 -1.2381 -3.0158 -17.3748
# 3 -5.7801 26.9872 110.9304 -15.0220 -6.5666 1.1618
# 4 -0.7211 -1.2381 -15.0220 37.8085 0.5244 1.7764
# 5 1.9784 -3.0158 -6.5666 0.5244 25.5336 -0.1650
# 6 -5.6573 -17.3748 1.1618 1.7764 -0.1650 22.5470
#
#
#
# Elastic Compliance Matrix: (Units=1/GPa)
#
#
# Indices 1 2 3 4 5 6 
#
# 1 0.021157 -0.000587 0.001203 0.000659 -0.001382 0.004733
# 2 -0.000587 0.008312 -0.002215 -0.000929 0.000518 0.006449
# 3 0.001203 -0.002215 0.010329 0.004129 0.002202 -0.002247
# 4 0.000659 -0.000929 0.004129 0.028208 0.000303 -0.002984
# 5 -0.001382 0.000518 0.002202 0.000303 0.039894 0.000207
# 6 0.004733 0.006449 -0.002247 -0.002984 0.000207 0.050861
#
#
# Mechanical properties :
#
#
# Convention : Reuss Voigt Hill
#
# Bulk Modulus (GPa) = 27.32206 39.58002 33.45104
# Shear Modulus (GPa) = 28.70927 35.46134 32.08531
#
# Velocity S-wave (km/s) = 3.60404 4.00550 3.81006
# Velocity P-wave (km/s) = 5.44797 6.26893 5.87281
#
# Compressibility (1/GPa) = 0.03660047
#
# Stress axis : x y z
#
# Youngs Moduli (GPa) = 47.26544 120.30894 96.81093
#
# Poissons Ratio (x) = 0.07057 -0.11646
# Poissons Ratio (y) = 0.02772 0.21448
# Poissons Ratio (z) = -0.05686 0.26653
#
# Static dielectric constant tensor:
#      x y z
#    x 1.852760 -0.060630 0.041540 
#    y -0.060630 1.849070 -0.024400 
#    z 0.041540 -0.024400 1.857560 
# 
# From -- ./inp_files/237118.got.cif
#   From: 2010.05.17/outbox.cif.g08.bks.cpg/sg2_119_cif.got.tgz:237118.got - 2010.06.03 11:33:40.
