data_PCOD9094173
_publ_section_title
;
Structure prediction by ZEFSAII (Michael W. Deem and Ramdas Pophale) SiO2 
 PCOD9094173
Probable space group: P -1
;
_chemical_formula_sum "Si O2"
_cell_formula_units_Z 16
_cell_length_a 13.925265
_cell_length_b 12.199719
_cell_length_c 21.722678
_cell_angle_alpha 25.135794
_cell_angle_beta 28.903365
_cell_angle_gamma 31.009141
_cell_volume 719.217321
_symmetry_space_group_name_H-M "P -1"
_symmetry_group_IT_number 2
_symmetry_cell_setting 'triclinic'
loop_
_space_group_symop_operation_xyz
x,y,z
-x,-y,-z
loop_
_atom_site_type_symbol
_atom_site_label
_atom_site_fract_x
_atom_site_fract_y
_atom_site_fract_z
Si Si1 0.744722 0.193920 0.962159
Si Si2 0.383719 0.145139 0.895784
Si Si3 0.597959 0.300330 0.414366
Si Si4 0.848915 0.190339 0.109488
Si Si5 0.114044 0.086058 0.638566
Si Si6 0.330360 0.480892 0.356275
Si Si7 0.716733 0.697621 0.996182
Si Si8 0.466245 0.205025 0.231352
O O1 0.724519 0.511293 0.805208
O O2 0.584783 0.182459 0.111333
O O3 0.975366 0.984491 0.946872
O O4 0.675891 0.073133 0.000485
O O5 0.389430 0.407809 0.721118
O O6 0.238257 0.241589 0.989339
O O7 0.613575 0.985415 0.874915
O O8 0.402556 0.370258 0.440500
O O9 0.802122 0.162868 0.327872
O O10 0.586206 0.070236 0.585139
O O11 0.867783 0.476538 0.978911
O O12 0.631496 0.238502 0.172313
O O13 0.876985 0.013017 0.246057
O O14 0.284986 0.246957 0.459855
O O15 0.889908 0.282821 0.644385
O O16 0.522766 0.574343 0.177255
#
# Coordination Sequence:
#
# PCOD9094173 Si02
#       8
#     2   2   2   2   2   2   2   2
#     4  11  26  43  64  90 119 165 216 251 291 364
#     4  10  21  40  60  92 124 164 197 246 313 363
#     4  11  22  40  60  89 129 158 199 250 312 363
#     4  12  21  39  67  92 124 157 205 257 306 362
#     4  11  21  31  60  98 122 157 195 251 316 365
#     4  10  20  34  54  90 131 158 194 239 308 371
#     4  10  20  38  61  91 128 161 192 249 315 368
#     4  11  25  44  65  87 121 166 211 256 296 350
#
# _framework density 22.246404999999999
#
# number of rings (size 3 to 8) (size 9 to 14) (size 15 to 20)
#    0.000    1.250    5.000    2.250    3.500    1.000 
#    6.750    0.000    0.000    0.750    0.000    0.000 
#    0.000    0.000    0.000    0.000    0.000    0.000 
#
# Total GULP energy -89425.481644 kJ/mol
# GULP energy per Si atom -5589.092603 kJ/mol
# Density = 2.219577 g / cm^3
# Si number density = 22.246405 Si / 1000 Ang^3
#
#
#
# Elastic Constant Matrix: (Units=GPa)
#
#
# Indices 1 2 3 4 5 6 
#
# 1 45.4697 8.2869 1.3836 7.6740 3.1560 3.6493
# 2 8.2869 140.7439 32.1969 -14.9814 10.2210 0.7534
# 3 1.3836 32.1969 88.5763 -24.6826 11.8922 12.8333
# 4 7.6740 -14.9814 -24.6826 35.8595 -1.8296 0.9501
# 5 3.1560 10.2210 11.8922 -1.8296 26.0854 -0.4947
# 6 3.6493 0.7534 12.8333 0.9501 -0.4947 28.0585
#
#
#
# Elastic Compliance Matrix: (Units=1/GPa)
#
#
# Indices 1 2 3 4 5 6 
#
# 1 0.023779 -0.001705 -0.000887 -0.006463 -0.002305 -0.002463
# 2 -0.001705 0.008059 -0.002213 0.002093 -0.001778 0.000915
# 3 -0.000887 -0.002213 0.017196 0.010999 -0.006249 -0.008173
# 4 -0.006463 0.002093 0.010999 0.037735 -0.002512 -0.005568
# 5 -0.002305 -0.001778 -0.006249 -0.002512 0.042060 0.004032
# 6 -0.002463 0.000915 -0.008173 -0.005568 0.004032 0.039933
#
#
# Mechanical properties :
#
#
# Convention : Reuss Voigt Hill
#
# Bulk Modulus (GPa) = 25.36478 39.83607 32.60043
# Shear Modulus (GPa) = 26.10792 33.52885 29.81839
#
# Velocity S-wave (km/s) = 3.42947 3.88643 3.66508
# Velocity P-wave (km/s) = 5.20655 6.17128 5.70933
#
# Compressibility (1/GPa) = 0.03942474
#
# Stress axis : x y z
#
# Youngs Moduli (GPa) = 42.05416 124.08727 58.15254
#
# Poissons Ratio (x) = 0.21153 0.05156
# Poissons Ratio (y) = 0.07169 0.12871
# Poissons Ratio (z) = 0.03728 0.27464
#
# Static dielectric constant tensor:
#      x y z
#    x 1.847520 -0.029350 -0.029650 
#    y -0.029350 1.887780 -0.018780 
#    z -0.029650 -0.018780 1.867090 
# 
# From -- ./inp_files/597940.got.cif
#   From: 2010.05.17/outbox.cif.g08.bks.cpg/sg2_299_cif.got.tgz:597940.got - 2010.06.03 11:33:40.
