data_PCOD9094940
_publ_section_title
;
Structure prediction by ZEFSAII (Michael W. Deem and Ramdas Pophale) SiO2 
 PCOD9094940
Probable space group: P -1
;
_chemical_formula_sum "Si O2"
_cell_formula_units_Z 16
_cell_length_a 12.064560
_cell_length_b 9.434177
_cell_length_c 21.268446
_cell_angle_alpha 27.849688
_cell_angle_beta 138.336756
_cell_angle_gamma 143.141306
_cell_volume 671.527762
_symmetry_space_group_name_H-M "P -1"
_symmetry_group_IT_number 2
_symmetry_cell_setting 'triclinic'
loop_
_space_group_symop_operation_xyz
x,y,z
-x,-y,-z
loop_
_atom_site_type_symbol
_atom_site_label
_atom_site_fract_x
_atom_site_fract_y
_atom_site_fract_z
Si Si1 0.209108 0.203187 0.534837
Si Si2 0.678467 0.190904 0.351817
Si Si3 0.115984 0.754952 0.324788
Si Si4 0.568857 0.764714 0.200321
Si Si5 0.015546 0.731185 0.976787
Si Si6 0.922363 0.127972 0.262396
Si Si7 0.442094 0.287498 0.929660
Si Si8 0.717604 0.937228 0.590812
O O1 0.232679 0.578199 0.411831
O O2 0.333797 0.129304 0.566711
O O3 0.195674 0.006846 0.671439
O O4 0.000000 0.000000 0.500000
O O5 0.562819 0.357056 0.201893
O O6 0.897296 0.476098 0.337047
O O7 0.629176 0.097493 0.440699
O O8 0.114873 0.083049 0.162321
O O9 0.192145 0.855303 0.388709
O O10 0.508864 0.694470 0.130427
O O11 0.434562 0.440782 0.309230
O O12 0.786183 0.861495 0.258107
O O13 0.557730 0.111404 0.079346
O O14 0.971296 0.497324 0.111285
O O15 0.229381 0.008895 0.960084
O O16 0.000000 0.500000 0.000000
O O17 0.111518 0.092264 0.360220
#
# Coordination Sequence:
#
# PCOD9094940 Si02
#       8
#     2   2   2   2   2   2   2   2
#     4  10  22  42  65  91 130 173 216 261 320 376
#     4  10  22  42  66  89 131 176 212 265 317 379
#     4  10  20  34  64  99 123 163 214 265 319 379
#     4  11  24  38  63 103 130 163 209 273 317 382
#     4  11  18  35  62  95 127 164 203 262 324 373
#     4  12  22  40  66  96 132 165 214 264 318 383
#     4  10  21  39  60  93 137 162 209 262 325 374
#     4  12  22  39  69  98 129 164 215 266 324 377
#
# _framework density 23.826269
#
# number of rings (size 3 to 8) (size 9 to 14) (size 15 to 20)
#    0.000    1.250    6.250    1.125    3.500    0.500 
#    0.000    8.125    0.000    0.000    0.000    0.000 
#    0.000    0.000    0.000    0.000    0.000    0.000 
#
# Total GULP energy -89461.879611 kJ/mol
# GULP energy per Si atom -5591.367476 kJ/mol
# Density = 2.377204 g / cm^3
# Si number density = 23.826269 Si / 1000 Ang^3
#
#
#
# Elastic Constant Matrix: (Units=GPa)
#
#
# Indices 1 2 3 4 5 6 
#
# 1 66.1735 19.3321 41.1018 -0.6430 25.5658 0.9504
# 2 19.3321 49.5519 28.7702 -8.3689 2.7789 8.2259
# 3 41.1018 28.7702 168.8256 -7.0477 21.1677 -12.3899
# 4 -0.6430 -8.3689 -7.0477 20.3483 -2.7330 -0.4581
# 5 25.5658 2.7789 21.1677 -2.7330 30.0927 -9.0537
# 6 0.9504 8.2259 -12.3899 -0.4581 -9.0537 40.1218
#
#
#
# Elastic Compliance Matrix: (Units=1/GPa)
#
#
# Indices 1 2 3 4 5 6 
#
# 1 0.028665 -0.008207 -0.003316 -0.006898 -0.023515 -0.005406
# 2 -0.008207 0.027646 -0.003424 0.010658 0.006294 -0.004989
# 3 -0.003316 -0.003424 0.007738 0.001051 -0.001348 0.002878
# 4 -0.006898 0.010658 0.001051 0.054967 0.009448 0.001063
# 5 -0.023515 0.006294 -0.001348 0.009448 0.058062 0.012060
# 6 -0.005406 -0.004989 0.002878 0.001063 0.012060 0.029697
#
#
# Mechanical properties :
#
#
# Convention : Reuss Voigt Hill
#
# Bulk Modulus (GPa) = 29.27818 51.43988 40.35903
# Shear Modulus (GPa) = 20.15706 31.13567 25.64637
#
# Velocity S-wave (km/s) = 2.91177 3.61886 3.28440
# Velocity P-wave (km/s) = 4.85998 6.25284 5.59988
#
# Compressibility (1/GPa) = 0.03415513
#
# Stress axis : x y z
#
# Youngs Moduli (GPa) = 34.88631 36.17218 129.22836
#
# Poissons Ratio (x) = 0.29685 0.42858
# Poissons Ratio (y) = 0.28630 0.44243
# Poissons Ratio (z) = 0.11570 0.12384
#
# Static dielectric constant tensor:
#      x y z
#    x 1.938610 -0.018420 0.008130 
#    y -0.018420 1.950540 0.050820 
#    z 0.008130 0.050820 2.013480 
# 
# From -- ./inp_files/593921.got.cif
#   From: 2010.05.17/outbox.cif.g08.bks.cpg/sg2_297_cif.got.tgz:593921.got - 2010.06.03 11:33:40.
