data_PCOD9094098
_publ_section_title
;
Structure prediction by ZEFSAII (Michael W. Deem and Ramdas Pophale) SiO2 
 PCOD9094098
Probable space group: P -1
;
_chemical_formula_sum "Si O2"
_cell_formula_units_Z 14
_cell_length_a 15.026643
_cell_length_b 7.917745
_cell_length_c 11.772946
_cell_angle_alpha 94.387613
_cell_angle_beta 52.910638
_cell_angle_gamma 51.843767
_cell_volume 613.397655
_symmetry_space_group_name_H-M "P -1"
_symmetry_group_IT_number 2
_symmetry_cell_setting 'triclinic'
loop_
_space_group_symop_operation_xyz
x,y,z
-x,-y,-z
loop_
_atom_site_type_symbol
_atom_site_label
_atom_site_fract_x
_atom_site_fract_y
_atom_site_fract_z
Si Si1 0.284338 0.571076 0.359739
Si Si2 0.253597 0.089488 0.724252
Si Si3 0.728271 0.155712 0.015250
Si Si4 0.833377 0.477933 0.341266
Si Si5 0.119241 0.723228 0.246998
Si Si6 0.195543 0.414981 0.966592
Si Si7 0.336242 0.536715 0.713542
O O1 0.510551 0.355069 0.165467
O O2 0.271412 0.439475 0.456578
O O3 0.205205 0.606774 0.301316
O O4 0.119828 0.923782 0.543214
O O5 0.250574 0.257707 0.650962
O O6 0.279683 0.136613 0.831680
O O7 0.437401 0.744408 0.522986
O O8 0.034118 0.285725 0.889863
O O9 0.722444 0.230326 0.153369
O O10 0.776800 0.251224 0.898157
O O11 0.931008 0.788197 0.829027
O O12 0.804396 0.349192 0.275595
O O13 0.171124 0.492059 0.120803
O O14 0.322310 0.402079 0.808719
#
# Coordination Sequence:
#
# PCOD9094098 Si02
#       7
#     2   2   2   2   2   2   2
#     4  10  20  34  54  76 109 141 171 218 263 305
#     4  10  20  35  57  78 105 142 173 209 264 316
#     4  10  20  34  56  80 105 137 174 217 263 307
#     4  10  21  33  50  82 112 133 170 219 262 308
#     4   9  19  36  54  78 103 138 183 215 252 311
#     4   9  18  33  55  76 100 135 177 216 249 304
#     4  10  20  35  55  79 106 139 175 212 259 317
#
# _framework density 22.823692999999999
#
# number of rings (size 3 to 8) (size 9 to 14) (size 15 to 20)
#    0.000    2.286    0.000    3.429    0.000    6.286 
#    0.000    0.714    0.000   10.286    0.000    0.000 
#    0.000    0.000    0.000    0.000    0.000    0.000 
#
# Total GULP energy -78307.277181 kJ/mol
# GULP energy per Si atom -5593.376942 kJ/mol
# Density = 2.277175 g / cm^3
# Si number density = 22.823693 Si / 1000 Ang^3
#
#
#
# Elastic Constant Matrix: (Units=GPa)
#
#
# Indices 1 2 3 4 5 6 
#
# 1 55.2275 31.7583 35.8600 8.9090 12.5406 -9.3499
# 2 31.7583 76.5119 26.4748 -2.6885 7.5977 -4.6997
# 3 35.8600 26.4748 141.1558 11.5711 -9.2946 -9.0083
# 4 8.9090 -2.6885 11.5711 33.9478 -13.6065 3.6680
# 5 12.5406 7.5977 -9.2946 -13.6065 50.6186 -0.6961
# 6 -9.3499 -4.6997 -9.0083 3.6680 -0.6961 35.3461
#
#
#
# Elastic Compliance Matrix: (Units=1/GPa)
#
#
# Indices 1 2 3 4 5 6 
#
# 1 0.034156 -0.011065 -0.005805 -0.013175 -0.011309 0.007229
# 2 -0.011065 0.017988 -0.000999 0.005320 0.001270 -0.001317
# 3 -0.005805 -0.000999 0.009038 -0.000461 0.003134 0.000744
# 4 -0.013175 0.005320 -0.000461 0.039380 0.012874 -0.006728
# 5 -0.011309 0.001270 0.003134 0.012874 0.026364 -0.002841
# 6 0.007229 -0.001317 0.000744 -0.006728 -0.002841 0.030861
#
#
# Mechanical properties :
#
#
# Convention : Reuss Voigt Hill
#
# Bulk Modulus (GPa) = 39.30184 51.23127 45.26656
# Shear Modulus (GPa) = 24.75153 35.90264 30.32708
#
# Velocity S-wave (km/s) = 3.29670 3.97046 3.64916
# Velocity P-wave (km/s) = 5.63454 6.59657 6.13444
#
# Compressibility (1/GPa) = 0.02544410
#
# Stress axis : x y z
#
# Youngs Moduli (GPa) = 29.27715 55.59154 110.64025
#
# Poissons Ratio (x) = 0.61510 0.64231
# Poissons Ratio (y) = 0.32394 0.11058
# Poissons Ratio (z) = 0.16996 0.05556
#
# Static dielectric constant tensor:
#      x y z
#    x 1.833220 0.051460 0.001740 
#    y 0.051460 1.895300 -0.005510 
#    z 0.001740 -0.005510 1.843580 
# 
# From -- ./inp_files/187199.got.cif
#   From: 2010.05.17/outbox.cif.g08.bks.cpg/sg2_94_cif.got.tgz:187199.got - 2010.06.03 11:33:40.
