data_PCOD9094617
_publ_section_title
;
Structure prediction by ZEFSAII (Michael W. Deem and Ramdas Pophale) SiO2 
 PCOD9094617
Probable space group: P -1
;
_chemical_formula_sum "Si O2"
_cell_formula_units_Z 14
_cell_length_a 11.535961
_cell_length_b 8.496562
_cell_length_c 9.620748
_cell_angle_alpha 133.480327
_cell_angle_beta 109.797232
_cell_angle_gamma 54.971276
_cell_volume 557.782826
_symmetry_space_group_name_H-M "P -1"
_symmetry_group_IT_number 2
_symmetry_cell_setting 'triclinic'
loop_
_space_group_symop_operation_xyz
x,y,z
-x,-y,-z
loop_
_atom_site_type_symbol
_atom_site_label
_atom_site_fract_x
_atom_site_fract_y
_atom_site_fract_z
Si Si1 0.033467 0.669335 0.955551
Si Si2 0.739792 0.800255 0.914030
Si Si3 0.660473 0.523814 0.025712
Si Si4 0.362233 0.390790 0.604403
Si Si5 0.045382 0.777369 0.698393
Si Si6 0.258824 0.039267 0.295675
Si Si7 0.498719 0.696055 0.796602
O O1 0.194472 0.473083 0.943252
O O2 0.050314 0.718747 0.829382
O O3 0.906536 0.613355 0.896600
O O4 0.981879 0.943523 0.166323
O O5 0.755968 0.921706 0.851726
O O6 0.637101 0.684267 0.777608
O O7 0.646073 0.039601 0.121595
O O8 0.631870 0.561439 0.199868
O O9 0.537433 0.699492 0.978427
O O10 0.695068 0.245057 0.831087
O O11 0.202791 0.577869 0.593393
O O12 0.369097 0.126548 0.435589
O O13 0.469457 0.467457 0.624872
O O14 0.898984 0.791119 0.597904
#
# Coordination Sequence:
#
# PCOD9094617 Si02
#       7
#     2   2   2   2   2   2   2
#     4   8  14  31  57  73 103 137 176 214 260 304
#     4  10  20  37  55  79 104 147 180 209 257 323
#     4  10  21  37  54  83 108 134 174 227 263 308
#     4  11  19  33  58  81 107 140 172 221 270 306
#     4   8  14  29  51  84 102 129 175 226 255 304
#     4  10  20  34  59  80 105 136 183 219 259 312
#     4  11  22  35  54  77 115 142 172 214 266 316
#
# _framework density 25.099374999999998
#
# number of rings (size 3 to 8) (size 9 to 14) (size 15 to 20)
#    0.000    2.286    2.857    2.571    0.000    1.714 
#    0.000    0.000    0.000    0.000    0.000    7.000 
#    0.000    0.000    0.000    0.000    0.000    0.000 
#
# Total GULP energy -78181.612744 kJ/mol
# GULP energy per Si atom -5584.400910 kJ/mol
# Density = 2.504225 g / cm^3
# Si number density = 25.099375 Si / 1000 Ang^3
#
#
#
# Elastic Constant Matrix: (Units=GPa)
#
#
# Indices 1 2 3 4 5 6 
#
# 1 194.9723 19.4083 9.3264 5.4371 24.0785 -16.6975
# 2 19.4083 40.1875 0.6734 3.4306 -0.4907 -15.3310
# 3 9.3264 0.6734 59.1620 11.0275 17.3954 -6.3861
# 4 5.4371 3.4306 11.0275 13.6370 -0.4202 0.3621
# 5 24.0785 -0.4907 17.3954 -0.4202 39.2092 0.3041
# 6 -16.6975 -15.3310 -6.3861 0.3621 0.3041 45.2103
#
#
#
# Elastic Compliance Matrix: (Units=1/GPa)
#
#
# Indices 1 2 3 4 5 6 
#
# 1 0.006039 -0.002079 0.001048 -0.002909 -0.004244 0.001725
# 2 -0.002079 0.030459 0.002711 -0.009283 0.000278 0.010016
# 3 0.001048 0.002711 0.024777 -0.021635 -0.011873 0.005059
# 4 -0.002909 -0.009283 -0.021635 0.094916 0.012349 -0.008121
# 5 -0.004244 0.000278 -0.011873 0.012349 0.033541 -0.003475
# 6 0.001725 0.010016 0.005059 -0.008121 -0.003475 0.026956
#
#
# Mechanical properties :
#
#
# Convention : Reuss Voigt Hill
#
# Bulk Modulus (GPa) = 15.47208 39.23754 27.35481
# Shear Modulus (GPa) = 21.28816 37.27222 29.28019
#
# Velocity S-wave (km/s) = 2.91547 3.85773 3.41921
# Velocity P-wave (km/s) = 4.18461 5.95899 5.14882
#
# Compressibility (1/GPa) = 0.06463254
#
# Stress axis : x y z
#
# Youngs Moduli (GPa) = 165.59726 32.83102 40.36076
#
# Poissons Ratio (x) = 0.06827 -0.04229
# Poissons Ratio (y) = 0.34434 -0.10940
# Poissons Ratio (z) = -0.17353 -0.08899
#
# Static dielectric constant tensor:
#      x y z
#    x 2.063660 -0.037700 0.023540 
#    y -0.037700 2.018560 -0.024460 
#    z 0.023540 -0.024460 1.996940 
# 
# From -- ./inp_files/170602.got.cif
#   From: 2010.05.17/outbox.cif.g08.bks.cpg/sg2_86_cif.got.tgz:170602.got - 2010.06.03 11:33:40.
