data_PCOD9094261
_publ_section_title
;
Structure prediction by ZEFSAII (Michael W. Deem and Ramdas Pophale) SiO2 
 PCOD9094261
Probable space group: P -1
;
_chemical_formula_sum "Si O2"
_cell_formula_units_Z 14
_cell_length_a 16.176293
_cell_length_b 13.648904
_cell_length_c 11.966494
_cell_angle_alpha 113.679854
_cell_angle_beta 115.329287
_cell_angle_gamma 16.544547
_cell_volume 679.658819
_symmetry_space_group_name_H-M "P -1"
_symmetry_group_IT_number 2
_symmetry_cell_setting 'triclinic'
loop_
_space_group_symop_operation_xyz
x,y,z
-x,-y,-z
loop_
_atom_site_type_symbol
_atom_site_label
_atom_site_fract_x
_atom_site_fract_y
_atom_site_fract_z
Si Si1 0.281763 0.396023 0.751813
Si Si2 0.233590 0.369322 0.961593
Si Si3 0.677381 0.403536 0.515094
Si Si4 0.349366 0.369441 0.225659
Si Si5 0.019760 0.393142 0.770266
Si Si6 0.287934 0.159568 0.582319
Si Si7 0.405600 0.837209 0.357651
O O1 0.292009 0.364249 0.876146
O O2 0.417115 0.133637 0.664406
O O3 0.449557 0.304831 0.744682
O O4 0.942893 0.783384 0.692791
O O5 0.000361 0.533236 0.876513
O O6 0.157417 0.544620 0.088375
O O7 0.500000 0.000000 0.000000
O O8 0.500000 0.500000 0.500000
O O9 0.683960 0.489100 0.653151
O O10 0.536220 0.602310 0.407949
O O11 0.000000 0.000000 0.500000
O O12 0.257147 0.373436 0.257203
O O13 0.679448 0.000883 0.196557
O O14 0.133155 0.283748 0.660224
O O15 0.000000 0.500000 0.500000
O O16 0.468743 0.872964 0.485166
#
# Coordination Sequence:
#
# PCOD9094261 Si02
#       7
#     2   2   2   2   2   2   2
#     4  10  22  36  59  92 126 166 192 237 310 381
#     4   9  21  38  61  94 131 167 204 236 296 386
#     4  12  26  43  66  90 116 160 221 273 316 348
#     4  11  22  38  62  83 123 156 201 256 308 353
#     4  10  20  34  55  90 123 161 191 234 298 374
#     4   9  19  30  53  85 125 158 187 222 297 383
#     4  11  22  39  60  84 127 160 202 258 308 364
#
# _framework density 20.598572000000001
#
# number of rings (size 3 to 8) (size 9 to 14) (size 15 to 20)
#    0.000    1.714    1.429    2.571    4.000   12.571 
#    0.000    0.000    0.000    5.143    0.000    0.000 
#    0.000    0.000    0.000    0.000    0.000    0.000 
#
# Total GULP energy -78021.376872 kJ/mol
# GULP energy per Si atom -5572.955491 kJ/mol
# Density = 2.055169 g / cm^3
# Si number density = 20.598572 Si / 1000 Ang^3
#
#
#
# Elastic Constant Matrix: (Units=GPa)
#
#
# Indices 1 2 3 4 5 6 
#
# 1 152.4959 53.0057 49.5795 0.3209 -16.0855 0.2070
# 2 53.0057 98.2776 19.4953 -2.7227 -8.6658 0.5182
# 3 49.5795 19.4953 106.8808 1.1378 -5.0645 13.3705
# 4 0.3209 -2.7227 1.1378 20.1813 6.4240 -5.1676
# 5 -16.0855 -8.6658 -5.0645 6.4240 39.4104 -4.4360
# 6 0.2070 0.5182 13.3705 -5.1676 -4.4360 36.9619
#
#
#
# Elastic Compliance Matrix: (Units=1/GPa)
#
#
# Indices 1 2 3 4 5 6 
#
# 1 0.009512 -0.004184 -0.003697 -0.001012 0.002826 0.001540
# 2 -0.004184 0.012620 -0.000379 0.001617 0.000789 0.000304
# 3 -0.003697 -0.000379 0.011704 -0.001700 -0.000316 -0.004483
# 4 -0.001012 0.001617 -0.001700 0.054376 -0.008329 0.007200
# 5 0.002826 0.000789 -0.000316 -0.008329 0.028279 0.002317
# 6 0.001540 0.000304 -0.004483 0.007200 0.002317 0.029949
#
#
# Mechanical properties :
#
#
# Convention : Reuss Voigt Hill
#
# Bulk Modulus (GPa) = 57.75024 66.86837 62.30931
# Shear Modulus (GPa) = 29.63289 35.01564 32.32426
#
# Velocity S-wave (km/s) = 3.79699 4.12746 3.96567
# Velocity P-wave (km/s) = 6.87893 7.43288 7.16127
#
# Compressibility (1/GPa) = 0.01731595
#
# Stress axis : x y z
#
# Youngs Moduli (GPa) = 105.13099 79.24079 85.43788
#
# Poissons Ratio (x) = 0.33153 0.31589
# Poissons Ratio (y) = 0.43985 0.03238
# Poissons Ratio (z) = 0.38870 0.03003
#
# Static dielectric constant tensor:
#      x y z
#    x 1.740830 -0.007270 -0.016040 
#    y -0.007270 1.826600 -0.094750 
#    z -0.016040 -0.094750 1.859350 
# 
# From -- ./inp_files/409588.got.cif
#   From: 2010.05.17/outbox.cif.g08.bks.cpg/sg2_205_cif.got.tgz:409588.got - 2010.06.03 11:33:40.
