data_PCOD9094561
_publ_section_title
;
Structure prediction by ZEFSAII (Michael W. Deem and Ramdas Pophale) SiO2 
 PCOD9094561
Probable space group: P -1
;
_chemical_formula_sum "Si O2"
_cell_formula_units_Z 14
_cell_length_a 8.773374
_cell_length_b 11.894068
_cell_length_c 8.475803
_cell_angle_alpha 77.401235
_cell_angle_beta 82.122191
_cell_angle_gamma 54.150331
_cell_volume 699.593748
_symmetry_space_group_name_H-M "P -1"
_symmetry_group_IT_number 2
_symmetry_cell_setting 'triclinic'
loop_
_space_group_symop_operation_xyz
x,y,z
-x,-y,-z
loop_
_atom_site_type_symbol
_atom_site_label
_atom_site_fract_x
_atom_site_fract_y
_atom_site_fract_z
Si Si1 0.759369 0.640730 0.588216
Si Si2 0.394222 0.832918 0.810137
Si Si3 0.357915 0.086522 0.633631
Si Si4 0.295414 0.618184 0.916814
Si Si5 0.383331 0.459030 0.629528
Si Si6 0.002478 0.414524 0.878511
Si Si7 0.554792 0.797701 0.145179
O O1 0.569795 0.732658 0.696073
O O2 0.779152 0.755918 0.464183
O O3 0.918995 0.524696 0.714329
O O4 0.265325 0.442965 0.519038
O O5 0.284059 0.760475 0.859635
O O6 0.280978 0.994789 0.721162
O O7 0.473984 0.831709 0.971571
O O8 0.483800 0.085975 0.758437
O O9 0.500000 0.000000 0.500000
O O10 0.288035 0.563057 0.760706
O O11 0.500000 0.500000 0.000000
O O12 0.136395 0.630570 0.045769
O O13 0.500000 0.500000 0.500000
O O14 0.496164 0.304074 0.740524
O O15 0.218738 0.288958 0.868188
O O16 0.000000 0.500000 0.000000
#
# Coordination Sequence:
#
# PCOD9094561 Si02
#       7
#     2   2   2   2   2   2   2
#     4  10  20  34  58  87 120 148 197 243 295 341
#     4  11  19  38  61  85 116 154 204 241 279 357
#     4   9  22  38  57  88 116 157 200 243 285 349
#     4  12  20  36  59  88 122 155 196 243 294 352
#     4  11  19  31  53  87 122 144 188 244 295 341
#     4  12  21  38  59  91 123 154 190 249 300 354
#     4  11  22  37  62  90 116 158 199 239 302 346
#
# _framework density 20.011614999999999
#
# number of rings (size 3 to 8) (size 9 to 14) (size 15 to 20)
#    0.000    1.143    7.143    0.429    0.000    2.286 
#    0.000    0.714    0.000    0.857    3.714    0.000 
#    0.000    0.000    0.000    0.000    0.000    0.000 
#
# Total GULP energy -78099.054780 kJ/mol
# GULP energy per Si atom -5578.503913 kJ/mol
# Density = 1.996607 g / cm^3
# Si number density = 20.011615 Si / 1000 Ang^3
#
#
#
# Elastic Constant Matrix: (Units=GPa)
#
#
# Indices 1 2 3 4 5 6 
#
# 1 75.9942 55.2015 55.1551 -17.3042 -8.3702 25.2397
# 2 55.2015 79.1709 53.0562 -11.2715 -0.3284 35.6378
# 3 55.1551 53.0562 138.0175 -10.8912 10.4870 19.7371
# 4 -17.3042 -11.2715 -10.8912 48.9418 18.3706 -6.6812
# 5 -8.3702 -0.3284 10.4870 18.3706 56.3006 -0.3795
# 6 25.2397 35.6378 19.7371 -6.6812 -0.3795 37.9359
#
#
#
# Elastic Compliance Matrix: (Units=1/GPa)
#
#
# Indices 1 2 3 4 5 6 
#
# 1 0.031553 -0.016789 -0.005966 0.004149 0.004341 -0.001343
# 2 -0.016789 0.036619 -0.004307 -0.000843 -0.001348 -0.021151
# 3 -0.005966 -0.004307 0.011287 0.000966 -0.003314 0.002280
# 4 0.004149 -0.000843 0.000966 0.025080 -0.007739 0.001868
# 5 0.004341 -0.001348 -0.003314 -0.007739 0.021535 -0.001045
# 6 -0.001343 -0.021151 0.002280 0.001868 -0.001045 0.046256
#
#
# Mechanical properties :
#
#
# Convention : Reuss Voigt Hill
#
# Bulk Modulus (GPa) = 39.47002 68.88978 54.17990
# Shear Modulus (GPa) = 21.28573 37.28699 29.28636
#
# Velocity S-wave (km/s) = 3.26493 4.32124 3.82968
# Velocity P-wave (km/s) = 5.82919 7.70695 6.83288
#
# Compressibility (1/GPa) = 0.02533568
#
# Stress axis : x y z
#
# Youngs Moduli (GPa) = 31.69253 27.30847 88.59575
#
# Poissons Ratio (x) = 0.45848 0.52855
# Poissons Ratio (y) = 0.53209 0.38157
# Poissons Ratio (z) = 0.18907 0.11761
#
# Static dielectric constant tensor:
#      x y z
#    x 1.716900 0.027140 -0.011440 
#    y 0.027140 1.819430 0.070320 
#    z -0.011440 0.070320 1.832270 
# 
# From -- ./inp_files/175990.got.cif
#   From: 2010.05.17/outbox.cif.g08.bks.cpg/sg2_88_cif.got.tgz:175990.got - 2010.06.03 11:33:40.
