data_PCOD9094566
_publ_section_title
;
Structure prediction by ZEFSAII (Michael W. Deem and Ramdas Pophale) SiO2 
 PCOD9094566
Probable space group: P -1
;
_chemical_formula_sum "Si O2"
_cell_formula_units_Z 14
_cell_length_a 7.574944
_cell_length_b 9.809854
_cell_length_c 10.927139
_cell_angle_alpha 67.316093
_cell_angle_beta 109.456274
_cell_angle_gamma 77.454885
_cell_volume 648.240988
_symmetry_space_group_name_H-M "P -1"
_symmetry_group_IT_number 2
_symmetry_cell_setting 'triclinic'
loop_
_space_group_symop_operation_xyz
x,y,z
-x,-y,-z
loop_
_atom_site_type_symbol
_atom_site_label
_atom_site_fract_x
_atom_site_fract_y
_atom_site_fract_z
Si Si1 0.999881 0.493303 0.356457
Si Si2 0.980162 0.672100 0.793020
Si Si3 0.556462 0.555834 0.288459
Si Si4 0.113637 0.059602 0.903526
Si Si5 0.738056 0.311162 0.619913
Si Si6 0.645834 0.271470 0.043298
Si Si7 0.225979 0.295531 0.021861
O O1 0.078253 0.322081 0.364657
O O2 0.751053 0.572504 0.263193
O O3 0.000000 0.500000 0.500000
O O4 0.164729 0.569260 0.340855
O O5 0.169926 0.719604 0.840520
O O6 0.822138 0.750146 0.837673
O O7 0.060972 0.477012 0.895283
O O8 0.643632 0.385503 0.440951
O O9 0.439250 0.678478 0.329067
O O10 0.400127 0.600795 0.123773
O O11 0.939258 0.148266 0.730815
O O12 0.287422 0.904014 0.940606
O O13 0.194510 0.177468 0.954309
O O14 0.000000 0.000000 0.000000
O O15 0.446060 0.300949 0.064486
#
# Coordination Sequence:
#
# PCOD9094566 Si02
#       7
#     2   2   2   2   2   2   2
#     4  10  21  37  60  89 123 158 204 253 312 364
#     4  11  22  37  61  95 129 153 209 269 306 355
#     4  10  20  34  58  88 118 159 206 251 298 369
#     4  12  21  39  60  91 133 167 207 252 312 373
#     4  10  20  37  56  86 122 163 200 253 303 362
#     4  12  23  37  63  98 124 160 211 259 307 373
#     4  11  23  37  58  93 131 163 199 264 314 359
#
# _framework density 21.596907000000002
#
# number of rings (size 3 to 8) (size 9 to 14) (size 15 to 20)
#    0.000    1.143    5.714    0.857    2.000    0.000 
#    0.000    0.000    0.000    3.429    7.429   14.000 
#    0.000    0.000    0.000    0.000    0.000    0.000 
#
# Total GULP energy -77963.077778 kJ/mol
# GULP energy per Si atom -5568.791270 kJ/mol
# Density = 2.154775 g / cm^3
# Si number density = 21.596907 Si / 1000 Ang^3
#
#
#
# Elastic Constant Matrix: (Units=GPa)
#
#
# Indices 1 2 3 4 5 6 
#
# 1 78.1793 5.5663 21.6196 1.0738 -11.5694 -7.8339
# 2 5.5663 92.7317 23.2138 11.9699 -0.8793 -2.3696
# 3 21.6196 23.2138 75.1276 5.8867 -0.1114 -10.0310
# 4 1.0738 11.9699 5.8867 22.6737 -2.6399 1.6842
# 5 -11.5694 -0.8793 -0.1114 -2.6399 14.7110 -5.6227
# 6 -7.8339 -2.3696 -10.0310 1.6842 -5.6227 28.9177
#
#
#
# Elastic Compliance Matrix: (Units=1/GPa)
#
#
# Indices 1 2 3 4 5 6 
#
# 1 0.016881 0.000133 -0.004184 0.001610 0.015883 0.006127
# 2 0.000133 0.012361 -0.003389 -0.005681 -0.000133 0.000178
# 3 -0.004184 -0.003389 0.016306 -0.002815 -0.002365 0.003949
# 4 0.001610 -0.005681 -0.002815 0.048949 0.008875 -0.002131
# 5 0.015883 -0.000133 -0.002365 0.008875 0.089840 0.020423
# 6 0.006127 0.000178 0.003949 -0.002131 0.020423 0.041720
#
#
# Mechanical properties :
#
#
# Convention : Reuss Voigt Hill
#
# Bulk Modulus (GPa) = 32.60593 38.53754 35.57173
# Shear Modulus (GPa) = 19.90769 26.30308 23.10538
#
# Velocity S-wave (km/s) = 3.03938 3.49364 3.27440
# Velocity P-wave (km/s) = 5.23903 5.84438 5.54996
#
# Compressibility (1/GPa) = 0.03066927
#
# Stress axis : x y z
#
# Youngs Moduli (GPa) = 59.23858 80.90130 61.32666
#
# Poissons Ratio (x) = -0.01078 0.25656
# Poissons Ratio (y) = -0.00790 0.20783
# Poissons Ratio (z) = 0.24783 0.27417
#
# Static dielectric constant tensor:
#      x y z
#    x 1.919680 -0.008210 0.144620 
#    y -0.008210 1.848380 0.127170 
#    z 0.144620 0.127170 2.389000 
# 
# From -- ./inp_files/375904.got.cif
#   From: 2010.05.17/outbox.cif.g08.bks.cpg/sg2_188_cif.got.tgz:375904.got - 2010.06.03 11:33:40.
