data_PCOD9094741
_publ_section_title
;
Structure prediction by ZEFSAII (Michael W. Deem and Ramdas Pophale) SiO2 
 PCOD9094741
Probable space group: P -1
;
_chemical_formula_sum "Si O2"
_cell_formula_units_Z 14
_cell_length_a 8.862954
_cell_length_b 9.078176
_cell_length_c 9.057752
_cell_angle_alpha 122.256403
_cell_angle_beta 97.438365
_cell_angle_gamma 106.435411
_cell_volume 554.662367
_symmetry_space_group_name_H-M "P -1"
_symmetry_group_IT_number 2
_symmetry_cell_setting 'triclinic'
loop_
_space_group_symop_operation_xyz
x,y,z
-x,-y,-z
loop_
_atom_site_type_symbol
_atom_site_label
_atom_site_fract_x
_atom_site_fract_y
_atom_site_fract_z
Si Si1 0.666252 0.482355 0.067214
Si Si2 0.495531 0.208797 0.138399
Si Si3 0.878334 0.281872 0.912718
Si Si4 0.740699 0.375861 0.474755
Si Si5 0.796620 0.871335 0.166192
Si Si6 0.694541 0.074172 0.528150
Si Si7 0.017463 0.756303 0.762262
O O1 0.633160 0.410668 0.192785
O O2 0.807765 0.686516 0.141577
O O3 0.500000 0.500000 0.000000
O O4 0.703648 0.309059 0.918383
O O5 0.546990 0.263317 0.342622
O O6 0.329850 0.188896 0.022298
O O7 0.500000 0.000000 0.000000
O O8 0.819879 0.106030 0.697206
O O9 0.934740 0.238021 0.056449
O O10 0.000000 0.500000 0.000000
O O11 0.758296 0.288326 0.585407
O O12 0.852870 0.312892 0.342267
O O13 0.830199 0.601751 0.625730
O O14 0.721920 0.950682 0.332977
O O15 0.950515 0.046716 0.208274
O O16 0.500000 0.000000 0.500000
#
# Coordination Sequence:
#
# PCOD9094741 Si02
#       7
#     2   2   2   2   2   2   2
#     4  10  22  39  64  95 128 165 213 262 316 381
#     4  11  17  34  64  91 113 160 223 253 289 370
#     4  12  23  40  65  96 128 165 213 267 319 366
#     4  10  20  34  60  91 118 161 222 257 293 372
#     4  10  22  39  64  90 122 168 213 259 315 377
#     4  11  22  35  61  95 128 159 213 265 317 365
#     4  10  20  38  61  88 124 167 217 251 306 395
#
# _framework density 25.240580000000001
#
# number of rings (size 3 to 8) (size 9 to 14) (size 15 to 20)
#    0.000    1.429    5.714    1.714    2.000    0.000 
#    0.000    3.571    3.143    2.571    0.000    0.000 
#    0.000    0.000    0.000    0.000    0.000    0.000 
#
# Total GULP energy -78103.573361 kJ/mol
# GULP energy per Si atom -5578.826669 kJ/mol
# Density = 2.518313 g / cm^3
# Si number density = 25.240580 Si / 1000 Ang^3
#
#
#
# Elastic Constant Matrix: (Units=GPa)
#
#
# Indices 1 2 3 4 5 6 
#
# 1 64.1893 22.3893 42.1654 7.9723 7.1068 -15.3681
# 2 22.3893 183.1018 38.0437 16.3242 3.1116 4.3310
# 3 42.1654 38.0437 160.1516 -0.1746 23.5791 10.2373
# 4 7.9723 16.3242 -0.1746 35.8259 10.8956 2.5458
# 5 7.1068 3.1116 23.5791 10.8956 28.7985 -0.6257
# 6 -15.3681 4.3310 10.2373 2.5458 -0.6257 32.5201
#
#
#
# Elastic Compliance Matrix: (Units=1/GPa)
#
#
# Indices 1 2 3 4 5 6 
#
# 1 0.025348 -0.001241 -0.007859 -0.007225 0.003378 0.015249
# 2 -0.001241 0.006157 -0.001377 -0.003069 0.001914 -0.000696
# 3 -0.007859 -0.001377 0.010402 0.005602 -0.008710 -0.007411
# 4 -0.007225 -0.003069 0.005602 0.036517 -0.016461 -0.007944
# 5 0.003378 0.001914 -0.008710 -0.016461 0.047179 0.006280
# 6 0.015249 -0.000696 -0.007411 -0.007944 0.006280 0.041125
#
#
# Mechanical properties :
#
#
# Convention : Reuss Voigt Hill
#
# Bulk Modulus (GPa) = 47.72130 68.07107 57.89619
# Shear Modulus (GPa) = 25.68513 39.75185 32.71849
#
# Velocity S-wave (km/s) = 3.19346 3.97283 3.60427
# Velocity P-wave (km/s) = 5.70484 6.93339 6.34891
#
# Compressibility (1/GPa) = 0.02095500
#
# Stress axis : x y z
#
# Youngs Moduli (GPa) = 39.45031 162.42603 96.13150
#
# Poissons Ratio (x) = 0.20151 0.75551
# Poissons Ratio (y) = 0.04894 0.13233
# Poissons Ratio (z) = 0.31004 0.22358
#
# Static dielectric constant tensor:
#      x y z
#    x 2.137220 0.072170 -0.032550 
#    y 0.072170 1.998760 -0.014130 
#    z -0.032550 -0.014130 2.011720 
# 
# From -- ./inp_files/245135.got.cif
#   From: 2010.05.17/outbox.cif.g08.bks.cpg/sg2_123_cif.got.tgz:245135.got - 2010.06.03 11:33:40.
