data_PCOD9094683
_publ_section_title
;
Structure prediction by ZEFSAII (Michael W. Deem and Ramdas Pophale) SiO2 
 PCOD9094683
Probable space group: P -1
;
_chemical_formula_sum "Si O2"
_cell_formula_units_Z 16
_cell_length_a 9.313382
_cell_length_b 20.052110
_cell_length_c 5.144157
_cell_angle_alpha 65.182526
_cell_angle_beta 106.561963
_cell_angle_gamma 116.035919
_cell_volume 777.468923
_symmetry_space_group_name_H-M "P -1"
_symmetry_group_IT_number 2
_symmetry_cell_setting 'triclinic'
loop_
_space_group_symop_operation_xyz
x,y,z
-x,-y,-z
loop_
_atom_site_type_symbol
_atom_site_label
_atom_site_fract_x
_atom_site_fract_y
_atom_site_fract_z
Si Si1 0.428302 0.239504 0.090055
Si Si2 0.114872 0.203714 0.697953
Si Si3 0.626526 0.322472 0.561474
Si Si4 0.765788 0.897165 0.468326
Si Si5 0.488066 0.448068 0.329764
Si Si6 0.995300 0.412042 0.576469
Si Si7 0.126651 0.358614 0.235411
Si Si8 0.932848 0.048334 0.088014
O O1 0.528766 0.293193 0.290739
O O2 0.373221 0.150657 0.324460
O O3 0.252858 0.244707 0.922444
O O4 0.539989 0.264793 0.850342
O O5 0.214179 0.162794 0.639399
O O6 0.058983 0.266004 0.417694
O O7 0.956703 0.131773 0.833392
O O8 0.615890 0.406955 0.479881
O O9 0.816011 0.344770 0.594552
O O10 0.934784 0.922481 0.665545
O O11 0.770354 0.980391 0.217799
O O12 0.500000 0.500000 0.500000
O O13 0.315246 0.379747 0.335683
O O14 0.500000 0.500000 0.000000
O O15 0.069232 0.406803 0.342551
O O16 0.000000 0.500000 0.500000
O O17 0.090451 0.385272 0.892852
O O18 0.000000 0.000000 0.000000
#
# Coordination Sequence:
#
# PCOD9094683 Si02
#       8
#     2   2   2   2   2   2   2   2
#     4  11  20  35  61  89 123 152 203 252 301 356
#     4  10  20  34  59  95 128 158 203 258 308 359
#     4  12  24  41  62  86 120 160 204 259 313 370
#     4   9  16  31  53  93 133 163 191 245 310 358
#     4  12  24  39  62  92 115 149 200 257 319 375
#     4  12  28  48  62  85 123 168 212 258 318 382
#     4  12  25  42  67  90 122 162 207 264 311 364
#     4   8  16  28  51  87 141 163 189 235 313 364
#
# _framework density 20.579599000000002
#
# number of rings (size 3 to 8) (size 9 to 14) (size 15 to 20)
#    0.000    1.250    2.500    4.125    5.250    0.000 
#    0.000    0.000    0.000    0.000    0.000    5.250 
#    0.000    0.000    0.000    0.000    0.000    0.000 
#
# Total GULP energy -89221.520063 kJ/mol
# GULP energy per Si atom -5576.345004 kJ/mol
# Density = 2.053276 g / cm^3
# Si number density = 20.579599 Si / 1000 Ang^3
#
#
#
# Elastic Constant Matrix: (Units=GPa)
#
#
# Indices 1 2 3 4 5 6 
#
# 1 30.0468 -6.7364 -4.9233 4.6551 -8.5730 7.5194
# 2 -6.7364 76.8221 29.1565 -2.0443 0.0011 3.3403
# 3 -4.9233 29.1565 85.6221 -4.9778 -17.1773 5.6673
# 4 4.6551 -2.0443 -4.9778 55.2850 2.6741 -9.5900
# 5 -8.5730 0.0011 -17.1773 2.6741 29.0930 -1.1930
# 6 7.5194 3.3403 5.6673 -9.5900 -1.1930 15.0667
#
#
#
# Elastic Compliance Matrix: (Units=1/GPa)
#
#
# Indices 1 2 3 4 5 6 
#
# 1 0.050456 0.002831 0.007329 -0.010217 0.018757 -0.033583
# 2 0.002831 0.015445 -0.005396 -0.000625 -0.002434 -0.003397
# 3 0.007329 -0.005396 0.016814 -0.001391 0.011857 -0.008733
# 4 -0.010217 -0.000625 -0.001391 0.022455 -0.005090 0.019650
# 5 0.018757 -0.002434 0.011857 -0.005090 0.046843 -0.012812
# 6 -0.033583 -0.003397 -0.008733 0.019650 -0.012812 0.098663
#
#
# Mechanical properties :
#
#
# Convention : Reuss Voigt Hill
#
# Bulk Modulus (GPa) = 10.84100 25.27606 18.05853
# Shear Modulus (GPa) = 18.38940 31.55522 24.97231
#
# Velocity S-wave (km/s) = 2.99251 3.92002 3.48724
# Velocity P-wave (km/s) = 4.14963 5.72691 5.00085
#
# Compressibility (1/GPa) = 0.09224238
#
# Stress axis : x y z
#
# Youngs Moduli (GPa) = 19.81917 64.74787 59.47368
#
# Poissons Ratio (x) = -0.18329 -0.43590
# Poissons Ratio (y) = -0.05610 0.32094
# Poissons Ratio (z) = -0.14526 0.34940
#
# Static dielectric constant tensor:
#      x y z
#    x 1.725340 0.020830 -0.072930 
#    y 0.020830 1.866890 -0.006960 
#    z -0.072930 -0.006960 1.833160 
# 
# From -- ./inp_files/51066.got.cif
#   From: 2010.05.17/outbox.cif.g08.bks.cpg/sg2_26_cif.got.tgz:51066.got - 2010.06.03 11:33:40.
