data_PCOD9094884
_publ_section_title
;
Structure prediction by ZEFSAII (Michael W. Deem and Ramdas Pophale) SiO2 
 PCOD9094884
Probable space group: P -1
;
_chemical_formula_sum "Si O2"
_cell_formula_units_Z 14
_cell_length_a 14.189838
_cell_length_b 9.824591
_cell_length_c 7.640137
_cell_angle_alpha 100.183106
_cell_angle_beta 50.827182
_cell_angle_gamma 71.115809
_cell_volume 667.462172
_symmetry_space_group_name_H-M "P -1"
_symmetry_group_IT_number 2
_symmetry_cell_setting 'triclinic'
loop_
_space_group_symop_operation_xyz
x,y,z
-x,-y,-z
loop_
_atom_site_type_symbol
_atom_site_label
_atom_site_fract_x
_atom_site_fract_y
_atom_site_fract_z
Si Si1 0.015929 0.898657 0.281514
Si Si2 0.916373 0.437764 0.334990
Si Si3 0.140271 0.080823 0.084214
Si Si4 0.344752 0.171310 0.759781
Si Si5 0.376401 0.245004 0.140013
Si Si6 0.127454 0.539466 0.015382
Si Si7 0.294576 0.998562 0.261234
O O1 0.118972 0.697879 0.139985
O O2 0.848362 0.957321 0.452099
O O3 0.000000 0.000000 0.500000
O O4 0.092935 0.955855 0.071598
O O5 0.748565 0.566519 0.618214
O O6 0.992801 0.268140 0.317156
O O7 0.012334 0.517298 0.253476
O O8 0.923113 0.404888 0.112356
O O9 0.237925 0.019227 0.132508
O O10 0.231797 0.117433 0.853352
O O11 0.500000 0.000000 0.500000
O O12 0.350381 0.217286 0.964568
O O13 0.277701 0.350976 0.786557
O O14 0.338075 0.131115 0.271232
O O15 0.546900 0.177832 0.945139
#
# Coordination Sequence:
#
# PCOD9094884 Si02
#       7
#     2   2   2   2   2   2   2
#     4  10  20  38  62  85 123 159 199 237 302 360
#     4  10  21  37  61  93 118 151 208 248 293 351
#     4   9  21  37  61  85 119 158 195 242 300 354
#     4  10  23  38  61  90 121 153 204 252 297 347
#     4  10  20  34  63  87 118 155 197 248 299 342
#     4  10  22  37  61  91 121 157 199 252 292 350
#     4   9  19  33  59  89 114 153 198 244 292 349
#
# _framework density 20.974971
#
# number of rings (size 3 to 8) (size 9 to 14) (size 15 to 20)
#    0.000    2.286    1.429    0.000   10.000    3.429 
#    0.000    1.429    0.000    0.000    0.000    0.000 
#    0.000    0.000    0.000    0.000    0.000    0.000 
#
# Total GULP energy -78037.308180 kJ/mol
# GULP energy per Si atom -5574.093441 kJ/mol
# Density = 2.092723 g / cm^3
# Si number density = 20.974971 Si / 1000 Ang^3
#
#
#
# Elastic Constant Matrix: (Units=GPa)
#
#
# Indices 1 2 3 4 5 6 
#
# 1 67.5209 36.3854 24.5721 3.4580 -12.7733 -7.4275
# 2 36.3854 97.9615 32.0161 17.6321 -8.8789 19.5068
# 3 24.5721 32.0161 89.1686 25.7876 -24.3607 1.7744
# 4 3.4580 17.6321 25.7876 29.0217 -7.3276 -2.1940
# 5 -12.7733 -8.8789 -24.3607 -7.3276 41.0946 2.2232
# 6 -7.4275 19.5068 1.7744 -2.1940 2.2232 28.6076
#
#
#
# Elastic Compliance Matrix: (Units=1/GPa)
#
#
# Indices 1 2 3 4 5 6 
#
# 1 0.025321 -0.012685 -0.005125 0.011280 0.003229 0.016155
# 2 -0.012685 0.020836 -0.000210 -0.012555 -0.000809 -0.018388
# 3 -0.005125 -0.000210 0.018983 -0.014610 0.007229 -0.004047
# 4 0.011280 -0.012555 -0.014610 0.055249 0.001089 0.016549
# 5 0.003229 -0.000809 0.007229 0.001089 0.029712 -0.001284
# 6 0.016155 -0.018388 -0.004047 0.016549 -0.001284 0.053308
#
#
# Mechanical properties :
#
#
# Convention : Reuss Voigt Hill
#
# Bulk Modulus (GPa) = 34.36201 48.95536 41.65868
# Shear Modulus (GPa) = 20.06842 30.52328 25.29585
#
# Velocity S-wave (km/s) = 3.09654 3.81888 3.47652
# Velocity P-wave (km/s) = 5.40395 6.54490 6.00160
#
# Compressibility (1/GPa) = 0.02910191
#
# Stress axis : x y z
#
# Youngs Moduli (GPa) = 39.49307 47.99362 52.67894
#
# Poissons Ratio (x) = 0.60878 0.26996
# Poissons Ratio (y) = 0.50095 0.01106
# Poissons Ratio (z) = 0.20239 0.01007
#
# Static dielectric constant tensor:
#      x y z
#    x 1.791510 -0.012240 -0.009080 
#    y -0.012240 1.820800 -0.021640 
#    z -0.009080 -0.021640 1.811820 
# 
# From -- ./inp_files/209502.got.cif
#   From: 2010.05.17/outbox.cif.g08.bks.cpg/sg2_105_cif.got.tgz:209502.got - 2010.06.03 11:33:40.
