data_PCOD9094456
_publ_section_title
;
Structure prediction by ZEFSAII (Michael W. Deem and Ramdas Pophale) SiO2 
 PCOD9094456
Probable space group: P -1
;
_chemical_formula_sum "Si O2"
_cell_formula_units_Z 14
_cell_length_a 9.352223
_cell_length_b 18.367685
_cell_length_c 5.293791
_cell_angle_alpha 72.845234
_cell_angle_beta 52.979000
_cell_angle_gamma 48.681135
_cell_volume 537.256056
_symmetry_space_group_name_H-M "P -1"
_symmetry_group_IT_number 2
_symmetry_cell_setting 'triclinic'
loop_
_space_group_symop_operation_xyz
x,y,z
-x,-y,-z
loop_
_atom_site_type_symbol
_atom_site_label
_atom_site_fract_x
_atom_site_fract_y
_atom_site_fract_z
Si Si1 0.888131 0.493782 0.376027
Si Si2 0.479440 0.294106 0.386060
Si Si3 0.950588 0.196231 0.128811
Si Si4 0.287688 0.867034 0.095942
Si Si5 0.918227 0.699931 0.378256
Si Si6 0.799808 0.978638 0.366159
Si Si7 0.366532 0.116279 0.142593
O O1 0.626287 0.593602 0.573960
O O2 0.955461 0.388118 0.462210
O O3 0.000000 0.500000 0.500000
O O4 0.000000 0.500000 0.000000
O O5 0.695775 0.229705 0.414772
O O6 0.585300 0.241134 0.052980
O O7 0.249708 0.302317 0.632254
O O8 0.147489 0.165978 0.145825
O O9 0.904060 0.290721 0.950409
O O10 0.074548 0.105607 0.897941
O O11 0.415444 0.888047 0.140029
O O12 0.274718 0.926518 0.798894
O O13 0.016774 0.927839 0.378437
O O14 0.741924 0.803094 0.600989
O O15 0.597061 0.979328 0.690686
#
# Coordination Sequence:
#
# PCOD9094456 Si02
#       7
#     2   2   2   2   2   2   2
#     4  10  22  42  68  95 125 165 215 262 318 383
#     4   9  20  40  61  87 121 163 205 257 313 373
#     4  10  21  37  58  92 122 158 208 255 307 373
#     4   9  18  37  61  82 121 165 199 252 314 366
#     4   9  21  39  61  84 123 161 200 257 311 373
#     4   9  19  37  56  84 124 156 206 251 302 376
#     4  10  20  34  57  86 119 156 205 252 308 367
#
# _framework density 26.058336000000001
#
# number of rings (size 3 to 8) (size 9 to 14) (size 15 to 20)
#    0.000    2.571    0.000    0.429    4.000    2.286 
#   15.429    7.143    0.000    0.000    0.000    0.000 
#    0.000    0.000    0.000    0.000    0.000    0.000 
#
# Total GULP energy -78158.770356 kJ/mol
# GULP energy per Si atom -5582.769311 kJ/mol
# Density = 2.599903 g / cm^3
# Si number density = 26.058336 Si / 1000 Ang^3
#
#
#
# Elastic Constant Matrix: (Units=GPa)
#
#
# Indices 1 2 3 4 5 6 
#
# 1 171.3676 32.9702 27.0700 7.7062 -17.3261 -16.0201
# 2 32.9702 119.7640 27.5495 -3.4360 -21.5095 -7.2578
# 3 27.0700 27.5495 90.5796 -1.6893 -21.5227 4.1792
# 4 7.7062 -3.4360 -1.6893 36.5270 -3.3953 -12.7711
# 5 -17.3261 -21.5095 -21.5227 -3.3953 44.9986 -2.4219
# 6 -16.0201 -7.2578 4.1792 -12.7711 -2.4219 38.1100
#
#
#
# Elastic Compliance Matrix: (Units=1/GPa)
#
#
# Indices 1 2 3 4 5 6 
#
# 1 0.006699 -0.001098 -0.001453 -0.000507 0.001466 0.002689
# 2 -0.001098 0.009996 -0.001895 0.002374 0.003773 0.002685
# 3 -0.001453 -0.001895 0.013298 0.000509 0.004828 -0.001953
# 4 -0.000507 0.002374 0.000509 0.032032 0.004202 0.011184
# 5 0.001466 0.003773 0.004828 0.004202 0.027430 0.003956
# 6 0.002689 0.002685 -0.001953 0.011184 0.003956 0.032095
#
#
# Mechanical properties :
#
#
# Convention : Reuss Voigt Hill
#
# Bulk Modulus (GPa) = 47.39525 61.87672 54.63599
# Shear Modulus (GPa) = 36.36999 43.53524 39.95262
#
# Velocity S-wave (km/s) = 3.73998 4.09183 3.91986
# Velocity P-wave (km/s) = 6.07269 6.79126 6.44200
#
# Compressibility (1/GPa) = 0.02109916
#
# Stress axis : x y z
#
# Youngs Moduli (GPa) = 149.28408 100.03550 75.20176
#
# Poissons Ratio (x) = 0.10985 0.10928
# Poissons Ratio (y) = 0.16394 0.14254
# Poissons Ratio (z) = 0.21694 0.18961
#
# Static dielectric constant tensor:
#      x y z
#    x 2.100530 0.004720 -0.034800 
#    y 0.004720 2.147850 -0.078360 
#    z -0.034800 -0.078360 2.151490 
# 
# From -- ./inp_files/37095.got.cif
#   From: 2010.05.17/outbox.cif.g08.bks.cpg/sg2_19_cif.got.tgz:37095.got - 2010.06.03 11:33:40.
