data_PCOD9094514
_publ_section_title
;
Structure prediction by ZEFSAII (Michael W. Deem and Ramdas Pophale) SiO2 
 PCOD9094514
Probable space group: P -1
;
_chemical_formula_sum "Si O2"
_cell_formula_units_Z 12
_cell_length_a 15.157655
_cell_length_b 16.516367
_cell_length_c 12.265540
_cell_angle_alpha 157.409356
_cell_angle_beta 149.984597
_cell_angle_gamma 26.074236
_cell_volume 506.151318
_symmetry_space_group_name_H-M "P -1"
_symmetry_group_IT_number 2
_symmetry_cell_setting 'triclinic'
loop_
_space_group_symop_operation_xyz
x,y,z
-x,-y,-z
loop_
_atom_site_type_symbol
_atom_site_label
_atom_site_fract_x
_atom_site_fract_y
_atom_site_fract_z
Si Si1 0.439608 0.262973 0.536248
Si Si2 0.731689 0.212590 0.377699
Si Si3 0.808514 0.180374 0.944769
Si Si4 0.013585 0.657105 0.040202
Si Si5 0.972604 0.666042 0.781515
Si Si6 0.621329 0.632137 0.645044
O O1 0.636352 0.121874 0.648278
O O2 0.479336 0.262754 0.449683
O O3 0.272966 0.181558 0.273760
O O4 0.318429 0.552298 0.800551
O O5 0.676073 0.352837 0.378074
O O6 0.543897 0.224593 0.258412
O O7 0.808850 0.369481 0.725397
O O8 0.913157 0.934616 0.230908
O O9 0.907528 0.203323 0.966921
O O10 0.000000 0.000000 0.000000
O O11 0.832911 0.635288 0.876505
O O12 0.068126 0.513361 0.805402
O O13 0.000000 0.500000 0.500000
#
# Coordination Sequence:
#
# PCOD9094514 Si02
#       6
#     2   2   2   2   2   2
#     4   9  20  37  54  79 115 149 181 241 286 334
#     4  10  21  34  58  86 109 153 192 229 288 339
#     4  10  20  34  58  82 109 147 194 231 283 347
#     4  10  20  36  58  83 116 146 192 238 276 347
#     4   9  19  36  57  80 116 149 182 235 292 334
#     4  10  20  37  56  79 119 147 186 237 291 333
#
# _framework density 23.708326
#
# number of rings (size 3 to 8) (size 9 to 14) (size 15 to 20)
#    0.000    2.333    0.000    2.000    2.333    0.667 
#    0.000    0.000   36.667    0.000    0.000    0.000 
#    0.000    0.000    0.000    0.000    0.000    0.000 
#
# Total GULP energy -66944.926043 kJ/mol
# GULP energy per Si atom -5578.743837 kJ/mol
# Density = 2.365436 g / cm^3
# Si number density = 23.708326 Si / 1000 Ang^3
#
#
#
# Elastic Constant Matrix: (Units=GPa)
#
#
# Indices 1 2 3 4 5 6 
#
# 1 101.6827 2.8086 20.8373 -5.1843 7.1133 10.2167
# 2 2.8086 90.1794 11.2902 -13.3681 -10.4793 -0.0569
# 3 20.8373 11.2902 79.6946 -33.7258 4.0780 1.5927
# 4 -5.1843 -13.3681 -33.7258 43.1606 -2.7908 0.7254
# 5 7.1133 -10.4793 4.0780 -2.7908 24.1579 -2.8692
# 6 10.2167 -0.0569 1.5927 0.7254 -2.8692 14.4001
#
#
#
# Elastic Compliance Matrix: (Units=1/GPa)
#
#
# Indices 1 2 3 4 5 6 
#
# 1 0.011604 -0.000692 -0.003133 -0.001406 -0.004383 -0.008691
# 2 -0.000692 0.012463 -0.000270 0.003947 0.006305 0.001628
# 3 -0.003133 -0.000270 0.019807 0.014973 -0.000916 -0.000906
# 4 -0.001406 0.003947 0.014973 0.036183 0.003570 -0.001754
# 5 -0.004383 0.006305 -0.000916 0.003570 0.047473 0.012515
# 6 -0.008691 0.001628 -0.000906 -0.001754 0.012515 0.078299
#
#
# Mechanical properties :
#
#
# Convention : Reuss Voigt Hill
#
# Bulk Modulus (GPa) = 28.02394 37.93656 32.98025
# Shear Modulus (GPa) = 22.13238 32.11843 27.12541
#
# Velocity S-wave (km/s) = 3.05868 3.68466 3.38617
# Velocity P-wave (km/s) = 4.93153 5.84281 5.40640
#
# Compressibility (1/GPa) = 0.03568378
#
# Stress axis : x y z
#
# Youngs Moduli (GPa) = 86.17813 80.23714 50.48801
#
# Poissons Ratio (x) = 0.05556 0.15818
# Poissons Ratio (y) = 0.05967 0.01361
# Poissons Ratio (z) = 0.26999 0.02163
#
# Static dielectric constant tensor:
#      x y z
#    x 1.957490 -0.008590 -0.078210 
#    y -0.008590 1.955910 0.054280 
#    z -0.078210 0.054280 2.034670 
# 
# From -- ./inp_files/86810.got.cif
#   From: 2010.05.17/outbox.cif.g08.bks.cpg/sg2_44_cif.got.tgz:86810.got - 2010.06.03 11:33:40.
