data_PCOD9094072
_publ_section_title
;
Structure prediction by ZEFSAII (Michael W. Deem and Ramdas Pophale) SiO2 
 PCOD9094072
Probable space group: P -1
;
_chemical_formula_sum "Si O2"
_cell_formula_units_Z 16
_cell_length_a 14.510619
_cell_length_b 16.256677
_cell_length_c 13.555400
_cell_angle_alpha 25.595140
_cell_angle_beta 64.418873
_cell_angle_gamma 47.438786
_cell_volume 842.927288
_symmetry_space_group_name_H-M "P -1"
_symmetry_group_IT_number 2
_symmetry_cell_setting 'triclinic'
loop_
_space_group_symop_operation_xyz
x,y,z
-x,-y,-z
loop_
_atom_site_type_symbol
_atom_site_label
_atom_site_fract_x
_atom_site_fract_y
_atom_site_fract_z
Si Si1 0.151464 0.169496 0.293921
Si Si2 0.566397 0.496052 0.627656
Si Si3 0.701777 0.381893 0.479384
Si Si4 0.716151 0.344531 0.115922
Si Si5 0.124952 0.179589 0.069048
Si Si6 0.380950 0.093751 0.035133
Si Si7 0.607116 0.269249 0.059692
Si Si8 0.774549 0.710711 0.686571
O O1 0.187567 0.092686 0.246171
O O2 0.252457 0.153473 0.340643
O O3 0.147209 0.967210 0.564522
O O4 0.000000 0.500000 0.000000
O O5 0.676355 0.393222 0.596518
O O6 0.437679 0.535522 0.598035
O O7 0.482887 0.807337 0.360032
O O8 0.633987 0.303033 0.900392
O O9 0.850270 0.063871 0.722830
O O10 0.690484 0.617731 0.198867
O O11 0.680186 0.312743 0.058518
O O12 0.571069 0.494622 0.088700
O O13 0.739343 0.536941 0.895596
O O14 0.241633 0.163346 0.979877
O O15 0.952386 0.482301 0.824116
O O16 0.500000 0.000000 0.000000
O O17 0.676648 0.967162 0.378237
#
# Coordination Sequence:
#
# PCOD9094072 Si02
#       8
#     2   2   2   2   2   2   2   2
#     4   9  20  35  53  81 112 136 172 223 266 315
#     4   9  18  34  54  82 108 132 174 221 264 314
#     4   9  18  32  55  81 106 133 168 219 272 318
#     4  10  20  36  55  77 104 142 185 218 259 314
#     4  10  20  34  53  81 109 137 175 217 265 318
#     4   9  18  33  55  81 106 133 168 217 269 312
#     4  10  21  36  53  76 108 139 180 226 256 306
#     4  10  22  37  53  75 108 146 179 216 263 313
#
# _framework density 18.981470000000002
#
# number of rings (size 3 to 8) (size 9 to 14) (size 15 to 20)
#    0.000    2.500    0.000    2.625    0.000    8.000 
#    0.000    0.625    0.000    3.750    0.000    0.000 
#    0.000    0.000    0.000    0.000    0.000    0.000 
#
# Total GULP energy -89124.378442 kJ/mol
# GULP energy per Si atom -5570.273653 kJ/mol
# Density = 1.893827 g / cm^3
# Si number density = 18.981470 Si / 1000 Ang^3
#
#
#
# Elastic Constant Matrix: (Units=GPa)
#
#
# Indices 1 2 3 4 5 6 
#
# 1 42.7717 8.4577 31.2633 3.7733 -23.3353 1.1703
# 2 8.4577 74.6844 38.2015 -1.1049 3.2511 12.0673
# 3 31.2633 38.2015 144.5835 3.8663 -19.4030 16.6951
# 4 3.7733 -1.1049 3.8663 33.0158 8.1019 -0.0876
# 5 -23.3353 3.2511 -19.4030 8.1019 35.0641 -7.3608
# 6 1.1703 12.0673 16.6951 -0.0876 -7.3608 18.2540
#
#
#
# Elastic Compliance Matrix: (Units=1/GPa)
#
#
# Indices 1 2 3 4 5 6 
#
# 1 0.052875 -0.008996 -0.005900 -0.015791 0.041580 0.024644
# 2 -0.008996 0.019238 -0.003483 0.005483 -0.014026 -0.014586
# 3 -0.005900 -0.003483 0.009947 -0.000822 0.000812 -0.006093
# 4 -0.015791 0.005483 -0.000822 0.037860 -0.022476 -0.010742
# 5 0.041580 -0.014026 0.000812 -0.022476 0.070293 0.034102
# 6 0.024644 -0.014586 -0.006093 -0.010742 0.034102 0.082118
#
#
# Mechanical properties :
#
#
# Convention : Reuss Voigt Hill
#
# Bulk Modulus (GPa) = 22.07311 46.43161 34.25236
# Shear Modulus (GPa) = 15.42314 29.54125 22.48220
#
# Velocity S-wave (km/s) = 2.85360 3.94930 3.44529
# Velocity P-wave (km/s) = 4.74461 6.73132 5.82332
#
# Compressibility (1/GPa) = 0.04530399
#
# Stress axis : x y z
#
# Youngs Moduli (GPa) = 18.91250 51.97988 100.53454
#
# Poissons Ratio (x) = 0.46759 0.59312
# Poissons Ratio (y) = 0.17013 0.35013
# Poissons Ratio (z) = 0.11158 0.18103
#
# Static dielectric constant tensor:
#      x y z
#    x 1.675350 -0.007910 -0.020430 
#    y -0.007910 1.703140 -0.013960 
#    z -0.020430 -0.013960 1.699460 
# 
# From -- ./inp_files/454364.got.cif
#   From: 2010.05.17/outbox.cif.g08.bks.cpg/sg2_228_cif.got.tgz:454364.got - 2010.06.03 11:33:40.
