data_PCOD9094042
_publ_section_title
;
Structure prediction by ZEFSAII (Michael W. Deem and Ramdas Pophale) SiO2 
 PCOD9094042
Probable space group: P -1
;
_chemical_formula_sum "Si O2"
_cell_formula_units_Z 16
_cell_length_a 5.452677
_cell_length_b 17.492162
_cell_length_c 12.516531
_cell_angle_alpha 58.340781
_cell_angle_beta 112.943588
_cell_angle_gamma 123.435160
_cell_volume 839.441538
_symmetry_space_group_name_H-M "P -1"
_symmetry_group_IT_number 2
_symmetry_cell_setting 'triclinic'
loop_
_space_group_symop_operation_xyz
x,y,z
-x,-y,-z
loop_
_atom_site_type_symbol
_atom_site_label
_atom_site_fract_x
_atom_site_fract_y
_atom_site_fract_z
Si Si1 0.609835 0.810064 0.940814
Si Si2 0.269970 0.688160 0.793634
Si Si3 0.557929 0.605493 0.172715
Si Si4 0.734916 0.469860 0.615378
Si Si5 0.381380 0.406497 0.186996
Si Si6 0.796003 0.279931 0.702553
Si Si7 0.285921 0.672448 0.567642
Si Si8 0.685149 0.114342 0.981234
O O1 0.461012 0.790848 0.813081
O O2 0.516195 0.696963 0.049978
O O3 0.467957 0.860718 0.960800
O O4 0.968588 0.861107 0.960264
O O5 0.473998 0.629470 0.857279
O O6 0.204389 0.700852 0.648708
O O7 0.966702 0.626695 0.851680
O O8 0.295124 0.537453 0.256796
O O9 0.569378 0.524434 0.152667
O O10 0.854928 0.657364 0.256718
O O11 0.500000 0.500000 0.500000
O O12 0.670255 0.359118 0.651268
O O13 0.050311 0.560149 0.577056
O O14 0.427815 0.344479 0.341027
O O15 0.720173 0.258537 0.580586
O O16 0.681791 0.186324 0.831066
O O17 0.500000 0.000000 0.000000
#
# Coordination Sequence:
#
# PCOD9094042 Si02
#       8
#     2   2   2   2   2   2   2   2
#     4  11  24  42  65  86 118 155 200 248 302 360
#     4  10  22  37  55  84 120 170 197 232 281 349
#     4  11  20  33  52  84 124 163 206 240 287 339
#     4  12  19  31  53  84 130 167 197 238 288 344
#     4  10  20  34  52  84 123 169 201 228 272 341
#     4  11  21  35  56  89 119 158 200 253 300 350
#     4  10  21  32  53  88 126 164 194 231 282 353
#     4  11  25  46  69  91 111 146 200 265 319 351
#
# _framework density 19.060292
#
# number of rings (size 3 to 8) (size 9 to 14) (size 15 to 20)
#    0.750    0.500    5.000    2.250    0.000    1.000 
#    0.000    0.000    0.000    1.500    0.000    0.000 
#    0.000    0.000    0.000    0.000    0.000    0.000 
#
# Total GULP energy -89198.571976 kJ/mol
# GULP energy per Si atom -5574.910748 kJ/mol
# Density = 1.901691 g / cm^3
# Si number density = 19.060292 Si / 1000 Ang^3
#
#
#
# Elastic Constant Matrix: (Units=GPa)
#
#
# Indices 1 2 3 4 5 6 
#
# 1 128.2015 53.0000 25.7721 7.6344 -6.5807 -5.6406
# 2 53.0000 104.5558 40.7543 6.7035 -4.1085 -8.7359
# 3 25.7721 40.7543 70.5441 11.4851 0.3362 -1.7131
# 4 7.6344 6.7035 11.4851 21.7052 0.3270 -2.5789
# 5 -6.5807 -4.1085 0.3362 0.3270 17.1418 6.6759
# 6 -5.6406 -8.7359 -1.7131 -2.5789 6.6759 27.1739
#
#
#
# Elastic Compliance Matrix: (Units=1/GPa)
#
#
# Indices 1 2 3 4 5 6 
#
# 1 0.010109 -0.004629 -0.000745 -0.001816 0.002951 -0.000334
# 2 -0.004629 0.014872 -0.007006 0.001130 0.000603 0.003337
# 3 -0.000745 -0.007006 0.019802 -0.008212 -0.001595 -0.001546
# 4 -0.001816 0.001130 -0.008212 0.051367 -0.003247 0.005141
# 5 0.002951 0.000603 -0.001595 -0.003247 0.065854 -0.015781
# 6 -0.000334 0.003337 -0.001546 0.005141 -0.015781 0.042071
#
#
# Mechanical properties :
#
#
# Convention : Reuss Voigt Hill
#
# Bulk Modulus (GPa) = 49.94625 60.26157 55.10391
# Shear Modulus (GPa) = 21.23055 25.45583 23.34319
#
# Velocity S-wave (km/s) = 3.34108 3.65847 3.50337
# Velocity P-wave (km/s) = 6.41444 7.03781 6.73334
#
# Compressibility (1/GPa) = 0.02002152
#
# Stress axis : x y z
#
# Youngs Moduli (GPa) = 98.92480 67.24080 50.49878
#
# Poissons Ratio (x) = 0.31127 0.03763
# Poissons Ratio (y) = 0.45795 0.35381
# Poissons Ratio (z) = 0.07372 0.47111
#
# Static dielectric constant tensor:
#      x y z
#    x 1.731660 -0.013520 -0.025390 
#    y -0.013520 1.638100 0.056230 
#    z -0.025390 0.056230 1.732420 
# 
# From -- ./inp_files/368973.got.cif
#   From: 2010.05.17/outbox.cif.g08.bks.cpg/sg2_185_cif.got.tgz:368973.got - 2010.06.03 11:33:40.
