data_PCOD9094007
_publ_section_title
;
Structure prediction by ZEFSAII (Michael W. Deem and Ramdas Pophale) SiO2 
 PCOD9094007
Probable space group: P -1
;
_chemical_formula_sum "Si O2"
_cell_formula_units_Z 16
_cell_length_a 7.525520
_cell_length_b 24.837459
_cell_length_c 10.010090
_cell_angle_alpha 31.550171
_cell_angle_beta 114.703116
_cell_angle_gamma 127.857348
_cell_volume 747.552772
_symmetry_space_group_name_H-M "P -1"
_symmetry_group_IT_number 2
_symmetry_cell_setting 'triclinic'
loop_
_space_group_symop_operation_xyz
x,y,z
-x,-y,-z
loop_
_atom_site_type_symbol
_atom_site_label
_atom_site_fract_x
_atom_site_fract_y
_atom_site_fract_z
Si Si1 0.604548 0.696219 0.071227
Si Si2 0.837855 0.075631 0.827183
Si Si3 0.871509 0.067843 0.546250
Si Si4 0.382127 0.811890 0.876183
Si Si5 0.833227 0.379239 0.549500
Si Si6 0.685809 0.516559 0.371360
Si Si7 0.625969 0.159285 0.774845
Si Si8 0.045201 0.915031 0.877807
O O1 0.622351 0.618164 0.124486
O O2 0.524233 0.603461 0.369066
O O3 0.433374 0.745336 0.913845
O O4 0.854190 0.812319 0.940999
O O5 0.914331 0.095375 0.658590
O O6 0.702684 0.141058 0.691639
O O7 0.023415 0.116540 0.918819
O O8 0.647899 0.930882 0.099714
O O9 0.820301 0.164538 0.265459
O O10 0.624063 0.938570 0.717314
O O11 0.057114 0.041142 0.597900
O O12 0.310215 0.724057 0.165175
O O13 0.768205 0.479232 0.344612
O O14 0.748773 0.299599 0.557441
O O15 0.099877 0.436306 0.555322
O O16 0.732861 0.096527 0.034323
#
# Coordination Sequence:
#
# PCOD9094007 Si02
#       8
#     2   2   2   2   2   2   2   2
#     4   9  16  30  43  73  91 113 150 191 228 260
#     4   9  17  29  47  64  94 124 149 182 215 265
#     4  10  17  30  43  68  91 131 150 168 221 271
#     4   9  19  28  45  63 101 122 145 179 217 280
#     4  10  16  30  44  70  92 118 146 186 234 264
#     4   9  17  26  49  65  89 115 151 191 233 262
#     4   9  17  28  44  67  95 118 143 192 218 258
#     4   9  17  28  46  68  97 115 149 188 214 260
#
# _framework density 21.403171
#
# number of rings (size 3 to 8) (size 9 to 14) (size 15 to 20)
#    0.750    2.000    2.500    0.375    0.000    0.000 
#    0.000    1.875    0.000    0.000    0.000   33.250 
#    0.000    0.000    0.000    0.000    0.000    0.000 
#
# Total GULP energy -89083.207816 kJ/mol
# GULP energy per Si atom -5567.700489 kJ/mol
# Density = 2.135446 g / cm^3
# Si number density = 21.403171 Si / 1000 Ang^3
#
#
#
# Elastic Constant Matrix: (Units=GPa)
#
#
# Indices 1 2 3 4 5 6 
#
# 1 71.1745 18.3719 21.5359 -11.2006 28.1470 -14.0454
# 2 18.3719 67.4381 23.2118 -22.2787 9.6442 -22.7958
# 3 21.5359 23.2118 43.2728 -10.0101 26.5224 -11.0004
# 4 -11.2006 -22.2787 -10.0101 22.4333 -7.8398 11.6388
# 5 28.1470 9.6442 26.5224 -7.8398 34.5309 -9.4126
# 6 -14.0454 -22.7958 -11.0004 11.6388 -9.4126 28.9277
#
#
#
# Elastic Compliance Matrix: (Units=1/GPa)
#
#
# Indices 1 2 3 4 5 6 
#
# 1 0.021901 -0.002843 0.002794 0.001506 -0.018051 0.002977
# 2 -0.002843 0.029520 -0.014915 0.019276 0.013398 0.012815
# 3 0.002794 -0.014915 0.053157 -0.002579 -0.040126 -0.002202
# 4 0.001506 0.019276 -0.002579 0.072213 0.008688 -0.011287
# 5 -0.018051 0.013398 -0.040126 0.008688 0.074728 0.007355
# 6 0.002977 0.012815 -0.002202 -0.011287 0.007355 0.052209
#
#
# Mechanical properties :
#
#
# Convention : Reuss Voigt Hill
#
# Bulk Modulus (GPa) = 13.39600 34.23609 23.81604
# Shear Modulus (GPa) = 13.94541 25.09610 19.52075
#
# Velocity S-wave (km/s) = 2.55533 3.42795 3.02329
# Velocity P-wave (km/s) = 3.87024 5.63013 4.83100
#
# Compressibility (1/GPa) = 0.07464914
#
# Stress axis : x y z
#
# Youngs Moduli (GPa) = 45.65937 33.87519 18.81227
#
# Poissons Ratio (x) = 0.09631 -0.05256
# Poissons Ratio (y) = 0.12982 0.28059
# Poissons Ratio (z) = -0.12757 0.50526
#
# Static dielectric constant tensor:
#      x y z
#    x 1.880470 -0.037540 0.055270 
#    y -0.037540 1.799260 -0.027140 
#    z 0.055270 -0.027140 1.804770 
# 
# From -- ./inp_files/264216.got.cif
#   From: 2010.05.17/outbox.cif.g08.bks.cpg/sg2_133_cif.got.tgz:264216.got - 2010.06.03 11:33:40.
