data_PCOD9094565
_publ_section_title
;
Structure prediction by ZEFSAII (Michael W. Deem and Ramdas Pophale) SiO2 
 PCOD9094565
Probable space group: P -1
;
_chemical_formula_sum "Si O2"
_cell_formula_units_Z 15
_cell_length_a 8.255347
_cell_length_b 8.347846
_cell_length_c 11.181045
_cell_angle_alpha 63.477987
_cell_angle_beta 70.553325
_cell_angle_gamma 62.659749
_cell_volume 604.456686
_symmetry_space_group_name_H-M "P -1"
_symmetry_group_IT_number 2
_symmetry_cell_setting 'triclinic'
loop_
_space_group_symop_operation_xyz
x,y,z
-x,-y,-z
loop_
_atom_site_type_symbol
_atom_site_label
_atom_site_fract_x
_atom_site_fract_y
_atom_site_fract_z
Si Si1 0.156813 0.075418 0.969874
Si Si2 0.556440 0.120026 0.237158
Si Si3 0.000000 0.500000 0.500000
Si Si4 0.715576 0.354040 0.652012
Si Si5 0.212028 0.252289 0.118562
Si Si6 0.441315 0.276315 0.590318
Si Si7 0.561403 0.512318 0.116670
Si Si8 0.904146 0.517630 0.246681
O O1 0.069196 0.296718 0.875922
O O2 0.331983 0.959310 0.886011
O O3 0.216898 0.077744 0.091210
O O4 0.000000 0.000000 0.000000
O O5 0.345458 0.204265 0.216215
O O6 0.617356 0.288315 0.218367
O O7 0.584597 0.921957 0.364592
O O8 0.930593 0.315033 0.613231
O O9 0.995798 0.457070 0.373344
O O10 0.641393 0.250874 0.600508
O O11 0.642360 0.579407 0.546837
O O12 0.611685 0.365083 0.798931
O O13 0.005923 0.350529 0.185515
O O14 0.289418 0.386861 0.971840
O O15 0.312334 0.397523 0.692097
O O16 0.500000 0.500000 0.000000
#
# Coordination Sequence:
#
# PCOD9094565 Si02
#       8
#     2   2   1   2   2   2   2   2
#     4  11  23  37  57  88 124 158 198 250 302 352
#     4  10  21  37  58  89 120 154 201 247 297 353
#     4  10  20  36  62  86 110 152 206 244 278 350
#     4  10  20  38  61  84 116 157 199 240 294 358
#     4  11  22  39  63  89 123 161 200 244 300 363
#     4   9  21  39  61  85 115 158 198 242 295 349
#     4  10  20  34  58  88 117 152 194 242 296 353
#     4  10  21  39  60  85 119 158 200 242 294 357
#
# _framework density 24.815677000000001
#
# number of rings (size 3 to 8) (size 9 to 14) (size 15 to 20)
#    0.000    1.867    0.000    4.800    0.000    4.800 
#    0.000    1.333    0.000   13.600    0.000    0.000 
#    0.000    0.000    0.000    0.000    0.000    0.000 
#
# Total GULP energy -83500.999907 kJ/mol
# GULP energy per Si atom -5566.733327 kJ/mol
# Density = 2.475920 g / cm^3
# Si number density = 24.815677 Si / 1000 Ang^3
#
#
#
# Elastic Constant Matrix: (Units=GPa)
#
#
# Indices 1 2 3 4 5 6 
#
# 1 66.7501 10.5004 -4.7129 -8.3611 -13.6421 15.5327
# 2 10.5004 96.6611 14.3570 -1.0525 -14.2294 10.3405
# 3 -4.7129 14.3570 74.0074 -2.8584 -5.6621 -0.5109
# 4 -8.3611 -1.0525 -2.8584 30.0788 -0.9338 -10.8858
# 5 -13.6421 -14.2294 -5.6621 -0.9338 21.9961 -5.6796
# 6 15.5327 10.3405 -0.5109 -10.8858 -5.6796 30.8050
#
#
#
# Elastic Compliance Matrix: (Units=1/GPa)
#
#
# Indices 1 2 3 4 5 6 
#
# 1 0.019335 -0.000083 0.002185 0.003612 0.011007 -0.006379
# 2 -0.000083 0.011885 -0.001874 -0.000695 0.006336 -0.003056
# 3 0.002185 -0.001874 0.014459 0.002589 0.004358 0.001485
# 4 0.003612 -0.000695 0.002589 0.039754 0.007742 0.013930
# 5 0.011007 0.006336 0.004358 0.007742 0.059409 0.006085
# 6 -0.006379 -0.003056 0.001485 0.013930 0.006085 0.042774
#
#
# Mechanical properties :
#
#
# Convention : Reuss Voigt Hill
#
# Bulk Modulus (GPa) = 21.67577 30.85641 26.26609
# Shear Modulus (GPa) = 24.68682 31.06093 27.87388
#
# Velocity S-wave (km/s) = 3.15748 3.54173 3.35511
# Velocity P-wave (km/s) = 4.69538 5.40244 5.06127
#
# Compressibility (1/GPa) = 0.04613446
#
# Stress axis : x y z
#
# Youngs Moduli (GPa) = 51.71962 84.14073 69.16342
#
# Poissons Ratio (x) = 0.00697 -0.15112
# Poissons Ratio (y) = 0.00428 0.12962
# Poissons Ratio (z) = -0.11300 0.15768
#
# Static dielectric constant tensor:
#      x y z
#    x 2.473300 -0.213100 -0.166180 
#    y -0.213100 2.057060 -0.007840 
#    z -0.166180 -0.007840 2.111880 
# 
# From -- ./inp_files/377891.got.cif
#   From: 2010.05.17/outbox.cif.g08.bks.cpg/sg2_189_cif.got.tgz:377891.got - 2010.06.03 11:33:40.
