data_PCOD9094484
_publ_section_title
;
Structure prediction by ZEFSAII (Michael W. Deem and Ramdas Pophale) SiO2 
 PCOD9094484
Probable space group: P -1
;
_chemical_formula_sum "Si O2"
_cell_formula_units_Z 16
_cell_length_a 12.009628
_cell_length_b 11.037238
_cell_length_c 11.278404
_cell_angle_alpha 115.602008
_cell_angle_beta 126.403514
_cell_angle_gamma 28.404520
_cell_volume 556.375074
_symmetry_space_group_name_H-M "P -1"
_symmetry_group_IT_number 2
_symmetry_cell_setting 'triclinic'
loop_
_space_group_symop_operation_xyz
x,y,z
-x,-y,-z
loop_
_atom_site_type_symbol
_atom_site_label
_atom_site_fract_x
_atom_site_fract_y
_atom_site_fract_z
Si Si1 0.932741 0.920923 0.348315
Si Si2 0.635444 0.763530 0.060008
Si Si3 0.572926 0.062948 0.455848
Si Si4 0.813154 0.811796 0.872186
Si Si5 0.917943 0.199750 0.106827
Si Si6 0.344161 0.697709 0.378222
Si Si7 0.594196 0.359487 0.178068
Si Si8 0.969033 0.428407 0.584913
O O1 0.636993 0.197553 0.226797
O O2 0.013202 0.722738 0.385491
O O3 0.000000 0.000000 0.500000
O O4 0.088292 0.813662 0.277533
O O5 0.842482 0.631606 0.243631
O O6 0.885458 0.487190 0.024826
O O7 0.362944 0.957154 0.047113
O O8 0.500000 0.000000 0.000000
O O9 0.381396 0.150283 0.273101
O O10 0.656952 0.146274 0.521480
O O11 0.342596 0.270675 0.497976
O O12 0.862337 0.748993 0.500288
O O13 0.865285 0.867481 0.815444
O O14 0.835799 0.225362 0.197996
O O15 0.637985 0.483727 0.993871
O O16 0.000000 0.000000 0.000000
O O17 0.500000 0.500000 0.500000
O O18 0.481387 0.566509 0.283144
#
# Coordination Sequence:
#
# PCOD9094484 Si02
#       8
#     2   2   2   2   2   2   2   2
#     4  12  21  36  63 103 142 180 221 285 361 423
#     4  10  22  38  61  98 134 175 225 283 350 425
#     4  10  20  39  61  99 138 178 217 279 347 433
#     4  10  24  43  69  93 136 188 233 292 351 415
#     4  11  27  51  71  95 137 191 254 298 339 420
#     4  12  21  38  66 103 147 179 223 289 362 428
#     4  11  26  43  70 101 134 186 242 294 356 418
#     4  10  20  34  57  90 142 177 213 263 347 423
#
# _framework density 28.757579
#
# number of rings (size 3 to 8) (size 9 to 14) (size 15 to 20)
#    0.000    1.250    3.750    1.125    5.250    1.000 
#    0.000    0.625    0.000    3.000    0.000    0.000 
#    0.000    0.000    0.000    0.000    0.000    0.000 
#
# Total GULP energy -89296.686055 kJ/mol
# GULP energy per Si atom -5581.042878 kJ/mol
# Density = 2.869213 g / cm^3
# Si number density = 28.757579 Si / 1000 Ang^3
#
#
#
# Elastic Constant Matrix: (Units=GPa)
#
#
# Indices 1 2 3 4 5 6 
#
# 1 150.5609 43.6819 27.6806 17.8191 -5.8600 -39.7224
# 2 43.6819 225.7475 26.2164 9.2598 3.0961 -39.8944
# 3 27.6806 26.2164 91.9563 -9.8591 8.5313 -7.4841
# 4 17.8191 9.2598 -9.8591 62.6805 -2.5672 4.7204
# 5 -5.8600 3.0961 8.5313 -2.5672 45.3147 -3.0726
# 6 -39.7224 -39.8944 -7.4841 4.7204 -3.0726 47.0310
#
#
#
# Elastic Compliance Matrix: (Units=1/GPa)
#
#
# Indices 1 2 3 4 5 6 
#
# 1 0.009954 0.000046 -0.002933 -0.003849 0.002195 0.008509
# 2 0.000046 0.005443 -0.001350 -0.001370 0.000122 0.004586
# 3 -0.002933 -0.001350 0.012542 0.003057 -0.002618 -0.002105
# 4 -0.003849 -0.001370 0.003057 0.018152 -0.000343 -0.005770
# 5 0.002195 0.000122 -0.002618 -0.000343 0.023026 0.003079
# 6 0.008509 0.004586 -0.002105 -0.005770 0.003079 0.032785
#
#
# Mechanical properties :
#
#
# Convention : Reuss Voigt Hill
#
# Bulk Modulus (GPa) = 51.37903 73.71362 62.54632
# Shear Modulus (GPa) = 42.78505 55.71763 49.25134
#
# Velocity S-wave (km/s) = 3.86136 4.40647 4.14289
# Velocity P-wave (km/s) = 6.14697 7.18176 6.68442
#
# Compressibility (1/GPa) = 0.01946319
#
# Stress axis : x y z
#
# Youngs Moduli (GPa) = 100.46699 183.73389 79.73202
#
# Poissons Ratio (x) = -0.00847 0.23386
# Poissons Ratio (y) = -0.00463 0.10767
# Poissons Ratio (z) = 0.29468 0.24813
#
# Static dielectric constant tensor:
#      x y z
#    x 2.355170 -0.076650 0.139970 
#    y -0.076650 2.930910 -0.260220 
#    z 0.139970 -0.260220 2.556980 
# 
# From -- ./inp_files/428581.got.cif
#   From: 2010.05.17/outbox.cif.g08.bks.cpg/sg2_215_cif.got.tgz:428581.got - 2010.06.03 11:33:40.
