data_PCOD9094476
_publ_section_title
;
Structure prediction by ZEFSAII (Michael W. Deem and Ramdas Pophale) SiO2 
 PCOD9094476
Probable space group: P -1
;
_chemical_formula_sum "Si O2"
_cell_formula_units_Z 16
_cell_length_a 11.580227
_cell_length_b 15.004510
_cell_length_c 9.073875
_cell_angle_alpha 96.801365
_cell_angle_beta 54.010916
_cell_angle_gamma 52.748240
_cell_volume 687.246993
_symmetry_space_group_name_H-M "P -1"
_symmetry_group_IT_number 2
_symmetry_cell_setting 'triclinic'
loop_
_space_group_symop_operation_xyz
x,y,z
-x,-y,-z
loop_
_atom_site_type_symbol
_atom_site_label
_atom_site_fract_x
_atom_site_fract_y
_atom_site_fract_z
Si Si1 0.872707 0.601486 0.318844
Si Si2 0.710500 0.839869 0.968453
Si Si3 0.722415 0.391072 0.033702
Si Si4 0.399660 0.348793 0.733155
Si Si5 0.057903 0.917661 0.591217
Si Si6 0.192173 0.637141 0.376807
Si Si7 0.488876 0.858053 0.894302
Si Si8 0.198413 0.183268 0.775536
O O1 0.700736 0.629955 0.345910
O O2 0.735396 0.681108 0.595523
O O3 0.841724 0.713930 0.284889
O O4 0.184967 0.422338 0.025774
O O5 0.525782 0.861406 0.040804
O O6 0.950122 0.717328 0.649943
O O7 0.832357 0.769906 0.024467
O O8 0.561030 0.015114 0.108891
O O9 0.625823 0.530003 0.220246
O O10 0.467254 0.464875 0.213680
O O11 0.790122 0.385998 0.815163
O O12 0.984733 0.222930 0.889519
O O13 0.697629 0.169555 0.519952
O O14 0.144093 0.769409 0.460012
O O15 0.000000 0.000000 0.500000
O O16 0.779732 0.054917 0.910027
O O17 0.500000 0.000000 0.500000
#
# Coordination Sequence:
#
# PCOD9094476 Si02
#       8
#     2   2   2   2   2   2   2   2
#     4  10  20  38  61  81 113 160 187 232 282 348
#     4  10  20  34  57  89 115 144 188 240 281 337
#     4   9  19  37  60  82 111 154 190 231 282 342
#     4   9  20  37  60  78 116 153 193 224 290 341
#     4  10  22  37  59  88 116 148 187 240 284 339
#     4   9  19  38  64  81 113 155 188 228 288 343
#     4  10  21  37  59  84 117 152 190 229 292 342
#     4  11  21  31  56  91 116 142 191 237 283 332
#
# _framework density 23.281293000000002
#
# number of rings (size 3 to 8) (size 9 to 14) (size 15 to 20)
#    0.000    2.250    1.250    1.500    5.250    1.000 
#    0.000    0.625   24.750    0.000    0.000    0.000 
#    0.000    0.000    0.000    0.000    0.000    0.000 
#
# Total GULP energy -89322.013864 kJ/mol
# GULP energy per Si atom -5582.625867 kJ/mol
# Density = 2.322830 g / cm^3
# Si number density = 23.281293 Si / 1000 Ang^3
#
#
#
# Elastic Constant Matrix: (Units=GPa)
#
#
# Indices 1 2 3 4 5 6 
#
# 1 112.3824 12.5124 43.2438 11.0142 -16.4478 -37.1704
# 2 12.5124 51.5739 5.5706 17.7226 -17.8451 -19.3210
# 3 43.2438 5.5706 102.9571 9.1604 -13.3869 -19.6334
# 4 11.0142 17.7226 9.1604 20.3854 -14.4399 -9.6556
# 5 -16.4478 -17.8451 -13.3869 -14.4399 33.2795 13.2308
# 6 -37.1704 -19.3210 -19.6334 -9.6556 13.2308 32.3576
#
#
#
# Elastic Compliance Matrix: (Units=1/GPa)
#
#
# Indices 1 2 3 4 5 6 
#
# 1 0.015885 0.004033 -0.003226 -0.001496 0.000967 0.017856
# 2 0.004033 0.033659 0.002392 -0.020460 0.004949 0.018053
# 3 -0.003226 0.002392 0.012095 -0.002726 0.002008 0.003427
# 4 -0.001496 -0.020460 -0.002726 0.086373 0.024624 0.000116
# 5 0.000967 0.004949 0.002008 0.024624 0.047347 -0.006727
# 6 0.017856 0.018053 0.003427 0.000116 -0.006727 0.067060
#
#
# Mechanical properties :
#
#
# Convention : Reuss Voigt Hill
#
# Bulk Modulus (GPa) = 14.69819 43.28522 28.99171
# Shear Modulus (GPa) = 17.94034 30.91026 24.42530
#
# Velocity S-wave (km/s) = 2.77896 3.64770 3.24255
# Velocity P-wave (km/s) = 4.07724 6.03105 5.14769
#
# Compressibility (1/GPa) = 0.06803558
#
# Stress axis : x y z
#
# Youngs Moduli (GPa) = 62.95436 29.70951 82.67538
#
# Poissons Ratio (x) = -0.11981 0.26672
# Poissons Ratio (y) = -0.25388 -0.19772
# Poissons Ratio (z) = 0.20310 -0.07105
#
# Static dielectric constant tensor:
#      x y z
#    x 1.954360 0.012190 -0.038680 
#    y 0.012190 1.937860 0.057180 
#    z -0.038680 0.057180 1.926130 
# 
# From -- ./inp_files/279509.got.cif
#   From: 2010.05.17/outbox.cif.g08.bks.cpg/sg2_140_cif.got.tgz:279509.got - 2010.06.03 11:33:40.
