data_PCOD9094686
_publ_section_title
;
Structure prediction by ZEFSAII (Michael W. Deem and Ramdas Pophale) SiO2 
 PCOD9094686
Probable space group: P -1
;
_chemical_formula_sum "Si O2"
_cell_formula_units_Z 14
_cell_length_a 27.600037
_cell_length_b 14.876653
_cell_length_c 14.460591
_cell_angle_alpha 19.497982
_cell_angle_beta 160.558621
_cell_angle_gamma 161.678216
_cell_volume 553.607618
_symmetry_space_group_name_H-M "P -1"
_symmetry_group_IT_number 2
_symmetry_cell_setting 'triclinic'
loop_
_space_group_symop_operation_xyz
x,y,z
-x,-y,-z
loop_
_atom_site_type_symbol
_atom_site_label
_atom_site_fract_x
_atom_site_fract_y
_atom_site_fract_z
Si Si1 0.698421 0.175503 0.225337
Si Si2 0.148268 0.307566 0.414568
Si Si3 0.440334 0.215796 0.980253
Si Si4 0.516844 0.743436 0.479033
Si Si5 0.292186 0.543654 0.633333
Si Si6 0.810042 0.751746 0.756471
Si Si7 0.081448 0.824455 0.027743
O O1 0.671379 0.025817 0.423163
O O2 0.802387 0.058828 0.466541
O O3 0.786622 0.550511 0.002380
O O4 0.500000 0.000000 0.000000
O O5 0.260851 0.194051 0.676154
O O6 0.262108 0.559394 0.455222
O O7 0.000000 0.000000 0.500000
O O8 0.056652 0.397567 0.085816
O O9 0.560876 0.533985 0.825850
O O10 0.512371 0.288913 0.142888
O O11 0.440588 0.917462 0.230560
O O12 0.365280 0.486613 0.386795
O O13 0.209673 0.705684 0.385670
O O14 0.190033 0.176810 0.837590
O O15 0.972274 0.814886 0.927803
#
# Coordination Sequence:
#
# PCOD9094686 Si02
#       7
#     2   2   2   2   2   2   2
#     4  10  20  34  59  97 131 156 201 268 315 362
#     4  10  24  42  68  94 125 161 217 267 310 365
#     4  12  24  41  65  92 132 169 205 256 316 385
#     4  11  22  37  64  94 129 162 209 254 322 371
#     4  11  25  43  61  92 130 172 209 254 317 377
#     4  11  20  36  64  94 128 159 210 263 313 358
#     4  11  23  41  67  92 127 166 216 262 307 367
#
# _framework density 25.288668999999999
#
# number of rings (size 3 to 8) (size 9 to 14) (size 15 to 20)
#    0.000    1.143    1.429    6.857    4.000    2.286 
#    0.000    5.000    0.000   17.143    0.000    0.000 
#    0.000    0.000    0.000    0.000    0.000    0.000 
#
# Total GULP energy -78435.785977 kJ/mol
# GULP energy per Si atom -5602.556141 kJ/mol
# Density = 2.523111 g / cm^3
# Si number density = 25.288669 Si / 1000 Ang^3
#
#
#
# Elastic Constant Matrix: (Units=GPa)
#
#
# Indices 1 2 3 4 5 6 
#
# 1 56.5722 13.1195 -8.3539 -2.6415 -4.4935 -7.4252
# 2 13.1195 36.3232 23.7232 -15.9977 -15.5230 17.6689
# 3 -8.3539 23.7232 91.3456 -20.9947 -0.8955 -32.8740
# 4 -2.6415 -15.9977 -20.9947 34.4027 -6.3585 -4.5443
# 5 -4.4935 -15.5230 -0.8955 -6.3585 22.1826 -29.1633
# 6 -7.4252 17.6689 -32.8740 -4.5443 -29.1633 -22.2602
#
#
#
# Elastic Compliance Matrix: (Units=1/GPa)
#
#
# Indices 1 2 3 4 5 6 
#
# 1 0.020131 -0.017496 0.003079 -0.007996 -0.015153 -0.003666
# 2 -0.017496 0.100413 -0.016293 0.049463 0.077527 -0.002066
# 3 0.003079 -0.016293 0.012181 -0.004239 -0.019235 -0.005883
# 4 -0.007996 0.049463 -0.004239 0.054192 0.035691 -0.009634
# 5 -0.015153 0.077527 -0.019235 0.035691 0.081190 -0.018656
# 6 -0.003666 -0.002066 -0.005883 -0.009634 -0.018656 -0.010245
#
#
# Mechanical properties :
#
#
# Convention : Reuss Voigt Hill
#
# Bulk Modulus (GPa) = 14.02450 26.80206 20.41328
# Shear Modulus (GPa) = 14.57519 17.24851 15.91185
#
# Velocity S-wave (km/s) = 2.40334 2.61447 2.51112
# Velocity P-wave (km/s) = 3.64132 4.44245 4.06169
#
# Compressibility (1/GPa) = 0.07130377
#
# Stress axis : x y z
#
# Youngs Moduli (GPa) = 49.67534 9.95890 82.09778
#
# Poissons Ratio (x) = 0.17424 -0.25281
# Poissons Ratio (y) = 0.86913 1.33763
# Poissons Ratio (z) = -0.15297 0.16226
#
# Static dielectric constant tensor:
#      x y z
#    x 2.044060 -0.021050 -0.047990 
#    y -0.021050 2.012770 0.038320 
#    z -0.047990 0.038320 1.926490 
# 
# From -- ./inp_files/38589.got.cif
#   From: 2010.05.17/outbox.cif.g08.bks.cpg/sg2_20_cif.got.tgz:38589.got - 2010.06.03 11:33:40.
