data_PCOD9094155
_publ_section_title
;
Structure prediction by ZEFSAII (Michael W. Deem and Ramdas Pophale) SiO2 
 PCOD9094155
Probable space group: P -1
;
_chemical_formula_sum "Si O2"
_cell_formula_units_Z 15
_cell_length_a 7.805243
_cell_length_b 13.058912
_cell_length_c 11.587768
_cell_angle_alpha 140.998796
_cell_angle_beta 111.546714
_cell_angle_gamma 63.666045
_cell_volume 665.650419
_symmetry_space_group_name_H-M "P -1"
_symmetry_group_IT_number 2
_symmetry_cell_setting 'triclinic'
loop_
_space_group_symop_operation_xyz
x,y,z
-x,-y,-z
loop_
_atom_site_type_symbol
_atom_site_label
_atom_site_fract_x
_atom_site_fract_y
_atom_site_fract_z
Si Si1 0.644399 0.734973 0.394676
Si Si2 0.500000 0.000000 0.000000
Si Si3 0.741098 0.022744 0.823574
Si Si4 0.701846 0.621066 0.744350
Si Si5 0.683722 0.471881 0.372115
Si Si6 0.937487 0.498076 0.113004
Si Si7 0.635688 0.309526 0.879063
Si Si8 0.187986 0.899319 0.850103
O O1 0.685542 0.567029 0.336896
O O2 0.788806 0.673677 0.269897
O O3 0.433776 0.781272 0.326314
O O4 0.687872 0.879703 0.610349
O O5 0.642182 0.819361 0.923855
O O6 0.359061 0.887180 0.794458
O O7 0.629084 0.201168 0.897099
O O8 0.705084 0.014183 0.945926
O O9 0.971914 0.994933 0.852335
O O10 0.741952 0.577470 0.581873
O O11 0.529173 0.544722 0.673367
O O12 0.886456 0.533020 0.785277
O O13 0.813259 0.279578 0.251483
O O14 0.841356 0.342917 0.959326
O O15 0.000000 0.500000 0.000000
O O16 0.500000 0.500000 0.000000
#
# Coordination Sequence:
#
# PCOD9094155 Si02
#       8
#     2   1   2   2   2   2   2   2
#     4  11  23  39  62  88 119 158 201 246 295 351
#     4  10  20  34  54  86 120 154 190 236 292 342
#     4  11  22  38  60  88 118 152 199 248 292 351
#     4  10  21  38  61  90 123 157 197 244 297 351
#     4  10  21  39  62  90 123 158 196 242 299 360
#     4  11  23  40  62  85 116 158 201 244 293 355
#     4  10  22  40  60  82 115 156 198 239 292 353
#     4  10  21  36  59  89 121 155 194 243 299 351
#
# _framework density 22.534351999999998
#
# number of rings (size 3 to 8) (size 9 to 14) (size 15 to 20)
#    0.000    1.600    0.000    5.200    0.000    7.467 
#    0.000    3.333    0.000    0.000    0.000    0.000 
#    0.000    0.000    0.000    0.000    0.000    0.000 
#
# Total GULP energy -83617.892087 kJ/mol
# GULP energy per Si atom -5574.526139 kJ/mol
# Density = 2.248306 g / cm^3
# Si number density = 22.534352 Si / 1000 Ang^3
#
#
#
# Elastic Constant Matrix: (Units=GPa)
#
#
# Indices 1 2 3 4 5 6 
#
# 1 44.1259 20.8900 13.8843 -8.7367 4.6457 -3.4440
# 2 20.8900 102.0015 27.5172 -4.7780 12.7144 -2.1569
# 3 13.8843 27.5172 119.4415 -13.4117 9.4851 1.3799
# 4 -8.7367 -4.7780 -13.4117 45.9300 -1.7585 5.0435
# 5 4.6457 12.7144 9.4851 -1.7585 26.7038 -7.4572
# 6 -3.4440 -2.1569 1.3799 5.0435 -7.4572 41.3561
#
#
#
# Elastic Compliance Matrix: (Units=1/GPa)
#
#
# Indices 1 2 3 4 5 6 
#
# 1 0.026322 -0.004630 -0.001472 0.003905 -0.001232 0.001301
# 2 -0.004630 0.011764 -0.001863 -0.000316 -0.004278 -0.000443
# 3 -0.001472 -0.001863 0.009439 0.002328 -0.002406 -0.001253
# 4 0.003905 -0.000316 0.002328 0.023440 -0.000575 -0.002731
# 5 -0.001232 -0.004278 -0.002406 -0.000575 0.042613 0.007509
# 6 0.001301 -0.000443 -0.001253 -0.002731 0.007509 0.025994
#
#
# Mechanical properties :
#
#
# Convention : Reuss Voigt Hill
#
# Bulk Modulus (GPa) = 31.64896 43.35023 37.49960
# Shear Modulus (GPa) = 30.11461 36.34981 33.23221
#
# Velocity S-wave (km/s) = 3.65963 4.02068 3.84439
# Velocity P-wave (km/s) = 5.65088 6.39012 6.03184
#
# Compressibility (1/GPa) = 0.03159661
#
# Stress axis : x y z
#
# Youngs Moduli (GPa) = 37.99130 85.00846 105.93821
#
# Poissons Ratio (x) = 0.39356 0.15593
# Poissons Ratio (y) = 0.17589 0.19731
# Poissons Ratio (z) = 0.05592 0.15833
#
# Static dielectric constant tensor:
#      x y z
#    x 4.758680 0.766150 -0.265860 
#    y 0.766150 2.032980 -0.050250 
#    z -0.265860 -0.050250 1.938870 
# 
# From -- ./inp_files/326171.got.cif
#   From: 2010.05.17/outbox.cif.g08.bks.cpg/sg2_164_cif.got.tgz:326171.got - 2010.06.03 11:33:40.
