data_PCOD9094342
_publ_section_title
;
Structure prediction by ZEFSAII (Michael W. Deem and Ramdas Pophale) SiO2 
 PCOD9094342
Probable space group: P -1
;
_chemical_formula_sum "Si O2"
_cell_formula_units_Z 14
_cell_length_a 8.203776
_cell_length_b 10.440595
_cell_length_c 13.207776
_cell_angle_alpha 130.269659
_cell_angle_beta 68.283361
_cell_angle_gamma 75.312824
_cell_volume 576.517251
_symmetry_space_group_name_H-M "P -1"
_symmetry_group_IT_number 2
_symmetry_cell_setting 'triclinic'
loop_
_space_group_symop_operation_xyz
x,y,z
-x,-y,-z
loop_
_atom_site_type_symbol
_atom_site_label
_atom_site_fract_x
_atom_site_fract_y
_atom_site_fract_z
Si Si1 0.147683 0.498204 0.645313
Si Si2 0.353398 0.942527 0.770211
Si Si3 0.037125 0.701613 0.355692
Si Si4 0.708833 0.007187 0.962666
Si Si5 0.339815 0.804599 0.344641
Si Si6 0.506576 0.230289 0.921301
Si Si7 0.908084 0.418645 0.058411
O O1 0.094503 0.543388 0.800518
O O2 0.036535 0.388011 0.591198
O O3 0.976287 0.748262 0.760174
O O4 0.432035 0.305687 0.457198
O O5 0.453243 0.069328 0.825745
O O6 0.308872 0.906531 0.876337
O O7 0.102972 0.135938 0.864963
O O8 0.170682 0.772065 0.410001
O O9 0.244762 0.490202 0.127222
O O10 0.795233 0.928130 0.469152
O O11 0.641576 0.162890 0.962253
O O12 0.500000 0.000000 0.000000
O O13 0.341232 0.794991 0.217203
O O14 0.620591 0.593747 0.196092
O O15 0.000000 0.500000 0.000000
#
# Coordination Sequence:
#
# PCOD9094342 Si02
#       7
#     2   2   2   2   2   2   2
#     4  11  20  36  61  83 114 145 183 233 280 323
#     4  10  20  34  56  86 109 141 187 231 278 326
#     4  11  21  37  53  83 115 150 184 224 275 336
#     4   9  19  33  56  87 112 135 188 239 279 320
#     4  11  24  35  55  84 118 147 185 223 279 338
#     4  11  19  37  55  84 116 142 182 237 280 322
#     4  11  20  37  54  82 114 148 187 227 272 335
#
# _framework density 24.283747000000002
#
# number of rings (size 3 to 8) (size 9 to 14) (size 15 to 20)
#    0.000    1.429    7.143    0.429    0.000    6.857 
#    0.000    0.000    0.000    3.429    0.000   18.000 
#    0.000    0.000    0.000    0.000    0.000    0.000 
#
# Total GULP energy -78195.548656 kJ/mol
# GULP energy per Si atom -5585.396333 kJ/mol
# Density = 2.422848 g / cm^3
# Si number density = 24.283747 Si / 1000 Ang^3
#
#
#
# Elastic Constant Matrix: (Units=GPa)
#
#
# Indices 1 2 3 4 5 6 
#
# 1 33.0837 22.2434 19.9463 9.0213 -29.9541 -6.9514
# 2 22.2434 98.7099 38.8741 7.7682 -15.1282 -30.1238
# 3 19.9463 38.8741 199.2140 33.5376 -40.2211 -20.3791
# 4 9.0213 7.7682 33.5376 26.1296 -8.9905 -5.8741
# 5 -29.9541 -15.1282 -40.2211 -8.9905 38.1886 10.9405
# 6 -6.9514 -30.1238 -20.3791 -5.8741 10.9405 19.3397
#
#
#
# Elastic Compliance Matrix: (Units=1/GPa)
#
#
# Indices 1 2 3 4 5 6 
#
# 1 0.247083 -0.068197 0.029518 -0.055563 0.221628 -0.128562
# 2 -0.068197 0.038475 -0.009626 0.017624 -0.063267 0.066416
# 3 0.029518 -0.009626 0.011284 -0.014104 0.032199 -0.014992
# 4 -0.055563 0.017624 -0.014104 0.062561 -0.047803 0.038662
# 5 0.221628 -0.063267 0.032199 -0.047803 0.235663 -0.132789
# 6 -0.128562 0.066416 -0.014992 0.038662 -0.132789 0.180012
#
#
# Mechanical properties :
#
#
# Convention : Reuss Voigt Hill
#
# Bulk Modulus (GPa) = 4.99424 54.79282 29.89353
# Shear Modulus (GPa) = 5.32803 33.39450 19.36126
#
# Velocity S-wave (km/s) = 1.48285 3.71236 2.82670
# Velocity P-wave (km/s) = 2.23447 6.40219 4.79484
#
# Compressibility (1/GPa) = 0.20023061
#
# Stress axis : x y z
#
# Youngs Moduli (GPa) = 4.04722 25.99122 88.61727
#
# Poissons Ratio (x) = 1.77253 -2.61578
# Poissons Ratio (y) = 0.27601 0.85303
# Poissons Ratio (z) = -0.11946 0.25019
#
# Static dielectric constant tensor:
#      x y z
#    x 2.065150 0.037940 0.049840 
#    y 0.037940 1.941450 0.044190 
#    z 0.049840 0.044190 1.946470 
# 
# From -- ./inp_files/399573.got.cif
#   From: 2010.05.17/outbox.cif.g08.bks.cpg/sg2_200_cif.got.tgz:399573.got - 2010.06.03 11:33:40.
