data_PCOD9094131
_publ_section_title
;
Structure prediction by ZEFSAII (Michael W. Deem and Ramdas Pophale) SiO2 
 PCOD9094131
Probable space group: P -1
;
_chemical_formula_sum "Si O2"
_cell_formula_units_Z 16
_cell_length_a 9.580156
_cell_length_b 21.298509
_cell_length_c 13.492227
_cell_angle_alpha 28.865667
_cell_angle_beta 141.883512
_cell_angle_gamma 145.319901
_cell_volume 733.653758
_symmetry_space_group_name_H-M "P -1"
_symmetry_group_IT_number 2
_symmetry_cell_setting 'triclinic'
loop_
_space_group_symop_operation_xyz
x,y,z
-x,-y,-z
loop_
_atom_site_type_symbol
_atom_site_label
_atom_site_fract_x
_atom_site_fract_y
_atom_site_fract_z
Si Si1 0.272468 0.914711 0.710486
Si Si2 0.599204 0.286242 0.823711
Si Si3 0.816733 0.008526 0.086806
Si Si4 0.569534 0.869713 0.341936
Si Si5 0.593187 0.414797 0.852072
Si Si6 0.724167 0.443647 0.468768
Si Si7 0.718149 0.021951 0.671232
Si Si8 0.072488 0.723568 0.682292
O O1 0.092725 0.837498 0.623666
O O2 0.294948 0.058451 0.578515
O O3 0.559762 0.965082 0.760453
O O4 0.223784 0.787164 0.938164
O O5 0.349880 0.149990 0.834649
O O6 0.546768 0.357876 0.792428
O O7 0.712617 0.391786 0.648238
O O8 0.751708 0.974238 0.213640
O O9 0.103205 0.052371 0.154476
O O10 0.686968 0.108792 0.841208
O O11 0.475229 0.700267 0.502372
O O12 0.364070 0.429849 0.754138
O O13 0.815000 0.579384 0.742663
O O14 0.707130 0.322813 0.103664
O O15 0.000000 0.500000 0.500000
O O16 0.885744 0.194721 0.511693
O O17 0.500000 0.000000 0.500000
#
# Coordination Sequence:
#
# PCOD9094131 Si02
#       8
#     2   2   2   2   2   2   2   2
#     4   9  19  35  57  83 106 138 181 226 276 317
#     4   9  19  36  57  80 105 141 184 224 270 320
#     4   9  18  35  57  81 109 138 175 225 276 322
#     4   9  19  35  55  79 110 143 173 218 278 328
#     4  10  20  37  59  78 107 150 184 218 265 318
#     4  11  23  35  53  83 114 143 176 220 274 327
#     4  10  20  34  54  82 110 139 181 228 267 309
#     4   9  19  36  58  80 107 142 188 226 258 316
#
# _framework density 21.808651999999999
#
# number of rings (size 3 to 8) (size 9 to 14) (size 15 to 20)
#    0.000    2.500    0.000    2.625    0.000    7.000 
#    0.000    5.625    0.000   12.000    0.000    0.000 
#    0.000    0.000    0.000    0.000    0.000    0.000 
#
# Total GULP energy -89274.212597 kJ/mol
# GULP energy per Si atom -5579.638287 kJ/mol
# Density = 2.175901 g / cm^3
# Si number density = 21.808652 Si / 1000 Ang^3
#
#
#
# Elastic Constant Matrix: (Units=GPa)
#
#
# Indices 1 2 3 4 5 6 
#
# 1 85.5590 34.4842 25.6431 2.0108 21.6816 -11.3494
# 2 34.4842 60.9790 4.1613 -16.5054 16.3367 -17.9683
# 3 25.6431 4.1613 85.7049 -3.8083 13.5483 4.6824
# 4 2.0108 -16.5054 -3.8083 29.1863 4.3375 16.1433
# 5 21.6816 16.3367 13.5483 4.3375 34.0087 -4.6563
# 6 -11.3494 -17.9683 4.6824 16.1433 -4.6563 31.5665
#
#
#
# Elastic Compliance Matrix: (Units=1/GPa)
#
#
# Indices 1 2 3 4 5 6 
#
# 1 0.019977 -0.011438 -0.006054 -0.012552 -0.002179 0.007667
# 2 -0.011438 0.031700 0.004709 0.020708 -0.012340 0.000822
# 3 -0.006054 0.004709 0.015279 0.010676 -0.006981 -0.008252
# 4 -0.012552 0.020708 0.010676 0.069115 -0.019467 -0.032526
# 5 -0.002179 -0.012340 -0.006981 -0.019467 0.043295 0.009570
# 6 0.007667 0.000822 -0.008252 -0.032526 0.009570 0.054174
#
#
# Mechanical properties :
#
#
# Convention : Reuss Voigt Hill
#
# Bulk Modulus (GPa) = 24.16070 40.09111 32.12590
# Shear Modulus (GPa) = 18.32158 30.14925 24.23541
#
# Velocity S-wave (km/s) = 2.90160 3.72216 3.33720
# Velocity P-wave (km/s) = 4.72528 6.07418 5.44169
#
# Compressibility (1/GPa) = 0.04138953
#
# Stress axis : x y z
#
# Youngs Moduli (GPa) = 50.05855 31.54605 65.44755
#
# Poissons Ratio (x) = 0.36084 0.39621
# Poissons Ratio (y) = 0.57259 -0.30821
# Poissons Ratio (z) = 0.30305 -0.14856
#
# Static dielectric constant tensor:
#      x y z
#    x 1.839980 0.014850 0.030810 
#    y 0.014850 1.839280 0.014560 
#    z 0.030810 0.014560 1.842190 
# 
# From -- ./inp_files/346172.got.cif
#   From: 2010.05.17/outbox.cif.g08.bks.cpg/sg2_174_cif.got.tgz:346172.got - 2010.06.03 11:33:40.
