data_PCOD9094722
_publ_section_title
;
Structure prediction by ZEFSAII (Michael W. Deem and Ramdas Pophale) SiO2 
 PCOD9094722
Probable space group: P -1
;
_chemical_formula_sum "Si O2"
_cell_formula_units_Z 16
_cell_length_a 5.234936
_cell_length_b 22.302622
_cell_length_c 10.930357
_cell_angle_alpha 135.164793
_cell_angle_beta 115.849271
_cell_angle_gamma 57.429622
_cell_volume 755.100924
_symmetry_space_group_name_H-M "P -1"
_symmetry_group_IT_number 2
_symmetry_cell_setting 'triclinic'
loop_
_space_group_symop_operation_xyz
x,y,z
-x,-y,-z
loop_
_atom_site_type_symbol
_atom_site_label
_atom_site_fract_x
_atom_site_fract_y
_atom_site_fract_z
Si Si1 0.203145 0.905143 0.967851
Si Si2 0.497408 0.908947 0.304817
Si Si3 0.207791 0.560215 0.101252
Si Si4 0.535959 0.518288 0.341951
Si Si5 0.204858 0.371133 0.288573
Si Si6 0.663073 0.649386 0.969149
Si Si7 0.160863 0.205018 0.157617
Si Si8 0.127202 0.801480 0.174551
O O1 0.486256 0.856579 0.867379
O O2 0.016230 0.836683 0.846202
O O3 0.334375 0.920654 0.152474
O O4 0.000000 0.000000 0.000000
O O5 0.317800 0.867172 0.299193
O O6 0.846497 0.839708 0.262200
O O7 0.500000 0.000000 0.500000
O O8 0.355979 0.581932 0.285463
O O9 0.500000 0.500000 0.000000
O O10 0.000000 0.500000 0.000000
O O11 0.975669 0.638570 0.084978
O O12 0.564162 0.582278 0.548706
O O13 0.364124 0.447036 0.212292
O O14 0.887227 0.450323 0.298050
O O15 0.341709 0.309502 0.108126
O O16 0.137671 0.310514 0.294995
O O17 0.388837 0.701064 0.077901
O O18 0.021144 0.193207 0.981640
#
# Coordination Sequence:
#
# PCOD9094722 Si02
#       8
#     2   2   2   2   2   2   2   2
#     4  10  21  39  64  87 116 155 195 235 312 382
#     4  10  21  38  61  90 119 146 192 251 306 368
#     4  10  21  38  55  80 117 165 212 253 305 361
#     4  10  22  35  56  88 123 170 211 260 307 348
#     4  11  20  35  59  88 124 160 214 264 301 347
#     4  11  20  36  61  84 123 165 222 251 299 369
#     4  10  20  36  58  90 119 152 199 252 292 367
#     4  10  20  34  60  88 115 154 200 248 298 355
#
# _framework density 21.189219000000001
#
# number of rings (size 3 to 8) (size 9 to 14) (size 15 to 20)
#    0.000    1.750    2.500    3.375    0.000    0.000 
#    0.000    1.250    0.000    7.500    0.000    0.000 
#    0.000    0.000    0.000    0.000    0.000    0.000 
#
# Total GULP energy -89182.174577 kJ/mol
# GULP energy per Si atom -5573.885911 kJ/mol
# Density = 2.114099 g / cm^3
# Si number density = 21.189219 Si / 1000 Ang^3
#
#
#
# Elastic Constant Matrix: (Units=GPa)
#
#
# Indices 1 2 3 4 5 6 
#
# 1 119.6586 47.9560 23.8291 5.6305 11.4216 -21.5856
# 2 47.9560 111.3592 43.4014 -3.7005 5.0433 -23.1468
# 3 23.8291 43.4014 92.6502 0.2101 14.8588 -3.0469
# 4 5.6305 -3.7005 0.2101 31.4803 1.7629 4.7294
# 5 11.4216 5.0433 14.8588 1.7629 28.1610 11.9883
# 6 -21.5856 -23.1468 -3.0469 4.7294 11.9883 35.6545
#
#
#
# Elastic Compliance Matrix: (Units=1/GPa)
#
#
# Indices 1 2 3 4 5 6 
#
# 1 0.012003 -0.003207 -0.000108 -0.003326 -0.007492 0.008136
# 2 -0.003207 0.013978 -0.005255 0.001281 -0.001497 0.007017
# 3 -0.000108 -0.005255 0.014335 -0.000326 -0.006556 -0.000004
# 4 -0.003326 0.001281 -0.000326 0.033350 0.001870 -0.006262
# 5 -0.007492 -0.001497 -0.006556 0.001870 0.052340 -0.023915
# 6 0.008136 0.007017 -0.000004 -0.006262 -0.023915 0.046399
#
#
# Mechanical properties :
#
#
# Convention : Reuss Voigt Hill
#
# Bulk Modulus (GPa) = 43.14883 61.56012 52.35448
# Shear Modulus (GPa) = 25.34583 32.95794 29.15188
#
# Velocity S-wave (km/s) = 3.46232 3.94815 3.71319
# Velocity P-wave (km/s) = 6.03252 7.06396 6.56851
#
# Compressibility (1/GPa) = 0.02317560
#
# Stress axis : x y z
#
# Youngs Moduli (GPa) = 83.31077 71.53981 69.75960
#
# Poissons Ratio (x) = 0.22943 0.00755
# Poissons Ratio (y) = 0.26718 0.36660
# Poissons Ratio (z) = 0.00901 0.37595
#
# Static dielectric constant tensor:
#      x y z
#    x 1.870610 0.066850 -0.015330 
#    y 0.066850 1.882330 0.015950 
#    z -0.015330 0.015950 1.765060 
# 
# From -- ./inp_files/371066.got.cif
#   From: 2010.05.17/outbox.cif.g08.bks.cpg/sg2_186_cif.got.tgz:371066.got - 2010.06.03 11:33:40.
