data_PCOD9094109
_publ_section_title
;
Structure prediction by ZEFSAII (Michael W. Deem and Ramdas Pophale) SiO2 
 PCOD9094109
Probable space group: P -1
;
_chemical_formula_sum "Si O2"
_cell_formula_units_Z 14
_cell_length_a 12.503529
_cell_length_b 28.938749
_cell_length_c 9.823860
_cell_angle_alpha 143.692399
_cell_angle_beta 129.533497
_cell_angle_gamma 19.124443
_cell_volume 527.790444
_symmetry_space_group_name_H-M "P -1"
_symmetry_group_IT_number 2
_symmetry_cell_setting 'triclinic'
loop_
_space_group_symop_operation_xyz
x,y,z
-x,-y,-z
loop_
_atom_site_type_symbol
_atom_site_label
_atom_site_fract_x
_atom_site_fract_y
_atom_site_fract_z
Si Si1 0.991339 0.764209 0.326263
Si Si2 0.806047 0.713688 0.412685
Si Si3 0.720754 0.563494 0.616163
Si Si4 0.559167 0.351997 0.976794
Si Si5 0.102688 0.694707 0.738129
Si Si6 0.611501 0.118602 0.800855
Si Si7 0.218854 0.492410 0.772317
O O1 0.158323 0.618483 0.996836
O O2 0.246445 0.589892 0.242093
O O3 0.500000 0.000000 0.500000
O O4 0.979047 0.862861 0.533649
O O5 0.882099 0.627910 0.412600
O O6 0.282113 0.456825 0.115851
O O7 0.750723 0.835592 0.696408
O O8 0.514908 0.835564 0.347036
O O9 0.738924 0.461150 0.410428
O O10 0.335287 0.819145 0.973847
O O11 0.743077 0.566638 0.482211
O O12 0.965511 0.183998 0.960875
O O13 0.577781 0.295257 0.714817
O O14 0.500000 0.500000 0.500000
O O15 0.206799 0.310619 0.026076
#
# Coordination Sequence:
#
# PCOD9094109 Si02
#       7
#     2   2   2   2   2   2   2
#     4   8  15  28  49  60  87 122 148 164 221 266
#     4   8  16  26  45  63  88 112 148 176 217 250
#     4  10  18  26  45  74  89 107 147 190 222 245
#     4   8  14  30  47  61  85 120 149 176 209 264
#     4   8  16  28  43  67  87 114 150 182 211 256
#     4  10  16  30  46  66  94 116 140 178 223 267
#     4   8  17  28  45  68  90 113 144 181 221 253
#
# _framework density 26.525677000000002
#
# number of rings (size 3 to 8) (size 9 to 14) (size 15 to 20)
#    1.714    1.714    1.429    0.857    0.000    0.571 
#    0.000    1.429    0.000    0.000    0.000    1.000 
#    0.000    0.714    0.000    0.000    0.000    0.000 
#
# Total GULP energy -77934.789661 kJ/mol
# GULP energy per Si atom -5566.770690 kJ/mol
# Density = 2.646530 g / cm^3
# Si number density = 26.525677 Si / 1000 Ang^3
#
#
#
# Elastic Constant Matrix: (Units=GPa)
#
#
# Indices 1 2 3 4 5 6 
#
# 1 63.1480 24.9334 19.4570 -9.7401 -0.1902 -2.2844
# 2 24.9334 99.8930 44.3474 -19.9009 -15.5896 1.8147
# 3 19.4570 44.3474 148.1249 -38.8702 -5.8823 21.7114
# 4 -9.7401 -19.9009 -38.8702 49.6081 14.6273 -9.2348
# 5 -0.1902 -15.5896 -5.8823 14.6273 36.4116 4.8202
# 6 -2.2844 1.8147 21.7114 -9.2348 4.8202 34.7462
#
#
#
# Elastic Compliance Matrix: (Units=1/GPa)
#
#
# Indices 1 2 3 4 5 6 
#
# 1 0.018328 -0.004147 -0.001072 0.002699 -0.003371 0.003276
# 2 -0.004147 0.013328 -0.003132 0.000759 0.004804 0.000524
# 3 -0.001072 -0.003132 0.009979 0.006011 -0.001577 -0.004326
# 4 0.002699 0.000759 0.006011 0.030261 -0.011646 0.006040
# 5 -0.003371 0.004804 -0.001577 -0.011646 0.034910 -0.007425
# 6 0.003276 0.000524 -0.004326 0.006040 -0.007425 0.034306
#
#
# Mechanical properties :
#
#
# Convention : Reuss Voigt Hill
#
# Bulk Modulus (GPa) = 40.10819 54.29352 47.20086
# Shear Modulus (GPa) = 30.09804 38.98172 34.53988
#
# Velocity S-wave (km/s) = 3.37215 3.83767 3.61242
# Velocity P-wave (km/s) = 5.50592 6.33638 5.93569
#
# Compressibility (1/GPa) = 0.02493256
#
# Stress axis : x y z
#
# Youngs Moduli (GPa) = 54.56124 75.03091 100.21525
#
# Poissons Ratio (x) = 0.31113 0.10741
# Poissons Ratio (y) = 0.22625 0.31391
# Poissons Ratio (z) = 0.05848 0.23502
#
# Static dielectric constant tensor:
#      x y z
#    x 2.158800 -0.075810 0.040260 
#    y -0.075810 2.109130 -0.036130 
#    z 0.040260 -0.036130 2.196720 
# 
# From -- ./inp_files/320803.got.cif
#   From: 2010.05.17/outbox.cif.g08.bks.cpg/sg2_161_cif.got.tgz:320803.got - 2010.06.03 11:33:40.
