data_PCOD9094699
_publ_section_title
;
Structure prediction by ZEFSAII (Michael W. Deem and Ramdas Pophale) SiO2 
 PCOD9094699
Probable space group: P -1
;
_chemical_formula_sum "Si O2"
_cell_formula_units_Z 16
_cell_length_a 8.237575
_cell_length_b 9.436074
_cell_length_c 17.141782
_cell_angle_alpha 53.654250
_cell_angle_beta 89.043618
_cell_angle_gamma 55.051500
_cell_volume 767.358044
_symmetry_space_group_name_H-M "P -1"
_symmetry_group_IT_number 2
_symmetry_cell_setting 'triclinic'
loop_
_space_group_symop_operation_xyz
x,y,z
-x,-y,-z
loop_
_atom_site_type_symbol
_atom_site_label
_atom_site_fract_x
_atom_site_fract_y
_atom_site_fract_z
Si Si1 0.040529 0.820437 0.146402
Si Si2 0.068455 0.733826 0.346832
Si Si3 0.545649 0.227114 0.500011
Si Si4 0.553586 0.379233 0.278971
Si Si5 0.004408 0.153792 0.279009
Si Si6 0.252281 0.214545 0.146388
Si Si7 0.625140 0.955562 0.346772
Si Si8 0.005928 0.747038 0.999997
O O1 0.027730 0.724656 0.258782
O O2 0.310150 0.654579 0.188167
O O3 0.964712 0.774547 0.084687
O O4 0.929560 0.097115 0.063951
O O5 0.330396 0.504328 0.441394
O O6 0.891972 0.761515 0.392003
O O7 0.008502 0.983163 0.277465
O O8 0.585573 0.268968 0.399742
O O9 0.447764 0.106417 0.558686
O O10 0.786107 0.045142 0.600233
O O11 0.766543 0.334771 0.266542
O O12 0.546407 0.214302 0.277370
O O13 0.066229 0.276489 0.188188
O O14 0.198296 0.462734 0.063926
O O15 0.489830 0.993631 0.258748
O O16 0.204687 0.154539 0.084674
#
# Coordination Sequence:
#
# PCOD9094699 Si02
#       8
#     2   2   2   2   2   2   2   2
#     4  10  20  38  60  86 114 150 188 238 284 332
#     4  10  20  36  57  85 116 151 189 230 283 343
#     4  10  20  34  60  82 116 148 194 232 280 326
#     4  10  20  36  57  85 116 151 189 230 283 343
#     4  10  20  36  57  85 116 151 189 230 283 343
#     4  10  20  38  60  86 114 150 188 238 284 332
#     4  10  20  36  57  85 116 151 189 230 283 343
#     4  10  20  38  62  82 114 152 188 236 292 332
#
# _framework density 20.850763000000001
#
# number of rings (size 3 to 8) (size 9 to 14) (size 15 to 20)
#    0.000    2.000    2.500    1.500    0.000    0.000 
#    0.000    8.750    0.000    0.000    0.000    0.000 
#    0.000    0.000    0.000    0.000    0.000    0.000 
#
# Total GULP energy -89172.594828 kJ/mol
# GULP energy per Si atom -5573.287177 kJ/mol
# Density = 2.080331 g / cm^3
# Si number density = 20.850763 Si / 1000 Ang^3
#
#
#
# Elastic Constant Matrix: (Units=GPa)
#
#
# Indices 1 2 3 4 5 6 
#
# 1 60.8359 33.5726 14.0451 10.2284 3.4015 -16.2457
# 2 33.5726 51.8534 17.1046 6.8606 9.8986 3.7623
# 3 14.0451 17.1046 72.3430 14.0074 8.4697 2.3478
# 4 10.2284 6.8606 14.0074 30.7117 14.1354 0.5088
# 5 3.4015 9.8986 8.4697 14.1354 19.3718 -2.5060
# 6 -16.2457 3.7623 2.3478 0.5088 -2.5060 33.2512
#
#
#
# Elastic Compliance Matrix: (Units=1/GPa)
#
#
# Indices 1 2 3 4 5 6 
#
# 1 0.043964 -0.032757 -0.001047 -0.020045 0.027681 0.027653
# 2 -0.032757 0.047342 -0.003607 0.017397 -0.032639 -0.023832
# 3 -0.001047 -0.003607 0.016146 -0.005721 -0.001017 -0.001233
# 4 -0.020045 0.017397 -0.005721 0.060979 -0.049436 -0.016017
# 5 0.027681 -0.032639 -0.001017 -0.049436 0.103298 0.025830
# 6 0.027653 -0.023832 -0.001233 -0.016017 0.025830 0.048560
#
#
# Mechanical properties :
#
#
# Convention : Reuss Voigt Hill
#
# Bulk Modulus (GPa) = 30.64876 34.94189 32.79532
# Shear Modulus (GPa) = 12.31562 24.68760 18.50161
#
# Velocity S-wave (km/s) = 2.43298 3.44468 2.98205
# Velocity P-wave (km/s) = 4.75642 5.71101 5.25543
#
# Compressibility (1/GPa) = 0.03262775
#
# Stress axis : x y z
#
# Youngs Moduli (GPa) = 22.74608 21.12289 61.93443
#
# Poissons Ratio (x) = 0.69193 0.06487
# Poissons Ratio (y) = 0.74510 0.22342
# Poissons Ratio (z) = 0.02382 0.07620
#
# Static dielectric constant tensor:
#      x y z
#    x 1.740960 0.027760 0.001800 
#    y 0.027760 1.762660 0.005670 
#    z 0.001800 0.005670 1.793760 
# 
# From -- ./inp_files/299770.got.cif
#   From: 2010.05.17/outbox.cif.g08.bks.cpg/sg2_150_cif.got.tgz:299770.got - 2010.06.03 11:33:40.
