data_PCOD9094071
_publ_section_title
;
Structure prediction by ZEFSAII (Michael W. Deem and Ramdas Pophale) SiO2 
 PCOD9094071
Probable space group: P -1
;
_chemical_formula_sum "Si O2"
_cell_formula_units_Z 16
_cell_length_a 12.182662
_cell_length_b 20.521326
_cell_length_c 6.727508
_cell_angle_alpha 47.275944
_cell_angle_beta 127.635065
_cell_angle_gamma 149.822488
_cell_volume 619.776003
_symmetry_space_group_name_H-M "P -1"
_symmetry_group_IT_number 2
_symmetry_cell_setting 'triclinic'
loop_
_space_group_symop_operation_xyz
x,y,z
-x,-y,-z
loop_
_atom_site_type_symbol
_atom_site_label
_atom_site_fract_x
_atom_site_fract_y
_atom_site_fract_z
Si Si1 0.141768 0.987177 0.604238
Si Si2 0.493206 0.321126 0.662760
Si Si3 0.826684 0.692710 0.786199
Si Si4 0.417495 0.767984 0.528821
Si Si5 0.968943 0.547483 0.670972
Si Si6 0.953537 0.745052 0.355654
Si Si7 0.286945 0.052256 0.194088
Si Si8 0.499281 0.608597 0.037802
O O1 0.403468 0.108098 0.687265
O O2 0.137926 0.999319 0.333102
O O3 0.000000 0.000000 0.500000
O O4 0.030498 0.835989 0.828814
O O5 0.350603 0.316516 0.386121
O O6 0.555623 0.407699 0.752670
O O7 0.717045 0.402329 0.640666
O O8 0.345986 0.167126 0.893407
O O9 0.905505 0.719943 0.590682
O O10 0.689666 0.536084 0.990929
O O11 0.158203 0.629954 0.545003
O O12 0.486686 0.855768 0.627375
O O13 0.509552 0.714408 0.766285
O O14 0.984037 0.659573 0.501061
O O15 0.000000 0.500000 0.000000
O O16 0.732538 0.675354 0.156230
O O17 0.160682 0.913980 0.222967
#
# Coordination Sequence:
#
# PCOD9094071 Si02
#       8
#     2   2   2   2   2   2   2   2
#     4   9  19  35  49  67  94 130 170 211 240 268
#     4  10  17  28  48  74 107 125 150 191 247 297
#     4  10  17  29  50  75  96 127 168 194 238 292
#     4   9  20  30  47  69 102 130 162 193 242 288
#     4  12  17  30  43  72 111 137 143 188 248 312
#     4  10  18  26  47  69 108 129 154 189 240 300
#     4   8  18  30  44  75  94 133 158 195 236 293
#     4  10  16  30  45  76 100 129 157 194 236 291
#
# _framework density 25.81578
#
# number of rings (size 3 to 8) (size 9 to 14) (size 15 to 20)
#    0.750    1.500    5.000    0.750    1.750    2.500 
#    0.000    0.625    0.000    0.750    0.000    0.875 
#    0.000    0.000    0.000    0.000    0.000    0.000 
#
# Total GULP energy -89367.897524 kJ/mol
# GULP energy per Si atom -5585.493595 kJ/mol
# Density = 2.575702 g / cm^3
# Si number density = 25.815780 Si / 1000 Ang^3
#
#
#
# Elastic Constant Matrix: (Units=GPa)
#
#
# Indices 1 2 3 4 5 6 
#
# 1 122.5633 42.5236 34.9576 -8.2977 -2.1863 9.6035
# 2 42.5236 141.9009 51.2914 -44.5817 2.5326 -3.6231
# 3 34.9576 51.2914 93.4616 -41.2301 14.7865 -6.7156
# 4 -8.2977 -44.5817 -41.2301 58.0624 -4.3689 1.9730
# 5 -2.1863 2.5326 14.7865 -4.3689 38.6977 -3.8747
# 6 9.6035 -3.6231 -6.7156 1.9730 -3.8747 51.1237
#
#
#
# Elastic Compliance Matrix: (Units=1/GPa)
#
#
# Indices 1 2 3 4 5 6 
#
# 1 0.010334 -0.002705 -0.004381 -0.003493 0.001796 -0.002437
# 2 -0.002705 0.010597 -0.002086 0.006298 0.000742 0.000798
# 3 -0.004381 -0.002086 0.019503 0.011084 -0.006076 0.002349
# 4 -0.003493 0.006298 0.011084 0.029280 -0.001407 0.001322
# 5 0.001796 0.000742 -0.006076 -0.001407 0.028168 0.001106
# 6 -0.002437 0.000798 0.002349 0.001322 0.001106 0.020416
#
#
# Mechanical properties :
#
#
# Convention : Reuss Voigt Hill
#
# Bulk Modulus (GPa) = 45.26795 68.38566 56.82680
# Shear Modulus (GPa) = 34.72120 44.85365 39.78743
#
# Velocity S-wave (km/s) = 3.67135 4.17280 3.93008
# Velocity P-wave (km/s) = 5.96195 7.05434 6.53102
#
# Compressibility (1/GPa) = 0.02209069
#
# Stress axis : x y z
#
# Youngs Moduli (GPa) = 96.77192 94.36197 51.27486
#
# Poissons Ratio (x) = 0.25523 0.22463
# Poissons Ratio (y) = 0.26175 0.10695
# Poissons Ratio (z) = 0.42395 0.19682
#
# Static dielectric constant tensor:
#      x y z
#    x 2.089890 -0.044090 -0.091250 
#    y -0.044090 2.117450 -0.009390 
#    z -0.091250 -0.009390 1.990530 
# 
# From -- ./inp_files/234743.got.cif
#   From: 2010.05.17/outbox.cif.g08.bks.cpg/sg2_118_cif.got.tgz:234743.got - 2010.06.03 11:33:40.
