data_PCOD9094177
_publ_section_title
;
Structure prediction by ZEFSAII (Michael W. Deem and Ramdas Pophale) SiO2 
 PCOD9094177
Probable space group: P -1
;
_chemical_formula_sum "Si O2"
_cell_formula_units_Z 16
_cell_length_a 11.939708
_cell_length_b 10.706221
_cell_length_c 13.957163
_cell_angle_alpha 147.146696
_cell_angle_beta 118.859294
_cell_angle_gamma 50.958751
_cell_volume 747.153088
_symmetry_space_group_name_H-M "P -1"
_symmetry_group_IT_number 2
_symmetry_cell_setting 'triclinic'
loop_
_space_group_symop_operation_xyz
x,y,z
-x,-y,-z
loop_
_atom_site_type_symbol
_atom_site_label
_atom_site_fract_x
_atom_site_fract_y
_atom_site_fract_z
Si Si1 0.469442 0.392976 0.175859
Si Si2 0.431999 0.176581 0.201933
Si Si3 0.057970 0.501112 0.729109
Si Si4 0.120653 0.021641 0.683778
Si Si5 0.229954 0.669579 0.785783
Si Si6 0.218315 0.450698 0.445730
Si Si7 0.859252 0.769274 0.977943
Si Si8 0.189746 0.914825 0.433369
O O1 0.501998 0.314592 0.253035
O O2 0.601710 0.409838 0.190902
O O3 0.325858 0.664904 0.287008
O O4 0.472279 0.134104 0.965807
O O5 0.373393 0.269048 0.343527
O O6 0.280142 0.253324 0.131381
O O7 0.152425 0.638593 0.827151
O O8 0.906666 0.620386 0.684311
O O9 0.146239 0.192659 0.546207
O O10 0.003671 0.545069 0.844976
O O11 0.139785 0.194667 0.885260
O O12 0.950541 0.131516 0.660996
O O13 0.169737 0.736012 0.564985
O O14 0.210024 0.960024 0.582923
O O15 0.218394 0.483810 0.579933
O O16 0.156288 0.964248 0.904937
#
# Coordination Sequence:
#
# PCOD9094177 Si02
#       8
#     2   2   2   2   2   2   2   2
#     4  10  20  35  51  76 110 142 164 214 263 313
#     4   9  18  35  54  79 104 132 172 222 269 295
#     4  10  20  34  55  78 108 140 172 212 258 305
#     4   9  18  34  56  80 104 131 174 219 269 298
#     4  10  20  34  55  79 105 142 174 211 254 310
#     4   9  17  34  57  80 101 130 181 223 257 292
#     4   9  19  35  56  83 100 129 179 226 257 296
#     4  10  20  35  52  76 112 140 164 215 260 316
#
# _framework density 21.414621
#
# number of rings (size 3 to 8) (size 9 to 14) (size 15 to 20)
#    0.000    2.500    1.250    0.750    1.750    1.500 
#    4.500    0.000    0.000    1.500    0.000    0.000 
#    0.000    0.000    0.000    0.000    0.000    0.000 
#
# Total GULP energy -89332.618307 kJ/mol
# GULP energy per Si atom -5583.288644 kJ/mol
# Density = 2.136588 g / cm^3
# Si number density = 21.414621 Si / 1000 Ang^3
#
#
#
# Elastic Constant Matrix: (Units=GPa)
#
#
# Indices 1 2 3 4 5 6 
#
# 1 98.6728 7.1413 15.0758 11.7708 -0.8701 -4.8204
# 2 7.1413 27.8761 19.0400 14.3482 -8.8551 -5.3789
# 3 15.0758 19.0400 74.9151 8.9619 -19.5031 -15.8726
# 4 11.7708 14.3482 8.9619 38.7187 -8.9759 -12.2542
# 5 -0.8701 -8.8551 -19.5031 -8.9759 31.8848 8.5588
# 6 -4.8204 -5.3789 -15.8726 -12.2542 8.5588 21.3861
#
#
#
# Elastic Compliance Matrix: (Units=1/GPa)
#
#
# Indices 1 2 3 4 5 6 
#
# 1 0.010862 -0.000206 -0.002355 -0.003282 -0.002010 -0.000427
# 2 -0.000206 0.053384 -0.011787 -0.018387 0.004503 -0.007705
# 3 -0.002355 -0.011787 0.020699 0.005938 0.007726 0.012178
# 4 -0.003282 -0.018387 0.005938 0.039581 0.004199 0.020042
# 5 -0.002010 0.004503 0.007726 0.004199 0.040444 -0.007366
# 6 -0.000427 -0.007705 0.012178 0.020042 -0.007366 0.068195
#
#
# Mechanical properties :
#
#
# Convention : Reuss Voigt Hill
#
# Bulk Modulus (GPa) = 17.77789 31.55312 24.66550
# Shear Modulus (GPa) = 17.81822 29.07839 23.44831
#
# Velocity S-wave (km/s) = 2.88767 3.68893 3.31262
# Velocity P-wave (km/s) = 4.40885 5.73678 5.11609
#
# Compressibility (1/GPa) = 0.05624966
#
# Stress axis : x y z
#
# Youngs Moduli (GPa) = 92.06307 18.73212 48.31078
#
# Poissons Ratio (x) = 0.00386 0.11376
# Poissons Ratio (y) = 0.01897 0.56945
# Poissons Ratio (z) = 0.21679 0.22080
#
# Static dielectric constant tensor:
#      x y z
#    x 1.784660 -0.017880 0.000170 
#    y -0.017880 1.783790 -0.011280 
#    z 0.000170 -0.011280 1.825050 
# 
# From -- ./inp_files/199685.got.cif
#   From: 2010.05.17/outbox.cif.g08.bks.cpg/sg2_100_cif.got.tgz:199685.got - 2010.06.03 11:33:40.
