data_PCOD9094830
_publ_section_title
;
Structure prediction by ZEFSAII (Michael W. Deem and Ramdas Pophale) SiO2 
 PCOD9094830
Probable space group: P -1
;
_chemical_formula_sum "Si O2"
_cell_formula_units_Z 15
_cell_length_a 12.135549
_cell_length_b 8.693536
_cell_length_c 14.821509
_cell_angle_alpha 80.832683
_cell_angle_beta 62.297913
_cell_angle_gamma 31.241067
_cell_volume 613.918767
_symmetry_space_group_name_H-M "P -1"
_symmetry_group_IT_number 2
_symmetry_cell_setting 'triclinic'
loop_
_space_group_symop_operation_xyz
x,y,z
-x,-y,-z
loop_
_atom_site_type_symbol
_atom_site_label
_atom_site_fract_x
_atom_site_fract_y
_atom_site_fract_z
Si Si1 0.826046 0.719527 0.634794
Si Si2 0.000000 0.000000 0.500000
Si Si3 0.563132 0.564809 0.334806
Si Si4 0.749926 0.490944 0.916262
Si Si5 0.612545 0.426570 0.137116
Si Si6 0.993331 0.264736 0.280553
Si Si7 0.877972 0.672434 0.933487
Si Si8 0.283793 0.508388 0.265618
O O1 0.697706 0.698819 0.714736
O O2 0.000000 0.500000 0.500000
O O3 0.008518 0.603333 0.652798
O O4 0.595143 0.099563 0.660316
O O5 0.683189 0.284092 0.575858
O O6 0.873748 0.251061 0.608826
O O7 0.720854 0.348361 0.201798
O O8 0.761826 0.389953 0.358243
O O9 0.886129 0.497997 0.895956
O O10 0.858468 0.311391 0.795351
O O11 0.752072 0.358579 0.006674
O O12 0.431587 0.908097 0.984281
O O13 0.564959 0.294890 0.166195
O O14 0.294494 0.848644 0.214192
O O15 0.969008 0.376764 0.184141
O O16 0.000000 0.500000 0.000000
#
# Coordination Sequence:
#
# PCOD9094830 Si02
#       8
#     2   1   2   2   2   2   2   2
#     4  11  22  40  62  89 126 161 214 268 306 363
#     4  10  22  42  62  84 122 168 204 258 308 364
#     4  10  21  40  66  88 125 161 207 254 319 366
#     4  10  20  37  61  92 126 163 205 249 314 375
#     4   9  21  39  62  90 129 164 202 254 307 381
#     4  10  21  39  62  94 122 165 208 255 312 378
#     4  10  20  34  61  96 129 156 198 256 316 374
#     4  11  21  40  64  89 123 170 209 255 313 366
#
# _framework density 24.433199999999999
#
# number of rings (size 3 to 8) (size 9 to 14) (size 15 to 20)
#    0.000    1.867    2.667    1.200    3.733    0.533 
#    0.000   11.333    0.000    9.600    0.000    0.000 
#    0.000    0.000    0.000    0.000    0.000    0.000 
#
# Total GULP energy -83589.472299 kJ/mol
# GULP energy per Si atom -5572.631487 kJ/mol
# Density = 2.437759 g / cm^3
# Si number density = 24.433200 Si / 1000 Ang^3
#
#
#
# Elastic Constant Matrix: (Units=GPa)
#
#
# Indices 1 2 3 4 5 6 
#
# 1 196.9221 29.9701 53.8961 6.4348 6.2611 8.4167
# 2 29.9701 89.4882 27.7984 -15.6801 -4.3396 2.1337
# 3 53.8961 27.7984 91.0713 -9.8128 -3.2610 13.9766
# 4 6.4348 -15.6801 -9.8128 31.6826 6.1323 -7.9903
# 5 6.2611 -4.3396 -3.2610 6.1323 39.9139 2.8871
# 6 8.4167 2.1337 13.9766 -7.9903 2.8871 20.5998
#
#
#
# Elastic Compliance Matrix: (Units=1/GPa)
#
#
# Indices 1 2 3 4 5 6 
#
# 1 0.006495 -0.001686 -0.003530 -0.003400 -0.000876 -0.001280
# 2 -0.001686 0.013881 -0.003089 0.007285 0.000101 0.004158
# 3 -0.003530 -0.003089 0.015540 0.001507 0.001868 -0.008459
# 4 -0.003400 0.007285 0.001507 0.041721 -0.006166 0.016659
# 5 -0.000876 0.000101 0.001868 -0.006166 0.026814 -0.007070
# 6 -0.001280 0.004158 -0.008459 0.016659 -0.007070 0.061828
#
#
# Mechanical properties :
#
#
# Convention : Reuss Voigt Hill
#
# Bulk Modulus (GPa) = 51.79942 66.75676 59.27809
# Shear Modulus (GPa) = 26.40986 36.16037 31.28512
#
# Velocity S-wave (km/s) = 3.29127 3.85121 3.58220
# Velocity P-wave (km/s) = 5.97409 6.86711 6.43611
#
# Compressibility (1/GPa) = 0.01930523
#
# Stress axis : x y z
#
# Youngs Moduli (GPa) = 153.97398 72.04051 64.35142
#
# Poissons Ratio (x) = 0.12148 0.22717
# Poissons Ratio (y) = 0.25964 0.19876
# Poissons Ratio (z) = 0.54354 0.22251
#
# Static dielectric constant tensor:
#      x y z
#    x 2.037570 0.100100 0.072500 
#    y 0.100100 2.375520 0.150170 
#    z 0.072500 0.150170 2.051220 
# 
# From -- ./inp_files/90247.got.cif
#   From: 2010.05.17/outbox.cif.g08.bks.cpg/sg2_46_cif.got.tgz:90247.got - 2010.06.03 11:33:40.
