data_PCOD9094659
_publ_section_title
;
Structure prediction by ZEFSAII (Michael W. Deem and Ramdas Pophale) SiO2 
 PCOD9094659
Probable space group: P -1
;
_chemical_formula_sum "Si O2"
_cell_formula_units_Z 14
_cell_length_a 9.792632
_cell_length_b 6.883129
_cell_length_c 11.969813
_cell_angle_alpha 98.258158
_cell_angle_beta 131.363854
_cell_angle_gamma 100.907604
_cell_volume 553.671866
_symmetry_space_group_name_H-M "P -1"
_symmetry_group_IT_number 2
_symmetry_cell_setting 'triclinic'
loop_
_space_group_symop_operation_xyz
x,y,z
-x,-y,-z
loop_
_atom_site_type_symbol
_atom_site_label
_atom_site_fract_x
_atom_site_fract_y
_atom_site_fract_z
Si Si1 0.952320 0.902021 0.289681
Si Si2 0.333570 0.694939 0.450130
Si Si3 0.764681 0.952538 0.716045
Si Si4 0.689326 0.809498 0.333820
Si Si5 0.686768 0.339281 0.301293
Si Si6 0.067461 0.576818 0.767596
Si Si7 0.344508 0.932367 0.106487
O O1 0.024379 0.014192 0.219758
O O2 0.762755 0.890077 0.254820
O O3 0.919095 0.655103 0.238004
O O4 0.137427 0.046273 0.478962
O O5 0.288050 0.865475 0.363596
O O6 0.296096 0.715841 0.564557
O O7 0.154343 0.471731 0.314725
O O8 0.564826 0.745123 0.568559
O O9 0.772034 0.001670 0.854495
O O10 0.667122 0.566472 0.310243
O O11 0.487640 0.839891 0.243588
O O12 0.868274 0.355745 0.320493
O O13 0.486539 0.148353 0.140083
O O14 0.221913 0.746367 0.943256
#
# Coordination Sequence:
#
# PCOD9094659 Si02
#       7
#     2   2   2   2   2   2   2
#     4   9  19  36  57  86 115 146 198 243 284 341
#     4   9  17  32  56  82 110 147 194 237 279 337
#     4   9  18  36  59  85 117 154 194 238 293 350
#     4  10  21  38  61  88 116 153 198 246 293 341
#     4  10  21  37  58  87 119 152 197 246 290 342
#     4  10  20  34  59  90 117 154 194 238 296 349
#     4  11  22  38  60  86 123 158 190 236 295 360
#
# _framework density 25.285736
#
# number of rings (size 3 to 8) (size 9 to 14) (size 15 to 20)
#    0.000    2.286    0.000    5.143    0.000    6.857 
#    0.000    7.857    0.000    0.000    0.000   43.000 
#    0.000    0.000    0.000    0.000    0.000    0.000 
#
# Total GULP energy -78239.231264 kJ/mol
# GULP energy per Si atom -5588.516519 kJ/mol
# Density = 2.522818 g / cm^3
# Si number density = 25.285736 Si / 1000 Ang^3
#
#
#
# Elastic Constant Matrix: (Units=GPa)
#
#
# Indices 1 2 3 4 5 6 
#
# 1 94.4167 35.7632 7.1641 -0.8151 -2.9928 35.2910
# 2 35.7632 148.5407 50.9863 37.2672 -0.4682 8.3722
# 3 7.1641 50.9863 128.9449 39.0728 7.4742 7.6104
# 4 -0.8151 37.2672 39.0728 50.0809 6.6117 -0.9123
# 5 -2.9928 -0.4682 7.4742 6.6117 13.4747 2.1895
# 6 35.2910 8.3722 7.6104 -0.9123 2.1895 49.5917
#
#
#
# Elastic Compliance Matrix: (Units=1/GPa)
#
#
# Indices 1 2 3 4 5 6 
#
# 1 0.016408 -0.004001 0.000443 0.002164 0.004019 -0.011207
# 2 -0.004001 0.009923 -0.002076 -0.006267 0.003484 0.001222
# 3 0.000443 -0.002076 0.010779 -0.006561 -0.002468 -0.001631
# 4 0.002164 -0.006267 -0.006561 0.031366 -0.011752 0.001621
# 5 0.004019 0.003484 -0.002468 -0.011752 0.083495 -0.006972
# 6 -0.011207 0.001222 -0.001631 0.001621 -0.006972 0.028521
#
#
# Mechanical properties :
#
#
# Convention : Reuss Voigt Hill
#
# Bulk Modulus (GPa) = 38.69780 62.19216 50.44498
# Shear Modulus (GPa) = 24.95319 41.16205 33.05762
#
# Velocity S-wave (km/s) = 3.14482 4.03907 3.61967
# Velocity P-wave (km/s) = 5.34078 6.81185 6.12067
#
# Compressibility (1/GPa) = 0.02584127
#
# Stress axis : x y z
#
# Youngs Moduli (GPa) = 60.94514 100.78030 92.77142
#
# Poissons Ratio (x) = 0.40325 -0.04112
# Poissons Ratio (y) = 0.24386 0.19262
# Poissons Ratio (z) = -0.02701 0.20925
#
# Static dielectric constant tensor:
#      x y z
#    x 2.050970 -0.004500 0.009210 
#    y -0.004500 2.003350 -0.000690 
#    z 0.009210 -0.000690 2.013310 
# 
# From -- ./inp_files/417868.got.cif
#   From: 2010.05.17/outbox.cif.g08.bks.cpg/sg2_209_cif.got.tgz:417868.got - 2010.06.03 11:33:40.
