data_PCOD9094607
_publ_section_title
;
Structure prediction by ZEFSAII (Michael W. Deem and Ramdas Pophale) SiO2 
 PCOD9094607
Probable space group: P -1
;
_chemical_formula_sum "Si O2"
_cell_formula_units_Z 15
_cell_length_a 5.190591
_cell_length_b 22.538619
_cell_length_c 5.237598
_cell_angle_alpha 113.738507
_cell_angle_beta 98.696003
_cell_angle_gamma 98.640453
_cell_volume 539.150747
_symmetry_space_group_name_H-M "P -1"
_symmetry_group_IT_number 2
_symmetry_cell_setting 'triclinic'
loop_
_space_group_symop_operation_xyz
x,y,z
-x,-y,-z
loop_
_atom_site_type_symbol
_atom_site_label
_atom_site_fract_x
_atom_site_fract_y
_atom_site_fract_z
Si Si1 0.298879 0.046988 0.600009
Si Si2 0.602107 0.298914 0.381846
Si Si3 0.011635 0.379958 0.218591
Si Si4 0.000000 0.500000 0.500000
Si Si5 0.866051 0.742677 0.159655
Si Si6 0.531625 0.439324 0.718261
Si Si7 0.865347 0.921266 0.867566
Si Si8 0.892045 0.194004 0.213489
O O1 0.295433 0.095207 0.446425
O O2 0.500000 0.000000 0.500000
O O3 0.328829 0.087350 0.935186
O O4 0.000000 0.000000 0.500000
O O5 0.409005 0.279106 0.073252
O O6 0.509112 0.358859 0.618569
O O7 0.881178 0.335040 0.354264
O O8 0.664419 0.228580 0.351367
O O9 0.049020 0.327493 0.927190
O O10 0.267013 0.433545 0.471811
O O11 0.858099 0.432753 0.184144
O O12 0.803655 0.464756 0.646914
O O13 0.049964 0.789318 0.050345
O O14 0.868616 0.772503 0.492599
O O15 0.500000 0.500000 0.000000
O O16 0.094075 0.882044 0.879103
O O17 0.000000 0.000000 0.000000
#
# Coordination Sequence:
#
# PCOD9094607 Si02
#       8
#     2   2   2   1   2   2   2   2
#     4  10  21  42  69 101 144 187 232 293 364 441
#     4   9  22  43  65  96 140 189 233 300 363 426
#     4   9  20  38  60  90 137 174 234 290 351 431
#     4  10  20  34  58  94 126 178 222 290 358 416
#     4  10  23  42  65  98 132 186 237 296 353 430
#     4  10  21  38  62  99 137 182 241 298 365 435
#     4  10  22  43  69 106 140 183 234 299 364 443
#     4  11  23  45  69  98 142 182 245 291 364 441
#
# _framework density 27.821535000000001
#
# number of rings (size 3 to 8) (size 9 to 14) (size 15 to 20)
#    0.000    2.133    0.000    1.600    0.000    8.533 
#   14.400    4.000    0.000    0.000    0.000    0.000 
#    0.000    0.000    0.000    0.000    0.000    0.000 
#
# Total GULP energy -83585.034373 kJ/mol
# GULP energy per Si atom -5572.335625 kJ/mol
# Density = 2.775821 g / cm^3
# Si number density = 27.821535 Si / 1000 Ang^3
#
#
#
# Elastic Constant Matrix: (Units=GPa)
#
#
# Indices 1 2 3 4 5 6 
#
# 1 123.0863 40.4213 42.7881 5.5362 -30.2349 -27.6504
# 2 40.4213 147.7298 40.1118 28.3089 -22.3941 -50.5331
# 3 42.7881 40.1118 121.4843 -4.1474 -19.7613 5.6051
# 4 5.5362 28.3089 -4.1474 59.2363 0.1961 -10.4276
# 5 -30.2349 -22.3941 -19.7613 0.1961 35.5246 11.7295
# 6 -27.6504 -50.5331 5.6051 -10.4276 11.7295 40.3789
#
#
#
# Elastic Compliance Matrix: (Units=1/GPa)
#
#
# Indices 1 2 3 4 5 6 
#
# 1 0.013020 0.002610 -0.004928 -0.000937 0.006440 0.010753
# 2 0.002610 0.016816 -0.007438 -0.004898 0.001382 0.022198
# 3 -0.004928 -0.007438 0.013812 0.002312 0.003773 -0.015100
# 4 -0.000937 -0.004898 0.002312 0.019217 -0.002215 -0.001486
# 5 0.006440 0.001382 0.003773 -0.002215 0.038655 -0.006186
# 6 0.010753 0.022198 -0.015100 -0.001486 -0.006186 0.063418
#
#
# Mechanical properties :
#
#
# Convention : Reuss Voigt Hill
#
# Bulk Modulus (GPa) = 41.43281 70.99363 56.21322
# Shear Modulus (GPa) = 25.97452 44.95991 35.46722
#
# Velocity S-wave (km/s) = 3.05882 4.02433 3.57432
# Velocity P-wave (km/s) = 5.23449 6.86779 6.10600
#
# Compressibility (1/GPa) = 0.02413546
#
# Stress axis : x y z
#
# Youngs Moduli (GPa) = 76.80398 59.46827 72.39824
#
# Poissons Ratio (x) = -0.15519 0.35678
# Poissons Ratio (y) = -0.20043 0.53850
# Poissons Ratio (z) = 0.37850 0.44232
#
# Static dielectric constant tensor:
#      x y z
#    x 1.983530 0.294600 -0.139300 
#    y 0.294600 1.748320 0.152040 
#    z -0.139300 0.152040 1.852120 
# 
# From -- ./inp_files/13709.got.cif
#   From: 2010.05.17/outbox.cif.g08.bks.cpg/sg2_7_cif.got.tgz:13709.got - 2010.06.03 11:33:40.
