data_PCOD9094020
_publ_section_title
;
Structure prediction by ZEFSAII (Michael W. Deem and Ramdas Pophale) SiO2 
 PCOD9094020
Probable space group: P -1
;
_chemical_formula_sum "Si O2"
_cell_formula_units_Z 16
_cell_length_a 26.681797
_cell_length_b 14.722252
_cell_length_c 26.608009
_cell_angle_alpha 28.171836
_cell_angle_beta 169.287818
_cell_angle_gamma 153.525274
_cell_volume 865.844505
_symmetry_space_group_name_H-M "P -1"
_symmetry_group_IT_number 2
_symmetry_cell_setting 'triclinic'
loop_
_space_group_symop_operation_xyz
x,y,z
-x,-y,-z
loop_
_atom_site_type_symbol
_atom_site_label
_atom_site_fract_x
_atom_site_fract_y
_atom_site_fract_z
Si Si1 0.278097 0.088382 0.763692
Si Si2 0.636514 0.815865 0.094200
Si Si3 0.415533 0.251496 0.038671
Si Si4 0.129056 0.807793 0.413149
Si Si5 0.150145 0.137500 0.128221
Si Si6 0.015993 0.560038 0.622798
Si Si7 0.653065 0.556798 0.908313
Si Si8 0.563188 0.950433 0.680764
O O1 0.225637 0.031367 0.798976
O O2 0.415694 0.334924 0.777362
O O3 0.000000 0.000000 0.500000
O O4 0.500000 0.000000 0.000000
O O5 0.672603 0.842033 0.057791
O O6 0.749827 0.627942 0.311117
O O7 0.298496 0.755017 0.800192
O O8 0.146399 0.142893 0.862752
O O9 0.500000 0.500000 0.000000
O O10 0.697636 0.218128 0.354588
O O11 0.373903 0.924042 0.557506
O O12 0.977097 0.600189 0.334423
O O13 0.255269 0.357950 0.098770
O O14 0.898622 0.082922 0.948429
O O15 0.408469 0.064393 0.435856
O O16 0.000000 0.000000 0.000000
O O17 0.082911 0.470280 0.785744
O O18 0.556865 0.730065 0.759094
#
# Coordination Sequence:
#
# PCOD9094020 Si02
#       8
#     2   2   2   2   2   2   2   2
#     4  11  24  39  55  78 108 144 191 230 263 313
#     4  11  22  35  51  72 104 142 183 227 261 307
#     4  12  21  33  49  76 106 139 190 216 255 331
#     4  12  20  31  48  73 110 140 174 214 259 321
#     4  10  20  34  52  77 107 140 186 221 262 330
#     4  11  19  31  49  73 103 142 179 211 258 321
#     4  10  21  36  57  77 107 151 185 225 275 314
#     4  11  22  34  51  79 111 145 178 216 269 333
#
# _framework density 18.479068999999999
#
# number of rings (size 3 to 8) (size 9 to 14) (size 15 to 20)
#    0.000    1.000    2.500    8.625    0.000    5.000 
#    0.000    0.000    0.000    0.000    0.000    0.000 
#    0.000   20.000    0.000    0.000    0.000    0.000 
#
# Total GULP energy -89110.551070 kJ/mol
# GULP energy per Si atom -5569.409442 kJ/mol
# Density = 1.843701 g / cm^3
# Si number density = 18.479069 Si / 1000 Ang^3
#
#
#
# Elastic Constant Matrix: (Units=GPa)
#
#
# Indices 1 2 3 4 5 6 
#
# 1 104.7995 25.9084 17.9902 5.7678 -4.6383 -10.2658
# 2 25.9084 43.5133 17.7257 7.8116 -4.7243 2.4769
# 3 17.9902 17.7257 100.8997 6.4231 -11.9693 -2.7227
# 4 5.7678 7.8116 6.4231 24.2940 0.2866 -1.6509
# 5 -4.6383 -4.7243 -11.9693 0.2866 36.1816 9.8387
# 6 -10.2658 2.4769 -2.7227 -1.6509 9.8387 26.0437
#
#
#
# Elastic Compliance Matrix: (Units=1/GPa)
#
#
# Indices 1 2 3 4 5 6 
#
# 1 0.011998 -0.007288 -0.000863 0.000134 -0.001284 0.005826
# 2 -0.007288 0.031068 -0.003360 -0.007988 0.004337 -0.008324
# 3 -0.000863 -0.003360 0.011138 -0.001709 0.003196 -0.000172
# 4 0.000134 -0.007988 -0.001709 0.044506 -0.003213 0.004669
# 5 -0.001284 0.004337 0.003196 -0.003213 0.032696 -0.013140
# 6 0.005826 -0.008324 -0.000172 0.004669 -0.013140 0.046727
#
#
# Mechanical properties :
#
#
# Convention : Reuss Voigt Hill
#
# Bulk Modulus (GPa) = 32.06789 41.38454 36.72622
# Shear Modulus (GPa) = 23.63520 29.80974 26.72247
#
# Velocity S-wave (km/s) = 3.58023 4.02078 3.80688
# Velocity P-wave (km/s) = 5.87214 6.63321 6.26424
#
# Compressibility (1/GPa) = 0.03118384
#
# Stress axis : x y z
#
# Youngs Moduli (GPa) = 83.34570 32.18730 89.78133
#
# Poissons Ratio (x) = 0.23457 0.07745
# Poissons Ratio (y) = 0.60739 0.30168
# Poissons Ratio (z) = 0.07190 0.10815
#
# Static dielectric constant tensor:
#      x y z
#    x 2.265720 0.427280 0.115960 
#    y 0.427280 1.926780 0.061420 
#    z 0.115960 0.061420 1.695690 
# 
# From -- ./inp_files/621299.got.cif
#   From: 2010.05.17/outbox.cif.g08.bks.cpg/sg2_311_cif.got.tgz:621299.got - 2010.06.03 11:33:40.
