data_PCOD9094532
_publ_section_title
;
Structure prediction by ZEFSAII (Michael W. Deem and Ramdas Pophale) SiO2 
 PCOD9094532
Probable space group: P -1
;
_chemical_formula_sum "Si O2"
_cell_formula_units_Z 16
_cell_length_a 14.616877
_cell_length_b 8.812066
_cell_length_c 11.443264
_cell_angle_alpha 86.817755
_cell_angle_beta 153.961857
_cell_angle_gamma 90.395376
_cell_volume 642.907269
_symmetry_space_group_name_H-M "P -1"
_symmetry_group_IT_number 2
_symmetry_cell_setting 'triclinic'
loop_
_space_group_symop_operation_xyz
x,y,z
-x,-y,-z
loop_
_atom_site_type_symbol
_atom_site_label
_atom_site_fract_x
_atom_site_fract_y
_atom_site_fract_z
Si Si1 0.561977 0.288997 0.115361
Si Si2 0.870597 0.058553 0.708011
Si Si3 0.777766 0.513768 0.186065
Si Si4 0.288872 0.114540 0.259643
Si Si5 0.044059 0.608237 0.843700
Si Si6 0.740863 0.383209 0.561121
Si Si7 0.522818 0.330725 0.644744
Si Si8 0.362850 0.153235 0.683649
O O1 0.630884 0.402670 0.087151
O O2 0.714246 0.339967 0.393419
O O3 0.345831 0.323681 0.938664
O O4 0.495234 0.161086 0.953149
O O5 0.766021 0.211711 0.641583
O O6 0.840753 0.923842 0.770914
O O7 0.730138 0.008645 0.440860
O O8 0.112205 0.087768 0.961519
O O9 0.832911 0.465368 0.122315
O O10 0.000000 0.500000 0.500000
O O11 0.370186 0.277841 0.370607
O O12 0.500000 0.000000 0.500000
O O13 0.944149 0.474028 0.801129
O O14 0.847671 0.724416 0.568660
O O15 0.237567 0.679773 0.122374
O O16 0.568445 0.504602 0.415611
O O17 0.499239 0.208822 0.728657
#
# Coordination Sequence:
#
# PCOD9094532 Si02
#       8
#     2   2   2   2   2   2   2   2
#     4  11  19  30  53  85 121 154 191 221 275 325
#     4  10  24  43  58  84 120 143 189 242 290 343
#     4  11  16  29  52  82 113 155 194 231 257 320
#     4  10  22  45  69  80 102 151 196 240 291 347
#     4  11  18  32  59  85 116 148 194 234 269 325
#     4  11  23  35  55  90 125 151 175 237 294 331
#     4  10  20  36  61  90 111 143 199 237 279 336
#     4  10  20  34  58  84 113 162 196 225 266 335
#
# _framework density 24.886949000000001
#
# number of rings (size 3 to 8) (size 9 to 14) (size 15 to 20)
#    0.000    1.500    5.000    2.250    0.000    3.000 
#    0.000    1.250    0.000    1.500    0.000    0.000 
#    0.000    0.000    0.000    0.000    0.000    0.000 
#
# Total GULP energy -89152.297946 kJ/mol
# GULP energy per Si atom -5572.018622 kJ/mol
# Density = 2.483031 g / cm^3
# Si number density = 24.886949 Si / 1000 Ang^3
#
#
#
# Elastic Constant Matrix: (Units=GPa)
#
#
# Indices 1 2 3 4 5 6 
#
# 1 76.4980 20.9306 28.8725 15.2252 -2.8436 -17.6041
# 2 20.9306 119.8484 43.7603 34.7921 -0.6563 -12.0738
# 3 28.8725 43.7603 166.7024 41.3222 1.3592 -3.9460
# 4 15.2252 34.7921 41.3222 37.9528 -6.5573 -1.7193
# 5 -2.8436 -0.6563 1.3592 -6.5573 40.1116 8.8253
# 6 -17.6041 -12.0738 -3.9460 -1.7193 8.8253 26.4924
#
#
#
# Elastic Compliance Matrix: (Units=1/GPa)
#
#
# Indices 1 2 3 4 5 6 
#
# 1 0.017241 0.000263 -0.001400 -0.005482 -0.002207 0.011747
# 2 0.000263 0.012258 -0.000313 -0.011236 -0.002918 0.005958
# 3 -0.001400 -0.000313 0.008508 -0.008727 -0.001875 0.000252
# 4 -0.005482 -0.011236 -0.008727 0.049629 0.010081 -0.010201
# 5 -0.002207 -0.002918 -0.001875 0.010081 0.029104 -0.012116
# 6 0.011747 0.005958 0.000252 -0.010201 -0.012116 0.051680
#
#
# Mechanical properties :
#
#
# Convention : Reuss Voigt Hill
#
# Bulk Modulus (GPa) = 28.48474 61.13061 44.80767
# Shear Modulus (GPa) = 27.31891 38.87705 33.09798
#
# Velocity S-wave (km/s) = 3.31678 3.95669 3.65078
# Velocity P-wave (km/s) = 5.11259 6.74466 5.98452
#
# Compressibility (1/GPa) = 0.03510652
#
# Stress axis : x y z
#
# Youngs Moduli (GPa) = 58.00059 81.57661 117.53721
#
# Poissons Ratio (x) = -0.02146 0.16457
# Poissons Ratio (y) = -0.01526 0.03684
# Poissons Ratio (z) = 0.08121 0.02557
#
# Static dielectric constant tensor:
#      x y z
#    x 1.978250 -0.009610 -0.130540 
#    y -0.009610 2.054600 0.020330 
#    z -0.130540 0.020330 2.241230 
# 
# From -- ./inp_files/537469.got.cif
#   From: 2010.05.17/outbox.cif.g08.bks.cpg/sg2_269_cif.got.tgz:537469.got - 2010.06.03 11:33:40.
