data_PCOD9094716
_publ_section_title
;
Structure prediction by ZEFSAII (Michael W. Deem and Ramdas Pophale) SiO2 
 PCOD9094716
Probable space group: P -1
;
_chemical_formula_sum "Si O2"
_cell_formula_units_Z 14
_cell_length_a 9.365148
_cell_length_b 12.439534
_cell_length_c 8.795684
_cell_angle_alpha 58.938739
_cell_angle_beta 98.674701
_cell_angle_gamma 122.483681
_cell_volume 729.034421
_symmetry_space_group_name_H-M "P -1"
_symmetry_group_IT_number 2
_symmetry_cell_setting 'triclinic'
loop_
_space_group_symop_operation_xyz
x,y,z
-x,-y,-z
loop_
_atom_site_type_symbol
_atom_site_label
_atom_site_fract_x
_atom_site_fract_y
_atom_site_fract_z
Si Si1 0.809810 0.150231 0.549590
Si Si2 0.087532 0.141919 0.800774
Si Si3 0.172879 0.629557 0.849479
Si Si4 0.507209 0.084083 0.184038
Si Si5 0.117981 0.416786 0.745327
Si Si6 0.396870 0.117548 0.823151
Si Si7 0.224598 0.652957 0.344876
O O1 0.858264 0.253702 0.333222
O O2 0.775413 0.242773 0.600083
O O3 0.959564 0.135342 0.655849
O O4 0.625800 0.992141 0.640837
O O5 0.138706 0.280448 0.820414
O O6 0.249466 0.148035 0.749385
O O7 0.000000 0.000000 0.000000
O O8 0.343736 0.744529 0.887670
O O9 0.216864 0.539156 0.801635
O O10 0.000000 0.500000 0.000000
O O11 0.598340 0.996821 0.209652
O O12 0.388342 0.060392 0.035557
O O13 0.161376 0.497581 0.529044
O O14 0.918332 0.361166 0.781522
O O15 0.584181 0.268546 0.738751
#
# Coordination Sequence:
#
# PCOD9094716 Si02
#       7
#     2   2   2   2   2   2   2
#     4   9  19  38  58  84 110 150 189 231 281 327
#     4  11  21  35  60  83 115 147 182 234 283 333
#     4  11  22  35  60  84 113 148 191 236 276 330
#     4  10  20  36  59  84 112 147 194 232 267 338
#     4   9  19  35  55  82 112 146 182 231 286 324
#     4  10  20  34  60  87 107 146 195 229 273 332
#     4   8  16  34  58  81 108 141 192 235 264 327
#
# _framework density 19.203482000000001
#
# number of rings (size 3 to 8) (size 9 to 14) (size 15 to 20)
#    0.000    2.286    1.429    2.143    4.000    0.571 
#    0.000    1.429    0.000    0.000    0.000    0.000 
#    0.000    0.000    0.000    0.000    0.000    0.000 
#
# Total GULP energy -77975.014741 kJ/mol
# GULP energy per Si atom -5569.643910 kJ/mol
# Density = 1.915977 g / cm^3
# Si number density = 19.203482 Si / 1000 Ang^3
#
#
#
# Elastic Constant Matrix: (Units=GPa)
#
#
# Indices 1 2 3 4 5 6 
#
# 1 121.4957 29.4518 34.0196 -10.7687 5.3228 3.1966
# 2 29.4518 101.8634 6.9564 -10.4698 -0.5619 -0.0294
# 3 34.0196 6.9564 74.3161 -15.6981 -0.9374 6.5349
# 4 -10.7687 -10.4698 -15.6981 32.7122 5.6838 0.2826
# 5 5.3228 -0.5619 -0.9374 5.6838 26.1300 -11.5137
# 6 3.1966 -0.0294 6.5349 0.2826 -11.5137 26.7742
#
#
#
# Elastic Compliance Matrix: (Units=1/GPa)
#
#
# Indices 1 2 3 4 5 6 
#
# 1 0.010306 -0.002597 -0.004124 0.001167 -0.003285 -0.001652
# 2 -0.002597 0.010818 0.000782 0.002939 0.000240 0.000203
# 3 -0.004124 0.000782 0.017273 0.007621 -0.002291 -0.004788
# 4 0.001167 0.002939 0.007621 0.037571 -0.011262 -0.007236
# 5 -0.003285 0.000240 -0.002291 -0.011262 0.051552 0.023239
# 6 -0.001652 0.000203 -0.004788 -0.007236 0.023239 0.048785
#
#
# Mechanical properties :
#
#
# Convention : Reuss Voigt Hill
#
# Bulk Modulus (GPa) = 37.70890 48.72566 43.21728
# Shear Modulus (GPa) = 25.37783 32.27310 28.82546
#
# Velocity S-wave (km/s) = 3.63922 4.10394 3.87855
# Velocity P-wave (km/s) = 6.11046 6.91989 6.52773
#
# Compressibility (1/GPa) = 0.02651894
#
# Stress axis : x y z
#
# Youngs Moduli (GPa) = 97.03217 92.43900 57.89470
#
# Poissons Ratio (x) = 0.24004 0.23877
# Poissons Ratio (y) = 0.25196 -0.04528
# Poissons Ratio (z) = 0.40018 -0.07230
#
# Static dielectric constant tensor:
#      x y z
#    x 1.661380 0.042060 -0.033340 
#    y 0.042060 1.719950 -0.011690 
#    z -0.033340 -0.011690 1.769700 
# 
# From -- ./inp_files/175400.got.cif
#   From: 2010.05.17/outbox.cif.g08.bks.cpg/sg2_88_cif.got.tgz:175400.got - 2010.06.03 11:33:40.
