data_PCOD9094336
_publ_section_title
;
Structure prediction by ZEFSAII (Michael W. Deem and Ramdas Pophale) SiO2 
 PCOD9094336
Probable space group: P -1
;
_chemical_formula_sum "Si O2"
_cell_formula_units_Z 16
_cell_length_a 23.422374
_cell_length_b 14.144804
_cell_length_c 7.480896
_cell_angle_alpha 129.043935
_cell_angle_beta 46.414630
_cell_angle_gamma 154.455282
_cell_volume 773.900103
_symmetry_space_group_name_H-M "P -1"
_symmetry_group_IT_number 2
_symmetry_cell_setting 'triclinic'
loop_
_space_group_symop_operation_xyz
x,y,z
-x,-y,-z
loop_
_atom_site_type_symbol
_atom_site_label
_atom_site_fract_x
_atom_site_fract_y
_atom_site_fract_z
Si Si1 0.146454 0.771080 0.664016
Si Si2 0.829394 0.646364 0.411689
Si Si3 0.823009 0.696251 0.861910
Si Si4 0.633888 0.179003 0.171793
Si Si5 0.158541 0.139942 0.656975
Si Si6 0.861473 0.280176 0.780118
Si Si7 0.126340 0.903252 0.179398
Si Si8 0.316725 0.740959 0.265935
O O1 0.162917 0.819279 0.475255
O O2 0.220327 0.735945 0.498703
O O3 0.979469 0.533541 0.780607
O O4 0.197739 0.938535 0.891203
O O5 0.799681 0.694766 0.702782
O O6 0.712698 0.391037 0.350017
O O7 0.984251 0.788873 0.285133
O O8 0.834486 0.728094 0.316879
O O9 0.753649 0.476389 0.787275
O O10 0.774311 0.738193 0.153520
O O11 0.992628 0.897122 0.761216
O O12 0.466956 0.952828 0.291238
O O13 0.719268 0.165251 0.011501
O O14 0.656213 0.228409 0.969324
O O15 0.211544 0.102084 0.365609
O O16 0.914332 0.261157 0.799331
#
# Coordination Sequence:
#
# PCOD9094336 Si02
#       8
#     2   2   2   2   2   2   2   2
#     4  10  20  34  56  85 117 148 186 238 292 342
#     4  11  21  36  58  89 118 150 194 244 284 342
#     4  10  20  35  57  84 115 148 196 239 282 336
#     4  10  21  38  59  87 123 153 186 240 295 342
#     4  10  22  37  56  86 118 154 193 246 283 326
#     4  10  21  35  54  86 118 151 182 240 295 337
#     4  11  21  33  57  84 117 148 189 235 287 346
#     4  10  21  38  60  89 119 152 192 239 292 343
#
# _framework density 20.674503999999999
#
# number of rings (size 3 to 8) (size 9 to 14) (size 15 to 20)
#    0.000    1.750    2.500    3.375    1.750    4.500 
#    0.000    0.000    0.000    1.500    3.250    0.000 
#    0.000    0.000    0.000    0.000    0.000    0.000 
#
# Total GULP energy -89345.759691 kJ/mol
# GULP energy per Si atom -5584.109981 kJ/mol
# Density = 2.062745 g / cm^3
# Si number density = 20.674504 Si / 1000 Ang^3
#
#
#
# Elastic Constant Matrix: (Units=GPa)
#
#
# Indices 1 2 3 4 5 6 
#
# 1 33.1450 2.3372 8.9766 -1.4099 12.8480 -3.8256
# 2 2.3372 59.9345 34.1632 9.9465 0.3980 -0.9917
# 3 8.9766 34.1632 127.1443 33.7052 21.9829 12.1492
# 4 -1.4099 9.9465 33.7052 25.1433 4.6732 -0.7560
# 5 12.8480 0.3980 21.9829 4.6732 18.5128 2.0570
# 6 -3.8256 -0.9917 12.1492 -0.7560 2.0570 22.3385
#
#
#
# Elastic Compliance Matrix: (Units=1/GPa)
#
#
# Indices 1 2 3 4 5 6 
#
# 1 0.046117 -0.003020 -0.000384 0.011266 -0.035622 0.011634
# 2 -0.003020 0.021108 -0.007492 -0.000268 0.010212 0.003545
# 3 -0.000384 -0.007492 0.018766 -0.019568 -0.015827 -0.009810
# 4 0.011266 -0.000268 -0.019568 0.067826 -0.003383 0.015167
# 5 -0.035622 0.010212 -0.015827 -0.003383 0.098862 -0.006257
# 6 0.011634 0.003545 -0.009810 0.015167 -0.006257 0.053340
#
#
# Mechanical properties :
#
#
# Convention : Reuss Voigt Hill
#
# Bulk Modulus (GPa) = 15.57617 34.57531 25.07574
# Shear Modulus (GPa) = 14.31794 24.84869 19.58332
#
# Velocity S-wave (km/s) = 2.63447 3.47060 3.08103
# Velocity P-wave (km/s) = 4.09930 5.72888 4.98118
#
# Compressibility (1/GPa) = 0.06420064
#
# Stress axis : x y z
#
# Youngs Moduli (GPa) = 21.68377 47.37447 53.28692
#
# Poissons Ratio (x) = 0.14308 0.02045
# Poissons Ratio (y) = 0.06549 0.39922
# Poissons Ratio (z) = 0.00832 0.35492
#
# Static dielectric constant tensor:
#      x y z
#    x 1.733060 0.002310 0.031610 
#    y 0.002310 1.714530 0.032410 
#    z 0.031610 0.032410 1.822940 
# 
# From -- ./inp_files/357622.got.cif
#   From: 2010.05.17/outbox.cif.g08.bks.cpg/sg2_179_cif.got.tgz:357622.got - 2010.06.03 11:33:40.
