data_PCOD9094437
_publ_section_title
;
Structure prediction by ZEFSAII (Michael W. Deem and Ramdas Pophale) SiO2 
 PCOD9094437
Probable space group: P -1
;
_chemical_formula_sum "Si O2"
_cell_formula_units_Z 16
_cell_length_a 14.621249
_cell_length_b 9.528291
_cell_length_c 12.557760
_cell_angle_alpha 38.523581
_cell_angle_beta 51.512984
_cell_angle_gamma 73.410834
_cell_volume 776.755807
_symmetry_space_group_name_H-M "P -1"
_symmetry_group_IT_number 2
_symmetry_cell_setting 'triclinic'
loop_
_space_group_symop_operation_xyz
x,y,z
-x,-y,-z
loop_
_atom_site_type_symbol
_atom_site_label
_atom_site_fract_x
_atom_site_fract_y
_atom_site_fract_z
Si Si1 0.944848 0.667248 0.507067
Si Si2 0.120796 0.244354 0.078883
Si Si3 0.651888 0.499019 0.763551
Si Si4 0.986179 0.263611 0.354094
Si Si5 0.286150 0.051320 0.212047
Si Si6 0.633806 0.377269 0.407024
Si Si7 0.484975 0.695692 0.239725
Si Si8 0.438142 0.151324 0.256955
O O1 0.803523 0.615160 0.600349
O O2 0.000000 0.500000 0.500000
O O3 0.938569 0.596973 0.678974
O O4 0.036855 0.965117 0.262098
O O5 0.222608 0.220192 0.104094
O O6 0.037236 0.350827 0.147345
O O7 0.217630 0.431848 0.813820
O O8 0.610286 0.417910 0.721668
O O9 0.589278 0.687101 0.730184
O O10 0.581447 0.273213 0.032104
O O11 0.837829 0.198728 0.524484
O O12 0.000000 0.000000 0.500000
O O13 0.352354 0.155751 0.213912
O O14 0.393550 0.070799 0.035792
O O15 0.546890 0.508285 0.345815
O O16 0.584274 0.273640 0.622514
O O17 0.608688 0.130161 0.506819
#
# Coordination Sequence:
#
# PCOD9094437 Si02
#       8
#     2   2   2   2   2   2   2   2
#     4  10  20  34  57  85 112 144 183 229 278 328
#     4   9  18  35  56  78 110 144 183 227 263 325
#     4  10  21  37  54  83 115 141 183 232 279 324
#     4   8  15  30  54  77 103 140 182 224 256 310
#     4   8  15  31  55  79 102 136 186 227 264 305
#     4  10  21  37  55  80 109 149 189 220 279 328
#     4   9  20  35  54  79 114 144 177 235 275 328
#     4  10  20  34  59  84 110 143 182 234 276 329
#
# _framework density 20.598495
#
# number of rings (size 3 to 8) (size 9 to 14) (size 15 to 20)
#    0.000    3.000    0.000    2.250    0.000    9.500 
#    0.000    4.375    0.000    1.500    0.000    0.000 
#    0.000    0.000    0.000    0.000    0.000    0.000 
#
# Total GULP energy -89129.228771 kJ/mol
# GULP energy per Si atom -5570.576798 kJ/mol
# Density = 2.055161 g / cm^3
# Si number density = 20.598495 Si / 1000 Ang^3
#
#
#
# Elastic Constant Matrix: (Units=GPa)
#
#
# Indices 1 2 3 4 5 6 
#
# 1 57.8906 28.0219 21.2985 -3.0394 -9.9228 2.3856
# 2 28.0219 112.1283 41.5713 7.0941 -2.5308 14.8893
# 3 21.2985 41.5713 97.1761 -0.1482 -15.5725 -11.8463
# 4 -3.0394 7.0941 -0.1482 30.8506 -1.9679 -3.3555
# 5 -9.9228 -2.5308 -15.5725 -1.9679 31.5341 -0.0280
# 6 2.3856 14.8893 -11.8463 -3.3555 -0.0280 17.1370
#
#
#
# Elastic Compliance Matrix: (Units=1/GPa)
#
#
# Indices 1 2 3 4 5 6 
#
# 1 0.021416 -0.005092 -0.001423 0.003780 0.005865 0.001209
# 2 -0.005092 0.017172 -0.009875 -0.007298 -0.005576 -0.022475
# 3 -0.001423 -0.009875 0.018993 0.005259 0.008488 0.022950
# 4 0.003780 -0.007298 0.005259 0.036651 0.005503 0.016636
# 5 0.005865 -0.005576 0.008488 0.005503 0.037654 0.011035
# 6 0.001209 -0.022475 0.022950 0.016636 0.011035 0.096853
#
#
# Mechanical properties :
#
#
# Convention : Reuss Voigt Hill
#
# Bulk Modulus (GPa) = 40.31855 49.88651 45.10253
# Shear Modulus (GPa) = 18.53334 27.65790 23.09562
#
# Velocity S-wave (km/s) = 3.00282 3.66828 3.35211
# Velocity P-wave (km/s) = 5.62482 6.49714 6.07665
#
# Compressibility (1/GPa) = 0.02480248
#
# Stress axis : x y z
#
# Youngs Moduli (GPa) = 46.69412 58.23362 52.65199
#
# Poissons Ratio (x) = 0.29652 0.07490
# Poissons Ratio (y) = 0.23776 0.51992
# Poissons Ratio (z) = 0.06642 0.57504
#
# Static dielectric constant tensor:
#      x y z
#    x 1.757890 -0.026720 0.006270 
#    y -0.026720 1.753500 0.038550 
#    z 0.006270 0.038550 1.846440 
# 
# From -- ./inp_files/446778.got.cif
#   From: 2010.05.17/outbox.cif.g08.bks.cpg/sg2_224_cif.got.tgz:446778.got - 2010.06.03 11:33:40.
