data_PCOD9094015
_publ_section_title
;
Structure prediction by ZEFSAII (Michael W. Deem and Ramdas Pophale) SiO2 
 PCOD9094015
Probable space group: P -1
;
_chemical_formula_sum "Si O2"
_cell_formula_units_Z 14
_cell_length_a 14.542799
_cell_length_b 14.309506
_cell_length_c 17.619106
_cell_angle_alpha 143.674240
_cell_angle_beta 33.170413
_cell_angle_gamma 159.283198
_cell_volume 704.734198
_symmetry_space_group_name_H-M "P -1"
_symmetry_group_IT_number 2
_symmetry_cell_setting 'triclinic'
loop_
_space_group_symop_operation_xyz
x,y,z
-x,-y,-z
loop_
_atom_site_type_symbol
_atom_site_label
_atom_site_fract_x
_atom_site_fract_y
_atom_site_fract_z
Si Si1 0.750694 0.254101 0.830506
Si Si2 0.691363 0.238924 0.694797
Si Si3 0.615214 0.943841 0.434367
Si Si4 0.165715 0.782055 0.096567
Si Si5 0.228707 0.448861 0.280317
Si Si6 0.783608 0.871730 0.998589
Si Si7 0.086122 0.809148 0.013616
O O1 0.845706 0.319843 0.720392
O O2 0.875889 0.230742 0.792678
O O3 0.851992 0.502765 0.952448
O O4 0.407258 0.983494 0.892766
O O5 0.840295 0.457586 0.669153
O O6 0.594417 0.000115 0.569452
O O7 0.434087 0.161338 0.843130
O O8 0.437419 0.663488 0.342678
O O9 0.500000 0.000000 0.500000
O O10 0.940711 0.175148 0.338415
O O11 0.077725 0.838936 0.129125
O O12 0.000000 0.500000 0.000000
O O13 0.500000 0.000000 0.000000
O O14 0.346797 0.391199 0.112726
O O15 0.933963 0.063982 0.947859
O O16 0.000000 0.000000 0.000000
#
# Coordination Sequence:
#
# PCOD9094015 Si02
#       7
#     2   2   2   2   2   2   2
#     4   9  17  28  47  71  94 121 159 206 246 279
#     4  10  20  34  52  75  99 130 169 210 243 284
#     4  10  21  36  51  67  96 136 169 199 240 292
#     4   8  14  27  43  64  94 123 152 193 246 292
#     4  11  22  35  49  70 102 136 163 196 244 298
#     4  11  21  33  51  77 105 133 165 205 244 289
#     4   9  18  29  44  68  99 129 155 193 247 294
#
# _framework density 19.865645000000001
#
# number of rings (size 3 to 8) (size 9 to 14) (size 15 to 20)
#    0.000    2.286    0.000    4.714    0.000    8.000 
#    0.000    0.000    0.000    0.000    0.000    2.000 
#    0.000    0.000    0.000    3.714    0.000    1.714 
#
# Total GULP energy -77979.497412 kJ/mol
# GULP energy per Si atom -5569.964101 kJ/mol
# Density = 1.982043 g / cm^3
# Si number density = 19.865645 Si / 1000 Ang^3
#
#
#
# Elastic Constant Matrix: (Units=GPa)
#
#
# Indices 1 2 3 4 5 6 
#
# 1 121.2931 6.0626 35.8693 9.3719 48.2521 -8.1642
# 2 6.0626 98.7355 33.5472 9.6291 -1.1490 14.8672
# 3 35.8693 33.5472 109.7530 19.9987 17.1030 11.5215
# 4 9.3719 9.6291 19.9987 22.0845 9.4613 6.0097
# 5 48.2521 -1.1490 17.1030 9.4613 32.8803 0.2093
# 6 -8.1642 14.8672 11.5215 6.0097 0.2093 25.4517
#
#
#
# Elastic Compliance Matrix: (Units=1/GPa)
#
#
# Indices 1 2 3 4 5 6 
#
# 1 0.023154 -0.002641 -0.003637 0.006727 -0.034173 0.009309
# 2 -0.002641 0.012557 -0.002818 -0.002955 0.006671 -0.006263
# 3 -0.003637 -0.002818 0.012896 -0.008401 0.000970 -0.003383
# 4 0.006727 -0.002955 -0.008401 0.063459 -0.023820 -0.007101
# 5 -0.034173 0.006671 0.000970 -0.023820 0.087212 -0.010391
# 6 0.009309 -0.006263 -0.003383 -0.007101 -0.010391 0.049228
#
#
# Mechanical properties :
#
#
# Convention : Reuss Voigt Hill
#
# Bulk Modulus (GPa) = 32.88121 53.41553 43.14837
# Shear Modulus (GPa) = 18.06109 33.03680 25.54895
#
# Velocity S-wave (km/s) = 3.01850 4.08243 3.59010
# Velocity P-wave (km/s) = 5.36062 7.01202 6.24118
#
# Compressibility (1/GPa) = 0.03041251
#
# Stress axis : x y z
#
# Youngs Moduli (GPa) = 43.18977 79.63791 77.54138
#
# Poissons Ratio (x) = 0.21034 0.28205
# Poissons Ratio (y) = 0.11408 0.21855
# Poissons Ratio (z) = 0.15710 0.22446
#
# Static dielectric constant tensor:
#      x y z
#    x 1.778340 -0.035890 0.033300 
#    y -0.035890 1.755340 -0.016100 
#    z 0.033300 -0.016100 1.780650 
# 
# From -- ./inp_files/47778.got.cif
#   From: 2010.05.17/outbox.cif.g08.bks.cpg/sg2_24_cif.got.tgz:47778.got - 2010.06.03 11:33:40.
