data_PCOD9094762
_publ_section_title
;
Structure prediction by ZEFSAII (Michael W. Deem and Ramdas Pophale) SiO2 
 PCOD9094762
Probable space group: P -1
;
_chemical_formula_sum "Si O2"
_cell_formula_units_Z 14
_cell_length_a 21.271865
_cell_length_b 8.613786
_cell_length_c 15.280486
_cell_angle_alpha 27.205814
_cell_angle_beta 151.509895
_cell_angle_gamma 132.703045
_cell_volume 537.501454
_symmetry_space_group_name_H-M "P -1"
_symmetry_group_IT_number 2
_symmetry_cell_setting 'triclinic'
loop_
_space_group_symop_operation_xyz
x,y,z
-x,-y,-z
loop_
_atom_site_type_symbol
_atom_site_label
_atom_site_fract_x
_atom_site_fract_y
_atom_site_fract_z
Si Si1 0.774083 0.502037 0.197774
Si Si2 0.227041 0.132042 0.372735
Si Si3 0.379263 0.473866 0.305823
Si Si4 0.028942 0.371232 0.325312
Si Si5 0.723304 0.656285 0.486393
Si Si6 0.920028 0.820789 0.341736
Si Si7 0.477308 0.480077 0.226835
O O1 0.842044 0.761160 0.190434
O O2 0.922488 0.188527 0.484174
O O3 0.755530 0.267586 0.372488
O O4 0.617781 0.689311 0.859416
O O5 0.370864 0.095135 0.515367
O O6 0.202737 0.392874 0.301424
O O7 0.098298 0.334371 0.042041
O O8 0.500000 0.500000 0.500000
O O9 0.411589 0.505985 0.229772
O O10 0.220405 0.823302 0.963608
O O11 0.175469 0.315956 0.480925
O O12 0.030199 0.510677 0.356260
O O13 0.000000 0.000000 0.500000
O O14 0.649145 0.390096 0.499141
O O15 0.590700 0.096873 0.113182
#
# Coordination Sequence:
#
# PCOD9094762 Si02
#       7
#     2   2   2   2   2   2   2
#     4  10  25  43  64  93 133 174 213 261 340 386
#     4  11  22  36  65  96 123 167 219 269 306 388
#     4  12  23  39  67  97 126 165 222 270 316 381
#     4  12  21  36  64  97 124 169 215 268 321 368
#     4  10  20  34  60  94 126 159 217 269 307 375
#     4  11  24  44  64  93 133 172 211 274 329 382
#     4  10  20  39  61  89 128 171 209 265 324 378
#
# _framework density 26.046441000000002
#
# number of rings (size 3 to 8) (size 9 to 14) (size 15 to 20)
#    0.000    1.143    4.286    3.000    2.000    0.571 
#    0.000    3.571    0.000    0.000    0.000    0.000 
#    0.000    0.000    0.000    0.000    0.000    0.000 
#
# Total GULP energy -78100.613156 kJ/mol
# GULP energy per Si atom -5578.615225 kJ/mol
# Density = 2.598716 g / cm^3
# Si number density = 26.046441 Si / 1000 Ang^3
#
#
#
# Elastic Constant Matrix: (Units=GPa)
#
#
# Indices 1 2 3 4 5 6 
#
# 1 133.2132 26.2295 46.4526 20.1833 -24.8893 20.3537
# 2 26.2295 112.6476 25.7256 36.3437 3.2958 13.2005
# 3 46.4526 25.7256 96.3832 35.9448 -11.6014 -10.2194
# 4 20.1833 36.3437 35.9448 45.7703 -5.6355 -7.6226
# 5 -24.8893 3.2958 -11.6014 -5.6355 44.5621 13.1747
# 6 20.3537 13.2005 -10.2194 -7.6226 13.1747 40.8464
#
#
#
# Elastic Compliance Matrix: (Units=1/GPa)
#
#
# Indices 1 2 3 4 5 6 
#
# 1 0.013220 -0.000040 -0.005693 -0.002101 0.008975 -0.011286
# 2 -0.000040 0.013452 0.000116 -0.011884 -0.000623 -0.006315
# 3 -0.005693 0.000116 0.017413 -0.010508 -0.001680 0.005737
# 4 -0.002101 -0.011884 -0.010508 0.042094 -0.000770 0.010362
# 5 0.008975 -0.000623 -0.001680 -0.000770 0.031387 -0.014959
# 6 -0.011286 -0.006315 0.005737 0.010362 -0.014959 0.040341
#
#
# Mechanical properties :
#
#
# Convention : Reuss Voigt Hill
#
# Bulk Modulus (GPa) = 30.44130 59.89548 45.16839
# Shear Modulus (GPa) = 27.76358 42.49150 35.12754
#
# Velocity S-wave (km/s) = 3.26839 4.04341 3.67638
# Velocity P-wave (km/s) = 5.09469 6.69660 5.94980
#
# Compressibility (1/GPa) = 0.03285011
#
# Stress axis : x y z
#
# Youngs Moduli (GPa) = 75.64553 74.33600 57.42796
#
# Poissons Ratio (x) = 0.00299 0.32696
# Poissons Ratio (y) = 0.00304 -0.00667
# Poissons Ratio (z) = 0.43068 -0.00863
#
# Static dielectric constant tensor:
#      x y z
#    x 2.055230 -0.132700 -0.006850 
#    y -0.132700 2.366490 -0.059530 
#    z -0.006850 -0.059530 2.154520 
# 
# From -- ./inp_files/540376.got.cif
#   From: 2010.05.17/outbox.cif.g08.bks.cpg/sg2_271_cif.got.tgz:540376.got - 2010.06.03 11:33:40.
