data_PCOD9094489
_publ_section_title
;
Structure prediction by ZEFSAII (Michael W. Deem and Ramdas Pophale) SiO2 
 PCOD9094489
Probable space group: P -1
;
_chemical_formula_sum "Si O2"
_cell_formula_units_Z 16
_cell_length_a 9.063125
_cell_length_b 20.705320
_cell_length_c 12.224075
_cell_angle_alpha 23.174426
_cell_angle_beta 56.710807
_cell_angle_gamma 56.167522
_cell_volume 745.040866
_symmetry_space_group_name_H-M "P -1"
_symmetry_group_IT_number 2
_symmetry_cell_setting 'triclinic'
loop_
_space_group_symop_operation_xyz
x,y,z
-x,-y,-z
loop_
_atom_site_type_symbol
_atom_site_label
_atom_site_fract_x
_atom_site_fract_y
_atom_site_fract_z
Si Si1 0.076086 0.154784 0.281350
Si Si2 0.688643 0.879384 0.111389
Si Si3 0.031555 0.988389 0.775641
Si Si4 0.803453 0.835530 0.372716
Si Si5 0.222597 0.539666 0.025972
Si Si6 0.473751 0.437646 0.291801
Si Si7 0.639671 0.224681 0.090255
Si Si8 0.441262 0.019803 0.320309
O O1 0.107298 0.107864 0.469938
O O2 0.267682 0.146462 0.157514
O O3 0.941961 0.326610 0.073234
O O4 0.000000 0.000000 0.500000
O O5 0.815000 0.842779 0.226109
O O6 0.617495 0.706175 0.391657
O O7 0.500000 0.000000 0.000000
O O8 0.831142 0.972287 0.846165
O O9 0.073088 0.069028 0.749505
O O10 0.157304 0.810668 0.980274
O O11 0.822245 0.643190 0.700780
O O12 0.599212 0.932233 0.316678
O O13 0.352608 0.501838 0.136165
O O14 0.330209 0.604838 0.778219
O O15 0.456992 0.589512 0.145697
O O16 0.536453 0.123121 0.207332
O O17 0.628126 0.134875 0.351524
#
# Coordination Sequence:
#
# PCOD9094489 Si02
#       8
#     2   2   2   2   2   2   2   2
#     4  11  23  34  58  93 125 146 189 257 297 349
#     4  11  24  39  58  86 116 162 203 242 291 343
#     4  10  22  39  60  87 118 162 199 230 296 357
#     4  10  21  40  66  82 119 160 197 246 285 365
#     4  10  20  34  57  92 117 147 194 242 306 338
#     4  10  20  35  59  82 119 155 192 242 291 359
#     4   9  17  35  58  84 112 153 191 232 292 359
#     4   9  18  34  58  85 117 150 185 234 305 347
#
# _framework density 21.475332000000002
#
# number of rings (size 3 to 8) (size 9 to 14) (size 15 to 20)
#    0.000    2.000    1.250    3.375    5.250    1.000 
#    2.250    0.000    0.000    1.500    0.000    0.000 
#    0.000    0.000    0.000    0.000    0.000    0.000 
#
# Total GULP energy -89089.344382 kJ/mol
# GULP energy per Si atom -5568.084024 kJ/mol
# Density = 2.142645 g / cm^3
# Si number density = 21.475332 Si / 1000 Ang^3
#
#
#
# Elastic Constant Matrix: (Units=GPa)
#
#
# Indices 1 2 3 4 5 6 
#
# 1 45.0168 16.6416 9.4132 -3.4480 -6.1750 -17.0287
# 2 16.6416 73.7151 35.1998 -27.7531 -14.6789 -28.5623
# 3 9.4132 35.1998 77.1628 -22.5217 -14.5674 -8.7041
# 4 -3.4480 -27.7531 -22.5217 31.8958 -2.2302 3.6732
# 5 -6.1750 -14.6789 -14.5674 -2.2302 24.5203 3.7431
# 6 -17.0287 -28.5623 -8.7041 3.6732 3.7431 50.5766
#
#
#
# Elastic Compliance Matrix: (Units=1/GPa)
#
#
# Indices 1 2 3 4 5 6 
#
# 1 0.026422 -0.001948 -0.000744 0.000061 0.003926 0.007373
# 2 -0.001948 0.036249 -0.002105 0.029437 0.020222 0.015819
# 3 -0.000744 -0.002105 0.020021 0.013013 0.011600 0.000203
# 4 0.000061 0.029437 0.013013 0.066871 0.029644 0.011834
# 5 0.003926 0.020222 0.011600 0.029644 0.062247 0.007978
# 6 0.007373 0.015819 0.000203 0.011834 0.007978 0.029773
#
#
# Mechanical properties :
#
#
# Convention : Reuss Voigt Hill
#
# Bulk Modulus (GPa) = 13.68002 35.37823 24.52913
# Shear Modulus (GPa) = 18.14605 30.37453 24.26029
#
# Velocity S-wave (km/s) = 2.90999 3.76492 3.36472
# Velocity P-wave (km/s) = 4.20413 5.95056 5.15189
#
# Compressibility (1/GPa) = 0.07309931
#
# Stress axis : x y z
#
# Youngs Moduli (GPa) = 37.84752 27.58687 49.94633
#
# Poissons Ratio (x) = 0.05374 0.03715
# Poissons Ratio (y) = 0.07373 0.10512
# Poissons Ratio (z) = 0.02815 0.05806
#
# Static dielectric constant tensor:
#      x y z
#    x 1.809070 -0.011260 0.025330 
#    y -0.011260 1.912030 0.059390 
#    z 0.025330 0.059390 1.821420 
# 
# From -- ./inp_files/404583.got.cif
#   From: 2010.05.17/outbox.cif.g08.bks.cpg/sg2_203_cif.got.tgz:404583.got - 2010.06.03 11:33:40.
