data_PCOD9094895
_publ_section_title
;
Structure prediction by ZEFSAII (Michael W. Deem and Ramdas Pophale) SiO2 
 PCOD9094895
Probable space group: P -1
;
_chemical_formula_sum "Si O2"
_cell_formula_units_Z 14
_cell_length_a 11.963538
_cell_length_b 8.954493
_cell_length_c 9.849083
_cell_angle_alpha 128.807768
_cell_angle_beta 122.838461
_cell_angle_gamma 57.825684
_cell_volume 660.228977
_symmetry_space_group_name_H-M "P -1"
_symmetry_group_IT_number 2
_symmetry_cell_setting 'triclinic'
loop_
_space_group_symop_operation_xyz
x,y,z
-x,-y,-z
loop_
_atom_site_type_symbol
_atom_site_label
_atom_site_fract_x
_atom_site_fract_y
_atom_site_fract_z
Si Si1 0.370880 0.205874 0.176189
Si Si2 0.808410 0.737966 0.374755
Si Si3 0.857766 0.440532 0.869711
Si Si4 0.913826 0.212244 0.503349
Si Si5 0.138449 0.713293 0.923732
Si Si6 0.192001 0.114739 0.242389
Si Si7 0.669015 0.065812 0.234184
O O1 0.280928 0.378138 0.117018
O O2 0.281011 0.211890 0.255889
O O3 0.529947 0.203214 0.293417
O O4 0.374474 0.010583 0.979691
O O5 0.793283 0.512971 0.218782
O O6 0.764850 0.850197 0.554224
O O7 0.975291 0.705185 0.453270
O O8 0.737883 0.887113 0.287787
O O9 0.855425 0.339636 0.668292
O O10 0.865081 0.304603 0.925792
O O11 0.000000 0.500000 0.000000
O O12 0.782077 0.174977 0.325157
O O13 0.000000 0.000000 0.500000
O O14 0.975803 0.785384 0.814736
O O15 0.208374 0.893286 0.062936
#
# Coordination Sequence:
#
# PCOD9094895 Si02
#       7
#     2   2   2   2   2   2   2
#     4  11  23  43  63  91 126 166 214 257 312 374
#     4  11  21  41  64  95 128 164 206 265 319 376
#     4  12  19  38  66  92 123 166 208 262 310 371
#     4  10  20  34  63  95 120 154 213 258 308 365
#     4  11  22  38  63  95 130 160 208 261 324 373
#     4  11  25  37  63  97 128 164 206 264 321 372
#     4  10  23  41  66  87 126 170 210 261 310 372
#
# _framework density 21.204764999999998
#
# number of rings (size 3 to 8) (size 9 to 14) (size 15 to 20)
#    0.000    1.143    4.286    3.000    4.000    1.143 
#    0.000    0.714    0.000    0.000    0.000    0.000 
#    0.000    0.000    0.000    0.000    0.000    0.000 
#
# Total GULP energy -78028.766129 kJ/mol
# GULP energy per Si atom -5573.483295 kJ/mol
# Density = 2.115650 g / cm^3
# Si number density = 21.204765 Si / 1000 Ang^3
#
#
#
# Elastic Constant Matrix: (Units=GPa)
#
#
# Indices 1 2 3 4 5 6 
#
# 1 30.9872 9.5662 24.0578 -9.0597 1.3180 -6.7042
# 2 9.5662 58.9342 1.2802 5.1645 7.3031 -2.0312
# 3 24.0578 1.2802 68.2717 6.0345 -15.0648 1.8725
# 4 -9.0597 5.1645 6.0345 31.7671 8.0803 -3.6534
# 5 1.3180 7.3031 -15.0648 8.0803 31.3398 -9.4847
# 6 -6.7042 -2.0312 1.8725 -3.6534 -9.4847 27.9740
#
#
#
# Elastic Compliance Matrix: (Units=1/GPa)
#
#
# Indices 1 2 3 4 5 6 
#
# 1 0.083531 -0.012715 -0.038718 0.041564 -0.024150 0.018928
# 2 -0.012715 0.019596 0.004750 -0.007910 -0.000679 -0.003206
# 3 -0.038718 0.004750 0.035410 -0.024909 0.021795 -0.007168
# 4 0.041564 -0.007910 -0.024909 0.056477 -0.023247 0.010548
# 5 -0.024150 -0.000679 0.021795 -0.023247 0.051734 0.007209
# 6 0.018928 -0.003206 -0.007168 0.010548 0.007209 0.044352
#
#
# Mechanical properties :
#
#
# Convention : Reuss Voigt Hill
#
# Bulk Modulus (GPa) = 22.13835 25.33352 23.73593
# Shear Modulus (GPa) = 12.51493 26.43542 19.47518
#
# Velocity S-wave (km/s) = 2.43203 3.53466 3.03386
# Velocity P-wave (km/s) = 4.28361 5.35083 4.84668
#
# Compressibility (1/GPa) = 0.04517049
#
# Stress axis : x y z
#
# Youngs Moduli (GPa) = 11.97158 51.03178 28.24091
#
# Poissons Ratio (x) = 0.64888 1.09344
# Poissons Ratio (y) = 0.15222 -0.13416
# Poissons Ratio (z) = 0.46352 -0.24243
#
# Static dielectric constant tensor:
#      x y z
#    x 1.741900 0.038110 0.022990 
#    y 0.038110 1.741470 0.014440 
#    z 0.022990 0.014440 1.753720 
# 
# From -- ./inp_files/179971.got.cif
#   From: 2010.05.17/outbox.cif.g08.bks.cpg/sg2_90_cif.got.tgz:179971.got - 2010.06.03 11:33:40.
