data_PCOD9094649
_publ_section_title
;
Structure prediction by ZEFSAII (Michael W. Deem and Ramdas Pophale) SiO2 
 PCOD9094649
Probable space group: P -1
;
_chemical_formula_sum "Si O2"
_cell_formula_units_Z 14
_cell_length_a 22.575917
_cell_length_b 28.032093
_cell_length_c 5.727621
_cell_angle_alpha 85.817870
_cell_angle_beta 96.822355
_cell_angle_gamma 169.559023
_cell_volume 632.524493
_symmetry_space_group_name_H-M "P -1"
_symmetry_group_IT_number 2
_symmetry_cell_setting 'triclinic'
loop_
_space_group_symop_operation_xyz
x,y,z
-x,-y,-z
loop_
_atom_site_type_symbol
_atom_site_label
_atom_site_fract_x
_atom_site_fract_y
_atom_site_fract_z
Si Si1 0.718745 0.069351 0.637257
Si Si2 0.211676 0.121823 0.135795
Si Si3 0.904642 0.282727 0.271311
Si Si4 0.296014 0.345113 0.706089
Si Si5 0.696391 0.480083 0.872927
Si Si6 0.126609 0.316309 0.506199
Si Si7 0.776146 0.287659 0.122226
O O1 0.815591 0.196244 0.521019
O O2 0.793716 0.085560 0.485339
O O3 0.357335 0.789889 0.684375
O O4 0.993712 0.277580 0.889884
O O5 0.557943 0.412816 0.303486
O O6 0.340529 0.194922 0.941388
O O7 0.998699 0.925677 0.296866
O O8 0.000000 0.000000 0.000000
O O9 0.956004 0.379363 0.229946
O O10 0.220573 0.498933 0.265002
O O11 0.567852 0.000110 0.072553
O O12 0.500000 0.500000 0.500000
O O13 0.118402 0.256259 0.615727
O O14 0.500000 0.500000 0.000000
O O15 0.751851 0.574954 0.737367
O O16 0.000000 0.500000 0.000000
#
# Coordination Sequence:
#
# PCOD9094649 Si02
#       7
#     2   2   2   2   2   2   2
#     4   9  19  38  59  84 120 160 199 249 311 363
#     4  11  22  39  64  88 119 163 209 259 315 376
#     4   9  19  38  57  83 121 156 194 254 303 366
#     4  12  27  42  63  95 126 164 211 265 322 377
#     4   9  20  38  61  85 118 163 207 252 312 368
#     4  10  22  41  63  87 124 162 207 262 313 375
#     4  10  20  34  59  89 116 154 199 247 305 370
#
# _framework density 22.13353
#
# number of rings (size 3 to 8) (size 9 to 14) (size 15 to 20)
#    0.000    2.000    1.429    1.286    4.000    2.857 
#    0.000   12.857    0.000    0.000    0.000    0.000 
#    0.000    0.000    0.000    0.000    0.000    0.000 
#
# Total GULP energy -78065.371982 kJ/mol
# GULP energy per Si atom -5576.097999 kJ/mol
# Density = 2.208315 g / cm^3
# Si number density = 22.133530 Si / 1000 Ang^3
#
#
#
# Elastic Constant Matrix: (Units=GPa)
#
#
# Indices 1 2 3 4 5 6 
#
# 1 113.6624 61.4004 40.9515 -34.3586 43.0704 4.7995
# 2 61.4004 97.9152 32.9067 -42.8121 3.9067 11.7254
# 3 40.9515 32.9067 111.4404 -30.4785 29.5162 7.2489
# 4 -34.3586 -42.8121 -30.4785 54.0248 -3.4015 -1.3656
# 5 43.0704 3.9067 29.5162 -3.4015 42.7769 -7.5079
# 6 4.7995 11.7254 7.2489 -1.3656 -7.5079 28.1910
#
#
#
# Elastic Compliance Matrix: (Units=1/GPa)
#
#
# Indices 1 2 3 4 5 6 
#
# 1 0.030874 -0.015030 0.004907 0.008125 -0.034021 -0.008934
# 2 -0.015030 0.024152 -0.003177 0.008706 0.015436 -0.002137
# 3 0.004907 -0.003177 0.014803 0.007800 -0.015484 -0.007066
# 4 0.008125 0.008706 0.007800 0.033921 -0.013221 -0.008888
# 5 -0.034021 0.015436 -0.015484 -0.013221 0.069583 0.021244
# 6 -0.008934 -0.002137 -0.007066 -0.008888 0.021244 0.044926
#
#
# Mechanical properties :
#
#
# Convention : Reuss Voigt Hill
#
# Bulk Modulus (GPa) = 23.13257 65.94837 44.54047
# Shear Modulus (GPa) = 19.28501 37.51583 28.40042
#
# Velocity S-wave (km/s) = 2.95499 4.12148 3.58598
# Velocity P-wave (km/s) = 4.70283 7.24632 6.10843
#
# Compressibility (1/GPa) = 0.04322909
#
# Stress axis : x y z
#
# Youngs Moduli (GPa) = 32.38940 41.40414 67.55587
#
# Poissons Ratio (x) = 0.62229 -0.33148
# Poissons Ratio (y) = 0.48680 0.21463
# Poissons Ratio (z) = -0.15893 0.13155
#
# Static dielectric constant tensor:
#      x y z
#    x 1.886460 0.044600 -0.133040 
#    y 0.044600 1.812450 0.000520 
#    z -0.133040 0.000520 1.930320 
# 
# From -- ./inp_files/13802.got.cif
#   From: 2010.05.17/outbox.cif.g08.bks.cpg/sg2_7_cif.got.tgz:13802.got - 2010.06.03 11:33:40.
