data_PCOD9094696
_publ_section_title
;
Structure prediction by ZEFSAII (Michael W. Deem and Ramdas Pophale) SiO2 
 PCOD9094696
Probable space group: P -1
;
_chemical_formula_sum "Si O2"
_cell_formula_units_Z 15
_cell_length_a 11.787596
_cell_length_b 13.783856
_cell_length_c 13.531335
_cell_angle_alpha 36.433972
_cell_angle_beta 149.638235
_cell_angle_gamma 147.555885
_cell_volume 572.042171
_symmetry_space_group_name_H-M "P -1"
_symmetry_group_IT_number 2
_symmetry_cell_setting 'triclinic'
loop_
_space_group_symop_operation_xyz
x,y,z
-x,-y,-z
loop_
_atom_site_type_symbol
_atom_site_label
_atom_site_fract_x
_atom_site_fract_y
_atom_site_fract_z
Si Si1 0.093351 0.957676 0.258546
Si Si2 0.217427 0.453452 0.620646
Si Si3 0.187689 0.307369 0.361931
Si Si4 0.500000 0.500000 0.000000
Si Si5 0.148729 0.895553 0.899252
Si Si6 0.573185 0.691192 0.269023
Si Si7 0.595096 0.204213 0.656632
Si Si8 0.571297 0.862016 0.821422
O O1 0.046288 0.749829 0.415026
O O2 0.330185 0.077148 0.266791
O O3 0.074140 0.072495 0.242764
O O4 0.837983 0.919173 0.035402
O O5 0.400884 0.403639 0.732449
O O6 0.245526 0.636493 0.436526
O O7 0.317986 0.492996 0.775048
O O8 0.318042 0.530685 0.260626
O O9 0.190531 0.271557 0.509507
O O10 0.385074 0.243594 0.518099
O O11 0.941468 0.199716 0.196449
O O12 0.579191 0.361791 0.109836
O O13 0.386431 0.106603 0.890089
O O14 0.219712 0.788199 0.121748
O O15 0.481512 0.998679 0.689290
#
# Coordination Sequence:
#
# PCOD9094696 Si02
#       8
#     2   2   2   1   2   2   2   2
#     4   8  17  34  56  78 115 159 193 237 312 353
#     4   9  19  37  57  85 123 155 197 259 295 363
#     4  10  21  40  66  89 121 171 199 252 314 361
#     4  10  20  34  60  80 116 162 194 238 308 356
#     4  10  20  39  62  87 124 167 198 253 310 366
#     4   9  20  40  63  91 127 158 209 253 304 365
#     4  10  22  38  60  95 126 150 213 258 291 367
#     4   9  18  34  56  84 117 154 197 249 294 360
#
# _framework density 26.221843
#
# number of rings (size 3 to 8) (size 9 to 14) (size 15 to 20)
#    0.000    2.667    0.000    1.200    3.733    1.600 
#    0.000   10.000   11.733    0.000    0.000    0.000 
#    0.000    0.000    0.000    0.000    0.000    0.000 
#
# Total GULP energy -83658.737835 kJ/mol
# GULP energy per Si atom -5577.249189 kJ/mol
# Density = 2.616216 g / cm^3
# Si number density = 26.221843 Si / 1000 Ang^3
#
#
#
# Elastic Constant Matrix: (Units=GPa)
#
#
# Indices 1 2 3 4 5 6 
#
# 1 81.4283 26.4965 27.1232 7.9107 -7.3437 -24.0041
# 2 26.4965 105.5808 42.0454 -4.6591 -8.9940 -42.8791
# 3 27.1232 42.0454 131.5405 -6.3257 -7.4273 -4.3282
# 4 7.9107 -4.6591 -6.3257 42.9386 -10.5798 -10.1280
# 5 -7.3437 -8.9940 -7.4273 -10.5798 47.3987 -1.4609
# 6 -24.0041 -42.8791 -4.3282 -10.1280 -1.4609 43.5161
#
#
#
# Elastic Compliance Matrix: (Units=1/GPa)
#
#
# Indices 1 2 3 4 5 6 
#
# 1 0.016139 0.001657 -0.003390 -0.000255 0.002542 0.010224
# 2 0.001657 0.022217 -0.005879 0.008527 0.006207 0.024414
# 3 -0.003390 -0.005879 0.009929 -0.000225 -0.000343 -0.006740
# 4 -0.000255 0.008527 -0.000225 0.030040 0.008727 0.015524
# 5 0.002542 0.006207 -0.000343 0.008727 0.024883 0.010351
# 6 0.010224 0.024414 -0.006740 0.015524 0.010351 0.055967
#
#
# Mechanical properties :
#
#
# Convention : Reuss Voigt Hill
#
# Bulk Modulus (GPa) = 30.24725 56.65332 43.45028
# Shear Modulus (GPa) = 26.96614 41.62966 34.29790
#
# Velocity S-wave (km/s) = 3.21032 3.98879 3.62054
# Velocity P-wave (km/s) = 5.03008 6.54723 5.83815
#
# Compressibility (1/GPa) = 0.03306086
#
# Stress axis : x y z
#
# Youngs Moduli (GPa) = 61.96337 45.01020 100.71989
#
# Poissons Ratio (x) = -0.07460 0.34142
# Poissons Ratio (y) = -0.10270 0.59217
# Poissons Ratio (z) = 0.21004 0.26463
#
# Static dielectric constant tensor:
#      x y z
#    x 2.041580 0.031510 0.015270 
#    y 0.031510 2.152240 0.051030 
#    z 0.015270 0.051030 2.181250 
# 
# From -- ./inp_files/534210.got.cif
#   From: 2010.05.17/outbox.cif.g08.bks.cpg/sg2_268_cif.got.tgz:534210.got - 2010.06.03 11:33:40.
