data_PCOD9094758
_publ_section_title
;
Structure prediction by ZEFSAII (Michael W. Deem and Ramdas Pophale) SiO2 
 PCOD9094758
Probable space group: P -1
;
_chemical_formula_sum "Si O2"
_cell_formula_units_Z 14
_cell_length_a 13.958711
_cell_length_b 6.941781
_cell_length_c 10.433642
_cell_angle_alpha 89.255316
_cell_angle_beta 140.392848
_cell_angle_gamma 97.352430
_cell_volume 633.349971
_symmetry_space_group_name_H-M "P -1"
_symmetry_group_IT_number 2
_symmetry_cell_setting 'triclinic'
loop_
_space_group_symop_operation_xyz
x,y,z
-x,-y,-z
loop_
_atom_site_type_symbol
_atom_site_label
_atom_site_fract_x
_atom_site_fract_y
_atom_site_fract_z
Si Si1 0.818587 0.856078 0.952690
Si Si2 0.939082 0.202037 0.423026
Si Si3 0.663108 0.025491 0.006430
Si Si4 0.802055 0.491710 0.427829
Si Si5 0.156924 0.044252 0.302745
Si Si6 0.046091 0.605395 0.178627
Si Si7 0.626093 0.793186 0.240660
O O1 0.685626 0.900710 0.905588
O O2 0.781607 0.840555 0.763791
O O3 0.892174 0.670465 0.074832
O O4 0.972365 0.026806 0.119141
O O5 0.756431 0.883083 0.478315
O O6 0.089635 0.362521 0.556768
O O7 0.822525 0.175692 0.185766
O O8 0.000000 0.000000 0.500000
O O9 0.527407 0.146097 0.865838
O O10 0.833479 0.278359 0.422037
O O11 0.648680 0.890728 0.121585
O O12 0.641608 0.563811 0.254042
O O13 0.873669 0.520923 0.641944
O O14 0.161221 0.814453 0.281463
O O15 0.000000 0.500000 0.000000
#
# Coordination Sequence:
#
# PCOD9094758 Si02
#       7
#     2   2   2   2   2   2   2
#     4   9  20  37  65  90 111 163 204 257 302 359
#     4  11  22  39  62  91 117 156 203 261 300 357
#     4  11  23  38  62  88 127 163 205 249 308 368
#     4  11  23  35  65  89 118 159 206 249 311 358
#     4   9  20  39  63  91 119 160 205 256 315 351
#     4  10  20  34  60  94 119 148 206 264 299 362
#     4  11  23  39  59  90 126 168 200 248 310 372
#
# _framework density 22.104680999999999
#
# number of rings (size 3 to 8) (size 9 to 14) (size 15 to 20)
#    0.857    0.857    1.429    3.429    4.000    1.143 
#    0.000    0.000    0.000    1.714    0.000    0.000 
#    0.000    0.000    0.000    0.000    0.000    0.000 
#
# Total GULP energy -78032.135881 kJ/mol
# GULP energy per Si atom -5573.723992 kJ/mol
# Density = 2.205437 g / cm^3
# Si number density = 22.104681 Si / 1000 Ang^3
#
#
#
# Elastic Constant Matrix: (Units=GPa)
#
#
# Indices 1 2 3 4 5 6 
#
# 1 116.2827 32.2033 42.6144 -21.7868 -2.4884 -48.1560
# 2 32.2033 84.0226 33.6787 -26.7727 7.3230 -32.1055
# 3 42.6144 33.6787 95.1154 -24.3809 -9.9418 -26.3365
# 4 -21.7868 -26.7727 -24.3809 38.3694 -14.8951 9.4187
# 5 -2.4884 7.3230 -9.9418 -14.8951 33.5081 -4.3569
# 6 -48.1560 -32.1055 -26.3365 9.4187 -4.3569 37.9273
#
#
#
# Elastic Compliance Matrix: (Units=1/GPa)
#
#
# Indices 1 2 3 4 5 6 
#
# 1 0.023731 0.007768 0.001883 0.016229 0.012442 0.035414
# 2 0.007768 0.024015 0.000807 0.017724 0.006977 0.027153
# 3 0.001883 0.000807 0.018726 0.015685 0.014289 0.013824
# 4 0.016229 0.017724 0.015685 0.062320 0.034233 0.034957
# 5 0.012442 0.006977 0.014289 0.034233 0.052491 0.029155
# 6 0.035414 0.027153 0.013824 0.034957 0.029155 0.098583
#
#
# Mechanical properties :
#
#
# Convention : Reuss Voigt Hill
#
# Bulk Modulus (GPa) = 11.44306 56.93482 34.18894
# Shear Modulus (GPa) = 17.35644 34.42258 25.88951
#
# Velocity S-wave (km/s) = 2.80517 3.95049 3.42603
# Velocity P-wave (km/s) = 3.95979 6.82798 5.58127
#
# Compressibility (1/GPa) = 0.08738919
#
# Stress axis : x y z
#
# Youngs Moduli (GPa) = 42.13909 41.63994 53.40238
#
# Poissons Ratio (x) = -0.32347 -0.10058
# Poissons Ratio (y) = -0.32735 -0.04309
# Poissons Ratio (z) = -0.07937 -0.03360
#
# Static dielectric constant tensor:
#      x y z
#    x 1.863950 -0.020580 -0.022500 
#    y -0.020580 1.924990 0.012520 
#    z -0.022500 0.012520 1.829740 
# 
# From -- ./inp_files/234407.got.cif
#   From: 2010.05.17/outbox.cif.g08.bks.cpg/sg2_118_cif.got.tgz:234407.got - 2010.06.03 11:33:40.
