data_PCOD9094551
_publ_section_title
;
Structure prediction by ZEFSAII (Michael W. Deem and Ramdas Pophale) SiO2 
 PCOD9094551
Probable space group: P -1
;
_chemical_formula_sum "Si O2"
_cell_formula_units_Z 15
_cell_length_a 5.060722
_cell_length_b 20.863417
_cell_length_c 5.288377
_cell_angle_alpha 98.064748
_cell_angle_beta 90.083589
_cell_angle_gamma 105.661885
_cell_volume 531.866052
_symmetry_space_group_name_H-M "P -1"
_symmetry_group_IT_number 2
_symmetry_cell_setting 'triclinic'
loop_
_space_group_symop_operation_xyz
x,y,z
-x,-y,-z
loop_
_atom_site_type_symbol
_atom_site_label
_atom_site_fract_x
_atom_site_fract_y
_atom_site_fract_z
Si Si1 0.678696 0.124334 0.457348
Si Si2 0.594484 0.419206 0.058268
Si Si3 0.622548 0.802375 0.118313
Si Si4 0.500000 0.000000 0.500000
Si Si5 0.860670 0.537422 0.728948
Si Si6 0.686529 0.696964 0.373403
Si Si7 0.789886 0.263052 0.308520
Si Si8 0.264631 0.059957 0.019595
O O1 0.538130 0.164994 0.665447
O O2 0.817018 0.068667 0.522205
O O3 0.798920 0.184300 0.296280
O O4 0.429621 0.064639 0.291339
O O5 0.735364 0.484112 0.921467
O O6 0.395464 0.366622 0.844764
O O7 0.406649 0.435354 0.293940
O O8 0.870898 0.403816 0.152347
O O9 0.814374 0.763911 0.239338
O O10 0.761925 0.864443 0.972801
O O11 0.390043 0.744707 0.947891
O O12 0.423527 0.041248 0.770866
O O13 0.000000 0.500000 0.500000
O O14 0.408057 0.708943 0.490202
O O15 0.903594 0.697082 0.593010
O O16 0.000000 0.000000 0.000000
#
# Coordination Sequence:
#
# PCOD9094551 Si02
#       8
#     2   2   2   1   2   2   2   2
#     4   9  20  38  57  88 126 166 218 275 338 408
#     4  10  22  40  66 100 135 177 229 279 330 401
#     4   9  22  42  62  94 134 174 220 281 345 402
#     4  10  20  34  58  86 118 160 212 274 336 398
#     4  10  21  41  67  98 139 180 223 277 335 395
#     4  11  23  43  67  97 136 178 229 283 338 405
#     4  10  23  41  63  92 130 176 225 279 341 411
#     4  10  21  38  61  91 126 170 222 277 341 412
#
# _framework density 28.202587000000001
#
# number of rings (size 3 to 8) (size 9 to 14) (size 15 to 20)
#    0.000    2.133    0.000    1.600    0.000    9.600 
#    0.000    6.667    0.000    0.000    0.000    0.000 
#    0.000    0.000    0.000    0.000    0.000    0.000 
#
# Total GULP energy -83645.113900 kJ/mol
# GULP energy per Si atom -5576.340927 kJ/mol
# Density = 2.813840 g / cm^3
# Si number density = 28.202587 Si / 1000 Ang^3
#
#
#
# Elastic Constant Matrix: (Units=GPa)
#
#
# Indices 1 2 3 4 5 6 
#
# 1 155.2699 37.6613 49.8321 7.1364 -11.7148 13.9316
# 2 37.6613 102.0169 17.9868 5.2794 11.0447 12.0222
# 3 49.8321 17.9868 159.7015 24.0953 -12.1639 11.1622
# 4 7.1364 5.2794 24.0953 48.3311 1.0366 10.3028
# 5 -11.7148 11.0447 -12.1639 1.0366 58.6577 -1.5512
# 6 13.9316 12.0222 11.1622 10.3028 -1.5512 23.4095
#
#
#
# Elastic Compliance Matrix: (Units=1/GPa)
#
#
# Indices 1 2 3 4 5 6 
#
# 1 0.008022 -0.002491 -0.002009 0.000633 0.001572 -0.002712
# 2 -0.002491 0.011651 -0.000493 0.000391 -0.002923 -0.004632
# 3 -0.002009 -0.000493 0.007589 -0.003329 0.001308 -0.000618
# 4 0.000633 0.000391 -0.003329 0.024329 -0.001326 -0.009785
# 5 0.001572 -0.002923 0.001308 -0.001326 0.018253 0.001735
# 6 -0.002712 -0.004632 -0.000618 -0.009785 0.001735 0.051426
#
#
# Mechanical properties :
#
#
# Convention : Reuss Voigt Hill
#
# Bulk Modulus (GPa) = 57.88051 69.77207 63.82629
# Shear Modulus (GPa) = 36.49268 46.84687 41.66978
#
# Velocity S-wave (km/s) = 3.60105 4.08006 3.84802
# Velocity P-wave (km/s) = 6.15287 6.85487 6.51333
#
# Compressibility (1/GPa) = 0.01727697
#
# Stress axis : x y z
#
# Youngs Moduli (GPa) = 124.65667 85.83184 131.76618
#
# Poissons Ratio (x) = 0.21377 0.26471
# Poissons Ratio (y) = 0.31047 0.06495
# Poissons Ratio (z) = 0.25043 0.04231
#
# Static dielectric constant tensor:
#      x y z
#    x 2.660630 -0.052240 0.100580 
#    y -0.052240 2.634720 -0.197950 
#    z 0.100580 -0.197950 2.321460 
# 
# From -- ./inp_files/14193.got.cif
#   From: 2010.05.17/outbox.cif.g08.bks.cpg/sg2_8_cif.got.tgz:14193.got - 2010.06.03 11:33:40.
