data_PCOD9094146
_publ_section_title
;
Structure prediction by ZEFSAII (Michael W. Deem and Ramdas Pophale) SiO2 
 PCOD9094146
Probable space group: P -1
;
_chemical_formula_sum "Si O2"
_cell_formula_units_Z 16
_cell_length_a 9.134234
_cell_length_b 24.510920
_cell_length_c 5.189853
_cell_angle_alpha 119.295670
_cell_angle_beta 77.134978
_cell_angle_gamma 133.617531
_cell_volume 721.370615
_symmetry_space_group_name_H-M "P -1"
_symmetry_group_IT_number 2
_symmetry_cell_setting 'triclinic'
loop_
_space_group_symop_operation_xyz
x,y,z
-x,-y,-z
loop_
_atom_site_type_symbol
_atom_site_label
_atom_site_fract_x
_atom_site_fract_y
_atom_site_fract_z
Si Si1 0.255959 0.507095 0.669102
Si Si2 0.488210 0.846878 0.665703
Si Si3 0.604655 0.748207 0.333162
Si Si4 0.435643 0.910353 0.352470
Si Si5 0.961967 0.753260 0.161611
Si Si6 0.936824 0.327242 0.441638
Si Si7 0.331957 0.654691 0.721712
Si Si8 0.351095 0.421455 0.059897
O O1 0.219215 0.560597 0.657045
O O2 0.270581 0.452962 0.345969
O O3 0.487242 0.577627 0.854331
O O4 0.080258 0.424742 0.727137
O O5 0.635395 0.829074 0.588540
O O6 0.538205 0.905550 0.543712
O O7 0.258605 0.751417 0.498139
O O8 0.479707 0.883903 0.015877
O O9 0.813887 0.770527 0.252391
O O10 0.465842 0.680566 0.467866
O O11 0.481214 0.715381 0.036778
O O12 0.190718 0.837132 0.328874
O O13 0.500000 0.000000 0.500000
O O14 0.833706 0.669454 0.203058
O O15 0.971072 0.710883 0.805914
O O16 0.821706 0.333561 0.270327
O O17 0.500000 0.500000 0.000000
#
# Coordination Sequence:
#
# PCOD9094146 Si02
#       8
#     2   2   2   2   2   2   2   2
#     4  10  20  34  54  83 124 167 220 258 304 358
#     4  10  22  43  65  93 128 162 201 254 316 371
#     4  11  22  39  64  89 127 166 208 255 312 371
#     4  11  24  45  71  96 125 159 205 257 315 379
#     4  10  21  39  62  93 121 168 210 255 313 369
#     4   9  21  38  60  88 125 171 213 260 308 369
#     4  11  22  40  56  90 128 173 213 260 307 360
#     4  10  20  34  54  86 127 164 209 265 305 359
#
# _framework density 22.180002000000002
#
# number of rings (size 3 to 8) (size 9 to 14) (size 15 to 20)
#    0.000    1.750    1.250    3.750    1.750    2.000 
#    2.250    4.375    0.000    0.000    0.000    0.000 
#    0.000    0.000    0.000    0.000    0.000    0.000 
#
# Total GULP energy -89264.884524 kJ/mol
# GULP energy per Si atom -5579.055283 kJ/mol
# Density = 2.212952 g / cm^3
# Si number density = 22.180002 Si / 1000 Ang^3
#
#
#
# Elastic Constant Matrix: (Units=GPa)
#
#
# Indices 1 2 3 4 5 6 
#
# 1 113.6797 32.5659 55.6517 1.8075 -32.4620 -8.0842
# 2 32.5659 103.5303 25.1290 12.9858 -6.0516 -31.7418
# 3 55.6517 25.1290 70.8601 -7.5641 -14.2019 -2.4685
# 4 1.8075 12.9858 -7.5641 29.0253 -5.6547 -5.4167
# 5 -32.4620 -6.0516 -14.2019 -5.6547 31.4201 3.7048
# 6 -8.0842 -31.7418 -2.4685 -5.4167 3.7048 32.2081
#
#
#
# Elastic Compliance Matrix: (Units=1/GPa)
#
#
# Indices 1 2 3 4 5 6 
#
# 1 0.019036 -0.002423 -0.011319 -0.000344 0.014040 -0.000150
# 2 -0.002423 0.016878 -0.005217 -0.006859 -0.004614 0.015003
# 3 -0.011319 -0.005217 0.025913 0.009169 0.001205 -0.004593
# 4 -0.000344 -0.006859 0.009169 0.041837 0.010028 -0.000260
# 5 0.014040 -0.004614 0.001205 0.010028 0.048360 -0.004807
# 6 -0.000150 0.015003 -0.004593 -0.000260 -0.004807 0.045953
#
#
# Mechanical properties :
#
#
# Convention : Reuss Voigt Hill
#
# Bulk Modulus (GPa) = 41.82567 57.19592 49.51079
# Shear Modulus (GPa) = 20.50327 30.17893 25.34110
#
# Velocity S-wave (km/s) = 3.04370 3.69268 3.38379
# Velocity P-wave (km/s) = 5.59021 6.63508 6.13493
#
# Compressibility (1/GPa) = 0.02390876
#
# Stress axis : x y z
#
# Youngs Moduli (GPa) = 52.53182 59.25015 38.59130
#
# Poissons Ratio (x) = 0.14353 0.43683
# Poissons Ratio (y) = 0.12726 0.20132
# Poissons Ratio (z) = 0.59463 0.30910
#
# Static dielectric constant tensor:
#      x y z
#    x 2.460340 1.089410 -0.034010 
#    y 1.089410 4.132830 -0.169240 
#    z -0.034010 -0.169240 1.825740 
# 
# From -- ./inp_files/55134.got.cif
#   From: 2010.05.17/outbox.cif.g08.bks.cpg/sg2_28_cif.got.tgz:55134.got - 2010.06.03 11:33:40.
