data_PCOD9094027
_publ_section_title
;
Structure prediction by ZEFSAII (Michael W. Deem and Ramdas Pophale) SiO2 
 PCOD9094027
Probable space group: P -1
;
_chemical_formula_sum "Si O2"
_cell_formula_units_Z 14
_cell_length_a 26.927648
_cell_length_b 26.990184
_cell_length_c 17.391130
_cell_angle_alpha 160.260792
_cell_angle_beta 19.621575
_cell_angle_gamma 169.453280
_cell_volume 752.691682
_symmetry_space_group_name_H-M "P -1"
_symmetry_group_IT_number 2
_symmetry_cell_setting 'triclinic'
loop_
_space_group_symop_operation_xyz
x,y,z
-x,-y,-z
loop_
_atom_site_type_symbol
_atom_site_label
_atom_site_fract_x
_atom_site_fract_y
_atom_site_fract_z
Si Si1 0.031964 0.184634 0.182356
Si Si2 0.607354 0.209641 0.089751
Si Si3 0.246132 0.202238 0.757084
Si Si4 0.894744 0.307123 0.032834
Si Si5 0.749567 0.653309 0.580124
Si Si6 0.207954 0.285560 0.572622
Si Si7 0.490439 0.769126 0.447511
O O1 0.302267 0.494108 0.273901
O O2 0.079477 0.181922 0.020916
O O3 0.754332 0.034437 0.396531
O O4 0.000000 0.000000 0.000000
O O5 0.687791 0.427633 0.332807
O O6 0.892632 0.419075 0.931638
O O7 0.500000 0.000000 0.000000
O O8 0.335306 0.988056 0.107494
O O9 0.483267 0.479756 0.764941
O O10 0.394423 0.214961 0.620032
O O11 0.030178 0.930757 0.622151
O O12 0.706117 0.260511 0.287292
O O13 0.099654 0.361445 0.852297
O O14 0.769572 0.721260 0.562032
O O15 0.500000 0.500000 0.500000
O O16 0.000000 0.000000 0.500000
#
# Coordination Sequence:
#
# PCOD9094027 Si02
#       7
#     2   2   2   2   2   2   2
#     4  10  20  34  52  79 116 157 188 216 256 313
#     4  11  22  35  50  80 120 149 173 216 269 339
#     4  11  20  35  55  83 118 151 184 224 264 326
#     4  11  23  37  56  82 108 148 190 223 276 335
#     4  11  22  36  56  83 109 148 190 224 278 333
#     4  11  23  42  60  79 107 140 188 246 286 331
#     4  11  21  35  54  82 118 153 184 219 262 325
#
# _framework density 18.599913000000001
#
# number of rings (size 3 to 8) (size 9 to 14) (size 15 to 20)
#    0.000    1.143    0.000   10.714    0.000    4.571 
#    0.000    0.000    0.000    0.000    0.000   20.000 
#    0.000    0.000    0.000    0.000    0.000    0.000 
#
# Total GULP energy -78183.167615 kJ/mol
# GULP energy per Si atom -5584.511972 kJ/mol
# Density = 1.855758 g / cm^3
# Si number density = 18.599913 Si / 1000 Ang^3
#
#
#
# Elastic Constant Matrix: (Units=GPa)
#
#
# Indices 1 2 3 4 5 6 
#
# 1 105.5707 58.1881 55.7637 -2.0042 8.2340 -2.0865
# 2 58.1881 144.6999 35.9770 -6.9215 2.7017 3.0996
# 3 55.7637 35.9770 82.3942 -22.5978 7.3214 0.9581
# 4 -2.0042 -6.9215 -22.5978 44.9410 -2.4041 13.2913
# 5 8.2340 2.7017 7.3214 -2.4041 22.6100 -0.7430
# 6 -2.0865 3.0996 0.9581 13.2913 -0.7430 52.0220
#
#
#
# Elastic Compliance Matrix: (Units=1/GPa)
#
#
# Indices 1 2 3 4 5 6 
#
# 1 0.018840 -0.004853 -0.012380 -0.007197 -0.002937 0.003070
# 2 -0.004853 0.009020 -0.000350 0.001359 0.000913 -0.001060
# 3 -0.012380 -0.000350 0.024421 0.012810 -0.002134 -0.004229
# 4 -0.007197 0.001359 0.012810 0.031183 0.001345 -0.008553
# 5 -0.002937 0.000913 -0.002134 0.001345 0.046029 0.000181
# 6 0.003070 -0.001060 -0.004229 -0.008553 0.000181 0.021675
#
#
# Mechanical properties :
#
#
# Convention : Reuss Voigt Hill
#
# Bulk Modulus (GPa) = 58.43308 70.28027 64.35668
# Shear Modulus (GPa) = 26.03656 36.09698 31.06677
#
# Velocity S-wave (km/s) = 3.74548 4.41013 4.09132
# Velocity P-wave (km/s) = 7.08440 7.98746 7.54945
#
# Compressibility (1/GPa) = 0.01711359
#
# Stress axis : x y z
#
# Youngs Moduli (GPa) = 53.07948 110.86298 40.94909
#
# Poissons Ratio (x) = 0.53803 0.50696
# Poissons Ratio (y) = 0.25760 0.01434
# Poissons Ratio (z) = 0.65713 0.03882
#
# Static dielectric constant tensor:
#      x y z
#    x 1.656340 -0.010950 0.018830 
#    y -0.010950 1.671150 -0.068340 
#    z 0.018830 -0.068340 1.663810 
# 
# From -- ./inp_files/477204.got.cif
#   From: 2010.05.17/outbox.cif.g08.bks.cpg/sg2_239_cif.got.tgz:477204.got - 2010.06.03 11:33:40.
