data_PCOD9094598
_publ_section_title
;
Structure prediction by ZEFSAII (Michael W. Deem and Ramdas Pophale) SiO2 
 PCOD9094598
Probable space group: P -1
;
_chemical_formula_sum "Si O2"
_cell_formula_units_Z 16
_cell_length_a 12.229792
_cell_length_b 5.296325
_cell_length_c 11.924633
_cell_angle_alpha 100.814942
_cell_angle_beta 73.680158
_cell_angle_gamma 82.745797
_cell_volume 714.859250
_symmetry_space_group_name_H-M "P -1"
_symmetry_group_IT_number 2
_symmetry_cell_setting 'triclinic'
loop_
_space_group_symop_operation_xyz
x,y,z
-x,-y,-z
loop_
_atom_site_type_symbol
_atom_site_label
_atom_site_fract_x
_atom_site_fract_y
_atom_site_fract_z
Si Si1 0.362049 0.368682 0.580266
Si Si2 0.981488 0.464240 0.810242
Si Si3 0.825897 0.913435 0.343986
Si Si4 0.318137 0.859559 0.797793
Si Si5 0.238890 0.814795 0.398658
Si Si6 0.105904 0.353775 0.378026
Si Si7 0.891756 0.245575 0.034680
Si Si8 0.527623 0.974905 0.662932
O O1 0.234275 0.306908 0.600973
O O2 0.354316 0.616962 0.681698
O O3 0.419143 0.304524 0.436073
O O4 0.437575 0.137932 0.614210
O O5 0.932535 0.657781 0.741471
O O6 0.039054 0.193226 0.711210
O O7 0.083334 0.572916 0.854311
O O8 0.902515 0.394730 0.927755
O O9 0.782988 0.154123 0.458263
O O10 0.774979 0.954265 0.237910
O O11 0.237430 0.809899 0.919084
O O12 0.440748 0.948622 0.788115
O O13 0.155746 0.066908 0.388318
O O14 0.367826 0.867743 0.339326
O O15 0.201393 0.543111 0.357617
O O16 0.000000 0.500000 0.500000
O O17 0.000000 0.000000 0.000000
#
# Coordination Sequence:
#
# PCOD9094598 Si02
#       8
#     2   2   2   2   2   2   2   2
#     4   9  18  34  52  91 126 166 204 258 326 383
#     4  11  24  41  59  92 130 165 217 267 326 383
#     4  10  20  34  58  92 130 166 208 259 324 395
#     4  11  20  33  65  89 128 169 209 268 324 391
#     4  11  26  41  64  96 131 176 214 263 324 387
#     4  12  27  43  66  95 129 177 220 263 322 389
#     4  11  24  39  66  93 125 169 213 275 328 381
#     4   9  21  35  56  91 129 166 211 262 320 388
#
# _framework density 22.382028999999999
#
# number of rings (size 3 to 8) (size 9 to 14) (size 15 to 20)
#    0.000    1.500    3.750    1.500    8.750    0.000 
#    0.000    0.000    0.000    1.500    0.000    0.000 
#    0.000    0.000    0.000    0.000    0.000    0.000 
#
# Total GULP energy -89258.903447 kJ/mol
# GULP energy per Si atom -5578.681465 kJ/mol
# Density = 2.233109 g / cm^3
# Si number density = 22.382029 Si / 1000 Ang^3
#
#
#
# Elastic Constant Matrix: (Units=GPa)
#
#
# Indices 1 2 3 4 5 6 
#
# 1 85.7309 13.2801 39.1828 -8.3783 -24.3169 15.4544
# 2 13.2801 69.0567 10.3902 2.4021 -6.7356 -1.5530
# 3 39.1828 10.3902 74.1425 -22.4070 -11.9934 0.6643
# 4 -8.3783 2.4021 -22.4070 30.7267 -1.3879 2.7684
# 5 -24.3169 -6.7356 -11.9934 -1.3879 33.4111 -7.8761
# 6 15.4544 -1.5530 0.6643 2.7684 -7.8761 31.3851
#
#
#
# Elastic Compliance Matrix: (Units=1/GPa)
#
#
# Indices 1 2 3 4 5 6 
#
# 1 0.019861 -0.001807 -0.008550 0.000408 0.009296 -0.007391
# 2 -0.001807 0.015441 -0.001980 -0.003289 0.001508 0.002364
# 3 -0.008550 -0.001980 0.023144 0.014559 0.003021 0.003096
# 4 0.000408 -0.003289 0.014559 0.044075 0.005969 -0.003062
# 5 0.009296 0.001508 0.003021 0.005969 0.039466 0.004811
# 6 -0.007391 0.002364 0.003096 -0.003062 0.004811 0.037030
#
#
# Mechanical properties :
#
#
# Convention : Reuss Voigt Hill
#
# Bulk Modulus (GPa) = 29.60962 39.40402 34.50682
# Shear Modulus (GPa) = 23.26136 30.17638 26.71887
#
# Velocity S-wave (km/s) = 3.22730 3.67582 3.45884
# Velocity P-wave (km/s) = 5.21010 5.97152 5.60376
#
# Compressibility (1/GPa) = 0.03377281
#
# Stress axis : x y z
#
# Youngs Moduli (GPa) = 50.35019 64.76321 43.20765
#
# Poissons Ratio (x) = 0.11701 0.36941
# Poissons Ratio (y) = 0.09097 0.08556
# Poissons Ratio (z) = 0.43047 0.12825
#
# Static dielectric constant tensor:
#      x y z
#    x 1.874250 0.019910 -0.034090 
#    y 0.019910 1.945680 0.006330 
#    z -0.034090 0.006330 1.854230 
# 
# From -- ./inp_files/76514.got.cif
#   From: 2010.05.17/outbox.cif.g08.bks.cpg/sg2_39_cif.got.tgz:76514.got - 2010.06.03 11:33:40.
