data_PCOD9094281
_publ_section_title
;
Structure prediction by ZEFSAII (Michael W. Deem and Ramdas Pophale) SiO2 
 PCOD9094281
Probable space group: P -1
;
_chemical_formula_sum "Si O2"
_cell_formula_units_Z 16
_cell_length_a 13.479312
_cell_length_b 9.920198
_cell_length_c 8.357201
_cell_angle_alpha 64.880950
_cell_angle_beta 59.020949
_cell_angle_gamma 35.801060
_cell_volume 560.406000
_symmetry_space_group_name_H-M "P -1"
_symmetry_group_IT_number 2
_symmetry_cell_setting 'triclinic'
loop_
_space_group_symop_operation_xyz
x,y,z
-x,-y,-z
loop_
_atom_site_type_symbol
_atom_site_label
_atom_site_fract_x
_atom_site_fract_y
_atom_site_fract_z
Si Si1 0.570435 0.844924 0.171519
Si Si2 0.635613 0.490144 0.093839
Si Si3 0.140081 0.503715 0.665361
Si Si4 0.916716 0.031309 0.299976
Si Si5 0.858670 0.921033 0.906076
Si Si6 0.362006 0.583759 0.429445
Si Si7 0.836804 0.824942 0.306022
Si Si8 0.493766 0.193347 0.212964
O O1 0.585680 0.661681 0.186981
O O2 0.767168 0.669291 0.171995
O O3 0.457181 0.051729 0.292972
O O4 0.500000 0.000000 0.000000
O O5 0.801623 0.230373 0.156236
O O6 0.474056 0.528845 0.212199
O O7 0.658038 0.559125 0.874473
O O8 0.284801 0.491978 0.512213
O O9 0.131132 0.382062 0.605824
O O10 0.959624 0.749490 0.759287
O O11 0.812461 0.163278 0.484847
O O12 0.098054 0.946421 0.195978
O O13 0.910521 0.863179 0.358157
O O14 0.652346 0.083656 0.008348
O O15 0.933751 0.782395 0.081701
O O16 0.500000 0.500000 0.500000
O O17 0.626120 0.072717 0.319003
#
# Coordination Sequence:
#
# PCOD9094281 Si02
#       8
#     2   2   2   2   2   2   2   2
#     4   9  15  26  46  70  94 116 147 193 231 264
#     4  10  17  32  48  68  96 123 157 190 222 276
#     4  10  16  30  47  69  93 121 157 193 219 275
#     4  10  18  30  48  71  92 126 150 187 238 272
#     4   9  17  30  48  72  91 121 156 185 237 272
#     4   9  17  29  50  67  88 128 162 184 221 268
#     4   9  19  29  47  71  99 113 151 195 238 273
#     4   8  19  28  47  73  97 114 153 194 234 269
#
# _framework density 28.550726999999998
#
# number of rings (size 3 to 8) (size 9 to 14) (size 15 to 20)
#    0.750    2.000    3.750    0.750    0.000    0.500 
#    0.000    5.000    0.000    0.000    0.000    1.750 
#    0.000    0.000    0.000    0.000    0.000    0.000 
#
# Total GULP energy -89215.380249 kJ/mol
# GULP energy per Si atom -5575.961266 kJ/mol
# Density = 2.848574 g / cm^3
# Si number density = 28.550727 Si / 1000 Ang^3
#
#
#
# Elastic Constant Matrix: (Units=GPa)
#
#
# Indices 1 2 3 4 5 6 
#
# 1 126.9051 44.1359 39.4779 -14.1162 -12.7780 37.2641
# 2 44.1359 143.3098 38.3806 -25.2186 -19.0551 30.8932
# 3 39.4779 38.3806 94.6260 -8.7274 -5.8594 -1.5581
# 4 -14.1162 -25.2186 -8.7274 44.9937 -6.0292 -8.8834
# 5 -12.7780 -19.0551 -5.8594 -6.0292 25.0139 -16.3790
# 6 37.2641 30.8932 -1.5581 -8.8834 -16.3790 67.3420
#
#
#
# Elastic Compliance Matrix: (Units=1/GPa)
#
#
# Indices 1 2 3 4 5 6 
#
# 1 0.011404 -0.000788 -0.004366 0.001270 0.000781 -0.005692
# 2 -0.000788 0.010305 -0.002960 0.005468 0.006767 -0.001992
# 3 -0.004366 -0.002960 0.013875 0.000868 0.002058 0.004710
# 4 0.001270 0.005468 0.000868 0.028636 0.014634 0.004146
# 5 0.000781 0.006767 0.002058 0.014634 0.057712 0.012478
# 6 -0.005692 -0.001992 0.004710 0.004146 0.012478 0.022604
#
#
# Mechanical properties :
#
#
# Convention : Reuss Voigt Hill
#
# Bulk Modulus (GPa) = 51.66805 67.64773 59.65789
# Shear Modulus (GPa) = 29.90112 43.65968 36.78040
#
# Velocity S-wave (km/s) = 3.23971 3.91474 3.59311
# Velocity P-wave (km/s) = 5.66838 6.64672 6.17695
#
# Compressibility (1/GPa) = 0.01935432
#
# Stress axis : x y z
#
# Youngs Moduli (GPa) = 87.69158 97.04022 72.07091
#
# Poissons Ratio (x) = 0.07651 0.31467
# Poissons Ratio (y) = 0.06914 0.21335
# Poissons Ratio (z) = 0.38287 0.28727
#
# Static dielectric constant tensor:
#      x y z
#    x 2.181510 0.039260 0.000050 
#    y 0.039260 2.409650 -0.051570 
#    z 0.000050 -0.051570 2.291380 
# 
# From -- ./inp_files/444342.got.cif
#   From: 2010.05.17/outbox.cif.g08.bks.cpg/sg2_223_cif.got.tgz:444342.got - 2010.06.03 11:33:40.
