data_PCOD9094162
_publ_section_title
;
Structure prediction by ZEFSAII (Michael W. Deem and Ramdas Pophale) SiO2 
 PCOD9094162
Probable space group: P -1
;
_chemical_formula_sum "Si O2"
_cell_formula_units_Z 16
_cell_length_a 11.936173
_cell_length_b 9.317560
_cell_length_c 24.323450
_cell_angle_alpha 135.091409
_cell_angle_beta 40.908367
_cell_angle_gamma 102.729766
_cell_volume 915.641166
_symmetry_space_group_name_H-M "P -1"
_symmetry_group_IT_number 2
_symmetry_cell_setting 'triclinic'
loop_
_space_group_symop_operation_xyz
x,y,z
-x,-y,-z
loop_
_atom_site_type_symbol
_atom_site_label
_atom_site_fract_x
_atom_site_fract_y
_atom_site_fract_z
Si Si1 0.364824 0.281252 0.093475
Si Si2 0.604390 0.527942 0.393037
Si Si3 0.145063 0.266120 0.608652
Si Si4 0.795540 0.030114 0.262764
Si Si5 0.852171 0.535334 0.888641
Si Si6 0.861298 0.321662 0.131824
Si Si7 0.610252 0.726499 0.237096
Si Si8 0.681619 0.420128 0.022029
O O1 0.324997 0.253567 0.036635
O O2 0.096714 0.531850 0.280639
O O3 0.506494 0.375160 0.069650
O O4 0.500000 0.000000 0.000000
O O5 0.762629 0.578821 0.374808
O O6 0.687845 0.248927 0.312681
O O7 0.346598 0.787175 0.580476
O O8 0.655686 0.491446 0.299740
O O9 0.059151 0.267524 0.701903
O O10 0.356014 0.972002 0.424471
O O11 0.746308 0.831864 0.217430
O O12 0.066489 0.853236 0.122593
O O13 0.733938 0.482670 0.961335
O O14 0.966196 0.632459 0.904153
O O15 0.753178 0.454261 0.148535
O O16 0.000000 0.000000 0.000000
O O17 0.591909 0.656261 0.163664
#
# Coordination Sequence:
#
# PCOD9094162 Si02
#       8
#     2   2   2   2   2   2   2   2
#     4  10  22  40  64  80 110 154 202 237 274 338
#     4   9  19  34  56  80 119 149 188 234 280 350
#     4   8  20  39  58  84 112 152 199 225 285 343
#     4  10  20  34  54  87 115 150 187 233 295 339
#     4   9  22  39  58  84 111 150 195 232 274 348
#     4  11  22  35  58  86 124 149 189 234 296 346
#     4  11  23  35  59  88 120 150 181 243 299 338
#     4  12  22  35  60  85 116 147 195 238 285 336
#
# _framework density 17.474094999999998
#
# number of rings (size 3 to 8) (size 9 to 14) (size 15 to 20)
#    0.750    1.250    1.250    2.250    5.250    2.000 
#    0.000    0.000    0.000    0.750    0.000    0.000 
#    0.000    0.000    0.000    0.000    0.000    0.000 
#
# Total GULP energy -89188.125769 kJ/mol
# GULP energy per Si atom -5574.257861 kJ/mol
# Density = 1.743432 g / cm^3
# Si number density = 17.474095 Si / 1000 Ang^3
#
#
#
# Elastic Constant Matrix: (Units=GPa)
#
#
# Indices 1 2 3 4 5 6 
#
# 1 47.8660 10.6074 31.6235 -5.1992 -6.4502 -7.3814
# 2 10.6074 64.8502 22.0925 2.4695 6.7189 -8.4241
# 3 31.6235 22.0925 85.5544 -2.5983 -6.8637 5.3250
# 4 -5.1992 2.4695 -2.5983 21.5282 -3.3780 -1.9671
# 5 -6.4502 6.7189 -6.8637 -3.3780 22.6023 -4.4502
# 6 -7.3814 -8.4241 5.3250 -1.9671 -4.4502 19.7235
#
#
#
# Elastic Compliance Matrix: (Units=1/GPa)
#
#
# Indices 1 2 3 4 5 6 
#
# 1 0.035490 -0.000368 -0.013010 0.010777 0.011914 0.020400
# 2 -0.000368 0.019364 -0.005990 -0.003348 -0.006621 0.007922
# 3 -0.013010 -0.005990 0.018876 -0.001118 0.001198 -0.012365
# 4 0.010777 -0.003348 -0.001118 0.052495 0.013792 0.011253
# 5 0.011914 -0.006621 0.001198 0.013792 0.055008 0.015095
# 6 0.020400 0.007922 -0.012365 0.011253 0.015095 0.069586
#
#
# Mechanical properties :
#
#
# Convention : Reuss Voigt Hill
#
# Bulk Modulus (GPa) = 28.57625 36.32414 32.45020
# Shear Modulus (GPa) = 16.59923 21.70062 19.14992
#
# Velocity S-wave (km/s) = 3.08544 3.52785 3.31403
# Velocity P-wave (km/s) = 5.39280 6.11775 5.76668
#
# Compressibility (1/GPa) = 0.03499410
#
# Stress axis : x y z
#
# Youngs Moduli (GPa) = 28.17669 51.64348 52.97745
#
# Poissons Ratio (x) = 0.01899 0.68924
# Poissons Ratio (y) = 0.01036 0.31735
# Poissons Ratio (z) = 0.36658 0.30936
#
# Static dielectric constant tensor:
#      x y z
#    x 1.578060 -0.017830 0.006990 
#    y -0.017830 1.591820 -0.011550 
#    z 0.006990 -0.011550 1.617670 
# 
# From -- ./inp_files/447922.got.cif
#   From: 2010.05.17/outbox.cif.g08.bks.cpg/sg2_224_cif.got.tgz:447922.got - 2010.06.03 11:33:40.
