data_PCOD9094641
_publ_section_title
;
Structure prediction by ZEFSAII (Michael W. Deem and Ramdas Pophale) SiO2 
 PCOD9094641
Probable space group: P -1
;
_chemical_formula_sum "Si O2"
_cell_formula_units_Z 16
_cell_length_a 12.406972
_cell_length_b 8.009269
_cell_length_c 16.040270
_cell_angle_alpha 117.514509
_cell_angle_beta 44.308936
_cell_angle_gamma 145.480733
_cell_volume 597.257104
_symmetry_space_group_name_H-M "P -1"
_symmetry_group_IT_number 2
_symmetry_cell_setting 'triclinic'
loop_
_space_group_symop_operation_xyz
x,y,z
-x,-y,-z
loop_
_atom_site_type_symbol
_atom_site_label
_atom_site_fract_x
_atom_site_fract_y
_atom_site_fract_z
Si Si1 0.738712 0.991618 0.483988
Si Si2 0.590442 0.979937 0.096097
Si Si3 0.820287 0.140023 0.650813
Si Si4 0.465670 0.486705 0.783335
Si Si5 0.238220 0.169696 0.135376
Si Si6 0.083104 0.415833 0.040858
Si Si7 0.868456 0.122752 0.261231
Si Si8 0.175527 0.377307 0.656571
O O1 0.892580 0.199797 0.528144
O O2 0.803219 0.138804 0.392144
O O3 0.440684 0.737113 0.609069
O O4 0.771879 0.796974 0.415006
O O5 0.335142 0.819193 0.237463
O O6 0.822681 0.188041 0.080697
O O7 0.691740 0.227948 0.029981
O O8 0.568404 0.758576 0.012173
O O9 0.617877 0.774729 0.703101
O O10 0.051361 0.322942 0.626924
O O11 0.638148 0.626405 0.802184
O O12 0.380686 0.218337 0.719908
O O13 0.211973 0.342115 0.926723
O O14 0.062485 0.142278 0.178060
O O15 0.034278 0.813961 0.199239
O O16 0.004088 0.366306 0.168600
#
# Coordination Sequence:
#
# PCOD9094641 Si02
#       8
#     2   2   2   2   2   2   2   2
#     4  10  20  34  59  87 120 159 202 241 299 352
#     4  10  22  40  63  91 121 159 203 242 305 372
#     4  10  20  36  58  90 121 156 198 251 292 354
#     4  10  20  35  62  92 119 152 198 250 306 347
#     4  10  21  37  64  95 119 154 201 252 305 359
#     4  10  22  38  61  87 126 161 193 251 303 360
#     4  11  22  40  59  91 126 156 199 254 301 352
#     4   9  19  33  58  89 119 150 203 254 288 345
#
# _framework density 26.789131999999999
#
# number of rings (size 3 to 8) (size 9 to 14) (size 15 to 20)
#    0.000    2.000    1.250    3.000    3.500    7.000 
#    0.000    0.625    0.000    0.750    0.000    0.000 
#    0.000    0.000    0.000    0.000    0.000    0.000 
#
# Total GULP energy -89772.637967 kJ/mol
# GULP energy per Si atom -5610.789873 kJ/mol
# Density = 2.672816 g / cm^3
# Si number density = 26.789132 Si / 1000 Ang^3
#
#
#
# Elastic Constant Matrix: (Units=GPa)
#
#
# Indices 1 2 3 4 5 6 
#
# 1 92.6267 22.7803 22.2562 -13.8248 33.5121 7.4238
# 2 22.7803 69.5905 7.2261 -3.0405 13.0343 2.3929
# 3 22.2562 7.2261 79.1199 11.3834 26.3987 3.6295
# 4 -13.8248 -3.0405 11.3834 28.6339 8.5939 -4.9060
# 5 33.5121 13.0343 26.3987 8.5939 51.5326 -1.6237
# 6 7.4238 2.3929 3.6295 -4.9060 -1.6237 34.2260
#
#
#
# Elastic Compliance Matrix: (Units=1/GPa)
#
#
# Indices 1 2 3 4 5 6 
#
# 1 0.018769 -0.002898 -0.002674 0.013137 -0.012366 -0.002289
# 2 -0.002898 0.015798 0.000031 0.000873 -0.002288 -0.000463
# 3 -0.002674 0.000031 0.016302 -0.006486 -0.005612 -0.002347
# 4 0.013137 0.000873 -0.006486 0.048673 -0.013428 0.004117
# 5 -0.012366 -0.002288 -0.005612 -0.013428 0.033237 0.003089
# 6 -0.002289 -0.000463 -0.002347 0.004117 0.003089 0.030732
#
#
# Mechanical properties :
#
#
# Convention : Reuss Voigt Hill
#
# Bulk Modulus (GPa) = 25.13371 38.42914 31.78143
# Shear Modulus (GPa) = 26.61631 35.48348 31.04990
#
# Velocity S-wave (km/s) = 3.15548 3.64338 3.40817
# Velocity P-wave (km/s) = 4.76219 5.66349 5.23229
#
# Compressibility (1/GPa) = 0.03978720
#
# Stress axis : x y z
#
# Youngs Moduli (GPa) = 53.27854 63.30077 61.34297
#
# Poissons Ratio (x) = 0.18342 0.16404
# Poissons Ratio (y) = 0.15438 -0.00191
# Poissons Ratio (z) = 0.14248 -0.00197
#
# Static dielectric constant tensor:
#      x y z
#    x 2.050350 -0.077800 0.004910 
#    y -0.077800 2.163500 0.003760 
#    z 0.004910 0.003760 2.062620 
# 
# From -- ./inp_files/515889.got.cif
#   From: 2010.05.17/outbox.cif.g08.bks.cpg/sg2_258_cif.got.tgz:515889.got - 2010.06.03 11:33:40.
