data_PCOD9094761
_publ_section_title
;
Structure prediction by ZEFSAII (Michael W. Deem and Ramdas Pophale) SiO2 
 PCOD9094761
Probable space group: P -1
;
_chemical_formula_sum "Si O2"
_cell_formula_units_Z 16
_cell_length_a 17.531747
_cell_length_b 8.287314
_cell_length_c 11.999906
_cell_angle_alpha 60.604115
_cell_angle_beta 23.884504
_cell_angle_gamma 66.982859
_cell_volume 606.724237
_symmetry_space_group_name_H-M "P -1"
_symmetry_group_IT_number 2
_symmetry_cell_setting 'triclinic'
loop_
_space_group_symop_operation_xyz
x,y,z
-x,-y,-z
loop_
_atom_site_type_symbol
_atom_site_label
_atom_site_fract_x
_atom_site_fract_y
_atom_site_fract_z
Si Si1 0.198389 0.934452 0.010376
Si Si2 0.929249 0.114709 0.157431
Si Si3 0.436417 0.754158 0.582041
Si Si4 0.859115 0.527769 0.351779
Si Si5 0.826244 0.232019 0.666506
Si Si6 0.625881 0.789691 0.712904
Si Si7 0.418561 0.595606 0.420111
Si Si8 0.327815 0.108144 0.149862
O O1 0.261277 0.813082 0.864524
O O2 0.399744 0.068226 0.722686
O O3 0.123332 0.812766 0.259579
O O4 0.049480 0.061449 0.120520
O O5 0.994048 0.328440 0.964515
O O6 0.711804 0.008394 0.496614
O O7 0.000000 0.000000 0.000000
O O8 0.377503 0.641291 0.586486
O O9 0.537076 0.615040 0.570837
O O10 0.930812 0.408047 0.396382
O O11 0.717804 0.653992 0.555509
O O12 0.738465 0.389826 0.470105
O O13 0.821628 0.051228 0.654614
O O14 0.601582 0.255460 0.968247
O O15 0.706215 0.774120 0.735395
O O16 0.601224 0.741622 0.090010
O O17 0.500000 0.000000 0.000000
#
# Coordination Sequence:
#
# PCOD9094761 Si02
#       8
#     2   2   2   2   2   2   2   2
#     4  11  22  40  64  94 124 169 214 262 311 378
#     4  10  24  43  63  89 133 170 208 252 327 382
#     4  10  23  33  63  95 126 162 215 271 307 361
#     4  11  21  38  65  94 124 168 211 258 306 386
#     4  11  22  38  68  99 124 156 222 268 306 363
#     4  10  22  39  64  92 127 173 202 254 320 384
#     4  11  19  36  58 100 129 154 216 272 309 358
#     4  10  20  34  60  94 126 159 206 264 311 361
#
# _framework density 26.371123999999998
#
# number of rings (size 3 to 8) (size 9 to 14) (size 15 to 20)
#    0.000    1.500    5.000    1.125    7.000    0.000 
#    0.000    3.750    2.750    1.500    0.000    0.000 
#    0.000    0.000    0.000    0.000    0.000    0.000 
#
# Total GULP energy -89632.433003 kJ/mol
# GULP energy per Si atom -5602.027063 kJ/mol
# Density = 2.631110 g / cm^3
# Si number density = 26.371124 Si / 1000 Ang^3
#
#
#
# Elastic Constant Matrix: (Units=GPa)
#
#
# Indices 1 2 3 4 5 6 
#
# 1 148.8549 39.5159 44.5525 0.1821 26.0786 -12.8726
# 2 39.5159 83.4784 45.4919 -12.8144 17.0095 5.6449
# 3 44.5525 45.4919 97.3632 -16.7410 27.7117 -14.6327
# 4 0.1821 -12.8144 -16.7410 53.1891 -5.0999 16.9666
# 5 26.0786 17.0095 27.7117 -5.0999 48.6932 -0.4977
# 6 -12.8726 5.6449 -14.6327 16.9666 -0.4977 50.4033
#
#
#
# Elastic Compliance Matrix: (Units=1/GPa)
#
#
# Indices 1 2 3 4 5 6 
#
# 1 0.008862 -0.003280 -0.001701 -0.002581 -0.002872 0.002977
# 2 -0.003280 0.018717 -0.007449 0.004242 -0.000165 -0.006526
# 3 -0.001701 -0.007449 0.017253 0.001513 -0.006097 0.004839
# 4 -0.002581 0.004242 0.001513 0.023142 0.001377 -0.008471
# 5 -0.002872 -0.000165 -0.006097 0.001377 0.025719 -0.002695
# 6 0.002977 -0.006526 0.004839 -0.008471 -0.002695 0.025561
#
#
# Mechanical properties :
#
#
# Convention : Reuss Voigt Hill
#
# Bulk Modulus (GPa) = 50.07351 65.42413 57.74882
# Shear Modulus (GPa) = 33.16275 43.79955 38.48115
#
# Velocity S-wave (km/s) = 3.55003 4.07982 3.82411
# Velocity P-wave (km/s) = 5.98605 6.85975 6.43774
#
# Compressibility (1/GPa) = 0.01997064
#
# Stress axis : x y z
#
# Youngs Moduli (GPa) = 112.84574 53.42687 57.96175
#
# Poissons Ratio (x) = 0.17524 0.09862
# Poissons Ratio (y) = 0.37013 0.43176
# Poissons Ratio (z) = 0.19201 0.39798
#
# Static dielectric constant tensor:
#      x y z
#    x 2.085740 -0.050130 -0.014180 
#    y -0.050130 2.100260 0.024330 
#    z -0.014180 0.024330 2.068160 
# 
# From -- ./inp_files/461059.got.cif
#   From: 2010.05.17/outbox.cif.g08.bks.cpg/sg2_231_cif.got.tgz:461059.got - 2010.06.03 11:33:40.
