data_PCOD9094860
_publ_section_title
;
Structure prediction by ZEFSAII (Michael W. Deem and Ramdas Pophale) SiO2 
 PCOD9094860
Probable space group: P -1
;
_chemical_formula_sum "Si O2"
_cell_formula_units_Z 14
_cell_length_a 8.228028
_cell_length_b 11.863842
_cell_length_c 11.717906
_cell_angle_alpha 38.925880
_cell_angle_beta 75.912619
_cell_angle_gamma 95.010515
_cell_volume 621.094136
_symmetry_space_group_name_H-M "P -1"
_symmetry_group_IT_number 2
_symmetry_cell_setting 'triclinic'
loop_
_space_group_symop_operation_xyz
x,y,z
-x,-y,-z
loop_
_atom_site_type_symbol
_atom_site_label
_atom_site_fract_x
_atom_site_fract_y
_atom_site_fract_z
Si Si1 0.674585 0.003358 0.741146
Si Si2 0.938665 0.617799 0.664753
Si Si3 0.828331 0.622136 0.126562
Si Si4 0.703721 0.675946 0.856634
Si Si5 0.203793 0.649685 0.299579
Si Si6 0.759405 0.913279 0.034532
Si Si7 0.478636 0.711718 0.415553
O O1 0.534202 0.100042 0.671667
O O2 0.886538 0.186001 0.572267
O O3 0.676917 0.870629 0.739991
O O4 0.631470 0.888909 0.960564
O O5 0.842563 0.691592 0.718828
O O6 0.784000 0.470175 0.718785
O O7 0.036919 0.482562 0.799148
O O8 0.897181 0.833957 0.015573
O O9 0.628027 0.475463 0.336292
O O10 0.790180 0.639360 0.987620
O O11 0.500000 0.500000 0.000000
O O12 0.349057 0.673073 0.355553
O O13 0.000000 0.500000 0.500000
O O14 0.202070 0.862997 0.112609
O O15 0.677061 0.779295 0.268084
#
# Coordination Sequence:
#
# PCOD9094860 Si02
#       7
#     2   2   2   2   2   2   2
#     4   9  19  38  60  87 117 160 197 237 302 351
#     4  11  22  40  63  85 125 160 191 249 293 360
#     4  10  22  41  59  87 125 160 195 242 305 346
#     4  11  25  40  65  86 111 157 216 248 287 350
#     4  11  19  36  62  93 120 154 201 233 298 365
#     4  10  20  34  62  91 124 155 190 243 299 356
#     4  10  20  37  63  88 126 156 189 251 296 349
#
# _framework density 22.540866000000001
#
# number of rings (size 3 to 8) (size 9 to 14) (size 15 to 20)
#    0.000    1.714    4.286    3.000    6.000    0.571 
#    0.000    2.857    3.143    0.000    0.000    0.000 
#    0.000    0.000    0.000    0.000    0.000    0.000 
#
# Total GULP energy -78136.448383 kJ/mol
# GULP energy per Si atom -5581.174885 kJ/mol
# Density = 2.248956 g / cm^3
# Si number density = 22.540866 Si / 1000 Ang^3
#
#
#
# Elastic Constant Matrix: (Units=GPa)
#
#
# Indices 1 2 3 4 5 6 
#
# 1 29.9176 16.1902 -2.9167 -3.1388 -1.3460 1.1111
# 2 16.1902 189.5509 29.1398 -2.9443 -4.1529 -23.1525
# 3 -2.9167 29.1398 51.5208 11.4222 -3.9064 -12.7539
# 4 -3.1388 -2.9443 11.4222 43.1816 -6.3178 0.1634
# 5 -1.3460 -4.1529 -3.9064 -6.3178 25.7314 -1.4100
# 6 1.1111 -23.1525 -12.7539 0.1634 -1.4100 35.4109
#
#
#
# Elastic Compliance Matrix: (Units=1/GPa)
#
#
# Indices 1 2 3 4 5 6 
#
# 1 0.036196 -0.003826 0.003397 0.001788 0.002103 -0.002338
# 2 -0.003826 0.006542 -0.003310 0.001150 0.000813 0.003232
# 3 0.003397 -0.003310 0.024688 -0.006207 0.002237 0.006739
# 4 0.001788 0.001150 -0.006207 0.025833 0.005601 -0.001436
# 5 0.002103 0.000813 0.002237 0.005601 0.040977 0.002877
# 6 -0.002338 0.003232 0.006739 -0.001436 0.002877 0.032975
#
#
# Mechanical properties :
#
#
# Convention : Reuss Voigt Hill
#
# Bulk Modulus (GPa) = 16.68096 39.53509 28.10802
# Shear Modulus (GPa) = 25.68461 36.10316 30.89388
#
# Velocity S-wave (km/s) = 3.37926 4.00644 3.70614
# Velocity P-wave (km/s) = 4.75839 6.24335 5.55075
#
# Compressibility (1/GPa) = 0.05994861
#
# Stress axis : x y z
#
# Youngs Moduli (GPa) = 27.62770 152.86684 40.50569
#
# Poissons Ratio (x) = 0.58480 -0.13760
# Poissons Ratio (y) = 0.10569 0.13406
# Poissons Ratio (z) = -0.09385 0.50595
#
# Static dielectric constant tensor:
#      x y z
#    x 1.907040 -0.012120 -0.042280 
#    y -0.012120 1.861200 -0.035410 
#    z -0.042280 -0.035410 1.884690 
# 
# From -- ./inp_files/181926.got.cif
#   From: 2010.05.17/outbox.cif.g08.bks.cpg/sg2_91_cif.got.tgz:181926.got - 2010.06.03 11:33:40.
