data_PCOD9094861
_publ_section_title
;
Structure prediction by ZEFSAII (Michael W. Deem and Ramdas Pophale) SiO2 
 PCOD9094861
Probable space group: P -1
;
_chemical_formula_sum "Si O2"
_cell_formula_units_Z 15
_cell_length_a 16.147863
_cell_length_b 13.180962
_cell_length_c 11.462884
_cell_angle_alpha 56.643196
_cell_angle_beta 108.693651
_cell_angle_gamma 152.981044
_cell_volume 828.485875
_symmetry_space_group_name_H-M "P -1"
_symmetry_group_IT_number 2
_symmetry_cell_setting 'triclinic'
loop_
_space_group_symop_operation_xyz
x,y,z
-x,-y,-z
loop_
_atom_site_type_symbol
_atom_site_label
_atom_site_fract_x
_atom_site_fract_y
_atom_site_fract_z
Si Si1 0.086081 0.767089 0.258076
Si Si2 0.473743 0.599279 0.986298
Si Si3 0.869475 0.242156 0.445892
Si Si4 0.566144 0.342800 0.478223
Si Si5 0.115246 0.332705 0.408150
Si Si6 0.169589 0.312731 0.846262
Si Si7 0.500000 0.500000 0.500000
Si Si8 0.227113 0.288150 0.310855
O O1 0.124605 0.807584 0.389547
O O2 0.987075 0.516688 0.332607
O O3 0.937343 0.691456 0.209440
O O4 0.302501 0.065509 0.108190
O O5 0.342814 0.518824 0.891726
O O6 0.500000 0.500000 0.000000
O O7 0.351141 0.437360 0.153459
O O8 0.986044 0.293116 0.383089
O O9 0.637711 0.968753 0.472668
O O10 0.687836 0.411355 0.581488
O O11 0.720254 0.572192 0.299463
O O12 0.501385 0.382400 0.490434
O O13 0.168012 0.348443 0.293098
O O14 0.974695 0.047648 0.577249
O O15 0.000000 0.000000 0.000000
O O16 0.360628 0.399045 0.404345
#
# Coordination Sequence:
#
# PCOD9094861 Si02
#       8
#     2   2   2   2   2   2   1   2
#     4  11  25  39  61  92 121 169 198 250 307 360
#     4  12  22  40  61  89 129 156 193 259 313 358
#     4  11  22  42  61  85 130 160 210 244 298 369
#     4  11  21  36  61  91 121 158 199 251 302 351
#     4  10  20  38  60  89 120 156 204 251 295 355
#     4  12  23  36  61  94 124 151 202 251 308 364
#     4  10  20  34  62  92 114 156 202 246 300 352
#     4  10  21  37  61  94 120 154 205 251 307 351
#
# _framework density 18.105318
#
# number of rings (size 3 to 8) (size 9 to 14) (size 15 to 20)
#    0.000    1.067    5.333    2.400    0.000    1.600 
#    0.000    0.667    0.000    4.000    0.000    0.000 
#    0.000    0.000    0.000    0.000    0.000    0.000 
#
# Total GULP energy -83512.814089 kJ/mol
# GULP energy per Si atom -5567.520939 kJ/mol
# Density = 1.806411 g / cm^3
# Si number density = 18.105318 Si / 1000 Ang^3
#
#
#
# Elastic Constant Matrix: (Units=GPa)
#
#
# Indices 1 2 3 4 5 6 
#
# 1 80.2180 42.9604 40.1882 -1.8091 -2.9645 -1.1225
# 2 42.9604 105.1832 32.0072 -2.3228 -5.5324 3.9464
# 3 40.1882 32.0072 69.9403 -8.9682 -13.7564 -9.6774
# 4 -1.8091 -2.3228 -8.9682 19.9000 1.7336 -1.0461
# 5 -2.9645 -5.5324 -13.7564 1.7336 23.7505 8.3532
# 6 -1.1225 3.9464 -9.6774 -1.0461 8.3532 25.3556
#
#
#
# Elastic Compliance Matrix: (Units=1/GPa)
#
#
# Indices 1 2 3 4 5 6 
#
# 1 0.020452 -0.005350 -0.010715 -0.003278 -0.004282 -0.001076
# 2 -0.005350 0.012877 -0.003085 -0.000769 0.002052 -0.004126
# 3 -0.010715 -0.003085 0.026054 0.009928 0.009802 0.007130
# 4 -0.003278 -0.000769 0.009928 0.054767 -0.001079 0.006379
# 5 -0.004282 0.002052 0.009802 -0.001079 0.052801 -0.014207
# 6 -0.001076 -0.004126 0.007130 0.006379 -0.014207 0.047698
#
#
# Mechanical properties :
#
#
# Convention : Reuss Voigt Hill
#
# Bulk Modulus (GPa) = 47.42962 53.96147 50.69554
# Shear Modulus (GPa) = 19.23253 23.14693 21.18973
#
# Velocity S-wave (km/s) = 3.26277 3.57944 3.42476
# Velocity P-wave (km/s) = 6.35984 6.85216 6.61058
#
# Compressibility (1/GPa) = 0.02108387
#
# Stress axis : x y z
#
# Youngs Moduli (GPa) = 48.89504 77.65935 38.38185
#
# Poissons Ratio (x) = 0.41548 0.41126
# Poissons Ratio (y) = 0.26159 0.11839
# Poissons Ratio (z) = 0.52390 0.23955
#
# Static dielectric constant tensor:
#      x y z
#    x 1.629880 0.006000 -0.026480 
#    y 0.006000 1.637750 -0.002130 
#    z -0.026480 -0.002130 1.609210 
# 
# From -- ./inp_files/437002.got.cif
#   From: 2010.05.17/outbox.cif.g08.bks.cpg/sg2_219_cif.got.tgz:437002.got - 2010.06.03 11:33:40.
