data_PCOD9094217
_publ_section_title
;
Structure prediction by ZEFSAII (Michael W. Deem and Ramdas Pophale) SiO2 
 PCOD9094217
Probable space group: P -1
;
_chemical_formula_sum "Si O2"
_cell_formula_units_Z 16
_cell_length_a 8.807559
_cell_length_b 10.575089
_cell_length_c 11.564807
_cell_angle_alpha 53.320588
_cell_angle_beta 49.548924
_cell_angle_gamma 71.524711
_cell_volume 652.948263
_symmetry_space_group_name_H-M "P -1"
_symmetry_group_IT_number 2
_symmetry_cell_setting 'triclinic'
loop_
_space_group_symop_operation_xyz
x,y,z
-x,-y,-z
loop_
_atom_site_type_symbol
_atom_site_label
_atom_site_fract_x
_atom_site_fract_y
_atom_site_fract_z
Si Si1 0.080422 0.242822 0.752209
Si Si2 0.770404 0.446368 0.097313
Si Si3 0.299793 0.238436 0.421264
Si Si4 0.379472 0.249990 0.013424
Si Si5 0.988118 0.814433 0.594368
Si Si6 0.261394 0.873093 0.616517
Si Si7 0.256273 0.569060 0.157627
Si Si8 0.126184 0.086024 0.052929
O O1 0.962722 0.395870 0.711273
O O2 0.263068 0.244204 0.572694
O O3 0.141018 0.209488 0.871911
O O4 0.928430 0.086622 0.879472
O O5 0.654130 0.587684 0.124163
O O6 0.649585 0.273493 0.284425
O O7 0.772455 0.437312 0.962327
O O8 0.000000 0.500000 0.000000
O O9 0.065330 0.222321 0.490398
O O10 0.349272 0.412614 0.242835
O O11 0.355098 0.058004 0.458095
O O12 0.587697 0.283107 0.958274
O O13 0.317467 0.111508 0.028901
O O14 0.206267 0.240920 0.201728
O O15 0.188812 0.787798 0.577700
O O16 0.000000 0.000000 0.500000
O O17 0.064215 0.882831 0.789358
#
# Coordination Sequence:
#
# PCOD9094217 Si02
#       8
#     2   2   2   2   2   2   2   2
#     4  10  20  36  62  83 111 154 207 230 277 347
#     4  12  19  35  61  88 111 150 200 236 281 353
#     4  10  20  34  55  84 119 150 191 239 281 346
#     4  11  22  36  59  88 122 147 189 248 299 336
#     4   9  17  33  58  85 111 144 188 238 289 339
#     4   9  17  33  58  83 107 145 199 238 276 330
#     4  12  23  36  56  90 122 151 189 244 297 334
#     4   9  18  37  59  86 106 151 201 241 271 347
#
# _framework density 24.504238000000001
#
# number of rings (size 3 to 8) (size 9 to 14) (size 15 to 20)
#    0.000    1.750    5.000    1.500    0.000    0.500 
#    0.000    1.250    0.000    0.000    0.000    0.000 
#    0.000    0.000    0.000    0.000    0.000    0.000 
#
# Total GULP energy -89081.621619 kJ/mol
# GULP energy per Si atom -5567.601351 kJ/mol
# Density = 2.444847 g / cm^3
# Si number density = 24.504238 Si / 1000 Ang^3
#
#
#
# Elastic Constant Matrix: (Units=GPa)
#
#
# Indices 1 2 3 4 5 6 
#
# 1 32.9910 14.1835 16.5399 9.9983 3.6611 22.5725
# 2 14.1835 56.3585 17.0302 -7.7613 -2.7141 -0.5540
# 3 16.5399 17.0302 88.0926 -18.1871 5.4284 7.2284
# 4 9.9983 -7.7613 -18.1871 30.7638 4.5170 7.1454
# 5 3.6611 -2.7141 5.4284 4.5170 41.1610 -7.3255
# 6 22.5725 -0.5540 7.2284 7.1454 -7.3255 54.1018
#
#
#
# Elastic Compliance Matrix: (Units=1/GPa)
#
#
# Indices 1 2 3 4 5 6 
#
# 1 0.072334 -0.018767 -0.013407 -0.029126 -0.007284 -0.025720
# 2 -0.018767 0.024043 0.000160 0.010091 0.003405 0.007183
# 3 -0.013407 0.000160 0.016886 0.014480 -0.002417 0.001099
# 4 -0.029126 0.010091 0.014480 0.053016 -0.003977 0.002780
# 5 -0.007284 0.003405 -0.002417 -0.003977 0.027278 0.007616
# 6 -0.025720 0.007183 0.001099 0.002780 0.007616 0.029805
#
#
# Mechanical properties :
#
#
# Convention : Reuss Voigt Hill
#
# Bulk Modulus (GPa) = 20.31108 30.32770 25.31939
# Shear Modulus (GPa) = 16.45805 33.85121 25.15463
#
# Velocity S-wave (km/s) = 2.59442 3.72081 3.20745
# Velocity P-wave (km/s) = 4.15710 5.55541 4.90633
#
# Compressibility (1/GPa) = 0.04923421
#
# Stress axis : x y z
#
# Youngs Moduli (GPa) = 13.82472 41.59284 59.21981
#
# Poissons Ratio (x) = 0.78059 0.79396
# Poissons Ratio (y) = 0.25945 -0.00947
# Poissons Ratio (z) = 0.18535 -0.00665
#
# Static dielectric constant tensor:
#      x y z
#    x 2.502460 0.140860 -0.133880 
#    y 0.140860 2.082720 -0.239860 
#    z -0.133880 -0.239860 2.180560 
# 
# From -- ./inp_files/331786.got.cif
#   From: 2010.05.17/outbox.cif.g08.bks.cpg/sg2_166_cif.got.tgz:331786.got - 2010.06.03 11:33:40.
