data_PCOD9094276
_publ_section_title
;
Structure prediction by ZEFSAII (Michael W. Deem and Ramdas Pophale) SiO2 
 PCOD9094276
Probable space group: P -1
;
_chemical_formula_sum "Si O2"
_cell_formula_units_Z 14
_cell_length_a 12.687033
_cell_length_b 12.164503
_cell_length_c 13.346327
_cell_angle_alpha 81.600337
_cell_angle_beta 157.242003
_cell_angle_gamma 107.315402
_cell_volume 713.243270
_symmetry_space_group_name_H-M "P -1"
_symmetry_group_IT_number 2
_symmetry_cell_setting 'triclinic'
loop_
_space_group_symop_operation_xyz
x,y,z
-x,-y,-z
loop_
_atom_site_type_symbol
_atom_site_label
_atom_site_fract_x
_atom_site_fract_y
_atom_site_fract_z
Si Si1 0.244335 0.641414 0.514613
Si Si2 0.182920 0.873597 0.526966
Si Si3 0.773324 0.783083 0.376708
Si Si4 0.866819 0.035907 0.727473
Si Si5 0.646000 0.081379 0.018315
Si Si6 0.401613 0.157048 0.337619
Si Si7 0.450617 0.501904 0.076351
O O1 0.214215 0.752377 0.534512
O O2 0.405166 0.702426 0.542851
O O3 0.436782 0.589072 0.756011
O O4 0.904801 0.541673 0.213881
O O5 0.036444 0.924413 0.306009
O O6 0.971354 0.840352 0.442842
O O7 0.507222 0.983681 0.820675
O O8 0.642224 0.637446 0.269189
O O9 0.003105 0.842263 0.661819
O O10 0.505364 0.824555 0.139058
O O11 0.612302 0.087087 0.509932
O O12 0.731385 0.893961 0.662525
O O13 0.127996 0.108065 0.025630
O O14 0.500000 0.000000 0.000000
O O15 0.500000 0.500000 0.000000
#
# Coordination Sequence:
#
# PCOD9094276 Si02
#       7
#     2   2   2   2   2   2   2
#     4  11  22  34  54  79 106 140 170 215 260 310
#     4  10  20  34  56  78 107 135 173 211 269 308
#     4  11  23  36  50  73 109 141 177 210 247 305
#     4   9  18  31  50  77 104 136 162 211 263 323
#     4  10  22  35  52  73 103 142 174 214 254 304
#     4   9  18  32  49  75 109 131 167 207 267 314
#     4  12  24  35  52  76 105 144 181 207 250 308
#
# _framework density 19.628646
#
# number of rings (size 3 to 8) (size 9 to 14) (size 15 to 20)
#    0.000    1.714    1.429    4.714    4.000    5.714 
#    0.000    0.000    0.000    0.000    0.000    6.000 
#    0.000    0.000    0.000    0.000    0.000    0.000 
#
# Total GULP energy -78142.675452 kJ/mol
# GULP energy per Si atom -5581.619675 kJ/mol
# Density = 1.958397 g / cm^3
# Si number density = 19.628646 Si / 1000 Ang^3
#
#
#
# Elastic Constant Matrix: (Units=GPa)
#
#
# Indices 1 2 3 4 5 6 
#
# 1 21.0869 23.0674 2.3027 1.0298 -7.3803 9.1376
# 2 23.0674 102.0369 32.2352 -6.0655 -11.6720 15.4696
# 3 2.3027 32.2352 111.4236 -11.3077 0.8470 4.6187
# 4 1.0298 -6.0655 -11.3077 45.8270 0.3424 -0.4221
# 5 -7.3803 -11.6720 0.8470 0.3424 29.2579 2.7096
# 6 9.1376 15.4696 4.6187 -0.4221 2.7096 36.1806
#
#
#
# Elastic Compliance Matrix: (Units=1/GPa)
#
#
# Indices 1 2 3 4 5 6 
#
# 1 0.073578 -0.013887 0.002661 -0.003071 0.014284 -0.014090
# 2 -0.013887 0.014933 -0.003815 0.001303 0.002789 -0.002584
# 3 0.002661 -0.003815 0.010242 0.001969 -0.001148 -0.000239
# 4 -0.003071 0.001303 0.001969 0.022555 -0.000602 0.000276
# 5 0.014284 0.002789 -0.001148 -0.000602 0.039641 -0.007629
# 6 -0.014090 -0.002584 -0.000239 0.000276 -0.007629 0.032908
#
#
# Mechanical properties :
#
#
# Convention : Reuss Voigt Hill
#
# Bulk Modulus (GPa) = 14.56215 38.86199 26.71207
# Shear Modulus (GPa) = 20.25675 34.04924 27.15300
#
# Velocity S-wave (km/s) = 3.21596 4.16946 3.72336
# Velocity P-wave (km/s) = 4.60704 6.55902 5.66770
#
# Compressibility (1/GPa) = 0.06867119
#
# Stress axis : x y z
#
# Youngs Moduli (GPa) = 13.59095 66.96432 97.63765
#
# Poissons Ratio (x) = 0.92992 -0.25979
# Poissons Ratio (y) = 0.18873 0.37250
# Poissons Ratio (z) = -0.03616 0.25548
#
# Static dielectric constant tensor:
#      x y z
#    x 1.776250 0.027900 0.038190 
#    y 0.027900 1.685930 0.013730 
#    z 0.038190 0.013730 1.716700 
# 
# From -- ./inp_files/366117.got.cif
#   From: 2010.05.17/outbox.cif.g08.bks.cpg/sg2_184_cif.got.tgz:366117.got - 2010.06.03 11:33:40.
