data_PCOD9094480
_publ_section_title
;
Structure prediction by ZEFSAII (Michael W. Deem and Ramdas Pophale) SiO2 
 PCOD9094480
Probable space group: P -1
;
_chemical_formula_sum "Si O2"
_cell_formula_units_Z 14
_cell_length_a 10.823698
_cell_length_b 12.358929
_cell_length_c 17.216974
_cell_angle_alpha 41.123973
_cell_angle_beta 27.613299
_cell_angle_gamma 60.855571
_cell_volume 565.820134
_symmetry_space_group_name_H-M "P -1"
_symmetry_group_IT_number 2
_symmetry_cell_setting 'triclinic'
loop_
_space_group_symop_operation_xyz
x,y,z
-x,-y,-z
loop_
_atom_site_type_symbol
_atom_site_label
_atom_site_fract_x
_atom_site_fract_y
_atom_site_fract_z
Si Si1 0.671689 0.675182 0.246816
Si Si2 0.690966 0.921844 0.975689
Si Si3 0.051227 0.772056 0.765557
Si Si4 0.618167 0.293729 0.071602
Si Si5 0.752969 0.054400 0.019269
Si Si6 0.726728 0.306269 0.174816
Si Si7 0.023406 0.775775 0.599897
O O1 0.500000 0.500000 0.500000
O O2 0.509011 0.713878 0.242995
O O3 0.783464 0.877000 0.124160
O O4 0.944481 0.664235 0.058011
O O5 0.921402 0.100258 0.815654
O O6 0.878527 0.872988 0.837972
O O7 0.500000 0.000000 0.000000
O O8 0.801707 0.522995 0.037086
O O9 0.140571 0.824650 0.597655
O O10 0.333279 0.813412 0.646567
O O11 0.285726 0.222886 0.249642
O O12 0.805100 0.215856 0.964401
O O13 0.870809 0.539384 0.799010
O O14 0.522293 0.228416 0.250628
O O15 0.360354 0.935674 0.281007
#
# Coordination Sequence:
#
# PCOD9094480 Si02
#       7
#     2   2   2   2   2   2   2
#     4   9  18  33  56  87 115 152 199 246 292 355
#     4   9  19  33  56  88 117 155 197 244 304 358
#     4   9  17  34  58  81 115 158 198 236 302 361
#     4  10  20  34  57  89 119 150 205 250 297 353
#     4  10  21  35  59  88 117 156 201 252 295 357
#     4   9  18  33  56  85 111 159 198 239 297 360
#     4  10  20  36  61  85 115 162 202 246 294 364
#
# _framework density 24.742842
#
# number of rings (size 3 to 8) (size 9 to 14) (size 15 to 20)
#    0.857    1.714    0.000    3.000    0.000    0.571 
#    0.000    0.714    0.000   17.143    0.000    0.000 
#    0.000    0.000    0.000    0.000    0.000    0.000 
#
# Total GULP energy -77991.647490 kJ/mol
# GULP energy per Si atom -5570.831964 kJ/mol
# Density = 2.468653 g / cm^3
# Si number density = 24.742842 Si / 1000 Ang^3
#
#
#
# Elastic Constant Matrix: (Units=GPa)
#
#
# Indices 1 2 3 4 5 6 
#
# 1 147.9760 53.0008 30.7745 -5.6830 13.8468 -6.4194
# 2 53.0008 230.2418 21.1557 -5.9032 -4.6846 -2.6927
# 3 30.7745 21.1557 44.9456 -1.2162 3.9879 -1.5530
# 4 -5.6830 -5.9032 -1.2162 27.4561 1.2245 -1.1327
# 5 13.8468 -4.6846 3.9879 1.2245 35.6171 -5.7693
# 6 -6.4194 -2.6927 -1.5530 -1.1327 -5.7693 56.4514
#
#
#
# Elastic Compliance Matrix: (Units=1/GPa)
#
#
# Indices 1 2 3 4 5 6 
#
# 1 0.008695 -0.001571 -0.004892 0.001400 -0.003006 0.000500
# 2 -0.001571 0.004873 -0.001320 0.000608 0.001407 0.000173
# 3 -0.004892 -0.001320 0.026325 -0.000077 -0.001220 -0.000021
# 4 0.001400 0.000608 -0.000077 0.036942 -0.001602 0.000764
# 5 -0.003006 0.001407 -0.001220 -0.001602 0.030064 0.002732
# 6 0.000500 0.000173 -0.000021 0.000764 0.002732 0.018073
#
#
# Mechanical properties :
#
#
# Convention : Reuss Voigt Hill
#
# Bulk Modulus (GPa) = 41.10767 70.33615 55.72191
# Shear Modulus (GPa) = 33.63666 45.12042 39.37854
#
# Velocity S-wave (km/s) = 3.69107 4.27497 3.99370
# Velocity P-wave (km/s) = 5.90046 7.27019 6.62084
#
# Compressibility (1/GPa) = 0.02432636
#
# Stress axis : x y z
#
# Youngs Moduli (GPa) = 115.01087 205.23233 37.98635
#
# Poissons Ratio (x) = 0.32252 0.18582
# Poissons Ratio (y) = 0.18074 0.05014
# Poissons Ratio (z) = 0.56261 0.27088
#
# Static dielectric constant tensor:
#      x y z
#    x 2.052340 0.045680 -0.022180 
#    y 0.045680 2.007570 -0.041920 
#    z -0.022180 -0.041920 2.007660 
# 
# From -- ./inp_files/567929.got.cif
#   From: 2010.05.17/outbox.cif.g08.bks.cpg/sg2_284_cif.got.tgz:567929.got - 2010.06.03 11:33:40.
