data_PCOD9094747
_publ_section_title
;
Structure prediction by ZEFSAII (Michael W. Deem and Ramdas Pophale) SiO2 
 PCOD9094747
Probable space group: P -1
;
_chemical_formula_sum "Si O2"
_cell_formula_units_Z 16
_cell_length_a 16.216381
_cell_length_b 8.718345
_cell_length_c 14.395276
_cell_angle_alpha 32.034039
_cell_angle_beta 50.436898
_cell_angle_gamma 46.401426
_cell_volume 774.487550
_symmetry_space_group_name_H-M "P -1"
_symmetry_group_IT_number 2
_symmetry_cell_setting 'triclinic'
loop_
_space_group_symop_operation_xyz
x,y,z
-x,-y,-z
loop_
_atom_site_type_symbol
_atom_site_label
_atom_site_fract_x
_atom_site_fract_y
_atom_site_fract_z
Si Si1 0.053078 0.269472 0.758457
Si Si2 0.192927 0.711310 0.041365
Si Si3 0.123812 0.873661 0.727612
Si Si4 0.327189 0.414290 0.912551
Si Si5 0.491695 0.764740 0.548539
Si Si6 0.940832 0.078611 0.602660
Si Si7 0.310490 0.855900 0.296192
Si Si8 0.293767 0.144351 0.365316
O O1 0.075294 0.563823 0.553606
O O2 0.923821 0.365663 0.839587
O O3 0.068279 0.037211 0.779921
O O4 0.141603 0.081614 0.871891
O O5 0.257881 0.514147 0.184640
O O6 0.275455 0.576730 0.964155
O O7 0.219957 0.540857 0.853441
O O8 0.196283 0.071590 0.530913
O O9 0.026874 0.878544 0.722008
O O10 0.418847 0.557615 0.740140
O O11 0.366031 0.051344 0.092004
O O12 0.615705 0.509538 0.567066
O O13 0.500000 0.000000 0.500000
O O14 0.416521 0.977470 0.410810
O O15 0.816599 0.061742 0.694768
O O16 0.000000 0.000000 0.500000
O O17 0.299296 0.987889 0.340906
#
# Coordination Sequence:
#
# PCOD9094747 Si02
#       8
#     2   2   2   2   2   2   2   2
#     4  10  20  34  60  91 127 163 203 247 306 361
#     4   9  18  35  61  88 119 166 196 245 316 350
#     4  10  20  36  63  91 123 165 199 252 301 361
#     4   9  21  42  62  85 128 162 202 249 318 361
#     4  11  25  41  68  91 115 156 220 264 294 361
#     4  12  22  36  60  94 130 155 211 240 299 382
#     4  11  23  40  64  89 126 171 195 250 316 361
#     4  10  20  41  62  85 124 163 203 244 320 363
#
# _framework density 20.658822000000001
#
# number of rings (size 3 to 8) (size 9 to 14) (size 15 to 20)
#    0.000    1.750    2.500    1.875    5.250    0.500 
#    0.000    3.750    2.750    0.000    0.000    0.000 
#    0.000    0.000    0.000    0.000    0.000    0.000 
#
# Total GULP energy -89279.597661 kJ/mol
# GULP energy per Si atom -5579.974854 kJ/mol
# Density = 2.061180 g / cm^3
# Si number density = 20.658822 Si / 1000 Ang^3
#
#
#
# Elastic Constant Matrix: (Units=GPa)
#
#
# Indices 1 2 3 4 5 6 
#
# 1 107.0988 24.3322 23.0935 -4.8214 12.3811 -15.7411
# 2 24.3322 61.4987 3.7409 -7.1381 7.6402 -12.0271
# 3 23.0935 3.7409 57.7100 -1.8640 25.5989 -12.1608
# 4 -4.8214 -7.1381 -1.8640 27.3314 -3.5943 5.5145
# 5 12.3811 7.6402 25.5989 -3.5943 29.1790 -5.8138
# 6 -15.7411 -12.0271 -12.1608 5.5145 -5.8138 27.4991
#
#
#
# Elastic Compliance Matrix: (Units=1/GPa)
#
#
# Indices 1 2 3 4 5 6 
#
# 1 0.011443 -0.003635 -0.003616 0.000146 -0.000052 0.003321
# 2 -0.003635 0.019763 0.004158 0.002720 -0.005616 0.006669
# 3 -0.003616 0.004158 0.031837 -0.002589 -0.026042 0.008841
# 4 0.000146 0.002720 -0.002589 0.039149 0.004992 -0.006668
# 5 -0.000052 -0.005616 -0.026042 0.004992 0.058709 -0.002592
# 6 0.003321 0.006669 0.008841 -0.006668 -0.002592 0.045882
#
#
# Mechanical properties :
#
#
# Convention : Reuss Voigt Hill
#
# Bulk Modulus (GPa) = 17.58777 36.51563 27.05170
# Shear Modulus (GPa) = 21.55897 28.47797 25.01847
#
# Velocity S-wave (km/s) = 3.23394 3.71683 3.48376
# Velocity P-wave (km/s) = 4.74093 6.01113 5.41341
#
# Compressibility (1/GPa) = 0.05685770
#
# Stress axis : x y z
#
# Youngs Moduli (GPa) = 87.38646 50.59864 31.41030
#
# Poissons Ratio (x) = 0.18391 0.11358
# Poissons Ratio (y) = 0.31763 -0.13060
# Poissons Ratio (z) = 0.31600 -0.21038
#
# Static dielectric constant tensor:
#      x y z
#    x 1.732880 -0.022110 0.026540 
#    y -0.022110 1.747120 -0.023550 
#    z 0.026540 -0.023550 1.768700 
# 
# From -- ./inp_files/178708.got.cif
#   From: 2010.05.17/outbox.cif.g08.bks.cpg/sg2_90_cif.got.tgz:178708.got - 2010.06.03 11:33:40.
