data_PCOD9094866
_publ_section_title
;
Structure prediction by ZEFSAII (Michael W. Deem and Ramdas Pophale) SiO2 
 PCOD9094866
Probable space group: P -1
;
_chemical_formula_sum "Si O2"
_cell_formula_units_Z 16
_cell_length_a 9.835453
_cell_length_b 9.626847
_cell_length_c 13.255307
_cell_angle_alpha 91.478684
_cell_angle_beta 128.973877
_cell_angle_gamma 124.152739
_cell_volume 652.565860
_symmetry_space_group_name_H-M "P -1"
_symmetry_group_IT_number 2
_symmetry_cell_setting 'triclinic'
loop_
_space_group_symop_operation_xyz
x,y,z
-x,-y,-z
loop_
_atom_site_type_symbol
_atom_site_label
_atom_site_fract_x
_atom_site_fract_y
_atom_site_fract_z
Si Si1 0.199324 0.531799 0.522066
Si Si2 0.864688 0.779315 0.395378
Si Si3 0.272610 0.972808 0.921742
Si Si4 0.697532 0.193611 0.805589
Si Si5 0.500556 0.358861 0.936151
Si Si6 0.752518 0.944808 0.864573
Si Si7 0.737467 0.159171 0.532712
Si Si8 0.044554 0.578987 0.856069
O O1 0.140396 0.337550 0.518827
O O2 0.506613 0.727948 0.694869
O O3 0.181585 0.629234 0.420511
O O4 0.000000 0.500000 0.500000
O O5 0.576500 0.647086 0.214649
O O6 0.016329 0.796811 0.369965
O O7 0.000000 0.000000 0.500000
O O8 0.030296 0.722330 0.800605
O O9 0.281663 0.114648 0.861206
O O10 0.500000 0.000000 0.000000
O O11 0.333490 0.059766 0.064235
O O12 0.778556 0.363029 0.772904
O O13 0.848433 0.138206 0.852881
O O14 0.409052 0.968608 0.644260
O O15 0.782806 0.285331 0.957924
O O16 0.500000 0.500000 0.000000
O O17 0.767440 0.435546 0.091431
O O18 0.000000 0.000000 0.000000
O O19 0.500000 0.000000 0.500000
#
# Coordination Sequence:
#
# PCOD9094866 Si02
#       8
#     2   2   2   2   2   2   2   2
#     4   9  21  42  64  86 120 178 216 242 309 405
#     4  11  24  43  64  89 128 170 210 253 313 385
#     4   9  20  38  53  88 122 159 192 252 315 374
#     4   9  19  36  60  81 121 160 199 234 311 383
#     4  11  23  35  63  91 121 148 209 266 307 341
#     4  10  20  34  62  93 122 152 206 269 313 359
#     4  10  22  41  63  89 120 164 210 257 302 373
#     4   9  19  37  58  86 116 163 194 238 309 387
#
# _framework density 24.518597
#
# number of rings (size 3 to 8) (size 9 to 14) (size 15 to 20)
#    0.000    2.250    0.000    1.500    5.250    4.000 
#    6.750    0.625    0.000    0.000    0.000    0.000 
#    0.000    0.000    0.000    0.000    0.000    0.000 
#
# Total GULP energy -89103.602768 kJ/mol
# GULP energy per Si atom -5568.975173 kJ/mol
# Density = 2.446279 g / cm^3
# Si number density = 24.518597 Si / 1000 Ang^3
#
#
#
# Elastic Constant Matrix: (Units=GPa)
#
#
# Indices 1 2 3 4 5 6 
#
# 1 65.6588 35.2979 5.7884 -3.2628 -0.2456 -8.4848
# 2 35.2979 208.9020 5.2291 -3.9106 3.6028 -19.1315
# 3 5.7884 5.2291 71.9096 -8.0518 15.7004 -23.0551
# 4 -3.2628 -3.9106 -8.0518 38.2242 -4.6197 -7.1210
# 5 -0.2456 3.6028 15.7004 -4.6197 27.5450 0.9829
# 6 -8.4848 -19.1315 -23.0551 -7.1210 0.9829 43.7911
#
#
#
# Elastic Compliance Matrix: (Units=1/GPa)
#
#
# Indices 1 2 3 4 5 6 
#
# 1 0.017064 -0.002667 -0.000555 0.001577 0.001008 0.002083
# 2 -0.002667 0.005487 0.001021 0.000878 -0.001269 0.002590
# 3 -0.000555 0.001021 0.021067 0.005425 -0.011685 0.012574
# 4 0.001577 0.000878 0.005425 0.029240 0.001416 0.008268
# 5 0.001008 -0.001269 -0.011685 0.001416 0.043636 -0.007260
# 6 0.002083 0.002590 0.012574 0.008268 -0.007260 0.032498
#
#
# Mechanical properties :
#
#
# Convention : Reuss Voigt Hill
#
# Bulk Modulus (GPa) = 25.49916 48.78901 37.14408
# Shear Modulus (GPa) = 30.03598 41.92238 35.97918
#
# Velocity S-wave (km/s) = 3.50384 4.13948 3.83485
# Velocity P-wave (km/s) = 5.17607 6.54133 5.89834
#
# Compressibility (1/GPa) = 0.03921698
#
# Stress axis : x y z
#
# Youngs Moduli (GPa) = 58.60306 182.23563 47.46731
#
# Poissons Ratio (x) = 0.48593 0.02636
# Poissons Ratio (y) = 0.15627 -0.04847
# Poissons Ratio (z) = 0.03255 -0.18609
#
# Static dielectric constant tensor:
#      x y z
#    x 2.037570 0.065080 -0.055870 
#    y 0.065080 2.141030 -0.086800 
#    z -0.055870 -0.086800 2.097280 
# 
# From -- ./inp_files/495309.got.cif
#   From: 2010.05.17/outbox.cif.g08.bks.cpg/sg2_248_cif.got.tgz:495309.got - 2010.06.03 11:33:40.
