data_PCOD9094135
_publ_section_title
;
Structure prediction by ZEFSAII (Michael W. Deem and Ramdas Pophale) SiO2 
 PCOD9094135
Probable space group: P -1
;
_chemical_formula_sum "Si O2"
_cell_formula_units_Z 16
_cell_length_a 7.215401
_cell_length_b 14.527484
_cell_length_c 10.224177
_cell_angle_alpha 125.634757
_cell_angle_beta 67.412224
_cell_angle_gamma 81.926266
_cell_volume 703.131763
_symmetry_space_group_name_H-M "P -1"
_symmetry_group_IT_number 2
_symmetry_cell_setting 'triclinic'
loop_
_space_group_symop_operation_xyz
x,y,z
-x,-y,-z
loop_
_atom_site_type_symbol
_atom_site_label
_atom_site_fract_x
_atom_site_fract_y
_atom_site_fract_z
Si Si1 0.626082 0.293459 0.725020
Si Si2 0.527457 0.907666 0.295460
Si Si3 0.758503 0.845612 0.923910
Si Si4 0.958912 0.608277 0.494190
Si Si5 0.731528 0.094171 0.025169
Si Si6 0.076970 0.046652 0.390377
Si Si7 0.545992 0.531536 0.834758
Si Si8 0.493720 0.633501 0.646931
O O1 0.520602 0.201251 0.715804
O O2 0.508150 0.405658 0.740609
O O3 0.891739 0.194301 0.540236
O O4 0.595122 0.374762 0.932644
O O5 0.500000 0.000000 0.500000
O O6 0.333287 0.009517 0.331523
O O7 0.738370 0.831657 0.073928
O O8 0.937617 0.726198 0.687654
O O9 0.781032 0.973441 0.002213
O O10 0.520085 0.865273 0.936957
O O11 0.713708 0.637332 0.529044
O O12 0.000000 0.500000 0.500000
O O13 0.176441 0.541935 0.285398
O O14 0.905375 0.038051 0.810276
O O15 0.712875 0.222123 0.201068
O O16 0.000000 0.000000 0.500000
O O17 0.499668 0.617904 0.790567
O O18 0.500000 0.500000 0.500000
#
# Coordination Sequence:
#
# PCOD9094135 Si02
#       8
#     2   2   2   2   2   2   2   2
#     4  10  20  36  56  76 104 146 192 228 263 323
#     4  10  20  34  54  82 112 138 171 228 291 338
#     4   9  17  31  53  78 104 138 182 226 268 324
#     4   9  17  33  55  76 103 142 185 221 265 329
#     4   9  17  31  53  78 104 138 182 226 268 324
#     4   9  17  33  55  76 103 142 185 221 265 329
#     4  10  20  36  56  76 104 146 192 228 263 323
#     4  10  20  34  54  82 112 138 171 228 291 338
#
# _framework density 22.755336
#
# number of rings (size 3 to 8) (size 9 to 14) (size 15 to 20)
#    0.000    2.500    0.000    4.500    0.000    2.000 
#    0.000   11.250    0.000   10.500    0.000    0.000 
#    0.000    0.000    0.000    0.000    0.000    0.000 
#
# Total GULP energy -89103.926225 kJ/mol
# GULP energy per Si atom -5568.995389 kJ/mol
# Density = 2.270354 g / cm^3
# Si number density = 22.755336 Si / 1000 Ang^3
#
#
#
# Elastic Constant Matrix: (Units=GPa)
#
#
# Indices 1 2 3 4 5 6 
#
# 1 30.5861 9.4176 33.9452 6.7615 12.9429 7.0130
# 2 9.4176 115.6090 28.8571 26.9321 3.1504 20.4834
# 3 33.9452 28.8571 152.3132 24.1099 -3.8857 17.2724
# 4 6.7615 26.9321 24.1099 53.1151 9.8393 2.8812
# 5 12.9429 3.1504 -3.8857 9.8393 24.5824 6.2537
# 6 7.0130 20.4834 17.2724 2.8812 6.2537 19.8239
#
#
#
# Elastic Compliance Matrix: (Units=1/GPa)
#
#
# Indices 1 2 3 4 5 6 
#
# 1 0.068742 -0.003269 -0.018070 0.008870 -0.044068 0.007416
# 2 -0.003269 0.012519 0.001203 -0.006951 0.006627 -0.013907
# 3 -0.018070 0.001203 0.013065 -0.006784 0.016826 -0.010556
# 4 0.008870 -0.006951 -0.006784 0.027127 -0.018744 0.011926
# 5 -0.044068 0.006627 0.016826 -0.018744 0.080465 -0.028578
# 6 0.007416 -0.013907 -0.010556 0.011926 -0.028578 0.078670
#
#
# Mechanical properties :
#
#
# Convention : Reuss Voigt Hill
#
# Bulk Modulus (GPa) = 18.49993 49.21646 33.85820
# Shear Modulus (GPa) = 14.75460 34.59017 24.67239
#
# Velocity S-wave (km/s) = 2.54914 3.90306 3.29636
# Velocity P-wave (km/s) = 4.10021 6.47977 5.42213
#
# Compressibility (1/GPa) = 0.05405425
#
# Stress axis : x y z
#
# Youngs Moduli (GPa) = 14.54704 79.88174 76.54093
#
# Poissons Ratio (x) = 0.26111 1.38311
# Poissons Ratio (y) = 0.04755 -0.09209
# Poissons Ratio (z) = 0.26287 -0.09611
#
# Static dielectric constant tensor:
#      x y z
#    x 2.052180 0.004480 -0.086980 
#    y 0.004480 1.868950 0.013320 
#    z -0.086980 0.013320 1.944420 
# 
# From -- ./inp_files/313061.got.cif
#   From: 2010.05.17/outbox.cif.g08.bks.cpg/sg2_157_cif.got.tgz:313061.got - 2010.06.03 11:33:40.
