data_PCOD9094568
_publ_section_title
;
Structure prediction by ZEFSAII (Michael W. Deem and Ramdas Pophale) SiO2 
 PCOD9094568
Probable space group: P -1
;
_chemical_formula_sum "Si O2"
_cell_formula_units_Z 16
_cell_length_a 8.706123
_cell_length_b 12.484934
_cell_length_c 19.194250
_cell_angle_alpha 26.374375
_cell_angle_beta 130.585052
_cell_angle_gamma 134.200291
_cell_volume 662.228743
_symmetry_space_group_name_H-M "P -1"
_symmetry_group_IT_number 2
_symmetry_cell_setting 'triclinic'
loop_
_space_group_symop_operation_xyz
x,y,z
-x,-y,-z
loop_
_atom_site_type_symbol
_atom_site_label
_atom_site_fract_x
_atom_site_fract_y
_atom_site_fract_z
Si Si1 0.218340 0.390831 0.355469
Si Si2 0.555125 0.258588 0.025008
Si Si3 0.830678 0.752865 0.184848
Si Si4 0.365034 0.182162 0.275692
Si Si5 0.255486 0.828130 0.005933
Si Si6 0.767748 0.030984 0.491002
Si Si7 0.253745 0.638887 0.497840
Si Si8 0.303719 0.740213 0.305113
O O1 0.183944 0.563224 0.181309
O O2 0.332770 0.597136 0.327631
O O3 0.001161 0.213320 0.431832
O O4 0.310776 0.187595 0.464453
O O5 0.333980 0.229553 0.933847
O O6 0.640068 0.547564 0.909645
O O7 0.724304 0.219581 0.041857
O O8 0.478478 0.024190 0.191759
O O9 0.698031 0.508999 0.335282
O O10 0.057226 0.741610 0.231121
O O11 0.877127 0.998573 0.106150
O O12 0.610853 0.196007 0.353365
O O13 0.243006 0.104520 0.358700
O O14 0.285391 0.934369 0.348361
O O15 0.500000 0.000000 0.000000
O O16 0.327029 0.602596 0.463253
O O17 0.000000 0.500000 0.500000
#
# Coordination Sequence:
#
# PCOD9094568 Si02
#       8
#     2   2   2   2   2   2   2   2
#     4  11  20  37  57  92 126 145 197 246 303 334
#     4  11  21  35  62  91 116 148 196 252 295 334
#     4  10  20  37  62  85 117 156 200 236 292 350
#     4  11  21  38  60  84 120 155 201 235 301 348
#     4  10  20  34  58  88 120 150 187 249 293 341
#     4  10  22  34  61  92 118 153 191 258 289 343
#     4  10  23  40  59  84 119 160 197 238 292 357
#     4  11  22  37  60  88 120 157 193 241 289 359
#
# _framework density 24.160837000000001
#
# number of rings (size 3 to 8) (size 9 to 14) (size 15 to 20)
#    0.000    1.500    3.750    4.125    3.500    0.500 
#    0.000    2.500    0.000    3.000    0.000    0.000 
#    0.000    0.000    0.000    0.000    0.000    0.000 
#
# Total GULP energy -89480.162146 kJ/mol
# GULP energy per Si atom -5592.510134 kJ/mol
# Density = 2.410585 g / cm^3
# Si number density = 24.160837 Si / 1000 Ang^3
#
#
#
# Elastic Constant Matrix: (Units=GPa)
#
#
# Indices 1 2 3 4 5 6 
#
# 1 116.6102 5.4081 49.4066 -7.7801 -2.3263 -21.7784
# 2 5.4081 29.8595 14.9478 -16.2068 9.9771 -18.3464
# 3 49.4066 14.9478 98.9185 -24.8310 -21.0859 -17.6192
# 4 -7.7801 -16.2068 -24.8310 43.9925 -8.9860 4.5416
# 5 -2.3263 9.9771 -21.0859 -8.9860 46.0718 -7.0488
# 6 -21.7784 -18.3464 -17.6192 4.5416 -7.0488 32.3350
#
#
#
# Elastic Compliance Matrix: (Units=1/GPa)
#
#
# Indices 1 2 3 4 5 6 
#
# 1 0.012417 0.006612 -0.006376 -0.000326 -0.002543 0.008131
# 2 0.006612 0.070702 -0.003695 0.019758 -0.006960 0.038262
# 3 -0.006376 -0.003695 0.020460 0.011078 0.012924 0.006019
# 4 -0.000326 0.019758 0.011078 0.036819 0.010107 0.014059
# 5 -0.002543 -0.006960 0.012924 0.010107 0.032033 0.006944
# 6 0.008131 0.038262 0.006019 0.014059 0.006944 0.060931
#
#
# Mechanical properties :
#
#
# Convention : Reuss Voigt Hill
#
# Bulk Modulus (GPa) = 10.34556 42.76812 26.55684
# Shear Modulus (GPa) = 18.34861 36.18824 27.26843
#
# Velocity S-wave (km/s) = 2.75878 3.87435 3.36314
# Velocity P-wave (km/s) = 3.79987 6.14442 5.10847
#
# Compressibility (1/GPa) = 0.09665985
#
# Stress axis : x y z
#
# Youngs Moduli (GPa) = 80.53645 14.14397 48.87466
#
# Poissons Ratio (x) = -0.09352 0.31165
# Poissons Ratio (y) = -0.53250 0.18059
# Poissons Ratio (z) = 0.51354 0.05226
#
# Static dielectric constant tensor:
#      x y z
#    x 1.940700 0.028540 0.005810 
#    y 0.028540 1.970490 0.007440 
#    z 0.005810 0.007440 1.942280 
# 
# From -- ./inp_files/403031.got.cif
#   From: 2010.05.17/outbox.cif.g08.bks.cpg/sg2_202_cif.got.tgz:403031.got - 2010.06.03 11:33:40.
