data_PCOD9094894
_publ_section_title
;
Structure prediction by ZEFSAII (Michael W. Deem and Ramdas Pophale) SiO2 
 PCOD9094894
Probable space group: P -1
;
_chemical_formula_sum "Si O2"
_cell_formula_units_Z 14
_cell_length_a 12.416856
_cell_length_b 6.512853
_cell_length_c 6.514663
_cell_angle_alpha 105.276223
_cell_angle_beta 102.361960
_cell_angle_gamma 102.881536
_cell_volume 474.122102
_symmetry_space_group_name_H-M "P -1"
_symmetry_group_IT_number 2
_symmetry_cell_setting 'triclinic'
loop_
_space_group_symop_operation_xyz
x,y,z
-x,-y,-z
loop_
_atom_site_type_symbol
_atom_site_label
_atom_site_fract_x
_atom_site_fract_y
_atom_site_fract_z
Si Si1 0.463598 0.195150 0.651364
Si Si2 0.362430 0.561923 0.631055
Si Si3 0.165354 0.103241 0.156616
Si Si4 0.293610 0.618014 0.034901
Si Si5 0.171341 0.699921 0.347286
Si Si6 0.383192 0.136787 0.056174
Si Si7 0.017027 0.832827 0.639689
O O1 0.396448 0.338063 0.535505
O O2 0.392748 0.125755 0.812640
O O3 0.500000 0.000000 0.500000
O O4 0.514084 0.260716 0.212786
O O5 0.582980 0.374261 0.814993
O O6 0.289433 0.673598 0.484485
O O7 0.283962 0.495844 0.784272
O O8 0.102763 0.255307 0.302272
O O9 0.182457 0.937674 0.301332
O O10 0.280058 0.229603 0.112975
O O11 0.092681 0.962306 0.898399
O O12 0.174357 0.566838 0.098329
O O13 0.333366 0.883339 0.052355
O O14 0.081730 0.689084 0.493297
O O15 0.000000 0.000000 0.500000
#
# Coordination Sequence:
#
# PCOD9094894 Si02
#       7
#     2   2   2   2   2   2   2
#     4  11  25  41  62  92 133 187 240 284 336 410
#     4  11  23  42  60  95 144 186 228 274 349 408
#     4   9  19  35  62 100 138 180 230 279 340 403
#     4  10  22  36  60  92 131 179 221 276 332 400
#     4  10  20  34  63  94 138 180 228 277 333 409
#     4  10  21  41  64  95 145 181 224 282 335 415
#     4   9  18  35  61  99 139 178 227 280 339 410
#
# _framework density 29.52826
#
# number of rings (size 3 to 8) (size 9 to 14) (size 15 to 20)
#    0.000    2.000    0.000    5.143    6.000    2.286 
#    5.143    0.000    0.000    0.857    0.000   13.000 
#    0.000    0.000    0.000    5.143    0.000    0.143 
#
# Total GULP energy -78245.116031 kJ/mol
# GULP energy per Si atom -5588.936859 kJ/mol
# Density = 2.946105 g / cm^3
# Si number density = 29.528260 Si / 1000 Ang^3
#
#
#
# Elastic Constant Matrix: (Units=GPa)
#
#
# Indices 1 2 3 4 5 6 
#
# 1 183.7879 56.1291 95.9077 8.5523 -82.8230 -24.3783
# 2 56.1291 119.0228 45.7542 4.5690 -10.3934 -45.9197
# 3 95.9077 45.7542 196.3428 -2.0127 -45.3422 -20.9009
# 4 8.5523 4.5690 -2.0127 47.0396 -16.4936 -13.8031
# 5 -82.8230 -10.3934 -45.3422 -16.4936 97.3510 13.9845
# 6 -24.3783 -45.9197 -20.9009 -13.8031 13.9845 70.3578
#
#
#
# Elastic Compliance Matrix: (Units=1/GPa)
#
#
# Indices 1 2 3 4 5 6 
#
# 1 0.012010 -0.004181 -0.002991 0.000836 0.008666 -0.001014
# 2 -0.004181 0.013487 -0.001115 0.000407 -0.003693 0.007837
# 3 -0.002991 -0.001115 0.007057 0.001361 0.000791 0.000442
# 4 0.000836 0.000407 0.001361 0.024205 0.004806 0.004753
# 5 0.008666 -0.003693 0.000791 0.004806 0.018713 -0.001949
# 6 -0.001014 0.007837 0.000442 0.004753 -0.001949 0.020428
#
#
# Mechanical properties :
#
#
# Convention : Reuss Voigt Hill
#
# Bulk Modulus (GPa) = 62.57076 99.41503 80.99289
# Shear Modulus (GPa) = 42.44394 63.04050 52.74222
#
# Velocity S-wave (km/s) = 3.79542 4.62553 4.23088
# Velocity P-wave (km/s) = 6.35949 7.89102 7.16629
#
# Compressibility (1/GPa) = 0.01598191
#
# Stress axis : x y z
#
# Youngs Moduli (GPa) = 83.26112 74.14312 141.69345
#
# Poissons Ratio (x) = 0.30998 0.42374
# Poissons Ratio (y) = 0.34811 0.15803
# Poissons Ratio (z) = 0.24900 0.08269
#
# Static dielectric constant tensor:
#      x y z
#    x 2.325620 -0.061820 0.013590 
#    y -0.061820 2.505460 -0.054980 
#    z 0.013590 -0.054980 2.362380 
# 
# From -- ./inp_files/90490.got.cif
#   From: 2010.05.17/outbox.cif.g08.bks.cpg/sg2_46_cif.got.tgz:90490.got - 2010.06.03 11:33:40.
