data_PCOD9094151
_publ_section_title
;
Structure prediction by ZEFSAII (Michael W. Deem and Ramdas Pophale) SiO2 
 PCOD9094151
Probable space group: P -1
;
_chemical_formula_sum "Si O2"
_cell_formula_units_Z 16
_cell_length_a 9.474412
_cell_length_b 18.899534
_cell_length_c 5.430312
_cell_angle_alpha 104.034655
_cell_angle_beta 51.134044
_cell_angle_gamma 127.336910
_cell_volume 586.792448
_symmetry_space_group_name_H-M "P -1"
_symmetry_group_IT_number 2
_symmetry_cell_setting 'triclinic'
loop_
_space_group_symop_operation_xyz
x,y,z
-x,-y,-z
loop_
_atom_site_type_symbol
_atom_site_label
_atom_site_fract_x
_atom_site_fract_y
_atom_site_fract_z
Si Si1 0.285685 0.634877 0.604471
Si Si2 0.013624 0.672349 0.618042
Si Si3 0.864898 0.127114 0.753052
Si Si4 0.569553 0.258376 0.015105
Si Si5 0.361908 0.482485 0.389337
Si Si6 0.743632 0.735397 0.951274
Si Si7 0.844160 0.914102 0.419914
Si Si8 0.443739 0.047234 0.400675
O O1 0.080739 0.615358 0.643248
O O2 0.255596 0.667206 0.920661
O O3 0.291009 0.549730 0.527131
O O4 0.555007 0.723884 0.336325
O O5 0.855530 0.620394 0.510075
O O6 0.858339 0.695618 0.936587
O O7 0.272914 0.755137 0.339464
O O8 0.041186 0.190913 0.397735
O O9 0.006062 0.121639 0.813968
O O10 0.701368 0.029869 0.713602
O O11 0.681735 0.133280 0.097652
O O12 0.453874 0.305398 0.078434
O O13 0.365160 0.160209 0.245026
O O14 0.500000 0.500000 0.500000
O O15 0.500000 0.500000 0.000000
O O16 0.732210 0.929802 0.327215
O O17 0.000000 0.000000 0.500000
O O18 0.500000 0.000000 0.500000
#
# Coordination Sequence:
#
# PCOD9094151 Si02
#       8
#     2   2   2   2   2   2   2   2
#     4  11  25  42  67 102 138 175 241 284 358 424
#     4  11  24  42  70  98 140 183 229 292 356 419
#     4   9  20  36  57  81 119 164 210 272 335 401
#     4  10  23  40  66  99 131 181 231 294 349 433
#     4  12  27  48  77 106 147 195 240 292 364 435
#     4  10  21  42  63  90 130 174 223 280 349 415
#     4   9  19  39  61  87 129 172 223 280 352 405
#     4  10  20  34  54  85 116 159 215 273 334 409
#
# _framework density 27.266878999999999
#
# number of rings (size 3 to 8) (size 9 to 14) (size 15 to 20)
#    0.000    1.750    1.250    1.875    3.500    5.000 
#    0.000    5.000    0.000    0.000    0.000    0.000 
#    0.000    0.000    0.000    0.000    0.000    0.000 
#
# Total GULP energy -89080.294049 kJ/mol
# GULP energy per Si atom -5567.518378 kJ/mol
# Density = 2.720482 g / cm^3
# Si number density = 27.266879 Si / 1000 Ang^3
#
#
#
# Elastic Constant Matrix: (Units=GPa)
#
#
# Indices 1 2 3 4 5 6 
#
# 1 230.7167 12.1440 40.6318 8.8193 -47.9568 -22.9895
# 2 12.1440 50.9474 1.1873 1.6108 -9.5324 3.9450
# 3 40.6318 1.1873 110.2321 -2.9494 -41.0653 1.6425
# 4 8.8193 1.6108 -2.9494 29.9022 -0.9410 -7.1677
# 5 -47.9568 -9.5324 -41.0653 -0.9410 55.6904 2.8708
# 6 -22.9895 3.9450 1.6425 -7.1677 2.8708 41.8158
#
#
#
# Elastic Compliance Matrix: (Units=1/GPa)
#
#
# Indices 1 2 3 4 5 6 
#
# 1 0.005648 -0.000744 -0.000597 -0.000892 0.004139 0.002762
# 2 -0.000744 0.020837 0.001651 -0.001315 0.004274 -0.002958
# 3 -0.000597 0.001651 0.012793 0.001306 0.009296 -0.001401
# 4 -0.000892 -0.001315 0.001306 0.035258 0.000276 0.005607
# 5 0.004139 0.004274 0.009296 0.000276 0.029134 -0.000446
# 6 0.002762 -0.002958 -0.001401 0.005607 -0.000446 0.026759
#
#
# Mechanical properties :
#
#
# Convention : Reuss Voigt Hill
#
# Bulk Modulus (GPa) = 25.06380 55.53583 40.29982
# Shear Modulus (GPa) = 34.93849 48.01058 41.47453
#
# Velocity S-wave (km/s) = 3.58348 4.20070 3.90431
# Velocity P-wave (km/s) = 5.13164 6.62869 5.92762
#
# Compressibility (1/GPa) = 0.03989818
#
# Stress axis : x y z
#
# Youngs Moduli (GPa) = 177.04670 47.99117 78.16801
#
# Poissons Ratio (x) = 0.03569 0.04668
# Poissons Ratio (y) = 0.13166 -0.12903
# Poissons Ratio (z) = 0.10572 -0.07922
#
# Static dielectric constant tensor:
#      x y z
#    x 2.262290 -0.136680 0.150550 
#    y -0.136680 2.284880 0.004880 
#    z 0.150550 0.004880 2.312470 
# 
# From -- ./inp_files/53186.got.cif
#   From: 2010.05.17/outbox.cif.g08.bks.cpg/sg2_27_cif.got.tgz:53186.got - 2010.06.03 11:33:40.
