data_PCOD9094874
_publ_section_title
;
Structure prediction by ZEFSAII (Michael W. Deem and Ramdas Pophale) SiO2 
 PCOD9094874
Probable space group: P -1
;
_chemical_formula_sum "Si O2"
_cell_formula_units_Z 16
_cell_length_a 9.838600
_cell_length_b 7.546507
_cell_length_c 13.833138
_cell_angle_alpha 82.636407
_cell_angle_beta 59.483379
_cell_angle_gamma 49.002518
_cell_volume 633.748107
_symmetry_space_group_name_H-M "P -1"
_symmetry_group_IT_number 2
_symmetry_cell_setting 'triclinic'
loop_
_space_group_symop_operation_xyz
x,y,z
-x,-y,-z
loop_
_atom_site_type_symbol
_atom_site_label
_atom_site_fract_x
_atom_site_fract_y
_atom_site_fract_z
Si Si1 0.589110 0.732913 0.956130
Si Si2 0.977519 0.182636 0.129373
Si Si3 0.525454 0.641372 0.178133
Si Si4 0.336316 0.055079 0.868802
Si Si5 0.680115 0.188422 0.571090
Si Si6 0.807484 0.401922 0.378669
Si Si7 0.753669 0.814888 0.454734
Si Si8 0.967974 0.788449 0.196219
O O1 0.845515 0.495860 0.882584
O O2 0.516426 0.781938 0.867650
O O3 0.486650 0.677576 0.075300
O O4 0.500000 0.000000 0.000000
O O5 0.740439 0.366460 0.151313
O O6 0.961674 0.268583 0.238407
O O7 0.045813 0.923832 0.130575
O O8 0.132031 0.176859 0.005415
O O9 0.590519 0.797703 0.165586
O O10 0.338157 0.745131 0.314894
O O11 0.252698 0.077717 0.792025
O O12 0.813111 0.225310 0.457115
O O13 0.433666 0.396231 0.599283
O O14 0.752870 0.927309 0.545833
O O15 0.840332 0.548227 0.424008
O O16 0.896011 0.823213 0.329435
O O17 0.500000 0.000000 0.500000
#
# Coordination Sequence:
#
# PCOD9094874 Si02
#       8
#     2   2   2   2   2   2   2   2
#     4  10  25  41  63  95 127 174 219 270 326 387
#     4  11  21  36  63  95 133 169 212 271 323 393
#     4  10  21  39  63  91 131 170 214 271 324 387
#     4  11  23  40  64  92 129 170 218 259 331 385
#     4   9  17  35  55  91 130 160 216 273 313 389
#     4   9  18  31  56  93 126 166 211 268 320 380
#     4  10  20  34  62  98 127 167 222 262 325 395
#     4  12  23  41  64  99 134 168 219 272 326 391
#
# _framework density 25.246623
#
# number of rings (size 3 to 8) (size 9 to 14) (size 15 to 20)
#    0.000    1.750    2.500    3.000    7.000    0.500 
#    0.000    0.000    0.000    7.500    0.000    0.000 
#    0.000    0.000    0.000    0.000    0.000    0.000 
#
# Total GULP energy -89511.978335 kJ/mol
# GULP energy per Si atom -5594.498646 kJ/mol
# Density = 2.518916 g / cm^3
# Si number density = 25.246623 Si / 1000 Ang^3
#
#
#
# Elastic Constant Matrix: (Units=GPa)
#
#
# Indices 1 2 3 4 5 6 
#
# 1 45.6876 36.2923 -5.2035 -0.3177 4.9872 1.5689
# 2 36.2923 105.5834 24.0412 -5.0927 -0.4275 12.9675
# 3 -5.2035 24.0412 95.7425 -11.7016 -6.8624 15.4403
# 4 -0.3177 -5.0927 -11.7016 13.2670 9.0738 8.4617
# 5 4.9872 -0.4275 -6.8624 9.0738 15.0586 4.5779
# 6 1.5689 12.9675 15.4403 8.4617 4.5779 29.3560
#
#
#
# Elastic Compliance Matrix: (Units=1/GPa)
#
#
# Indices 1 2 3 4 5 6 
#
# 1 0.034287 -0.012480 0.005266 0.011947 -0.016522 0.000044
# 2 -0.012480 0.015556 -0.002448 0.007216 0.001300 -0.007200
# 3 0.005266 -0.002448 0.016726 0.027955 -0.006462 -0.015047
# 4 0.011947 0.007216 0.027955 0.211780 -0.099133 -0.064115
# 5 -0.016522 0.001300 -0.006462 -0.099133 0.124808 0.012819
# 6 0.000044 -0.007200 -0.015047 -0.064115 0.012819 0.061639
#
#
# Mechanical properties :
#
#
# Convention : Reuss Voigt Hill
#
# Bulk Modulus (GPa) = 21.16690 39.69706 30.43198
# Shear Modulus (GPa) = 10.00264 24.32856 17.16560
#
# Velocity S-wave (km/s) = 1.99263 3.10762 2.61035
# Velocity P-wave (km/s) = 3.70086 5.35110 4.60057
#
# Compressibility (1/GPa) = 0.04724357
#
# Stress axis : x y z
#
# Youngs Moduli (GPa) = 29.16588 64.28319 59.78768
#
# Poissons Ratio (x) = 0.80229 -0.31486
# Poissons Ratio (y) = 0.36400 0.14638
# Poissons Ratio (z) = -0.15359 0.15739
#
# Static dielectric constant tensor:
#      x y z
#    x 2.073480 -0.051250 0.035460 
#    y -0.051250 1.996800 0.008310 
#    z 0.035460 0.008310 1.952120 
# 
# From -- ./inp_files/515522.got.cif
#   From: 2010.05.17/outbox.cif.g08.bks.cpg/sg2_258_cif.got.tgz:515522.got - 2010.06.03 11:33:40.
