data_PCOD9094945
_publ_section_title
;
Structure prediction by ZEFSAII (Michael W. Deem and Ramdas Pophale) SiO2 
 PCOD9094945
Probable space group: P -1
;
_chemical_formula_sum "Si O2"
_cell_formula_units_Z 12
_cell_length_a 7.700590
_cell_length_b 10.542287
_cell_length_c 9.120113
_cell_angle_alpha 58.153125
_cell_angle_beta 89.187495
_cell_angle_gamma 71.502550
_cell_volume 585.550371
_symmetry_space_group_name_H-M "P -1"
_symmetry_group_IT_number 2
_symmetry_cell_setting 'triclinic'
loop_
_space_group_symop_operation_xyz
x,y,z
-x,-y,-z
loop_
_atom_site_type_symbol
_atom_site_label
_atom_site_fract_x
_atom_site_fract_y
_atom_site_fract_z
Si Si1 0.542589 0.319609 0.657801
Si Si2 0.952398 0.340967 0.137581
Si Si3 0.833504 0.888743 0.490762
Si Si4 0.848677 0.673312 0.353388
Si Si5 0.908043 0.186999 0.927424
Si Si6 0.748654 0.202832 0.432014
O O1 0.500000 0.500000 0.500000
O O2 0.345318 0.320593 0.713002
O O3 0.703559 0.256206 0.814850
O O4 0.615902 0.234111 0.553295
O O5 0.784643 0.346563 0.252691
O O6 0.131233 0.216337 0.297126
O O7 0.908260 0.250719 0.053483
O O8 0.000000 0.500000 0.000000
O O9 0.789397 0.788374 0.425120
O O10 0.041689 0.885229 0.452400
O O11 0.711110 0.073375 0.406285
O O12 0.000000 0.500000 0.500000
O O13 0.959674 0.739058 0.201249
O O14 0.000000 0.000000 0.000000
#
# Coordination Sequence:
#
# PCOD9094945 Si02
#       6
#     2   2   2   2   2   2
#     4  12  25  41  71  97 127 178 231 263 321 405
#     4  10  20  34  65  95 127 166 209 268 335 379
#     4   9  18  39  65  89 127 171 217 262 327 388
#     4  12  23  42  71  95 130 180 228 265 322 401
#     4  12  24  44  69  98 139 170 212 285 338 381
#     4   9  19  40  63  92 122 173 219 258 326 394
#
# _framework density 20.493539999999999
#
# number of rings (size 3 to 8) (size 9 to 14) (size 15 to 20)
#    1.000    0.333    3.333    3.000    2.333    1.333 
#    0.000    2.500    0.000    0.000    0.000    0.000 
#    0.000    0.000    0.000    0.000    0.000    0.000 
#
# Total GULP energy -66806.469156 kJ/mol
# GULP energy per Si atom -5567.205763 kJ/mol
# Density = 2.044690 g / cm^3
# Si number density = 20.493540 Si / 1000 Ang^3
#
#
#
# Elastic Constant Matrix: (Units=GPa)
#
#
# Indices 1 2 3 4 5 6 
#
# 1 112.2117 3.6556 24.5131 3.3774 3.8517 5.0785
# 2 3.6556 71.6370 -0.6590 11.4728 5.3388 3.4030
# 3 24.5131 -0.6590 70.2199 4.3139 -9.5205 4.8371
# 4 3.3774 11.4728 4.3139 39.1499 8.8579 -0.0768
# 5 3.8517 5.3388 -9.5205 8.8579 30.8581 -0.8748
# 6 5.0785 3.4030 4.8371 -0.0768 -0.8748 21.5183
#
#
#
# Elastic Compliance Matrix: (Units=1/GPa)
#
#
# Indices 1 2 3 4 5 6 
#
# 1 0.009873 -0.000315 -0.003682 0.000189 -0.002412 -0.001550
# 2 -0.000315 0.014847 0.000498 -0.004096 -0.001270 -0.002452
# 3 -0.003682 0.000498 0.016774 -0.003123 0.006368 -0.002733
# 4 0.000189 -0.004096 -0.003123 0.029014 -0.008577 0.001060
# 5 -0.002412 -0.001270 0.006368 -0.008577 0.037377 0.000828
# 6 -0.001550 -0.002452 -0.002733 0.001060 0.000828 0.047877
#
#
# Mechanical properties :
#
#
# Convention : Reuss Voigt Hill
#
# Bulk Modulus (GPa) = 28.98747 34.34313 31.66530
# Shear Modulus (GPa) = 28.69290 33.40918 31.05104
#
# Velocity S-wave (km/s) = 3.74584 4.04199 3.89673
# Velocity P-wave (km/s) = 5.73444 6.21112 5.97753
#
# Compressibility (1/GPa) = 0.03449766
#
# Stress axis : x y z
#
# Youngs Moduli (GPa) = 101.28134 67.35370 59.61526
#
# Poissons Ratio (x) = 0.02119 0.21947
# Poissons Ratio (y) = 0.03186 -0.02966
# Poissons Ratio (z) = 0.37287 -0.03351
#
# Static dielectric constant tensor:
#      x y z
#    x 1.770260 -0.049460 -0.053180 
#    y -0.049460 1.911930 0.087070 
#    z -0.053180 0.087070 1.781060 
# 
# From -- ./inp_files/174279.got.cif
#   From: 2010.05.17/outbox.cif.g08.bks.cpg/sg2_88_cif.got.tgz:174279.got - 2010.06.03 11:33:40.
