data_PCOD9094495
_publ_section_title
;
Structure prediction by ZEFSAII (Michael W. Deem and Ramdas Pophale) SiO2 
 PCOD9094495
Probable space group: P -1
;
_chemical_formula_sum "Si O2"
_cell_formula_units_Z 14
_cell_length_a 10.976905
_cell_length_b 14.089933
_cell_length_c 11.848594
_cell_angle_alpha 42.259543
_cell_angle_beta 106.388912
_cell_angle_gamma 136.444332
_cell_volume 709.995973
_symmetry_space_group_name_H-M "P -1"
_symmetry_group_IT_number 2
_symmetry_cell_setting 'triclinic'
loop_
_space_group_symop_operation_xyz
x,y,z
-x,-y,-z
loop_
_atom_site_type_symbol
_atom_site_label
_atom_site_fract_x
_atom_site_fract_y
_atom_site_fract_z
Si Si1 0.115944 0.469833 0.611446
Si Si2 0.667112 0.730176 0.758882
Si Si3 0.798652 0.147399 0.978903
Si Si4 0.906420 0.265379 0.152001
Si Si5 0.878737 0.756123 0.595524
Si Si6 0.489270 0.870373 0.517497
Si Si7 0.325246 0.634231 0.294085
O O1 0.267430 0.658831 0.583927
O O2 0.242384 0.517986 0.498495
O O3 0.000000 0.500000 0.500000
O O4 0.939986 0.222567 0.845318
O O5 0.710157 0.698457 0.674174
O O6 0.559913 0.786693 0.664739
O O7 0.500000 0.500000 0.000000
O O8 0.917001 0.980364 0.637240
O O9 0.753991 0.277092 0.838217
O O10 0.919558 0.237868 0.048922
O O11 0.576424 0.871583 0.159190
O O12 0.015984 0.250563 0.275572
O O13 0.659610 0.053883 0.303689
O O14 0.000000 0.500000 0.000000
O O15 0.763056 0.554924 0.652327
O O16 0.500000 0.000000 0.500000
#
# Coordination Sequence:
#
# PCOD9094495 Si02
#       7
#     2   2   2   2   2   2   2
#     4  10  22  36  57  93 131 159 204 265 312 376
#     4  10  25  44  65  94 132 168 218 269 320 380
#     4  10  20  34  57  93 131 162 203 266 320 367
#     4  11  20  35  63  98 129 161 214 267 315 374
#     4  10  23  42  66  91 127 176 214 260 323 385
#     4  11  24  40  65 100 125 162 222 269 316 380
#     4  10  20  38  58  90 130 167 207 257 321 379
#
# _framework density 19.718420999999999
#
# number of rings (size 3 to 8) (size 9 to 14) (size 15 to 20)
#    0.000    1.714    2.857    0.857   10.000    1.143 
#    0.000    0.714    0.000    1.714    0.000    0.000 
#    0.000    0.000    0.000    0.000    0.000    0.000 
#
# Total GULP energy -78082.237511 kJ/mol
# GULP energy per Si atom -5577.302679 kJ/mol
# Density = 1.967354 g / cm^3
# Si number density = 19.718421 Si / 1000 Ang^3
#
#
#
# Elastic Constant Matrix: (Units=GPa)
#
#
# Indices 1 2 3 4 5 6 
#
# 1 89.4720 49.2642 52.9566 -8.2831 -13.7782 -13.4764
# 2 49.2642 131.2400 49.0915 -8.0453 -15.3852 -27.6739
# 3 52.9566 49.0915 147.4602 -7.7361 -33.0599 -16.4331
# 4 -8.2831 -8.0453 -7.7361 27.4397 -5.1112 1.6937
# 5 -13.7782 -15.3852 -33.0599 -5.1112 33.5377 4.0122
# 6 -13.4764 -27.6739 -16.4331 1.6937 4.0122 28.6083
#
#
#
# Elastic Compliance Matrix: (Units=1/GPa)
#
#
# Indices 1 2 3 4 5 6 
#
# 1 0.016417 -0.004124 -0.003978 0.002783 0.001221 0.001123
# 2 -0.004124 0.011620 -0.000911 0.001761 0.002003 0.008390
# 3 -0.003978 -0.000911 0.010913 0.003145 0.008937 0.002074
# 4 0.002783 0.001761 0.003145 0.040712 0.011155 0.000846
# 5 0.001221 0.002003 0.008937 0.011155 0.041610 0.001150
# 6 0.001123 0.008390 0.002074 0.000846 0.001150 0.044579
#
#
# Mechanical properties :
#
#
# Convention : Reuss Voigt Hill
#
# Bulk Modulus (GPa) = 47.79123 74.53300 61.16211
# Shear Modulus (GPa) = 26.19839 32.37447 29.28643
#
# Velocity S-wave (km/s) = 3.64899 4.05636 3.85805
# Velocity P-wave (km/s) = 6.48405 7.73430 7.13661
#
# Compressibility (1/GPa) = 0.02092434
#
# Stress axis : x y z
#
# Youngs Moduli (GPa) = 60.91416 86.05662 91.63358
#
# Poissons Ratio (x) = 0.35488 0.36449
# Poissons Ratio (y) = 0.25120 0.08350
# Poissons Ratio (z) = 0.24230 0.07842
#
# Static dielectric constant tensor:
#      x y z
#    x 1.707360 0.013080 -0.039990 
#    y 0.013080 1.703960 -0.002250 
#    z -0.039990 -0.002250 1.740920 
# 
# From -- ./inp_files/277760.got.cif
#   From: 2010.05.17/outbox.cif.g08.bks.cpg/sg2_139_cif.got.tgz:277760.got - 2010.06.03 11:33:40.
