data_PCOD9094298
_publ_section_title
;
Structure prediction by ZEFSAII (Michael W. Deem and Ramdas Pophale) SiO2 
 PCOD9094298
Probable space group: P -1
;
_chemical_formula_sum "Si O2"
_cell_formula_units_Z 10
_cell_length_a 6.411649
_cell_length_b 15.560928
_cell_length_c 5.387177
_cell_angle_alpha 51.568023
_cell_angle_beta 82.775793
_cell_angle_gamma 82.182357
_cell_volume 416.535759
_symmetry_space_group_name_H-M "P -1"
_symmetry_group_IT_number 2
_symmetry_cell_setting 'triclinic'
loop_
_space_group_symop_operation_xyz
x,y,z
-x,-y,-z
loop_
_atom_site_type_symbol
_atom_site_label
_atom_site_fract_x
_atom_site_fract_y
_atom_site_fract_z
Si Si1 0.033928 0.798940 0.692254
Si Si2 0.819965 0.417201 0.704496
Si Si3 0.675323 0.015523 0.653885
Si Si4 0.366998 0.640524 0.666274
Si Si5 0.338873 0.175269 0.670714
O O1 0.057362 0.703351 0.064573
O O2 0.753481 0.896569 0.966711
O O3 0.139601 0.906688 0.575764
O O4 0.179538 0.737320 0.564455
O O5 0.680462 0.416277 0.481544
O O6 0.000000 0.500000 0.500000
O O7 0.675827 0.430530 0.951891
O O8 0.546570 0.095927 0.723271
O O9 0.500000 0.000000 0.500000
O O10 0.812042 0.821644 0.550067
O O11 0.580409 0.704359 0.511564
#
# Coordination Sequence:
#
# PCOD9094298 Si02
#       5
#     2   2   2   2   2
#     4   9  21  35  57  85 113 152 192 232 278 339
#     4  10  20  40  62  82 115 151 186 236 287 331
#     4  10  20  34  56  81 118 152 186 234 283 334
#     4   9  21  38  59  83 116 148 186 235 283 334
#     4  10  20  36  55  84 115 150 190 232 282 337
#
# _framework density 24.007546999999999
#
# number of rings (size 3 to 8) (size 9 to 14) (size 15 to 20)
#    1.200    1.200    0.000    2.400    0.000    2.400 
#    0.000    2.000    0.000    0.000    0.000    0.000 
#    0.000    0.000    0.000    0.000    0.000    0.000 
#
# Total GULP energy -55777.231707 kJ/mol
# GULP energy per Si atom -5577.723171 kJ/mol
# Density = 2.395290 g / cm^3
# Si number density = 24.007547 Si / 1000 Ang^3
#
#
#
# Elastic Constant Matrix: (Units=GPa)
#
#
# Indices 1 2 3 4 5 6 
#
# 1 107.9848 50.6518 78.9788 -24.6137 8.5693 31.3420
# 2 50.6518 105.6043 92.8053 -16.3947 -1.7091 51.4365
# 3 78.9788 92.8053 207.2394 -30.3679 1.8097 51.1695
# 4 -24.6137 -16.3947 -30.3679 46.5489 7.9695 -10.3830
# 5 8.5693 -1.7091 1.8097 7.9695 44.1806 -3.2852
# 6 31.3420 51.4365 51.1695 -10.3830 -3.2852 64.9149
#
#
#
# Elastic Compliance Matrix: (Units=1/GPa)
#
#
# Indices 1 2 3 4 5 6 
#
# 1 0.014895 -0.002622 -0.003245 0.005073 -0.003917 -0.001943
# 2 -0.002622 0.021103 -0.005818 -0.000315 0.000811 -0.010878
# 3 -0.003245 -0.005818 0.009161 0.002119 -0.000407 -0.000726
# 4 0.005073 -0.000315 0.002119 0.026453 -0.005850 0.000065
# 5 -0.003917 0.000811 -0.000407 -0.005850 0.024637 0.001881
# 6 -0.001943 -0.010878 -0.000726 0.000065 0.001881 0.025640
#
#
# Mechanical properties :
#
#
# Convention : Reuss Voigt Hill
#
# Bulk Modulus (GPa) = 45.89702 96.18892 71.04297
# Shear Modulus (GPa) = 32.78237 44.35504 38.56870
#
# Velocity S-wave (km/s) = 3.69928 4.30297 4.01250
# Velocity P-wave (km/s) = 6.11600 8.05236 7.15003
#
# Compressibility (1/GPa) = 0.02178790
#
# Stress axis : x y z
#
# Youngs Moduli (GPa) = 67.13760 47.38754 109.16112
#
# Poissons Ratio (x) = 0.12425 0.35423
# Poissons Ratio (y) = 0.17603 0.63512
# Poissons Ratio (z) = 0.21786 0.27571
#
# Static dielectric constant tensor:
#      x y z
#    x 1.907030 -0.110860 -0.092990 
#    y -0.110860 1.955110 0.042890 
#    z -0.092990 0.042890 2.052210 
# 
# From -- ./inp_files/21277.got.cif
#   From: 2010.05.17/outbox.cif.g08.bks.cpg/sg2_11_cif.got.tgz:21277.got - 2010.06.03 11:33:40.
