data_PCOD9094904
_publ_section_title
;
Structure prediction by ZEFSAII (Michael W. Deem and Ramdas Pophale) SiO2 
 PCOD9094904
Probable space group: P -1
;
_chemical_formula_sum "Si O2"
_cell_formula_units_Z 16
_cell_length_a 17.993050
_cell_length_b 14.471454
_cell_length_c 9.161083
_cell_angle_alpha 41.105319
_cell_angle_beta 140.682735
_cell_angle_gamma 154.317331
_cell_volume 641.127340
_symmetry_space_group_name_H-M "P -1"
_symmetry_group_IT_number 2
_symmetry_cell_setting 'triclinic'
loop_
_space_group_symop_operation_xyz
x,y,z
-x,-y,-z
loop_
_atom_site_type_symbol
_atom_site_label
_atom_site_fract_x
_atom_site_fract_y
_atom_site_fract_z
Si Si1 0.505815 0.654705 0.907741
Si Si2 0.488437 0.922909 0.414048
Si Si3 0.935888 0.805979 0.539561
Si Si4 0.679727 0.962473 0.083679
Si Si5 0.955827 0.136390 0.668296
Si Si6 0.317906 0.553564 0.202399
Si Si7 0.789911 0.722904 0.883487
Si Si8 0.867930 0.353256 0.337194
O O1 0.469452 0.742562 0.631167
O O2 0.500000 0.500000 0.000000
O O3 0.651350 0.848534 0.021313
O O4 0.339141 0.487796 0.962850
O O5 0.500000 0.000000 0.500000
O O6 0.677759 0.122382 0.384463
O O7 0.345900 0.893938 0.152561
O O8 0.923828 0.821361 0.329068
O O9 0.754726 0.562075 0.612708
O O10 0.118192 0.879648 0.743679
O O11 0.000000 0.000000 0.500000
O O12 0.520321 0.775373 0.183406
O O13 0.950181 0.295914 0.446847
O O14 0.775105 0.875977 0.695412
O O15 0.020998 0.159324 0.903596
O O16 0.258169 0.361758 0.249861
O O17 0.186076 0.559297 0.940667
O O18 0.000000 0.500000 0.500000
#
# Coordination Sequence:
#
# PCOD9094904 Si02
#       8
#     2   2   2   2   2   2   2   2
#     4  10  20  34  64 100 130 166 218 276 333 380
#     4   9  20  38  62  99 132 168 215 268 336 386
#     4  12  26  44  69  94 135 182 223 270 341 404
#     4   9  23  42  64  92 135 176 220 270 328 407
#     4  11  24  40  65  97 131 172 223 272 333 395
#     4  10  22  44  67  96 128 177 218 271 338 390
#     4  10  21  40  62  95 132 162 223 281 320 389
#     4  11  22  38  68  95 129 171 217 279 329 388
#
# _framework density 24.956040000000002
#
# number of rings (size 3 to 8) (size 9 to 14) (size 15 to 20)
#    0.000    1.750    2.500    1.500    5.250    1.000 
#    0.000    3.750    0.000    0.000    0.000    0.000 
#    0.000    0.000    0.000    0.000    0.000    0.000 
#
# Total GULP energy -89263.683510 kJ/mol
# GULP energy per Si atom -5578.980219 kJ/mol
# Density = 2.489924 g / cm^3
# Si number density = 24.956040 Si / 1000 Ang^3
#
#
#
# Elastic Constant Matrix: (Units=GPa)
#
#
# Indices 1 2 3 4 5 6 
#
# 1 82.3263 24.1005 29.5548 -3.3093 -2.0596 -3.0583
# 2 24.1005 50.9758 38.3460 -9.4170 -1.4112 -12.3763
# 3 29.5548 38.3460 89.2029 -7.7936 0.7990 0.1942
# 4 -3.3093 -9.4170 -7.7936 42.8318 1.4331 -2.2233
# 5 -2.0596 -1.4112 0.7990 1.4331 43.2179 -15.8544
# 6 -3.0583 -12.3763 0.1942 -2.2233 -15.8544 35.5039
#
#
#
# Elastic Compliance Matrix: (Units=1/GPa)
#
#
# Indices 1 2 3 4 5 6 
#
# 1 0.014567 -0.004973 -0.002736 -0.000496 0.000499 -0.000272
# 2 -0.004973 0.037987 -0.014258 0.005989 0.007098 0.016436
# 3 -0.002736 -0.014258 0.018269 -0.000263 -0.003441 -0.006859
# 4 -0.000496 0.005989 -0.000263 0.024756 0.000808 0.003957
# 5 0.000499 0.007098 -0.003441 0.000808 0.029156 0.015606
# 6 -0.000272 0.016436 -0.006859 0.003957 0.015606 0.041126
#
#
# Mechanical properties :
#
#
# Convention : Reuss Voigt Hill
#
# Bulk Modulus (GPa) = 37.18977 45.16751 41.17864
# Shear Modulus (GPa) = 22.85620 33.01096 27.93358
#
# Velocity S-wave (km/s) = 3.02960 3.64093 3.34924
# Velocity P-wave (km/s) = 5.21272 5.98442 5.61185
#
# Compressibility (1/GPa) = 0.02688912
#
# Stress axis : x y z
#
# Youngs Moduli (GPa) = 68.64735 26.32464 54.73796
#
# Poissons Ratio (x) = 0.13091 0.14976
# Poissons Ratio (y) = 0.34138 0.78046
# Poissons Ratio (z) = 0.18781 0.37534
#
# Static dielectric constant tensor:
#      x y z
#    x 2.041360 -0.039180 -0.030010 
#    y -0.039180 2.080640 0.061430 
#    z -0.030010 0.061430 2.048100 
# 
# From -- ./inp_files/335637.got.cif
#   From: 2010.05.17/outbox.cif.g08.bks.cpg/sg2_168_cif.got.tgz:335637.got - 2010.06.03 11:33:40.
