data_PCOD9094492
_publ_section_title
;
Structure prediction by ZEFSAII (Michael W. Deem and Ramdas Pophale) SiO2 
 PCOD9094492
Probable space group: P -1
;
_chemical_formula_sum "Si O2"
_cell_formula_units_Z 14
_cell_length_a 11.174317
_cell_length_b 9.413766
_cell_length_c 17.955593
_cell_angle_alpha 28.082682
_cell_angle_beta 49.349104
_cell_angle_gamma 67.197465
_cell_volume 574.498257
_symmetry_space_group_name_H-M "P -1"
_symmetry_group_IT_number 2
_symmetry_cell_setting 'triclinic'
loop_
_space_group_symop_operation_xyz
x,y,z
-x,-y,-z
loop_
_atom_site_type_symbol
_atom_site_label
_atom_site_fract_x
_atom_site_fract_y
_atom_site_fract_z
Si Si1 0.660168 0.235613 0.153599
Si Si2 0.383156 0.173760 0.490865
Si Si3 0.591363 0.928615 0.090130
Si Si4 0.961483 0.400163 0.648991
Si Si5 0.795098 0.868046 0.169628
Si Si6 0.019771 0.178856 0.166814
Si Si7 0.332899 0.851772 0.360721
O O1 0.635771 0.947608 0.358684
O O2 0.779878 0.180932 0.068465
O O3 0.468050 0.136363 0.236539
O O4 0.786692 0.624633 0.957937
O O5 0.488678 0.586673 0.237952
O O6 0.500000 0.000000 0.500000
O O7 0.174530 0.037433 0.610635
O O8 0.683981 0.792983 0.173800
O O9 0.444877 0.955906 0.188950
O O10 0.759395 0.260585 0.827666
O O11 0.000000 0.500000 0.500000
O O12 0.121252 0.715681 0.487576
O O13 0.978914 0.050812 0.796754
O O14 0.700055 0.515235 0.421085
O O15 0.000000 0.000000 0.000000
O O16 0.000000 0.500000 0.000000
#
# Coordination Sequence:
#
# PCOD9094492 Si02
#       7
#     2   2   2   2   2   2   2
#     4  10  20  34  57  92 128 158 206 265 317 375
#     4  11  20  32  58  96 132 162 201 260 329 370
#     4  11  20  36  61  90 124 165 209 257 320 368
#     4  12  26  43  64  93 129 174 216 258 317 386
#     4  11  19  31  62  94 126 158 205 269 320 364
#     4  10  21  40  61  90 132 160 208 270 311 372
#     4  11  20  40  59  92 126 162 214 263 306 385
#
# _framework density 24.369091000000001
#
# number of rings (size 3 to 8) (size 9 to 14) (size 15 to 20)
#    0.000    1.143    5.714    3.429    2.000    0.571 
#    0.000    0.714    0.000    3.429    0.000    0.000 
#    0.000    0.000    0.000    0.000    0.000    0.000 
#
# Total GULP energy -78059.132349 kJ/mol
# GULP energy per Si atom -5575.652311 kJ/mol
# Density = 2.431363 g / cm^3
# Si number density = 24.369091 Si / 1000 Ang^3
#
#
#
# Elastic Constant Matrix: (Units=GPa)
#
#
# Indices 1 2 3 4 5 6 
#
# 1 93.4384 21.0737 58.7291 -1.5038 -30.2845 16.1803
# 2 21.0737 51.9553 33.5998 17.5338 -21.5423 -0.3162
# 3 58.7291 33.5998 132.4778 29.7058 -39.3415 3.7549
# 4 -1.5038 17.5338 29.7058 36.5430 5.8774 -6.1865
# 5 -30.2845 -21.5423 -39.3415 5.8774 61.4538 -5.2480
# 6 16.1803 -0.3162 3.7549 -6.1865 -5.2480 25.8962
#
#
#
# Elastic Compliance Matrix: (Units=1/GPa)
#
#
# Indices 1 2 3 4 5 6 
#
# 1 0.019121 -0.004846 -0.008814 0.008750 0.000516 -0.008533
# 2 -0.004846 0.030926 0.001692 -0.018046 0.011360 0.001151
# 3 -0.008814 0.001692 0.017434 -0.016661 0.009077 0.000859
# 4 0.008750 -0.018046 -0.016661 0.053737 -0.017302 0.006059
# 5 0.000516 0.011360 0.009077 -0.017302 0.027978 0.000037
# 6 -0.008533 0.001151 0.000859 0.006059 0.000037 0.045292
#
#
# Mechanical properties :
#
#
# Convention : Reuss Voigt Hill
#
# Bulk Modulus (GPa) = 22.96515 56.07520 39.52018
# Shear Modulus (GPa) = 21.46481 35.74321 28.60401
#
# Velocity S-wave (km/s) = 2.97108 3.83396 3.42977
# Velocity P-wave (km/s) = 4.60588 6.53145 5.65128
#
# Compressibility (1/GPa) = 0.04354423
#
# Stress axis : x y z
#
# Youngs Moduli (GPa) = 52.29838 32.33503 57.35893
#
# Poissons Ratio (x) = 0.15671 0.50559
# Poissons Ratio (y) = 0.25346 -0.09707
# Poissons Ratio (z) = 0.46098 -0.05472
#
# Static dielectric constant tensor:
#      x y z
#    x 2.104560 0.053000 -0.036420 
#    y 0.053000 2.007420 -0.027620 
#    z -0.036420 -0.027620 2.099680 
# 
# From -- ./inp_files/176934.got.cif
#   From: 2010.05.17/outbox.cif.g08.bks.cpg/sg2_89_cif.got.tgz:176934.got - 2010.06.03 11:33:40.
