data_PCOD9094592
_publ_section_title
;
Structure prediction by ZEFSAII (Michael W. Deem and Ramdas Pophale) SiO2 
 PCOD9094592
Probable space group: P -1
;
_chemical_formula_sum "Si O2"
_cell_formula_units_Z 15
_cell_length_a 10.520386
_cell_length_b 8.327582
_cell_length_c 14.509114
_cell_angle_alpha 101.122785
_cell_angle_beta 139.664043
_cell_angle_gamma 109.287176
_cell_volume 532.511282
_symmetry_space_group_name_H-M "P -1"
_symmetry_group_IT_number 2
_symmetry_cell_setting 'triclinic'
loop_
_space_group_symop_operation_xyz
x,y,z
-x,-y,-z
loop_
_atom_site_type_symbol
_atom_site_label
_atom_site_fract_x
_atom_site_fract_y
_atom_site_fract_z
Si Si1 0.397294 0.270021 0.801823
Si Si2 0.142096 0.110364 0.433994
Si Si3 0.831877 0.522756 0.319757
Si Si4 0.063806 0.627639 0.867742
Si Si5 0.500000 0.000000 0.000000
Si Si6 0.488828 0.375310 0.287517
Si Si7 0.090619 0.841361 0.091584
Si Si8 0.684307 0.128604 0.511124
O O1 0.271744 0.169238 0.617213
O O2 0.337522 0.421904 0.807487
O O3 0.713100 0.385298 0.992662
O O4 0.196522 0.050195 0.745388
O O5 0.343535 0.379730 0.534335
O O6 0.178610 0.958974 0.388903
O O7 0.750736 0.476558 0.376867
O O8 0.167698 0.762724 0.497377
O O9 0.701097 0.279376 0.177731
O O10 0.255156 0.869921 0.937093
O O11 0.787295 0.362360 0.639639
O O12 0.009113 0.685257 0.939145
O O13 0.301168 0.125931 0.211345
O O14 0.228589 0.291350 0.069302
O O15 0.329333 0.888049 0.286444
#
# Coordination Sequence:
#
# PCOD9094592 Si02
#       8
#     2   2   2   2   1   2   2   2
#     4   9  18  35  62  89 124 154 197 255 303 345
#     4   9  18  36  61  92 115 159 204 246 298 362
#     4   9  19  37  61  93 119 156 202 251 297 358
#     4  11  22  39  61  92 126 157 201 251 302 357
#     4  10  20  34  58  92 118 150 202 250 288 354
#     4  10  22  39  64  87 122 164 206 237 312 362
#     4  11  23  42  63  86 124 170 192 252 302 362
#     4  10  22  38  64  92 120 153 208 253 297 351
#
# _framework density 28.168417000000002
#
# number of rings (size 3 to 8) (size 9 to 14) (size 15 to 20)
#    0.000    2.133    2.667    0.800    0.000    8.000 
#    0.000    3.333    5.867    0.000    0.000    0.000 
#    0.000    0.000    0.000    0.000    0.000    0.000 
#
# Total GULP energy -83804.395463 kJ/mol
# GULP energy per Si atom -5586.959698 kJ/mol
# Density = 2.810430 g / cm^3
# Si number density = 28.168417 Si / 1000 Ang^3
#
#
#
# Elastic Constant Matrix: (Units=GPa)
#
#
# Indices 1 2 3 4 5 6 
#
# 1 99.8793 11.2664 33.5374 15.9485 22.0876 -1.7786
# 2 11.2664 98.8802 3.1971 34.5810 -0.5618 -1.7747
# 3 33.5374 3.1971 120.3693 8.8749 16.1472 -12.8282
# 4 15.9485 34.5810 8.8749 54.5551 -10.3450 -7.9257
# 5 22.0876 -0.5618 16.1472 -10.3450 45.0435 10.7416
# 6 -1.7786 -1.7747 -12.8282 -7.9257 10.7416 42.3220
#
#
#
# Elastic Compliance Matrix: (Units=1/GPa)
#
#
# Indices 1 2 3 4 5 6 
#
# 1 0.013045 0.000234 -0.002296 -0.004783 -0.006836 0.000701
# 2 0.000234 0.013186 0.000476 -0.008962 -0.002073 -0.000445
# 3 -0.002296 0.000476 0.009901 -0.001403 -0.003592 0.003573
# 4 -0.004783 -0.008962 -0.001403 0.027554 0.008593 0.001977
# 5 -0.006836 -0.002073 -0.003592 0.008593 0.030606 -0.007622
# 6 0.000701 -0.000445 0.003573 0.001977 -0.007622 0.027027
#
#
# Mechanical properties :
#
#
# Convention : Reuss Voigt Hill
#
# Bulk Modulus (GPa) = 30.34051 46.12561 38.23306
# Shear Modulus (GPa) = 36.90684 46.45933 41.68308
#
# Velocity S-wave (km/s) = 3.62362 4.06561 3.85097
# Velocity P-wave (km/s) = 5.31996 6.20076 5.77717
#
# Compressibility (1/GPa) = 0.03295924
#
# Stress axis : x y z
#
# Youngs Moduli (GPa) = 76.65958 75.84082 100.99977
#
# Poissons Ratio (x) = -0.01778 0.23192
# Poissons Ratio (y) = -0.01797 -0.04807
# Poissons Ratio (z) = 0.17603 -0.03609
#
# Static dielectric constant tensor:
#      x y z
#    x 2.223020 -0.236140 0.165870 
#    y -0.236140 -0.133850 2.184140 
#    z 0.165870 2.184140 0.042750 
# 
# From -- ./inp_files/566087.got.cif
#   From: 2010.05.17/outbox.cif.g08.bks.cpg/sg2_284_cif.got.tgz:566087.got - 2010.06.03 11:33:40.
