data_PCOD9094384
_publ_section_title
;
Structure prediction by ZEFSAII (Michael W. Deem and Ramdas Pophale) SiO2 
 PCOD9094384
Probable space group: P -1
;
_chemical_formula_sum "Si O2"
_cell_formula_units_Z 15
_cell_length_a 16.443091
_cell_length_b 13.855339
_cell_length_c 11.171265
_cell_angle_alpha 45.568616
_cell_angle_beta 21.173995
_cell_angle_gamma 38.144739
_cell_volume 561.437390
_symmetry_space_group_name_H-M "P -1"
_symmetry_group_IT_number 2
_symmetry_cell_setting 'triclinic'
loop_
_space_group_symop_operation_xyz
x,y,z
-x,-y,-z
loop_
_atom_site_type_symbol
_atom_site_label
_atom_site_fract_x
_atom_site_fract_y
_atom_site_fract_z
Si Si1 0.785992 0.294152 0.521519
Si Si2 0.023241 0.150234 0.693305
Si Si3 0.500000 0.500000 0.500000
Si Si4 0.991363 0.460882 0.407551
Si Si5 0.178084 0.816847 0.790225
Si Si6 0.130785 0.449193 0.733772
Si Si7 0.259248 0.117446 0.865799
Si Si8 0.543027 0.219029 0.122780
O O1 0.644439 0.375540 0.523207
O O2 0.772321 0.426939 0.515276
O O3 0.630652 0.227533 0.861205
O O4 0.082313 0.162630 0.190128
O O5 0.088542 0.277414 0.441671
O O6 0.786995 0.176718 0.909020
O O7 0.914284 0.192052 0.941537
O O8 0.226009 0.962478 0.582501
O O9 0.419714 0.649601 0.571750
O O10 0.096074 0.499311 0.106000
O O11 0.000000 0.500000 0.500000
O O12 0.692823 0.608372 0.665989
O O13 0.941026 0.853679 0.992893
O O14 0.314645 0.259670 0.651579
O O15 0.000000 0.500000 0.000000
O O16 0.485593 0.934763 0.705814
#
# Coordination Sequence:
#
# PCOD9094384 Si02
#       8
#     2   2   1   2   2   2   2   2
#     4  10  20  38  65  91 123 163 211 261 318 385
#     4  10  20  38  62  90 123 163 213 259 315 376
#     4  10  20  34  56  92 120 158 202 256 314 370
#     4  12  25  40  63  92 132 168 215 270 324 376
#     4   9  19  35  60  90 128 157 203 263 310 378
#     4  10  22  40  61  87 127 174 203 257 326 383
#     4   9  20  39  60  94 127 162 205 259 324 380
#     4  11  22  38  66  94 119 164 219 264 308 383
#
# _framework density 26.717137999999998
#
# number of rings (size 3 to 8) (size 9 to 14) (size 15 to 20)
#    0.000    1.867    1.333    2.400    1.867    2.667 
#    2.400    0.000    0.000    4.000    0.000    0.000 
#    0.000    0.000    0.000    0.000    0.000    0.000 
#
# Total GULP energy -83669.860435 kJ/mol
# GULP energy per Si atom -5577.990696 kJ/mol
# Density = 2.665633 g / cm^3
# Si number density = 26.717138 Si / 1000 Ang^3
#
#
#
# Elastic Constant Matrix: (Units=GPa)
#
#
# Indices 1 2 3 4 5 6 
#
# 1 115.0195 32.7659 8.4929 -10.1886 21.3156 4.6246
# 2 32.7659 208.5863 47.5022 -15.0802 17.8372 16.3101
# 3 8.4929 47.5022 62.5982 -1.1253 20.3489 -2.0621
# 4 -10.1886 -15.0802 -1.1253 45.8525 -6.0587 4.9848
# 5 21.3156 17.8372 20.3489 -6.0587 44.7766 -6.6542
# 6 4.6246 16.3101 -2.0621 4.9848 -6.6542 43.2694
#
#
#
# Elastic Compliance Matrix: (Units=1/GPa)
#
#
# Indices 1 2 3 4 5 6 
#
# 1 0.010031 -0.001197 0.001092 0.001384 -0.004826 -0.001471
# 2 -0.001197 0.006431 -0.004788 0.002037 0.000051 -0.002751
# 3 0.001092 -0.004788 0.022339 -0.002126 -0.008808 0.001643
# 4 0.001384 0.002037 -0.002126 0.023387 0.002158 -0.003380
# 5 -0.004826 0.000051 -0.008808 0.002158 0.029555 0.004373
# 6 -0.001471 -0.002751 0.001643 -0.003380 0.004373 0.025445
#
#
# Mechanical properties :
#
#
# Convention : Reuss Voigt Hill
#
# Bulk Modulus (GPa) = 34.46374 62.63620 48.54997
# Shear Modulus (GPa) = 36.59132 46.60925 41.60028
#
# Velocity S-wave (km/s) = 3.70480 4.18131 3.95025
# Velocity P-wave (km/s) = 5.58822 6.84151 6.24638
#
# Compressibility (1/GPa) = 0.02901600
#
# Stress axis : x y z
#
# Youngs Moduli (GPa) = 99.69585 155.50607 44.76425
#
# Poissons Ratio (x) = 0.18609 -0.04890
# Poissons Ratio (y) = 0.11930 0.21433
# Poissons Ratio (z) = -0.10891 0.74455
#
# Static dielectric constant tensor:
#      x y z
#    x 2.401430 0.103310 0.297740 
#    y 0.103310 2.077040 0.057000 
#    z 0.297740 0.057000 2.825830 
# 
# From -- ./inp_files/465498.got.cif
#   From: 2010.05.17/outbox.cif.g08.bks.cpg/sg2_233_cif.got.tgz:465498.got - 2010.06.03 11:33:40.
