data_PCOD9094723
_publ_section_title
;
Structure prediction by ZEFSAII (Michael W. Deem and Ramdas Pophale) SiO2 
 PCOD9094723
Probable space group: P -1
;
_chemical_formula_sum "Si O2"
_cell_formula_units_Z 12
_cell_length_a 20.787646
_cell_length_b 6.723265
_cell_length_c 9.557136
_cell_angle_alpha 111.806361
_cell_angle_beta 29.884413
_cell_angle_gamma 128.580942
_cell_volume 468.586707
_symmetry_space_group_name_H-M "P -1"
_symmetry_group_IT_number 2
_symmetry_cell_setting 'triclinic'
loop_
_space_group_symop_operation_xyz
x,y,z
-x,-y,-z
loop_
_atom_site_type_symbol
_atom_site_label
_atom_site_fract_x
_atom_site_fract_y
_atom_site_fract_z
Si Si1 0.169131 0.821512 0.921372
Si Si2 0.786250 0.877377 0.332709
Si Si3 0.785626 0.671242 0.888073
Si Si4 0.521779 0.025984 0.301706
Si Si5 0.015903 0.277797 0.226405
Si Si6 0.581844 0.611231 0.026643
O O1 0.105237 0.846977 0.901353
O O2 0.228046 0.103173 0.963983
O O3 0.329819 0.858431 0.571902
O O4 0.054361 0.560105 0.175339
O O5 0.583459 0.648127 0.638533
O O6 0.850119 0.718109 0.116000
O O7 0.840145 0.002294 0.420130
O O8 0.642167 0.350595 0.121585
O O9 0.743123 0.658169 0.799629
O O10 0.946267 0.739977 0.687586
O O11 0.500000 0.000000 0.500000
O O12 0.602538 0.887852 0.074823
O O13 0.500000 0.500000 0.000000
#
# Coordination Sequence:
#
# PCOD9094723 Si02
#       6
#     2   2   2   2   2   2
#     4  11  18  33  62  90 113 144 187 242 290 335
#     4  10  21  36  54  88 122 148 186 235 290 340
#     4  11  21  35  58  86 114 149 194 236 283 336
#     4  12  19  35  62  88 114 144 193 242 285 334
#     4  10  20  34  60  88 116 147 187 241 290 337
#     4  12  25  39  57  85 119 155 194 235 281 339
#
# _framework density 25.608920000000001
#
# number of rings (size 3 to 8) (size 9 to 14) (size 15 to 20)
#    0.000    1.000    6.667    2.000    0.000    0.667 
#    0.000    0.833    0.000    4.000    0.000    0.000 
#    0.000    0.000    0.000    0.000    0.000    0.000 
#
# Total GULP energy -66952.065786 kJ/mol
# GULP energy per Si atom -5579.338816 kJ/mol
# Density = 2.555063 g / cm^3
# Si number density = 25.608920 Si / 1000 Ang^3
#
#
#
# Elastic Constant Matrix: (Units=GPa)
#
#
# Indices 1 2 3 4 5 6 
#
# 1 182.2250 54.2080 18.1784 -6.7975 25.7213 0.8879
# 2 54.2080 132.0550 28.9823 -26.0166 19.1048 -12.9661
# 3 18.1784 28.9823 59.7482 -24.6096 4.0467 -0.1506
# 4 -6.7975 -26.0166 -24.6096 37.3503 13.7399 7.8897
# 5 25.7213 19.1048 4.0467 13.7399 32.1207 -5.4059
# 6 0.8879 -12.9661 -0.1506 7.8897 -5.4059 36.2484
#
#
#
# Elastic Compliance Matrix: (Units=1/GPa)
#
#
# Indices 1 2 3 4 5 6 
#
# 1 0.006982 -0.001584 0.000509 0.003455 -0.006607 -0.002473
# 2 -0.001584 0.012360 0.000722 0.013192 -0.011846 -0.000175
# 3 0.000509 0.000722 0.028976 0.028048 -0.017900 -0.008408
# 4 0.003455 0.013192 0.028048 0.077949 -0.050822 -0.019795
# 5 -0.006607 -0.011846 -0.017900 -0.050822 0.070394 0.017410
# 6 -0.002473 -0.000175 -0.008408 -0.019795 0.017410 0.034455
#
#
# Mechanical properties :
#
#
# Convention : Reuss Voigt Hill
#
# Bulk Modulus (GPa) = 21.00362 64.08508 42.54435
# Shear Modulus (GPa) = 20.18628 39.32117 29.75372
#
# Velocity S-wave (km/s) = 2.81063 3.92273 3.41229
# Velocity P-wave (km/s) = 4.33040 6.75248 5.67222
#
# Compressibility (1/GPa) = 0.04761085
#
# Stress axis : x y z
#
# Youngs Moduli (GPa) = 143.23255 80.90671 34.51131
#
# Poissons Ratio (x) = 0.12813 -0.01755
# Poissons Ratio (y) = 0.22684 -0.02491
# Poissons Ratio (z) = -0.07284 -0.05840
#
# Static dielectric constant tensor:
#      x y z
#    x 2.103860 0.144050 0.168650 
#    y 0.144050 1.799670 -0.171270 
#    z 0.168650 -0.171270 1.872900 
# 
# From -- ./inp_files/25787.got.cif
#   From: 2010.05.17/outbox.cif.g08.bks.cpg/sg2_13_cif.got.tgz:25787.got - 2010.06.03 11:33:40.
