data_PCOD9094710
_publ_section_title
;
Structure prediction by ZEFSAII (Michael W. Deem and Ramdas Pophale) SiO2 
 PCOD9094710
Probable space group: P -1
;
_chemical_formula_sum "Si O2"
_cell_formula_units_Z 16
_cell_length_a 7.708984
_cell_length_b 11.870108
_cell_length_c 17.260254
_cell_angle_alpha 56.981029
_cell_angle_beta 49.887845
_cell_angle_gamma 39.172633
_cell_volume 759.611346
_symmetry_space_group_name_H-M "P -1"
_symmetry_group_IT_number 2
_symmetry_cell_setting 'triclinic'
loop_
_space_group_symop_operation_xyz
x,y,z
-x,-y,-z
loop_
_atom_site_type_symbol
_atom_site_label
_atom_site_fract_x
_atom_site_fract_y
_atom_site_fract_z
Si Si1 0.695187 0.734376 0.454450
Si Si2 0.235791 0.985306 0.381416
Si Si3 0.731999 0.360194 0.388565
Si Si4 0.571378 0.701121 0.258436
Si Si5 0.881337 0.634515 0.603589
Si Si6 0.721374 0.538632 0.821224
Si Si7 0.357034 0.433002 0.990711
Si Si8 0.331849 0.208249 0.962915
O O1 0.517776 0.906777 0.385866
O O2 0.486803 0.681185 0.532807
O O3 0.749800 0.755028 0.519364
O O4 0.990423 0.557529 0.394976
O O5 0.350176 0.847262 0.331551
O O6 0.000000 0.000000 0.500000
O O7 0.048511 0.183669 0.328333
O O8 0.572597 0.540397 0.320520
O O9 0.855194 0.377590 0.427617
O O10 0.523344 0.777951 0.159082
O O11 0.914849 0.603077 0.221947
O O12 0.661193 0.671559 0.721817
O O13 0.595190 0.439937 0.880103
O O14 0.589655 0.618703 0.914682
O O15 0.363794 0.290964 0.996934
O O16 0.033071 0.638600 0.002936
O O17 0.500000 0.000000 0.000000
#
# Coordination Sequence:
#
# PCOD9094710 Si02
#       8
#     2   2   2   2   2   2   2   2
#     4  10  20  36  56  89 118 158 208 244 288 357
#     4  10  21  36  58  88 119 157 209 245 286 359
#     4  10  21  37  63  80 121 167 193 251 300 343
#     4  10  21  39  61  88 117 159 197 240 306 361
#     4  10  20  34  60  85 119 163 196 243 301 354
#     4   9  18  38  61  84 118 159 198 245 304 361
#     4   9  20  39  63  87 117 154 197 251 306 357
#     4  10  22  40  63  92 120 149 197 251 303 369
#
# _framework density 21.063404999999999
#
# number of rings (size 3 to 8) (size 9 to 14) (size 15 to 20)
#    0.000    2.250    2.500    0.375    3.500    4.500 
#    2.250    8.125    0.000    0.000    0.000    0.000 
#    0.000    0.000    0.000    0.000    0.000    0.000 
#
# Total GULP energy -89156.261673 kJ/mol
# GULP energy per Si atom -5572.266355 kJ/mol
# Density = 2.101546 g / cm^3
# Si number density = 21.063405 Si / 1000 Ang^3
#
#
#
# Elastic Constant Matrix: (Units=GPa)
#
#
# Indices 1 2 3 4 5 6 
#
# 1 57.4221 3.7509 14.9360 -6.4338 6.5215 12.0770
# 2 3.7509 118.4257 24.2272 -4.3123 14.9086 5.3388
# 3 14.9360 24.2272 81.6380 -3.0898 11.6998 7.4574
# 4 -6.4338 -4.3123 -3.0898 22.4143 -9.1204 -1.9021
# 5 6.5215 14.9086 11.6998 -9.1204 32.4423 -5.8183
# 6 12.0770 5.3388 7.4574 -1.9021 -5.8183 13.6693
#
#
#
# Elastic Compliance Matrix: (Units=1/GPa)
#
#
# Indices 1 2 3 4 5 6 
#
# 1 0.024127 0.001863 -0.001265 0.001120 -0.009459 -0.025225
# 2 0.001863 0.009757 -0.001815 -0.000734 -0.005662 -0.006979
# 3 -0.001265 -0.001815 0.014711 -0.002099 -0.006464 -0.009242
# 4 0.001120 -0.000734 -0.002099 0.053481 0.018749 0.015865
# 5 -0.009459 -0.005662 -0.006464 0.018749 0.049721 0.037867
# 6 -0.025225 -0.006979 -0.009242 0.015865 0.037867 0.121537
#
#
# Mechanical properties :
#
#
# Convention : Reuss Voigt Hill
#
# Bulk Modulus (GPa) = 21.66328 38.14600 29.90464
# Shear Modulus (GPa) = 17.17304 28.00996 22.59150
#
# Velocity S-wave (km/s) = 2.85845 3.65059 3.27853
# Velocity P-wave (km/s) = 4.60450 5.99320 5.34415
#
# Compressibility (1/GPa) = 0.04616107
#
# Stress axis : x y z
#
# Youngs Moduli (GPa) = 41.44687 102.48937 67.97817
#
# Poissons Ratio (x) = -0.19098 0.08599
# Poissons Ratio (y) = -0.07723 0.12341
# Poissons Ratio (z) = 0.05243 0.18606
#
# Static dielectric constant tensor:
#      x y z
#    x 1.808760 -0.029420 0.005400 
#    y -0.029420 1.818380 -0.011870 
#    z 0.005400 -0.011870 1.823520 
# 
# From -- ./inp_files/270604.got.cif
#   From: 2010.05.17/outbox.cif.g08.bks.cpg/sg2_136_cif.got.tgz:270604.got - 2010.06.03 11:33:40.
