data_PCOD9094090
_publ_section_title
;
Structure prediction by ZEFSAII (Michael W. Deem and Ramdas Pophale) SiO2 
 PCOD9094090
Probable space group: P -1
;
_chemical_formula_sum "Si O2"
_cell_formula_units_Z 16
_cell_length_a 13.506526
_cell_length_b 11.465097
_cell_length_c 17.851007
_cell_angle_alpha 51.830471
_cell_angle_beta 32.153706
_cell_angle_gamma 32.292482
_cell_volume 738.095193
_symmetry_space_group_name_H-M "P -1"
_symmetry_group_IT_number 2
_symmetry_cell_setting 'triclinic'
loop_
_space_group_symop_operation_xyz
x,y,z
-x,-y,-z
loop_
_atom_site_type_symbol
_atom_site_label
_atom_site_fract_x
_atom_site_fract_y
_atom_site_fract_z
Si Si1 0.277266 0.165458 0.644791
Si Si2 0.827614 0.309487 0.101573
Si Si3 0.675364 0.271116 0.524785
Si Si4 0.863285 0.155555 0.873536
Si Si5 0.620384 0.851240 0.241466
Si Si6 0.903126 0.638992 0.617536
Si Si7 0.797481 0.250993 0.623265
Si Si8 0.456677 0.402320 0.176033
O O1 0.402061 0.115827 0.666918
O O2 0.071427 0.148052 0.783154
O O3 0.091487 0.422869 0.638002
O O4 0.500000 0.000000 0.500000
O O5 0.536190 0.568942 0.212529
O O6 0.711713 0.279532 0.119045
O O7 0.966462 0.100623 0.150834
O O8 0.074016 0.271663 0.932502
O O9 0.500000 0.500000 0.500000
O O10 0.453207 0.271752 0.682113
O O11 0.790726 0.264143 0.531998
O O12 0.958512 0.019940 0.404675
O O13 0.728444 0.332722 0.821466
O O14 0.606722 0.279350 0.047919
O O15 0.358424 0.111811 0.273981
O O16 0.744174 0.617547 0.673895
O O17 0.100698 0.649205 0.453590
#
# Coordination Sequence:
#
# PCOD9094090 Si02
#       8
#     2   2   2   2   2   2   2   2
#     4  11  22  35  56  88 123 160 203 235 277 351
#     4  12  22  37  60  91 126 154 197 244 293 358
#     4  10  23  47  66  82 113 151 201 257 308 354
#     4  10  20  34  53  85 127 164 191 233 282 343
#     4  11  23  38  64  86 114 162 192 240 312 347
#     4  10  21  38  58  84 119 159 199 237 285 348
#     4  10  24  41  63  91 113 151 205 254 298 351
#     4  10  20  34  55  86 126 166 196 227 283 352
#
# _framework density 21.677420000000001
#
# number of rings (size 3 to 8) (size 9 to 14) (size 15 to 20)
#    0.000    1.500    2.500    2.625    0.000    6.500 
#    0.000    0.625    0.000    0.000    0.000    0.000 
#    0.000    0.000    0.000    0.000    0.000    0.000 
#
# Total GULP energy -89396.886813 kJ/mol
# GULP energy per Si atom -5587.305426 kJ/mol
# Density = 2.162808 g / cm^3
# Si number density = 21.677420 Si / 1000 Ang^3
#
#
#
# Elastic Constant Matrix: (Units=GPa)
#
#
# Indices 1 2 3 4 5 6 
#
# 1 50.5746 29.3866 29.8907 -3.3823 -12.6988 5.9209
# 2 29.3866 184.3836 62.7530 6.9494 -11.0991 -6.1223
# 3 29.8907 62.7530 134.7958 8.2401 -18.9981 7.5471
# 4 -3.3823 6.9494 8.2401 27.1782 4.4097 -11.0397
# 5 -12.6988 -11.0991 -18.9981 4.4097 26.6039 1.8500
# 6 5.9209 -6.1223 7.5471 -11.0397 1.8500 21.4613
#
#
#
# Elastic Compliance Matrix: (Units=1/GPa)
#
#
# Indices 1 2 3 4 5 6 
#
# 1 0.026556 -0.003008 -0.002588 -0.000129 0.010166 -0.008217
# 2 -0.003008 0.006984 -0.003025 0.000698 -0.001100 0.004340
# 3 -0.002588 -0.003025 0.011448 -0.007855 0.007597 -0.008871
# 4 -0.000129 0.000698 -0.007855 0.054999 -0.016772 0.032735
# 5 0.010166 -0.001100 0.007597 -0.016772 0.051498 -0.018857
# 6 -0.008217 0.004340 -0.008871 0.032735 -0.018857 0.071684
#
#
# Mechanical properties :
#
#
# Convention : Reuss Voigt Hill
#
# Bulk Modulus (GPa) = 36.04005 68.20162 52.12083
# Shear Modulus (GPa) = 20.02722 31.56358 25.79540
#
# Velocity S-wave (km/s) = 3.04283 3.81997 3.45333
# Velocity P-wave (km/s) = 5.38579 7.14049 6.32429
#
# Compressibility (1/GPa) = 0.02774691
#
# Stress axis : x y z
#
# Youngs Moduli (GPa) = 37.65663 143.18520 87.34901
#
# Poissons Ratio (x) = 0.43066 0.22604
# Poissons Ratio (y) = 0.11326 0.26423
# Poissons Ratio (z) = 0.09745 0.43314
#
# Static dielectric constant tensor:
#      x y z
#    x 1.791630 -0.008750 0.017440 
#    y -0.008750 1.806500 0.025630 
#    z 0.017440 0.025630 1.837160 
# 
# From -- ./inp_files/472000.got.cif
#   From: 2010.05.17/outbox.cif.g08.bks.cpg/sg2_236_cif.got.tgz:472000.got - 2010.06.03 11:33:40.
