data_PCOD9094810
_publ_section_title
;
Structure prediction by ZEFSAII (Michael W. Deem and Ramdas Pophale) SiO2 
 PCOD9094810
Probable space group: P -1
;
_chemical_formula_sum "Si O2"
_cell_formula_units_Z 16
_cell_length_a 11.652141
_cell_length_b 23.068634
_cell_length_c 15.931092
_cell_angle_alpha 160.574411
_cell_angle_beta 27.605281
_cell_angle_gamma 147.822541
_cell_volume 658.355847
_symmetry_space_group_name_H-M "P -1"
_symmetry_group_IT_number 2
_symmetry_cell_setting 'triclinic'
loop_
_space_group_symop_operation_xyz
x,y,z
-x,-y,-z
loop_
_atom_site_type_symbol
_atom_site_label
_atom_site_fract_x
_atom_site_fract_y
_atom_site_fract_z
Si Si1 0.149311 0.727087 0.231996
Si Si2 0.809315 0.332001 0.403986
Si Si3 0.291479 0.867926 0.056012
Si Si4 0.885040 0.854749 0.183492
Si Si5 0.477102 0.207539 0.797736
Si Si6 0.939601 0.802108 0.798033
Si Si7 0.470806 0.332208 0.232279
Si Si8 0.630714 0.735620 0.508187
O O1 0.255932 0.707593 0.230262
O O2 0.882915 0.666552 0.284926
O O3 0.153561 0.939470 0.508168
O O4 0.354598 0.648412 0.934289
O O5 0.544601 0.370776 0.589780
O O6 0.000000 0.500000 0.500000
O O7 0.825588 0.269265 0.403549
O O8 0.907076 0.182379 0.073575
O O9 0.406031 0.821532 0.006745
O O10 0.470241 0.777727 0.751411
O O11 0.012388 0.804017 0.119205
O O12 0.307937 0.075139 0.315685
O O13 0.640953 0.754514 0.164612
O O14 0.500000 0.000000 0.500000
O O15 0.268377 0.221172 0.024655
O O16 0.807453 0.706098 0.673305
O O17 0.000000 0.000000 0.000000
O O18 0.500000 0.500000 0.500000
#
# Coordination Sequence:
#
# PCOD9094810 Si02
#       8
#     2   2   2   2   2   2   2   2
#     4   9  18  35  58  85 118 151 194 246 288 355
#     4  10  20  34  61  89 122 153 196 252 303 351
#     4   9  18  34  57  86 113 151 193 238 287 359
#     4   8  16  31  57  85 108 145 198 239 279 342
#     4   8  15  31  56  86 113 140 194 245 283 332
#     4  10  21  37  60  85 114 158 205 240 290 365
#     4  11  24  37  58  84 126 158 193 241 311 353
#     4   9  18  34  61  87 110 145 203 245 284 343
#
# _framework density 24.302968
#
# number of rings (size 3 to 8) (size 9 to 14) (size 15 to 20)
#    0.000    2.750    0.000    1.500    3.500    5.000 
#    0.000    1.875   11.000    0.750    0.000    0.000 
#    0.000    0.000    0.000    0.000    0.000    0.000 
#
# Total GULP energy -89273.274776 kJ/mol
# GULP energy per Si atom -5579.579673 kJ/mol
# Density = 2.424765 g / cm^3
# Si number density = 24.302968 Si / 1000 Ang^3
#
#
#
# Elastic Constant Matrix: (Units=GPa)
#
#
# Indices 1 2 3 4 5 6 
#
# 1 175.1726 71.3359 8.6855 9.2613 -12.5076 53.8123
# 2 71.3359 76.9125 15.1575 10.8223 -1.1874 35.6407
# 3 8.6855 15.1575 78.2974 2.3744 0.5216 7.2530
# 4 9.2613 10.8223 2.3744 23.3933 4.7634 -5.9241
# 5 -12.5076 -1.1874 0.5216 4.7634 35.5357 2.8484
# 6 53.8123 35.6407 7.2530 -5.9241 2.8484 55.7409
#
#
#
# Elastic Compliance Matrix: (Units=1/GPa)
#
#
# Indices 1 2 3 4 5 6 
#
# 1 0.011138 -0.006260 0.000783 -0.004513 0.004912 -0.007582
# 2 -0.006260 0.026946 -0.002999 -0.013089 0.001478 -0.012262
# 3 0.000783 -0.002999 0.013337 -0.000453 0.000091 -0.000626
# 4 -0.004513 -0.013089 -0.000453 0.057888 -0.011343 0.019517
# 5 0.004912 0.001478 0.000091 -0.011343 0.032123 -0.008547
# 6 -0.007582 -0.012262 -0.000626 0.019517 -0.008547 0.035693
#
#
# Mechanical properties :
#
#
# Convention : Reuss Voigt Hill
#
# Bulk Modulus (GPa) = 29.01248 57.86004 43.43626
# Shear Modulus (GPa) = 24.32314 38.61422 31.46868
#
# Velocity S-wave (km/s) = 3.16702 3.99039 3.60231
# Velocity P-wave (km/s) = 5.03360 6.71494 5.93412
#
# Compressibility (1/GPa) = 0.03446793
#
# Stress axis : x y z
#
# Youngs Moduli (GPa) = 89.78521 37.11161 74.98105
#
# Poissons Ratio (x) = 0.23232 -0.05870
# Poissons Ratio (y) = 0.56206 0.22487
# Poissons Ratio (z) = -0.07029 0.11130
#
# Static dielectric constant tensor:
#      x y z
#    x 2.036570 0.064490 -0.028920 
#    y 0.064490 1.986230 -0.020070 
#    z -0.028920 -0.020070 1.954620 
# 
# From -- ./inp_files/571203.got.cif
#   From: 2010.05.17/outbox.cif.g08.bks.cpg/sg2_286_cif.got.tgz:571203.got - 2010.06.03 11:33:40.
