data_PCOD9094981
_publ_section_title
;
Structure prediction by ZEFSAII (Michael W. Deem and Ramdas Pophale) SiO2 
 PCOD9094981
Probable space group: P -1
;
_chemical_formula_sum "Si O2"
_cell_formula_units_Z 12
_cell_length_a 10.361685
_cell_length_b 8.652035
_cell_length_c 8.438057
_cell_angle_alpha 92.878760
_cell_angle_beta 65.341017
_cell_angle_gamma 51.304571
_cell_volume 482.220174
_symmetry_space_group_name_H-M "P -1"
_symmetry_group_IT_number 2
_symmetry_cell_setting 'triclinic'
loop_
_space_group_symop_operation_xyz
x,y,z
-x,-y,-z
loop_
_atom_site_type_symbol
_atom_site_label
_atom_site_fract_x
_atom_site_fract_y
_atom_site_fract_z
Si Si1 0.230985 0.262734 0.906837
Si Si2 0.092855 0.197791 0.527795
Si Si3 0.727403 0.698161 0.762201
Si Si4 0.710943 0.408693 0.569101
Si Si5 0.969894 0.867278 0.105399
Si Si6 0.373777 0.438998 0.738840
O O1 0.365631 0.260482 0.719729
O O2 0.196738 0.108513 0.894985
O O3 0.325102 0.220595 0.028048
O O4 0.000000 0.500000 0.000000
O O5 0.957067 0.453350 0.661473
O O6 0.946461 0.221586 0.482710
O O7 0.107071 0.082867 0.671524
O O8 0.264478 0.154905 0.342021
O O9 0.635170 0.621569 0.714023
O O10 0.578764 0.363104 0.681898
O O11 0.686532 0.450526 0.396637
O O12 0.196731 0.619784 0.963300
O O13 0.000000 0.000000 0.000000
#
# Coordination Sequence:
#
# PCOD9094981 Si02
#       6
#     2   2   2   2   2   2
#     4  10  16  30  50  71  93 129 172 204 235 282
#     4   9  16  30  50  74 100 126 161 208 245 281
#     4   9  16  28  53  80  94 121 164 220 242 275
#     4   9  17  29  52  81  98 120 167 222 241 273
#     4  11  22  33  48  73 107 135 160 198 250 307
#     4  10  18  31  53  77  99 128 167 208 246 286
#
# _framework density 24.884896999999999
#
# number of rings (size 3 to 8) (size 9 to 14) (size 15 to 20)
#    1.000    1.333    3.333    3.000    0.000    2.667 
#    0.000    3.333    0.000   13.000    0.000    0.000 
#    0.000    0.000    0.000    0.000    0.000    0.000 
#
# Total GULP energy -66896.737169 kJ/mol
# GULP energy per Si atom -5574.728097 kJ/mol
# Density = 2.482826 g / cm^3
# Si number density = 24.884897 Si / 1000 Ang^3
#
#
#
# Elastic Constant Matrix: (Units=GPa)
#
#
# Indices 1 2 3 4 5 6 
#
# 1 90.0563 47.7649 34.0253 0.0278 -17.3034 45.3764
# 2 47.7649 74.6841 35.5976 -31.4193 -19.0971 4.1265
# 3 34.0253 35.5976 120.3315 -27.1480 -8.7309 21.8652
# 4 0.0278 -31.4193 -27.1480 45.0507 10.9130 -20.8076
# 5 -17.3034 -19.0971 -8.7309 10.9130 42.4095 -18.1403
# 6 45.3764 4.1265 21.8652 -20.8076 -18.1403 45.3147
#
#
#
# Elastic Compliance Matrix: (Units=1/GPa)
#
#
# Indices 1 2 3 4 5 6 
#
# 1 -0.018657 0.026851 -0.001190 0.031893 0.011441 0.036036
# 2 0.026851 -0.013099 -0.003304 -0.027898 -0.005107 -0.038956
# 3 -0.001190 -0.003304 0.010763 0.003274 -0.001858 -0.002941
# 4 0.031893 -0.027898 0.003274 -0.011195 -0.013808 -0.041644
# 5 0.011441 -0.005107 -0.001858 -0.013808 0.026652 -0.005766
# 6 0.036036 -0.038956 -0.002941 -0.041644 -0.005766 -0.030482
#
#
# Mechanical properties :
#
#
# Convention : Reuss Voigt Hill
#
# Bulk Modulus (GPa) = 42.15564 57.76083 49.95824
# Shear Modulus (GPa) = -68.65777 37.73393 -15.46192
#
# Velocity S-wave (km/s) = -5.25833 3.89824 -2.49537
# Velocity P-wave (km/s) = 4.45979 6.59722 3.43756
#
# Compressibility (1/GPa) = 0.02372162
#
# Stress axis : x y z
#
# Youngs Moduli (GPa) = -53.60012 -76.34376 92.91495
#
# Poissons Ratio (x) = 2.04993 0.11061
# Poissons Ratio (y) = 1.43924 0.30696
# Poissons Ratio (z) = -0.06381 -0.25222
#
# Static dielectric constant tensor:
#      x y z
#    x 1.939940 -0.002100 -0.015140 
#    y -0.002100 2.207620 0.068220 
#    z -0.015140 0.068220 1.959690 
# 
# From -- ./inp_files/218216.got.cif
#   From: 2010.05.17/outbox.cif.g08.bks.cpg/sg2_110_cif.got.tgz:218216.got - 2010.06.03 11:33:40.
