data_PCOD9094751
_publ_section_title
;
Structure prediction by ZEFSAII (Michael W. Deem and Ramdas Pophale) SiO2 
 PCOD9094751
Probable space group: P -1
;
_chemical_formula_sum "Si O2"
_cell_formula_units_Z 16
_cell_length_a 9.363552
_cell_length_b 22.939893
_cell_length_c 12.084414
_cell_angle_alpha 141.086870
_cell_angle_beta 67.527653
_cell_angle_gamma 142.887516
_cell_volume 765.099647
_symmetry_space_group_name_H-M "P -1"
_symmetry_group_IT_number 2
_symmetry_cell_setting 'triclinic'
loop_
_space_group_symop_operation_xyz
x,y,z
-x,-y,-z
loop_
_atom_site_type_symbol
_atom_site_label
_atom_site_fract_x
_atom_site_fract_y
_atom_site_fract_z
Si Si1 0.274601 0.458530 0.263966
Si Si2 0.361031 0.785370 0.432070
Si Si3 0.279260 0.614598 0.660775
Si Si4 0.975665 0.442148 0.148560
Si Si5 0.282394 0.946218 0.068474
Si Si6 0.933607 0.738837 0.461210
Si Si7 0.599313 0.945496 0.374136
Si Si8 0.152015 0.979849 0.945601
O O1 0.393917 0.584370 0.517088
O O2 0.570112 0.552370 0.280219
O O3 0.149516 0.458994 0.201988
O O4 0.989031 0.253612 0.092694
O O5 0.599487 0.903951 0.435617
O O6 0.206517 0.607101 0.238297
O O7 0.097651 0.723765 0.386639
O O8 0.523510 0.907520 0.674947
O O9 0.149343 0.537732 0.707995
O O10 0.000000 0.500000 0.500000
O O11 0.503685 0.818091 0.892770
O O12 0.677702 0.244821 0.890680
O O13 0.140256 0.948517 0.031300
O O14 0.500000 0.000000 0.000000
O O15 0.026343 0.833154 0.690152
O O16 0.093758 0.888597 0.543286
O O17 0.500000 0.000000 0.500000
O O18 0.000000 0.000000 0.000000
#
# Coordination Sequence:
#
# PCOD9094751 Si02
#       8
#     2   2   2   2   2   2   2   2
#     4  11  23  39  64  97 133 167 205 266 319 371
#     4  11  24  42  67  93 124 171 219 260 309 383
#     4  10  20  34  60  92 123 165 205 249 311 377
#     4  11  21  41  66  93 126 166 217 255 315 382
#     4  12  23  42  65  94 129 168 212 255 318 385
#     4  11  23  42  61  95 131 166 213 264 319 367
#     4  10  22  43  68  90 124 172 217 260 310 379
#     4  12  23  39  61  91 133 166 202 263 324 372
#
# _framework density 20.912309
#
# number of rings (size 3 to 8) (size 9 to 14) (size 15 to 20)
#    0.000    1.000    3.750    5.625    0.000    1.500 
#    0.000    6.250    0.000    0.000    0.000    0.000 
#    0.000    0.000    0.000    0.000    0.000    0.000 
#
# Total GULP energy -89325.063860 kJ/mol
# GULP energy per Si atom -5582.816491 kJ/mol
# Density = 2.086471 g / cm^3
# Si number density = 20.912309 Si / 1000 Ang^3
#
#
#
# Elastic Constant Matrix: (Units=GPa)
#
#
# Indices 1 2 3 4 5 6 
#
# 1 91.2982 43.6475 11.8197 11.3203 3.9590 -12.7756
# 2 43.6475 124.0744 31.6460 20.3810 14.9932 -24.0763
# 3 11.8197 31.6460 73.8313 13.6153 9.6891 0.8740
# 4 11.3203 20.3810 13.6153 46.2531 -2.6951 -1.4694
# 5 3.9590 14.9932 9.6891 -2.6951 18.2403 8.0237
# 6 -12.7756 -24.0763 0.8740 -1.4694 8.0237 34.3309
#
#
#
# Elastic Compliance Matrix: (Units=1/GPa)
#
#
# Indices 1 2 3 4 5 6 
#
# 1 0.013375 -0.003821 -0.000116 -0.001536 -0.001015 0.002472
# 2 -0.003821 0.015866 -0.002997 -0.005759 -0.017461 0.013616
# 3 -0.000116 -0.002997 0.016397 -0.003881 -0.006236 -0.001271
# 4 -0.001536 -0.005759 -0.003881 0.026277 0.013934 -0.006644
# 5 -0.001015 -0.017461 -0.006236 0.013934 0.089155 -0.032705
# 6 0.002472 0.013616 -0.001271 -0.006644 -0.032705 0.046989
#
#
# Mechanical properties :
#
#
# Convention : Reuss Voigt Hill
#
# Bulk Modulus (GPa) = 31.47566 51.49226 41.48396
# Shear Modulus (GPa) = 21.50386 33.23758 27.37072
#
# Velocity S-wave (km/s) = 3.21017 3.99103 3.62170
# Velocity P-wave (km/s) = 5.36882 6.77600 6.11303
#
# Compressibility (1/GPa) = 0.03177058
#
# Stress axis : x y z
#
# Youngs Moduli (GPa) = 74.76491 63.02706 60.98824
#
# Poissons Ratio (x) = 0.24081 0.00709
# Poissons Ratio (y) = 0.28566 0.18276
# Poissons Ratio (z) = 0.00870 0.18887
#
# Static dielectric constant tensor:
#      x y z
#    x 1.777680 0.023830 -0.004480 
#    y 0.023830 1.843720 -0.046250 
#    z -0.004480 -0.046250 1.814430 
# 
# From -- ./inp_files/335585.got.cif
#   From: 2010.05.17/outbox.cif.g08.bks.cpg/sg2_168_cif.got.tgz:335585.got - 2010.06.03 11:33:40.
