data_PCOD9094418
_publ_section_title
;
Structure prediction by ZEFSAII (Michael W. Deem and Ramdas Pophale) SiO2 
 PCOD9094418
Probable space group: P -1
;
_chemical_formula_sum "Si O2"
_cell_formula_units_Z 14
_cell_length_a 24.605692
_cell_length_b 15.393593
_cell_length_c 12.553596
_cell_angle_alpha 153.173032
_cell_angle_beta 149.893522
_cell_angle_gamma 18.094882
_cell_volume 661.658124
_symmetry_space_group_name_H-M "P -1"
_symmetry_group_IT_number 2
_symmetry_cell_setting 'triclinic'
loop_
_space_group_symop_operation_xyz
x,y,z
-x,-y,-z
loop_
_atom_site_type_symbol
_atom_site_label
_atom_site_fract_x
_atom_site_fract_y
_atom_site_fract_z
Si Si1 0.150147 0.705487 0.852286
Si Si2 0.323579 0.007426 0.744870
Si Si3 0.972336 0.652576 0.962981
Si Si4 0.664523 0.714633 0.098026
Si Si5 0.847937 0.117537 0.641950
Si Si6 0.305873 0.686308 0.894826
Si Si7 0.903922 0.345570 0.612606
O O1 0.270800 0.405382 0.803586
O O2 0.266215 0.681329 0.945765
O O3 0.018903 0.798291 0.645794
O O4 0.000000 0.000000 0.000000
O O5 0.342181 0.062491 0.717179
O O6 0.138714 0.340374 0.840125
O O7 0.310747 0.797707 0.503367
O O8 0.475521 0.886791 0.942294
O O9 0.881861 0.594919 0.803581
O O10 0.054051 0.679407 0.220293
O O11 0.835270 0.955590 0.988180
O O12 0.796436 0.401443 0.904259
O O13 0.914578 0.996635 0.503834
O O14 0.251497 0.577564 0.608832
O O15 0.500000 0.500000 0.000000
#
# Coordination Sequence:
#
# PCOD9094418 Si02
#       7
#     2   2   2   2   2   2   2
#     4   9  19  37  57  78 112 151 183 228 283 337
#     4  10  20  34  57  83 108 147 187 237 283 328
#     4  10  20  38  59  82 115 151 195 233 284 348
#     4  10  20  35  54  82 114 141 189 236 277 335
#     4   9  18  35  57  80 111 147 186 230 283 337
#     4  11  23  38  59  87 117 151 192 240 288 340
#     4   9  20  37  60  83 111 154 187 233 290 337
#
# _framework density 21.158963
#
# number of rings (size 3 to 8) (size 9 to 14) (size 15 to 20)
#    0.000    2.286    0.000    3.429    0.000    4.571 
#    0.000   12.857    0.000    0.000    0.000    0.000 
#    0.000    0.000    0.000    0.000    0.000    0.000 
#
# Total GULP energy -77999.027903 kJ/mol
# GULP energy per Si atom -5571.359136 kJ/mol
# Density = 2.111080 g / cm^3
# Si number density = 21.158963 Si / 1000 Ang^3
#
#
#
# Elastic Constant Matrix: (Units=GPa)
#
#
# Indices 1 2 3 4 5 6 
#
# 1 90.8128 20.2099 30.2243 -19.5338 18.1146 -11.2401
# 2 20.2099 83.7702 10.4666 -27.1487 7.4047 -12.1343
# 3 30.2243 10.4666 64.8038 -3.5985 17.1408 -11.3182
# 4 -19.5338 -27.1487 -3.5985 22.9311 -11.2242 3.3996
# 5 18.1146 7.4047 17.1408 -11.2242 26.6785 -7.8028
# 6 -11.2401 -12.1343 -11.3182 3.3996 -7.8028 19.3706
#
#
#
# Elastic Compliance Matrix: (Units=1/GPa)
#
#
# Indices 1 2 3 4 5 6 
#
# 1 0.016447 0.002440 -0.006417 0.015224 0.000049 0.004671
# 2 0.002440 0.023385 -0.004058 0.033185 0.012155 0.012766
# 3 -0.006417 -0.004058 0.022634 -0.014069 -0.013853 0.003849
# 4 0.015224 0.033185 -0.014069 0.111350 0.041808 0.018700
# 5 0.000049 0.012155 -0.013853 0.041808 0.066073 0.018826
# 6 0.004671 0.012766 0.003849 0.018700 0.018826 0.068883
#
#
# Mechanical properties :
#
#
# Convention : Reuss Voigt Hill
#
# Bulk Modulus (GPa) = 21.55274 40.13203 30.84239
# Shear Modulus (GPa) = 14.69260 25.69511 20.19386
#
# Velocity S-wave (km/s) = 2.63799 3.48858 3.09267
# Velocity P-wave (km/s) = 4.41439 5.93591 5.23077
#
# Compressibility (1/GPa) = 0.04639782
#
# Stress axis : x y z
#
# Youngs Moduli (GPa) = 60.80016 42.76170 44.18051
#
# Poissons Ratio (x) = -0.10433 0.28350
# Poissons Ratio (y) = -0.14834 0.17926
# Poissons Ratio (z) = 0.39015 0.17351
#
# Static dielectric constant tensor:
#      x y z
#    x 1.908660 -0.015600 -0.014140 
#    y -0.015600 1.774700 0.041920 
#    z -0.014140 0.041920 1.838820 
# 
# From -- ./inp_files/428074.got.cif
#   From: 2010.05.17/outbox.cif.g08.bks.cpg/sg2_215_cif.got.tgz:428074.got - 2010.06.03 11:33:40.
