data_PCOD9094819
_publ_section_title
;
Structure prediction by ZEFSAII (Michael W. Deem and Ramdas Pophale) SiO2 
 PCOD9094819
Probable space group: P -1
;
_chemical_formula_sum "Si O2"
_cell_formula_units_Z 14
_cell_length_a 22.966164
_cell_length_b 9.635793
_cell_length_c 18.482697
_cell_angle_alpha 37.527081
_cell_angle_beta 163.442274
_cell_angle_gamma 141.081676
_cell_volume 706.253313
_symmetry_space_group_name_H-M "P -1"
_symmetry_group_IT_number 2
_symmetry_cell_setting 'triclinic'
loop_
_space_group_symop_operation_xyz
x,y,z
-x,-y,-z
loop_
_atom_site_type_symbol
_atom_site_label
_atom_site_fract_x
_atom_site_fract_y
_atom_site_fract_z
Si Si1 0.459646 0.272933 0.998902
Si Si2 0.020591 0.614734 0.874418
Si Si3 0.174571 0.750762 0.655430
Si Si4 0.114528 0.158901 0.236239
Si Si5 0.827104 0.763694 0.123026
Si Si6 0.430640 0.934954 0.227990
Si Si7 0.148991 0.152636 0.560408
O O1 0.310900 0.296485 0.744789
O O2 0.500000 0.500000 0.000000
O O3 0.676860 0.225944 0.245335
O O4 0.381580 0.057594 0.043676
O O5 0.887201 0.726812 0.731983
O O6 0.951540 0.690239 0.682335
O O7 0.013012 0.345423 0.989907
O O8 0.257679 0.723552 0.122496
O O9 0.193926 0.500912 0.815123
O O10 0.951093 0.762536 0.348423
O O11 0.237475 0.956424 0.698952
O O12 0.336544 0.122836 0.482006
O O13 0.967131 0.924444 0.168706
O O14 0.620615 0.879786 0.848389
O O15 0.000000 0.000000 0.500000
#
# Coordination Sequence:
#
# PCOD9094819 Si02
#       7
#     2   2   2   2   2   2   2
#     4  12  23  37  64  94 126 167 205 263 325 375
#     4  10  21  39  57  94 126 169 207 260 308 374
#     4  11  21  38  58  92 130 161 207 260 312 372
#     4  10  20  35  64  91 128 165 213 251 313 377
#     4  10  20  34  61  91 122 160 208 253 310 369
#     4  11  18  36  58  94 119 160 209 252 307 375
#     4  12  23  39  61  93 132 161 211 264 313 373
#
# _framework density 19.822914999999998
#
# number of rings (size 3 to 8) (size 9 to 14) (size 15 to 20)
#    0.000    1.143    7.143    0.857    2.000    0.000 
#    0.000    0.000    0.000    4.286    0.000    0.000 
#    0.000    0.000    0.000    0.000    0.000    0.000 
#
# Total GULP energy -78101.634367 kJ/mol
# GULP energy per Si atom -5578.688169 kJ/mol
# Density = 1.977780 g / cm^3
# Si number density = 19.822915 Si / 1000 Ang^3
#
#
#
# Elastic Constant Matrix: (Units=GPa)
#
#
# Indices 1 2 3 4 5 6 
#
# 1 82.3197 38.1465 46.7607 -10.0831 11.0585 -0.1461
# 2 38.1465 104.9054 28.2263 -15.2811 -3.6958 11.9857
# 3 46.7607 28.2263 91.8000 -11.8839 21.6980 -1.4762
# 4 -10.0831 -15.2811 -11.8839 24.1843 3.3364 -7.5839
# 5 11.0585 -3.6958 21.6980 3.3364 46.5793 -1.1889
# 6 -0.1461 11.9857 -1.4762 -7.5839 -1.1889 38.7454
#
#
#
# Elastic Compliance Matrix: (Units=1/GPa)
#
#
# Indices 1 2 3 4 5 6 
#
# 1 0.019188 -0.004881 -0.007660 0.001859 -0.001467 0.001609
# 2 -0.004881 0.012755 -0.001585 0.003895 0.002549 -0.003184
# 3 -0.007660 -0.001585 0.017761 0.006162 -0.006968 0.002130
# 4 0.001859 0.003895 0.006162 0.051287 -0.006450 0.008878
# 5 -0.001467 0.002549 -0.006968 -0.006450 0.025688 -0.001534
# 6 0.001609 -0.003184 0.002130 0.008878 -0.001534 0.028572
#
#
# Mechanical properties :
#
#
# Convention : Reuss Voigt Hill
#
# Bulk Modulus (GPa) = 46.61502 56.14358 51.37930
# Shear Modulus (GPa) = 26.22542 32.96123 29.59333
#
# Velocity S-wave (km/s) = 3.64123 4.08215 3.86798
# Velocity P-wave (km/s) = 6.42222 7.11355 6.77671
#
# Compressibility (1/GPa) = 0.02145231
#
# Stress axis : x y z
#
# Youngs Moduli (GPa) = 52.11463 78.40248 56.30216
#
# Poissons Ratio (x) = 0.38270 0.43128
# Poissons Ratio (y) = 0.25438 0.08923
# Poissons Ratio (z) = 0.39921 0.12425
#
# Static dielectric constant tensor:
#      x y z
#    x 1.707800 0.011740 0.014530 
#    y 0.011740 1.715520 -0.004200 
#    z 0.014530 -0.004200 1.755070 
# 
# From -- ./inp_files/280120.got.cif
#   From: 2010.05.17/outbox.cif.g08.bks.cpg/sg2_141_cif.got.tgz:280120.got - 2010.06.03 11:33:40.
