data_PCOD9094438
_publ_section_title
;
Structure prediction by ZEFSAII (Michael W. Deem and Ramdas Pophale) SiO2 
 PCOD9094438
Probable space group: P -1
;
_chemical_formula_sum "Si O2"
_cell_formula_units_Z 15
_cell_length_a 14.557120
_cell_length_b 14.147436
_cell_length_c 7.994233
_cell_angle_alpha 132.740351
_cell_angle_beta 128.607892
_cell_angle_gamma 30.119752
_cell_volume 603.711632
_symmetry_space_group_name_H-M "P -1"
_symmetry_group_IT_number 2
_symmetry_cell_setting 'triclinic'
loop_
_space_group_symop_operation_xyz
x,y,z
-x,-y,-z
loop_
_atom_site_type_symbol
_atom_site_label
_atom_site_fract_x
_atom_site_fract_y
_atom_site_fract_z
Si Si1 0.380940 0.552726 0.083205
Si Si2 0.469349 0.110726 0.359996
Si Si3 0.017054 0.752961 0.935391
Si Si4 0.093064 0.792459 0.420784
Si Si5 0.174440 0.184900 0.752051
Si Si6 0.500000 0.500000 0.500000
Si Si7 0.066564 0.434406 0.265622
Si Si8 0.400420 0.885996 0.144723
O O1 0.390258 0.631993 0.355469
O O2 0.500000 0.500000 0.000000
O O3 0.469222 0.345777 0.011920
O O4 0.176632 0.693383 0.950593
O O5 0.261683 0.338875 0.403554
O O6 0.572118 0.089008 0.606212
O O7 0.607709 0.020845 0.257784
O O8 0.449202 0.973063 0.199391
O O9 0.989154 0.623908 0.728765
O O10 0.809962 0.978730 0.961419
O O11 0.095990 0.700548 0.149151
O O12 0.300286 0.637340 0.526817
O O13 0.949946 0.837361 0.428962
O O14 0.000000 0.000000 0.500000
O O15 0.104009 0.335055 0.702583
O O16 0.126586 0.303501 0.008442
#
# Coordination Sequence:
#
# PCOD9094438 Si02
#       8
#     2   2   2   2   2   1   2   2
#     4  11  24  41  64  91 120 161 208 253 303 364
#     4  10  21  36  58  85 116 156 195 244 305 363
#     4   9  20  39  58  79 116 157 193 245 303 354
#     4  10  21  36  57  84 115 156 198 244 304 358
#     4  10  20  34  57  85 114 151 200 251 297 362
#     4  10  24  44  62  86 122 162 204 254 306 352
#     4   9  19  36  57  85 116 152 197 245 304 360
#     4  10  22  39  57  84 121 156 196 248 306 363
#
# _framework density 24.846301
#
# number of rings (size 3 to 8) (size 9 to 14) (size 15 to 20)
#    0.000    2.133    0.000    2.000    0.000    8.000 
#    0.000    4.000    0.000    0.000    0.000    0.000 
#    0.000    0.000    0.000    0.000    0.000    0.000 
#
# Total GULP energy -83540.396656 kJ/mol
# GULP energy per Si atom -5569.359777 kJ/mol
# Density = 2.478975 g / cm^3
# Si number density = 24.846301 Si / 1000 Ang^3
#
#
#
# Elastic Constant Matrix: (Units=GPa)
#
#
# Indices 1 2 3 4 5 6 
#
# 1 83.3341 17.1855 9.6348 -14.5150 4.7123 -49.7215
# 2 17.1855 118.0717 15.6550 -20.4747 22.3869 -45.7744
# 3 9.6348 15.6550 41.6709 -18.4916 2.6637 -12.1058
# 4 -14.5150 -20.4747 -18.4916 37.7531 -4.3789 12.6995
# 5 4.7123 22.3869 2.6637 -4.3789 26.5525 -14.7654
# 6 -49.7215 -45.7744 -12.1058 12.6995 -14.7654 54.9395
#
#
#
# Elastic Compliance Matrix: (Units=1/GPa)
#
#
# Indices 1 2 3 4 5 6 
#
# 1 0.035403 0.010289 0.002918 0.007571 0.009367 0.042023
# 2 0.010289 0.016730 0.000178 0.005636 -0.003284 0.021105
# 3 0.002918 0.000178 0.031638 0.014633 0.002490 0.007047
# 4 0.007571 0.005636 0.014633 0.037641 0.002375 0.006710
# 5 0.009367 -0.003284 0.002490 0.002375 0.049499 0.019044
# 6 0.042023 0.021105 0.007047 0.006710 0.019044 0.078938
#
#
# Mechanical properties :
#
#
# Convention : Reuss Voigt Hill
#
# Bulk Modulus (GPa) = 9.04646 36.44749 22.74698
# Shear Modulus (GPa) = 19.23626 37.22245 28.22935
#
# Velocity S-wave (km/s) = 2.78548 3.87474 3.37435
# Velocity P-wave (km/s) = 3.74087 5.89230 4.93524
#
# Compressibility (1/GPa) = 0.11054048
#
# Stress axis : x y z
#
# Youngs Moduli (GPa) = 28.24623 59.77218 31.60803
#
# Poissons Ratio (x) = -0.61498 -0.09224
# Poissons Ratio (y) = -0.29062 -0.00562
# Poissons Ratio (z) = -0.08243 -0.01063
#
# Static dielectric constant tensor:
#      x y z
#    x 2.008990 -0.045320 0.059520 
#    y -0.045320 1.957870 0.001420 
#    z 0.059520 0.001420 2.301910 
# 
# From -- ./inp_files/315990.got.cif
#   From: 2010.05.17/outbox.cif.g08.bks.cpg/sg2_158_cif.got.tgz:315990.got - 2010.06.03 11:33:40.
