data_PCOD9094790
_publ_section_title
;
Structure prediction by ZEFSAII (Michael W. Deem and Ramdas Pophale) SiO2 
 PCOD9094790
Probable space group: P -1
;
_chemical_formula_sum "Si O2"
_cell_formula_units_Z 14
_cell_length_a 8.382822
_cell_length_b 11.252326
_cell_length_c 11.596184
_cell_angle_alpha 82.009564
_cell_angle_beta 130.862076
_cell_angle_gamma 124.586043
_cell_volume 631.844030
_symmetry_space_group_name_H-M "P -1"
_symmetry_group_IT_number 2
_symmetry_cell_setting 'triclinic'
loop_
_space_group_symop_operation_xyz
x,y,z
-x,-y,-z
loop_
_atom_site_type_symbol
_atom_site_label
_atom_site_fract_x
_atom_site_fract_y
_atom_site_fract_z
Si Si1 0.387481 0.637709 0.492096
Si Si2 0.983538 0.627895 0.026192
Si Si3 0.787033 0.343983 0.226076
Si Si4 0.598986 0.505246 0.258718
Si Si5 0.576560 0.145219 0.946962
Si Si6 0.461582 0.146182 0.640267
Si Si7 0.192342 0.800968 0.523365
O O1 0.473841 0.572506 0.637897
O O2 0.594361 0.754715 0.473784
O O3 0.315934 0.736018 0.514581
O O4 0.106055 0.479748 0.331140
O O5 0.673864 0.541673 0.917926
O O6 0.117727 0.760360 0.973342
O O7 0.000000 0.500000 0.000000
O O8 0.203843 0.731563 0.216977
O O9 0.694783 0.425888 0.241957
O O10 0.604273 0.257648 0.040096
O O11 0.761609 0.224316 0.319095
O O12 0.865881 0.685013 0.366443
O O13 0.406861 0.122584 0.755756
O O14 0.500000 0.000000 0.000000
O O15 0.332562 0.980052 0.549062
#
# Coordination Sequence:
#
# PCOD9094790 Si02
#       7
#     2   2   2   2   2   2   2
#     4   9  18  33  60  90 119 155 193 243 291 347
#     4  10  22  40  60  88 118 152 201 244 295 349
#     4   9  16  35  59  87 116 162 196 233 286 357
#     4   9  20  38  64  88 114 154 202 241 289 352
#     4  10  20  36  60  81 120 162 192 229 300 344
#     4  10  20  34  61  85 121 155 192 240 297 343
#     4   9  17  35  59  88 122 154 194 239 294 348
#
# _framework density 22.157366
#
# number of rings (size 3 to 8) (size 9 to 14) (size 15 to 20)
#    0.857    1.714    1.429    3.000    0.000    0.000 
#    0.000   21.429    0.000    0.000    0.000    0.000 
#    0.000    0.000    0.000    0.000    0.000    0.000 
#
# Total GULP energy -78038.777897 kJ/mol
# GULP energy per Si atom -5574.198421 kJ/mol
# Density = 2.210693 g / cm^3
# Si number density = 22.157366 Si / 1000 Ang^3
#
#
#
# Elastic Constant Matrix: (Units=GPa)
#
#
# Indices 1 2 3 4 5 6 
#
# 1 13.6424 5.7160 8.2566 1.9987 -7.0826 4.3037
# 2 5.7160 125.8475 25.3386 0.6235 -13.5968 11.4307
# 3 8.2566 25.3386 51.5259 17.7469 -17.3967 -0.6443
# 4 1.9987 0.6235 17.7469 28.2951 8.2863 -14.2168
# 5 -7.0826 -13.5968 -17.3967 8.2863 37.8321 -3.0242
# 6 4.3037 11.4307 -0.6443 -14.2168 -3.0242 23.7323
#
#
#
# Elastic Compliance Matrix: (Units=1/GPa)
#
#
# Indices 1 2 3 4 5 6 
#
# 1 0.100725 0.000931 0.003928 -0.035574 0.025862 -0.036622
# 2 0.000931 0.009338 -0.004180 -0.000508 0.001327 -0.004915
# 3 0.003928 -0.004180 0.049489 -0.053119 0.031614 -0.025148
# 4 -0.035574 -0.000508 -0.053119 0.122760 -0.052392 0.072116
# 5 0.025862 0.001327 0.031614 -0.052392 0.055463 -0.028788
# 6 -0.036622 -0.004915 -0.025148 0.072116 -0.028788 0.089995
#
#
# Mechanical properties :
#
#
# Convention : Reuss Voigt Hill
#
# Bulk Modulus (GPa) = 6.21462 29.95980 18.08721
# Shear Modulus (GPa) = 10.41565 28.08554 19.25059
#
# Velocity S-wave (km/s) = 2.17048 3.56413 2.95076
# Velocity P-wave (km/s) = 3.01532 5.52160 4.44861
#
# Compressibility (1/GPa) = 0.16091087
#
# Stress axis : x y z
#
# Youngs Moduli (GPa) = 9.92802 107.09300 20.20662
#
# Poissons Ratio (x) = -0.09970 -0.07938
# Poissons Ratio (y) = -0.00924 0.08446
# Poissons Ratio (z) = -0.03900 0.44761
#
# Static dielectric constant tensor:
#      x y z
#    x 1.831740 0.042530 -0.044080 
#    y 0.042530 1.832900 -0.033810 
#    z -0.044080 -0.033810 1.837080 
# 
# From -- ./inp_files/390100.got.cif
#   From: 2010.05.17/outbox.cif.g08.bks.cpg/sg2_196_cif.got.tgz:390100.got - 2010.06.03 11:33:40.
