data_PCOD9094881
_publ_section_title
;
Structure prediction by ZEFSAII (Michael W. Deem and Ramdas Pophale) SiO2 
 PCOD9094881
Probable space group: P -1
;
_chemical_formula_sum "Si O2"
_cell_formula_units_Z 14
_cell_length_a 10.377701
_cell_length_b 9.756781
_cell_length_c 7.110222
_cell_angle_alpha 62.394555
_cell_angle_beta 54.401178
_cell_angle_gamma 68.302794
_cell_volume 513.728085
_symmetry_space_group_name_H-M "P -1"
_symmetry_group_IT_number 2
_symmetry_cell_setting 'triclinic'
loop_
_space_group_symop_operation_xyz
x,y,z
-x,-y,-z
loop_
_atom_site_type_symbol
_atom_site_label
_atom_site_fract_x
_atom_site_fract_y
_atom_site_fract_z
Si Si1 0.656773 0.589058 0.834595
Si Si2 0.313588 0.482899 0.708399
Si Si3 0.796843 0.212027 0.240093
Si Si4 0.192227 0.133207 0.410557
Si Si5 0.120850 0.692111 0.288820
Si Si6 0.661123 0.063153 0.918648
Si Si7 0.547196 0.816209 0.351154
O O1 0.666433 0.774426 0.685860
O O2 0.794172 0.484390 0.665955
O O3 0.500000 0.500000 0.000000
O O4 0.698798 0.564641 0.034244
O O5 0.500000 0.500000 0.500000
O O6 0.202554 0.650229 0.690154
O O7 0.310906 0.326773 0.689381
O O8 0.602126 0.222397 0.375846
O O9 0.841539 0.030238 0.364980
O O10 0.893383 0.259662 0.949834
O O11 0.230736 0.072434 0.205786
O O12 0.039134 0.258673 0.493279
O O13 0.246477 0.799534 0.187231
O O14 0.535206 0.142085 0.816296
O O15 0.613379 0.979189 0.202732
#
# Coordination Sequence:
#
# PCOD9094881 Si02
#       7
#     2   2   2   2   2   2   2
#     4  11  23  39  62  88 116 152 201 246 290 343
#     4   9  17  36  56  86 115 150 186 244 295 338
#     4   9  21  35  60  83 121 156 196 238 298 337
#     4  11  22  42  59  84 123 162 191 237 298 355
#     4  11  23  38  60  90 121 154 196 241 293 354
#     4  10  20  34  63  87 115 152 203 238 289 345
#     4   9  17  34  59  87 119 151 192 247 292 335
#
# _framework density 27.251771000000002
#
# number of rings (size 3 to 8) (size 9 to 14) (size 15 to 20)
#    0.000    2.000    1.429    2.143    4.000    0.571 
#    5.143    0.000    0.000    0.857    0.000    0.000 
#    0.000    0.000    0.000    0.000    0.000    0.000 
#
# Total GULP energy -78176.989218 kJ/mol
# GULP energy per Si atom -5584.070658 kJ/mol
# Density = 2.718974 g / cm^3
# Si number density = 27.251771 Si / 1000 Ang^3
#
#
#
# Elastic Constant Matrix: (Units=GPa)
#
#
# Indices 1 2 3 4 5 6 
#
# 1 30.8219 30.9693 11.5945 -3.5517 5.2461 -10.8317
# 2 30.9693 236.3295 41.6169 12.2611 2.3306 -10.3804
# 3 11.5945 41.6169 87.7121 2.5372 8.3121 -25.8830
# 4 -3.5517 12.2611 2.5372 65.3183 -4.2698 -5.0745
# 5 5.2461 2.3306 8.3121 -4.2698 -2.6466 2.6782
# 6 -10.8317 -10.3804 -25.8830 -5.0745 2.6782 30.8259
#
#
#
# Elastic Compliance Matrix: (Units=1/GPa)
#
#
# Indices 1 2 3 4 5 6 
#
# 1 0.033524 -0.003962 -0.005523 0.005640 0.039834 0.003276
# 2 -0.003962 0.005123 -0.001472 -0.001567 -0.006080 -0.000633
# 3 -0.005523 -0.001472 0.011767 0.001723 0.027349 0.005351
# 4 0.005640 -0.001567 0.001723 0.016004 -0.004604 0.005935
# 5 0.039834 -0.006080 0.027349 -0.004604 -0.162101 0.048239
# 6 0.003276 -0.000633 0.005351 0.005935 0.048239 0.034657
#
#
# Mechanical properties :
#
#
# Convention : Reuss Voigt Hill
#
# Bulk Modulus (GPa) = 35.08806 58.13612 46.61209
# Shear Modulus (GPa) = -168.85853 36.74502 -66.05675
#
# Velocity S-wave (km/s) = -7.88016 3.67598 -4.92870
# Velocity P-wave (km/s) = 8.36017 6.27665 3.90487
#
# Compressibility (1/GPa) = 0.02849972
#
# Stress axis : x y z
#
# Youngs Moduli (GPa) = 29.82921 195.18657 84.98190
#
# Poissons Ratio (x) = 0.77334 0.46935
# Poissons Ratio (y) = 0.11819 0.12513
# Poissons Ratio (z) = 0.16475 0.28740
#
# Static dielectric constant tensor:
#      x y z
#    x 2.257760 0.010900 -0.007770 
#    y 0.010900 2.185380 -0.073780 
#    z -0.007770 -0.073780 2.194660 
# 
# From -- ./inp_files/237397.got.cif
#   From: 2010.05.17/outbox.cif.g08.bks.cpg/sg2_119_cif.got.tgz:237397.got - 2010.06.03 11:33:40.
