data_PCOD9094462
_publ_section_title
;
Structure prediction by ZEFSAII (Michael W. Deem and Ramdas Pophale) SiO2 
 PCOD9094462
Probable space group: P -1
;
_chemical_formula_sum "Si O2"
_cell_formula_units_Z 12
_cell_length_a 24.742117
_cell_length_b 9.236026
_cell_length_c 12.587708
_cell_angle_alpha 141.003287
_cell_angle_beta 26.622699
_cell_angle_gamma 155.677756
_cell_volume 519.859098
_symmetry_space_group_name_H-M "P -1"
_symmetry_group_IT_number 2
_symmetry_cell_setting 'triclinic'
loop_
_space_group_symop_operation_xyz
x,y,z
-x,-y,-z
loop_
_atom_site_type_symbol
_atom_site_label
_atom_site_fract_x
_atom_site_fract_y
_atom_site_fract_z
Si Si1 0.779912 0.410822 0.044412
Si Si2 0.759466 0.901265 0.386683
Si Si3 0.317996 0.395775 0.253252
Si Si4 0.203456 0.890738 0.334870
Si Si5 0.741699 0.175437 0.371986
Si Si6 0.189292 0.922063 0.024768
O O1 0.705184 0.556544 0.272581
O O2 0.710567 0.185764 0.930878
O O3 0.746982 0.197824 0.081163
O O4 0.009832 0.758576 0.828868
O O5 0.698185 0.900921 0.609546
O O6 0.695701 0.966089 0.438986
O O7 0.350488 0.708060 0.400848
O O8 0.187239 0.088592 0.399096
O O9 0.236254 0.219964 0.179564
O O10 0.500000 0.500000 0.000000
O O11 0.000000 0.500000 0.500000
O O12 0.964525 0.568779 0.208727
O O13 0.721873 0.989017 0.195912
#
# Coordination Sequence:
#
# PCOD9094462 Si02
#       6
#     2   2   2   2   2   2
#     4   8  15  28  48  77 105 133 175 225 276 318
#     4   9  16  28  50  78 105 133 175 231 275 314
#     4  11  23  38  57  83 118 153 184 229 288 341
#     4   9  18  33  55  78 104 145 189 226 266 327
#     4  10  20  34  57  87 113 144 191 239 279 327
#     4   9  19  35  57  82 109 146 192 236 274 329
#
# _framework density 23.083178
#
# number of rings (size 3 to 8) (size 9 to 14) (size 15 to 20)
#    0.000    2.667    0.000    2.500    0.000    6.000 
#    0.000    0.833    0.000    5.000    0.000    0.000 
#    0.000    0.000    0.000    0.000    0.000    0.000 
#
# Total GULP energy -67063.674490 kJ/mol
# GULP energy per Si atom -5588.639541 kJ/mol
# Density = 2.303064 g / cm^3
# Si number density = 23.083178 Si / 1000 Ang^3
#
#
#
# Elastic Constant Matrix: (Units=GPa)
#
#
# Indices 1 2 3 4 5 6 
#
# 1 109.6545 19.2948 67.2266 16.1168 36.2354 -2.5704
# 2 19.2948 64.8407 22.4346 14.1925 7.9502 -5.3134
# 3 67.2266 22.4346 91.1480 12.6036 16.6613 -5.5477
# 4 16.1168 14.1925 12.6036 30.7003 14.0847 -7.9340
# 5 36.2354 7.9502 16.6613 14.0847 49.4523 7.5755
# 6 -2.5704 -5.3134 -5.5477 -7.9340 7.5755 31.4421
#
#
#
# Elastic Compliance Matrix: (Units=1/GPa)
#
#
# Indices 1 2 3 4 5 6 
#
# 1 0.021087 -0.000142 -0.013350 0.000218 -0.011318 0.002127
# 2 -0.000142 0.018176 -0.003414 -0.006825 0.000170 0.000695
# 3 -0.013350 -0.003414 0.021288 -0.001512 0.003455 0.000874
# 4 0.000218 -0.006825 -0.001512 0.046030 -0.013735 0.013522
# 5 -0.011318 0.000170 0.003455 -0.013735 0.033029 -0.011711
# 6 0.002127 0.000695 0.000874 0.013522 -0.011711 0.038483
#
#
# Mechanical properties :
#
#
# Convention : Reuss Voigt Hill
#
# Bulk Modulus (GPa) = 37.39715 53.72835 45.56275
# Shear Modulus (GPa) = 22.64309 32.76475 27.70392
#
# Velocity S-wave (km/s) = 3.13539 3.77161 3.46812
# Velocity P-wave (km/s) = 5.41699 6.50332 5.98485
#
# Compressibility (1/GPa) = 0.02674000
#
# Stress axis : x y z
#
# Youngs Moduli (GPa) = 47.42318 55.01810 46.97428
#
# Poissons Ratio (x) = 0.00780 0.62708
# Poissons Ratio (y) = 0.00672 0.16038
# Poissons Ratio (z) = 0.63308 0.18784
#
# Static dielectric constant tensor:
#      x y z
#    x 1.844580 0.048250 0.018620 
#    y 0.048250 1.951650 -0.065320 
#    z 0.018620 -0.065320 1.868710 
# 
# From -- ./inp_files/151401.got.cif
#   From: 2010.05.17/outbox.cif.g08.bks.cpg/sg2_76_cif.got.tgz:151401.got - 2010.06.03 11:33:40.
