data_PCOD9094603
_publ_section_title
;
Structure prediction by ZEFSAII (Michael W. Deem and Ramdas Pophale) SiO2 
 PCOD9094603
Probable space group: P -1
;
_chemical_formula_sum "Si O2"
_cell_formula_units_Z 15
_cell_length_a 9.051747
_cell_length_b 8.427781
_cell_length_c 18.770061
_cell_angle_alpha 87.516324
_cell_angle_beta 22.812899
_cell_angle_gamma 88.110398
_cell_volume 554.567637
_symmetry_space_group_name_H-M "P -1"
_symmetry_group_IT_number 2
_symmetry_cell_setting 'triclinic'
loop_
_space_group_symop_operation_xyz
x,y,z
-x,-y,-z
loop_
_atom_site_type_symbol
_atom_site_label
_atom_site_fract_x
_atom_site_fract_y
_atom_site_fract_z
Si Si1 0.325832 0.852588 0.933317
Si Si2 0.461014 0.637959 0.223399
Si Si3 0.603902 0.550554 0.873975
Si Si4 0.584902 0.327849 0.496982
Si Si5 0.611978 0.115570 0.365901
Si Si6 0.500000 0.000000 0.000000
Si Si7 0.644591 0.306847 0.209998
Si Si8 0.473923 0.847476 0.334989
O O1 0.291428 0.667267 0.979199
O O2 0.509314 0.827951 0.774652
O O3 0.519502 0.955012 0.906895
O O4 0.891185 0.906537 0.121966
O O5 0.309235 0.597298 0.212885
O O6 0.446440 0.470831 0.275195
O O7 0.289656 0.772364 0.347364
O O8 0.906593 0.675863 0.009371
O O9 0.962690 0.667384 0.709918
O O10 0.500000 0.500000 0.000000
O O11 0.500000 0.500000 0.500000
O O12 0.437966 0.186585 0.514045
O O13 0.481229 0.296101 0.625024
O O14 0.630894 0.261619 0.298878
O O15 0.359059 0.985690 0.437547
O O16 0.043084 0.055371 0.189348
#
# Coordination Sequence:
#
# PCOD9094603 Si02
#       8
#     2   2   2   2   2   1   2   2
#     4   9  19  37  58  91 121 157 204 257 302 365
#     4   9  19  36  61  92 126 163 211 261 311 373
#     4  11  21  37  63  93 122 158 214 264 304 363
#     4  12  24  40  64  90 126 169 207 257 323 379
#     4  11  22  40  64  92 128 168 210 263 313 376
#     4  10  20  34  58  94 118 158 208 258 310 352
#     4   9  18  36  62  91 125 161 210 260 312 361
#     4  10  22  38  60  90 127 165 205 248 322 384
#
# _framework density 27.048100999999999
#
# number of rings (size 3 to 8) (size 9 to 14) (size 15 to 20)
#    0.000    1.867    1.333    3.600    0.000    5.333 
#    0.000    0.000    0.000    4.000    0.000    0.000 
#    0.000    0.000    0.000    0.000    0.000    0.000 
#
# Total GULP energy -83609.866150 kJ/mol
# GULP energy per Si atom -5573.991077 kJ/mol
# Density = 2.698654 g / cm^3
# Si number density = 27.048101 Si / 1000 Ang^3
#
#
#
# Elastic Constant Matrix: (Units=GPa)
#
#
# Indices 1 2 3 4 5 6 
#
# 1 143.8580 50.7254 38.1398 9.6567 37.8271 26.0021
# 2 50.7254 89.0623 20.5097 18.8902 5.6452 30.4156
# 3 38.1398 20.5097 83.2713 3.6074 15.3998 -0.2799
# 4 9.6567 18.8902 3.6074 31.7055 2.8604 12.7892
# 5 37.8271 5.6452 15.3998 2.8604 42.8242 10.4766
# 6 26.0021 30.4156 -0.2799 12.7892 10.4766 66.1521
#
#
#
# Elastic Compliance Matrix: (Units=1/GPa)
#
#
# Indices 1 2 3 4 5 6 
#
# 1 0.012019 -0.005610 -0.002550 0.001164 -0.008796 -0.000988
# 2 -0.005610 0.018080 -0.002588 -0.006986 0.005343 -0.005614
# 3 -0.002550 -0.002588 0.014436 -0.000159 -0.003272 0.002802
# 4 0.001164 -0.006986 -0.000159 0.037196 -0.001507 -0.004198
# 5 -0.008796 0.005343 -0.003272 -0.001507 0.032646 -0.003892
# 6 -0.000988 -0.005614 0.002802 -0.004198 -0.003892 0.019526
#
#
# Mechanical properties :
#
#
# Convention : Reuss Voigt Hill
#
# Bulk Modulus (GPa) = 43.40620 59.43792 51.42206
# Shear Modulus (GPa) = 30.66029 41.92416 36.29222
#
# Velocity S-wave (km/s) = 3.37047 3.94126 3.66699
# Velocity P-wave (km/s) = 5.58833 6.53712 6.08125
#
# Compressibility (1/GPa) = 0.02303818
#
# Stress axis : x y z
#
# Youngs Moduli (GPa) = 83.20307 55.31083 69.27226
#
# Poissons Ratio (x) = 0.31030 0.17665
# Poissons Ratio (y) = 0.46678 0.17926
# Poissons Ratio (z) = 0.21218 0.14313
#
# Static dielectric constant tensor:
#      x y z
#    x 2.809770 -0.058830 -0.181100 
#    y -0.058830 2.177450 0.035570 
#    z -0.181100 0.035570 2.144850 
# 
# From -- ./inp_files/180281.got.cif
#   From: 2010.05.17/outbox.cif.g08.bks.cpg/sg2_91_cif.got.tgz:180281.got - 2010.06.03 11:33:40.
