data_PCOD9094664
_publ_section_title
;
Structure prediction by ZEFSAII (Michael W. Deem and Ramdas Pophale) SiO2 
 PCOD9094664
Probable space group: P -1
;
_chemical_formula_sum "Si O2"
_cell_formula_units_Z 16
_cell_length_a 14.065594
_cell_length_b 18.265312
_cell_length_c 10.297773
_cell_angle_alpha 25.470484
_cell_angle_beta 133.164147
_cell_angle_gamma 133.240479
_cell_volume 810.445959
_symmetry_space_group_name_H-M "P -1"
_symmetry_group_IT_number 2
_symmetry_cell_setting 'triclinic'
loop_
_space_group_symop_operation_xyz
x,y,z
-x,-y,-z
loop_
_atom_site_type_symbol
_atom_site_label
_atom_site_fract_x
_atom_site_fract_y
_atom_site_fract_z
Si Si1 0.713036 0.776474 0.338119
Si Si2 0.506618 0.760336 0.612497
Si Si3 0.077145 0.922509 0.808676
Si Si4 0.527571 0.095289 0.236494
Si Si5 0.359992 0.559787 0.303873
Si Si6 0.718446 0.320779 0.682178
Si Si7 0.883635 0.602693 0.217431
Si Si8 0.660275 0.558985 0.896544
O O1 0.746007 0.620461 0.530101
O O2 0.654552 0.663870 0.591916
O O3 0.830918 0.927911 0.258760
O O4 0.605572 0.861591 0.023940
O O5 0.396251 0.761718 0.395788
O O6 0.614114 0.672347 0.786164
O O7 0.568518 0.951832 0.411977
O O8 0.434462 0.631450 0.866158
O O9 0.173007 0.801488 0.029572
O O10 0.000000 0.000000 0.500000
O O11 0.959600 0.801701 0.975767
O O12 0.500000 0.000000 0.500000
O O13 0.633981 0.277987 0.047268
O O14 0.500000 0.500000 0.500000
O O15 0.341171 0.643541 0.291654
O O16 0.782098 0.512214 0.377482
O O17 0.000000 0.500000 0.500000
O O18 0.810187 0.559215 0.079492
#
# Coordination Sequence:
#
# PCOD9094664 Si02
#       8
#     2   2   2   2   2   2   2   2
#     4  11  22  39  60  88 127 163 205 257 315 360
#     4  10  20  35  60  94 118 156 210 251 315 383
#     4  11  21  39  66  94 120 163 220 261 299 361
#     4  11  23  37  57  88 128 162 201 247 321 381
#     4  10  23  40  60  90 132 166 196 255 324 379
#     4  10  21  40  64  91 125 164 208 258 311 372
#     4   9  20  37  60  90 121 157 208 259 298 357
#     4  10  20  34  59  90 123 157 199 261 313 363
#
# _framework density 19.742217
#
# number of rings (size 3 to 8) (size 9 to 14) (size 15 to 20)
#    0.000    1.750    2.500    2.250    1.750    6.000 
#    0.000    1.250    0.000    0.000    0.000    0.000 
#    0.000    0.000    0.000    0.000    0.000    0.000 
#
# Total GULP energy -89143.806055 kJ/mol
# GULP energy per Si atom -5571.487878 kJ/mol
# Density = 1.969728 g / cm^3
# Si number density = 19.742217 Si / 1000 Ang^3
#
#
#
# Elastic Constant Matrix: (Units=GPa)
#
#
# Indices 1 2 3 4 5 6 
#
# 1 38.1928 12.8273 17.7353 7.5712 -0.1473 -15.1121
# 2 12.8273 76.6733 38.6251 -13.7176 -1.3596 -1.6420
# 3 17.7353 38.6251 122.9868 4.2739 -4.3973 -2.6680
# 4 7.5712 -13.7176 4.2739 51.6640 -0.5835 1.6911
# 5 -0.1473 -1.3596 -4.3973 -0.5835 30.7451 4.4492
# 6 -15.1121 -1.6420 -2.6680 1.6911 4.4492 27.1198
#
#
#
# Elastic Compliance Matrix: (Units=1/GPa)
#
#
# Indices 1 2 3 4 5 6 
#
# 1 0.040462 -0.006149 -0.003267 -0.008091 -0.004030 0.023019
# 2 -0.006149 0.017563 -0.004890 0.006085 0.000645 -0.003330
# 3 -0.003267 -0.004890 0.010216 -0.001609 0.001378 -0.001237
# 4 -0.008091 0.006085 -0.001609 0.022498 0.001283 -0.005912
# 5 -0.004030 0.000645 0.001378 0.001283 0.033872 -0.007708
# 6 0.023019 -0.003330 -0.001237 -0.005912 -0.007708 0.051010
#
#
# Mechanical properties :
#
#
# Convention : Reuss Voigt Hill
#
# Bulk Modulus (GPa) = 25.23433 41.80316 33.51874
# Shear Modulus (GPa) = 22.99453 33.15013 28.07233
#
# Velocity S-wave (km/s) = 3.41653 4.10219 3.77496
# Velocity P-wave (km/s) = 5.32665 6.60740 6.00129
#
# Compressibility (1/GPa) = 0.03962855
#
# Stress axis : x y z
#
# Youngs Moduli (GPa) = 24.71474 56.93707 97.88508
#
# Poissons Ratio (x) = 0.35013 0.31979
# Poissons Ratio (y) = 0.15198 0.47863
# Poissons Ratio (z) = 0.08074 0.27841
#
# Static dielectric constant tensor:
#      x y z
#    x 1.733920 0.030720 -0.030600 
#    y 0.030720 1.776040 0.005370 
#    z -0.030600 0.005370 1.745500 
# 
# From -- ./inp_files/185773.got.cif
#   From: 2010.05.17/outbox.cif.g08.bks.cpg/sg2_93_cif.got.tgz:185773.got - 2010.06.03 11:33:40.
