data_PCOD9094547
_publ_section_title
;
Structure prediction by ZEFSAII (Michael W. Deem and Ramdas Pophale) SiO2 
 PCOD9094547
Probable space group: P -1
;
_chemical_formula_sum "Si O2"
_cell_formula_units_Z 12
_cell_length_a 17.037234
_cell_length_b 19.259432
_cell_length_c 12.651886
_cell_angle_alpha 153.878652
_cell_angle_beta 24.622715
_cell_angle_gamma 165.935738
_cell_volume 415.013857
_symmetry_space_group_name_H-M "P -1"
_symmetry_group_IT_number 2
_symmetry_cell_setting 'triclinic'
loop_
_space_group_symop_operation_xyz
x,y,z
-x,-y,-z
loop_
_atom_site_type_symbol
_atom_site_label
_atom_site_fract_x
_atom_site_fract_y
_atom_site_fract_z
Si Si1 0.500000 0.000000 0.500000
Si Si2 0.418997 0.294971 0.951722
Si Si3 0.172813 0.444655 0.411061
Si Si4 0.411096 0.791765 0.972538
Si Si5 0.744270 0.006632 0.628515
Si Si6 0.945375 0.829997 0.192800
Si Si7 0.500000 0.500000 0.500000
O O1 0.645601 0.919684 0.211396
O O2 0.189799 0.738535 0.433997
O O3 0.595364 0.391792 0.755240
O O4 0.136839 0.236029 0.207846
O O5 0.715635 0.587155 0.056147
O O6 0.424324 0.709894 0.547781
O O7 0.590117 0.922314 0.817711
O O8 0.303512 0.540137 0.786768
O O9 0.716992 0.033565 0.012333
O O10 0.159370 0.764677 0.237514
O O11 0.041702 0.079673 0.380912
O O12 0.724150 0.695859 0.385601
#
# Coordination Sequence:
#
# PCOD9094547 Si02
#       7
#     1   2   2   2   2   2   1
#     4  12  22  38  62  90 120 158 204 244 292 356
#     4  10  23  40  62  89 123 156 199 249 299 352
#     4  10  22  41  60  88 122 161 198 245 299 352
#     4  10  20  38  59  85 116 151 190 242 296 350
#     4   9  19  38  60  81 117 153 192 237 291 352
#     4  10  21  40  59  84 118 153 192 244 295 351
#     4  10  20  34  58  86 114 148 192 236 290 344
#
# _framework density 28.914695999999999
#
# number of rings (size 3 to 8) (size 9 to 14) (size 15 to 20)
#    0.000    2.000    0.000    4.000    0.000    2.667 
#    0.000   30.000    0.000    0.000    0.000    0.000 
#    0.000    0.000    0.000    0.000    0.000    0.000 
#
# Total GULP energy -66875.278854 kJ/mol
# GULP energy per Si atom -5572.939905 kJ/mol
# Density = 2.884888 g / cm^3
# Si number density = 28.914696 Si / 1000 Ang^3
#
#
#
# Elastic Constant Matrix: (Units=GPa)
#
#
# Indices 1 2 3 4 5 6 
#
# 1 168.1653 64.0129 70.7345 -15.8407 -52.0890 33.0314
# 2 64.0129 102.1031 36.0323 -12.3211 -10.7893 -2.8266
# 3 70.7345 36.0323 119.3201 1.8904 -54.8984 -16.2319
# 4 -15.8407 -12.3211 1.8904 38.6438 -11.8967 -23.0541
# 5 -52.0890 -10.7893 -54.8984 -11.8967 91.0063 -3.3742
# 6 33.0314 -2.8266 -16.2319 -23.0541 -3.3742 60.4560
#
#
#
# Elastic Compliance Matrix: (Units=1/GPa)
#
#
# Indices 1 2 3 4 5 6 
#
# 1 0.013695 -0.006514 -0.006128 -0.001049 0.002874 -0.009672
# 2 -0.006514 0.014695 -0.000463 0.005221 -0.001359 0.006037
# 3 -0.006128 -0.000463 0.017030 0.004998 0.007743 0.010237
# 4 -0.001049 0.005221 0.004998 0.040416 0.008987 0.018073
# 5 0.002874 -0.001359 0.007743 0.008987 0.018500 0.004905
# 6 -0.009672 0.006037 0.010237 0.018073 0.004905 0.032022
#
#
# Mechanical properties :
#
#
# Convention : Reuss Voigt Hill
#
# Bulk Modulus (GPa) = 52.05860 81.23867 66.64863
# Shear Modulus (GPa) = 29.59089 52.60847 41.09968
#
# Velocity S-wave (km/s) = 3.20251 4.27011 3.77425
# Velocity P-wave (km/s) = 5.63188 7.24353 6.48794
#
# Compressibility (1/GPa) = 0.01920912
#
# Stress axis : x y z
#
# Youngs Moduli (GPa) = 73.01925 68.05168 58.72076
#
# Poissons Ratio (x) = 0.44328 0.35987
# Poissons Ratio (y) = 0.47564 0.02717
# Poissons Ratio (z) = 0.44750 0.03149
#
# Static dielectric constant tensor:
#      x y z
#    x 2.198890 0.095530 -0.044840 
#    y 0.095530 2.273270 0.041190 
#    z -0.044840 0.041190 2.241890 
# 
# From -- ./inp_files/456530.got.cif
#   From: 2010.05.17/outbox.cif.g08.bks.cpg/sg2_229_cif.got.tgz:456530.got - 2010.06.03 11:33:40.
