data_PCOD9094139
_publ_section_title
;
Structure prediction by ZEFSAII (Michael W. Deem and Ramdas Pophale) SiO2 
 PCOD9094139
Probable space group: P -1
;
_chemical_formula_sum "Si O2"
_cell_formula_units_Z 16
_cell_length_a 22.026160
_cell_length_b 5.958161
_cell_length_c 5.882823
_cell_angle_alpha 71.253664
_cell_angle_beta 74.921399
_cell_angle_gamma 62.906016
_cell_volume 644.896491
_symmetry_space_group_name_H-M "P -1"
_symmetry_group_IT_number 2
_symmetry_cell_setting 'triclinic'
loop_
_space_group_symop_operation_xyz
x,y,z
-x,-y,-z
loop_
_atom_site_type_symbol
_atom_site_label
_atom_site_fract_x
_atom_site_fract_y
_atom_site_fract_z
Si Si1 0.217618 0.377164 0.670542
Si Si2 0.533624 0.096195 0.131752
Si Si3 0.765411 0.247339 0.845325
Si Si4 0.703155 0.043179 0.595199
Si Si5 0.559197 0.472090 0.638474
Si Si6 0.004097 0.205840 0.622963
Si Si7 0.667806 0.670300 0.060097
Si Si8 0.114924 0.787221 0.930182
O O1 0.218411 0.558061 0.401821
O O2 0.272124 0.372519 0.807335
O O3 0.146745 0.530222 0.823283
O O4 0.249109 0.092263 0.621594
O O5 0.473622 0.242545 0.317803
O O6 0.599397 0.836637 0.209606
O O7 0.557766 0.300519 0.917641
O O8 0.500000 0.000000 0.000000
O O9 0.753142 0.054836 0.744593
O O10 0.691792 0.399632 0.992282
O O11 0.827069 0.170894 0.989221
O O12 0.637896 0.317716 0.526574
O O13 0.669462 0.856712 0.789798
O O14 0.500000 0.500000 0.500000
O O15 0.000000 0.500000 0.500000
O O16 0.076262 0.036762 0.730204
O O17 0.000000 0.000000 0.500000
O O18 0.941219 0.239325 0.840325
#
# Coordination Sequence:
#
# PCOD9094139 Si02
#       8
#     2   2   2   2   2   2   2   2
#     4  10  21  41  60  96 127 174 224 278 345 415
#     4  10  20  34  54  82 115 166 220 282 344 415
#     4  10  21  41  60  98 128 176 229 283 352 417
#     4  10  21  38  60  87 131 172 221 292 349 416
#     4  10  21  35  54  86 122 167 228 283 350 419
#     4  11  26  55  81 115 154 197 238 295 355 430
#     4   9  20  37  55  82 127 166 221 284 348 411
#     4  10  24  48  74 111 145 185 240 290 349 431
#
# _framework density 24.810186999999999
#
# number of rings (size 3 to 8) (size 9 to 14) (size 15 to 20)
#    0.000    2.000    0.000    2.250    0.000    5.500 
#   29.250    0.000    0.000    0.000    0.000    0.000 
#    0.000    0.000    0.000    0.000    0.000    0.000 
#
# Total GULP energy -89314.454773 kJ/mol
# GULP energy per Si atom -5582.153423 kJ/mol
# Density = 2.475372 g / cm^3
# Si number density = 24.810187 Si / 1000 Ang^3
#
#
#
# Elastic Constant Matrix: (Units=GPa)
#
#
# Indices 1 2 3 4 5 6 
#
# 1 82.0385 62.1987 30.8930 11.5801 12.0577 -26.7019
# 2 62.1987 188.3474 78.8215 35.7965 2.7035 -25.6909
# 3 30.8930 78.8215 107.9881 25.1779 -6.8864 -20.0852
# 4 11.5801 35.7965 25.1779 71.9584 -5.9899 -3.2290
# 5 12.0577 2.7035 -6.8864 -5.9899 42.6585 5.5645
# 6 -26.7019 -25.6909 -20.0852 -3.2290 5.5645 44.9053
#
#
#
# Elastic Compliance Matrix: (Units=1/GPa)
#
#
# Indices 1 2 3 4 5 6 
#
# 1 0.020521 -0.004870 -0.000745 -0.000758 -0.007009 0.009897
# 2 -0.004870 0.009448 -0.004983 -0.002195 -0.000357 0.000167
# 3 -0.000745 -0.004983 0.014227 -0.002079 0.002186 0.002649
# 4 -0.000758 -0.002195 -0.002079 0.015965 0.002494 -0.001797
# 5 -0.007009 -0.000357 0.002186 0.002494 0.027005 -0.006561
# 6 0.009897 0.000167 0.002649 -0.001797 -0.006561 0.030118
#
#
# Mechanical properties :
#
#
# Convention : Reuss Voigt Hill
#
# Bulk Modulus (GPa) = 43.47905 80.24451 61.86178
# Shear Modulus (GPa) = 34.21210 45.66849 39.94030
#
# Velocity S-wave (km/s) = 3.71746 4.29501 4.01663
# Velocity P-wave (km/s) = 5.99906 7.55048 6.81903
#
# Compressibility (1/GPa) = 0.02299958
#
# Stress axis : x y z
#
# Youngs Moduli (GPa) = 48.73100 105.84317 70.28767
#
# Poissons Ratio (x) = 0.51547 0.05238
# Poissons Ratio (y) = 0.23733 0.35023
# Poissons Ratio (z) = 0.03632 0.52740
#
# Static dielectric constant tensor:
#      x y z
#    x 1.881390 -0.357760 0.517460 
#    y -0.357760 -0.039110 3.080620 
#    z 0.517460 3.080620 -2.722410 
# 
# From -- ./inp_files/121537.got.cif
#   From: 2010.05.17/outbox.cif.g08.bks.cpg/sg2_61_cif.got.tgz:121537.got - 2010.06.03 11:33:40.
