data_PCOD9094506
_publ_section_title
;
Structure prediction by ZEFSAII (Michael W. Deem and Ramdas Pophale) SiO2 
 PCOD9094506
Probable space group: P -1
;
_chemical_formula_sum "Si O2"
_cell_formula_units_Z 15
_cell_length_a 22.228522
_cell_length_b 7.922734
_cell_length_c 7.988795
_cell_angle_alpha 141.907057
_cell_angle_beta 129.876470
_cell_angle_gamma 55.632733
_cell_volume 660.756368
_symmetry_space_group_name_H-M "P -1"
_symmetry_group_IT_number 2
_symmetry_cell_setting 'triclinic'
loop_
_space_group_symop_operation_xyz
x,y,z
-x,-y,-z
loop_
_atom_site_type_symbol
_atom_site_label
_atom_site_fract_x
_atom_site_fract_y
_atom_site_fract_z
Si Si1 0.688497 0.750629 0.818699
Si Si2 0.478108 0.201261 0.272353
Si Si3 0.000000 0.000000 0.000000
Si Si4 0.895950 0.523635 0.377207
Si Si5 0.948268 0.292914 0.657650
Si Si6 0.631495 0.989642 0.541177
Si Si7 0.276718 0.514341 0.860441
Si Si8 0.222193 0.755057 0.582660
O O1 0.612603 0.777693 0.821358
O O2 0.729172 0.442956 0.617765
O O3 0.656171 0.871076 0.675118
O O4 0.753042 0.941956 0.141207
O O5 0.500000 0.500000 0.500000
O O6 0.538499 0.080180 0.430891
O O7 0.500000 0.000000 0.000000
O O8 0.930927 0.814802 0.659452
O O9 0.065170 0.719746 0.865249
O O10 0.922209 0.410437 0.521786
O O11 0.801129 0.546221 0.227815
O O12 0.870614 0.259658 0.599113
O O13 0.000000 0.000000 0.500000
O O14 0.000000 0.500000 0.000000
O O15 0.663024 0.755093 0.282051
O O16 0.677900 0.251122 0.796076
O O17 0.247684 0.632984 0.717750
#
# Coordination Sequence:
#
# PCOD9094506 Si02
#       8
#     2   2   1   2   2   2   2   2
#     4  10  20  39  64  86 115 150 207 251 279 350
#     4  12  25  40  61  85 126 162 186 235 309 366
#     4  10  20  34  58  74 118 150 200 238 278 362
#     4  10  20  36  58  85 112 158 197 239 308 333
#     4  11  21  35  61  88 122 151 193 248 301 362
#     4  10  20  37  63  90 110 145 208 246 287 336
#     4   9  18  34  61  86 109 138 199 261 276 329
#     4   9  19  35  60  89 109 150 192 248 300 319
#
# _framework density 22.701256000000001
#
# number of rings (size 3 to 8) (size 9 to 14) (size 15 to 20)
#    0.000    1.867    0.000    4.400    0.000    4.267 
#    0.000    5.333   58.667    0.000    0.000    0.000 
#    0.000    0.000    0.000    0.000    0.000    0.000 
#
# Total GULP energy -83696.774495 kJ/mol
# GULP energy per Si atom -5579.784966 kJ/mol
# Density = 2.264959 g / cm^3
# Si number density = 22.701256 Si / 1000 Ang^3
#
#
#
# Elastic Constant Matrix: (Units=GPa)
#
#
# Indices 1 2 3 4 5 6 
#
# 1 86.4205 4.9910 0.4240 -3.0864 0.0669 -11.1060
# 2 4.9910 56.8412 7.2913 -1.6841 -16.5487 10.3330
# 3 0.4240 7.2913 104.2504 29.5475 -3.3682 19.9231
# 4 -3.0864 -1.6841 29.5475 36.5104 -12.3613 -2.3657
# 5 0.0669 -16.5487 -3.3682 -12.3613 27.7954 2.3888
# 6 -11.1060 10.3330 19.9231 -2.3657 2.3888 24.2348
#
#
#
# Elastic Compliance Matrix: (Units=1/GPa)
#
#
# Indices 1 2 3 4 5 6 
#
# 1 0.013169 -0.002967 -0.002767 0.003358 -0.001504 0.010051
# 2 -0.002967 0.026462 -0.000817 0.007608 0.020182 -0.013217
# 3 -0.002767 -0.000817 0.017501 -0.017034 -0.004514 -0.016525
# 4 0.003358 0.007608 -0.017034 0.050827 0.023779 0.014916
# 5 -0.001504 0.020182 -0.004514 0.023779 0.058804 -0.009058
# 6 0.010051 -0.013217 -0.016525 0.014916 -0.009058 0.067438
#
#
# Mechanical properties :
#
#
# Convention : Reuss Voigt Hill
#
# Bulk Modulus (GPa) = 22.71168 30.32499 26.51833
# Shear Modulus (GPa) = 19.08549 33.36182 26.22365
#
# Velocity S-wave (km/s) = 2.90267 3.83770 3.40246
# Velocity P-wave (km/s) = 4.61089 5.74670 5.20984
#
# Compressibility (1/GPa) = 0.04403022
#
# Stress axis : x y z
#
# Youngs Moduli (GPa) = 75.93620 37.78974 57.14041
#
# Poissons Ratio (x) = 0.11211 0.15812
# Poissons Ratio (y) = 0.22528 0.04668
# Poissons Ratio (z) = 0.21013 0.03087
#
# Static dielectric constant tensor:
#      x y z
#    x 1.823890 0.039430 -0.010110 
#    y 0.039430 1.899090 -0.067490 
#    z -0.010110 -0.067490 1.795530 
# 
# From -- ./inp_files/344011.got.cif
#   From: 2010.05.17/outbox.cif.g08.bks.cpg/sg2_173_cif.got.tgz:344011.got - 2010.06.03 11:33:40.
