data_PCOD9094692
_publ_section_title
;
Structure prediction by ZEFSAII (Michael W. Deem and Ramdas Pophale) SiO2 
 PCOD9094692
Probable space group: P -1
;
_chemical_formula_sum "Si O2"
_cell_formula_units_Z 14
_cell_length_a 19.687466
_cell_length_b 7.771635
_cell_length_c 5.100072
_cell_angle_alpha 83.550933
_cell_angle_beta 63.129481
_cell_angle_gamma 113.091195
_cell_volume 599.110967
_symmetry_space_group_name_H-M "P -1"
_symmetry_group_IT_number 2
_symmetry_cell_setting 'triclinic'
loop_
_space_group_symop_operation_xyz
x,y,z
-x,-y,-z
loop_
_atom_site_type_symbol
_atom_site_label
_atom_site_fract_x
_atom_site_fract_y
_atom_site_fract_z
Si Si1 0.164606 0.297923 0.967494
Si Si2 0.944462 0.488833 0.850730
Si Si3 0.657209 0.910662 0.522223
Si Si4 0.705960 0.327242 0.652211
Si Si5 0.201820 0.824990 0.143404
Si Si6 0.519123 0.142615 0.191797
Si Si7 0.807639 0.886337 0.530988
O O1 0.248038 0.491281 0.659493
O O2 0.144495 0.128689 0.810969
O O3 0.086501 0.347852 0.113890
O O4 0.187350 0.246567 0.220184
O O5 0.855621 0.277716 0.993431
O O6 0.000000 0.500000 0.500000
O O7 0.000000 0.500000 0.000000
O O8 0.676019 0.118412 0.589750
O O9 0.552530 0.785003 0.696511
O O10 0.709988 0.827721 0.608369
O O11 0.707451 0.984747 0.144504
O O12 0.776972 0.333235 0.731802
O O13 0.621389 0.305848 0.954797
O O14 0.158309 0.903667 0.414359
O O15 0.500000 0.000000 0.500000
O O16 0.500000 0.000000 0.000000
#
# Coordination Sequence:
#
# PCOD9094692 Si02
#       7
#     2   2   2   2   2   2   2
#     4  12  24  44  66  99 133 174 217 273 335 393
#     4  12  27  46  72 101 127 161 221 283 329 392
#     4  10  20  40  67  95 132 178 226 266 320 387
#     4  10  21  37  69  98 130 177 230 273 318 378
#     4  11  21  44  71  95 129 180 221 265 334 397
#     4  10  20  34  60 102 131 166 229 284 306 361
#     4  11  25  40  68  96 136 182 217 257 333 412
#
# _framework density 23.367958999999999
#
# number of rings (size 3 to 8) (size 9 to 14) (size 15 to 20)
#    0.000    1.143    4.286    2.571    2.000    0.000 
#    0.000    5.714    0.000    0.000    0.000    0.000 
#    0.000    0.000    0.000    0.000    0.000    0.000 
#
# Total GULP energy -78285.369029 kJ/mol
# GULP energy per Si atom -5591.812074 kJ/mol
# Density = 2.331477 g / cm^3
# Si number density = 23.367959 Si / 1000 Ang^3
#
#
#
# Elastic Constant Matrix: (Units=GPa)
#
#
# Indices 1 2 3 4 5 6 
#
# 1 145.6639 34.8032 49.5349 17.1711 11.4580 -27.0940
# 2 34.8032 67.6276 12.2713 29.2211 -0.6858 -10.3449
# 3 49.5349 12.2713 122.1866 24.8557 9.9466 -8.5238
# 4 17.1711 29.2211 24.8557 41.7778 -4.6172 -0.1692
# 5 11.4580 -0.6858 9.9466 -4.6172 53.4166 1.1205
# 6 -27.0940 -10.3449 -8.5238 -0.1692 1.1205 26.6486
#
#
#
# Elastic Compliance Matrix: (Units=1/GPa)
#
#
# Indices 1 2 3 4 5 6 
#
# 1 0.010495 -0.003485 -0.003124 -0.000194 -0.001907 0.008397
# 2 -0.003485 0.024806 0.003152 -0.017899 -0.001216 0.007032
# 3 -0.003124 0.003152 0.010970 -0.007665 -0.002028 0.001593
# 4 -0.000194 -0.017899 -0.007665 0.041613 0.005036 -0.009544
# 5 -0.001907 -0.001216 -0.002028 0.005036 0.020008 -0.003869
# 6 0.008397 0.007032 0.001593 -0.009544 -0.003869 0.049404
#
#
# Mechanical properties :
#
#
# Convention : Reuss Voigt Hill
#
# Bulk Modulus (GPa) = 25.40920 58.74409 42.07665
# Shear Modulus (GPa) = 28.19620 40.29318 34.24469
#
# Velocity S-wave (km/s) = 3.47741 4.15696 3.83228
# Velocity P-wave (km/s) = 5.19810 6.94505 6.13409
#
# Compressibility (1/GPa) = 0.03935582
#
# Stress axis : x y z
#
# Youngs Moduli (GPa) = 95.28315 40.31334 91.16122
#
# Poissons Ratio (x) = 0.14050 0.28481
# Poissons Ratio (y) = 0.33209 -0.28736
# Poissons Ratio (z) = 0.29769 -0.12708
#
# Static dielectric constant tensor:
#      x y z
#    x 1.922040 0.029130 -0.048160 
#    y 0.029130 1.933270 -0.018900 
#    z -0.048160 -0.018900 1.922990 
# 
# From -- ./inp_files/103810.got.cif
#   From: 2010.05.17/outbox.cif.g08.bks.cpg/sg2_52_cif.got.tgz:103810.got - 2010.06.03 11:33:40.
