data_PCOD9094962
_publ_section_title
;
Structure prediction by ZEFSAII (Michael W. Deem and Ramdas Pophale) SiO2 
 PCOD9094962
Probable space group: P -1
;
_chemical_formula_sum "Si O2"
_cell_formula_units_Z 16
_cell_length_a 28.313498
_cell_length_b 6.172535
_cell_length_c 11.794732
_cell_angle_alpha 134.339882
_cell_angle_beta 155.885120
_cell_angle_gamma 47.606611
_cell_volume 597.672631
_symmetry_space_group_name_H-M "P -1"
_symmetry_group_IT_number 2
_symmetry_cell_setting 'triclinic'
loop_
_space_group_symop_operation_xyz
x,y,z
-x,-y,-z
loop_
_atom_site_type_symbol
_atom_site_label
_atom_site_fract_x
_atom_site_fract_y
_atom_site_fract_z
Si Si1 0.189541 0.867641 0.213155
Si Si2 0.932367 0.644857 0.159320
Si Si3 0.676201 0.287273 0.283118
Si Si4 0.416346 0.620419 0.514224
Si Si5 0.868109 0.440685 0.601943
Si Si6 0.565129 0.815105 0.400864
Si Si7 0.852894 0.306677 0.196167
Si Si8 0.315288 0.373506 0.906882
O O1 0.326905 0.842673 0.475715
O O2 0.134654 0.204871 0.245093
O O3 0.142060 0.632258 0.108666
O O4 0.145488 0.739623 0.950613
O O5 0.008086 0.673375 0.221969
O O6 0.030951 0.599995 0.457313
O O7 0.850523 0.961962 0.111167
O O8 0.800332 0.300494 0.501743
O O9 0.633138 0.576853 0.372478
O O10 0.692888 0.972231 0.271769
O O11 0.570315 0.230042 0.943086
O O12 0.400282 0.299253 0.435747
O O13 0.414390 0.842546 0.472766
O O14 0.554254 0.585930 0.815195
O O15 0.777170 0.416989 0.292242
O O16 0.739924 0.554276 0.063381
#
# Coordination Sequence:
#
# PCOD9094962 Si02
#       8
#     2   2   2   2   2   2   2   2
#     4  12  25  40  70 100 140 174 231 294 361 410
#     4  10  25  47  70  90 133 182 239 293 352 420
#     4  10  20  34  66  97 139 177 231 276 345 412
#     4  11  23  41  69 106 150 184 230 285 360 425
#     4  11  22  41  67 106 131 177 230 295 349 417
#     4  10  21  37  64 104 147 186 222 285 350 421
#     4  10  25  48  67  92 131 184 240 287 355 417
#     4  10  23  42  68  98 140 183 232 274 352 427
#
# _framework density 26.770506999999998
#
# number of rings (size 3 to 8) (size 9 to 14) (size 15 to 20)
#    0.000    1.500    2.500    1.500    1.750    9.000 
#    0.000    0.625    0.000    0.000    0.000    0.000 
#    0.000    0.000    0.000    0.000    0.000    0.000 
#
# Total GULP energy -89229.350268 kJ/mol
# GULP energy per Si atom -5576.834392 kJ/mol
# Density = 2.670958 g / cm^3
# Si number density = 26.770507 Si / 1000 Ang^3
#
#
#
# Elastic Constant Matrix: (Units=GPa)
#
#
# Indices 1 2 3 4 5 6 
#
# 1 115.1099 47.1642 79.7228 5.8617 23.5368 29.1377
# 2 47.1642 90.0195 58.5224 -6.3395 9.7373 11.7855
# 3 79.7228 58.5224 36.4432 -6.8773 9.7615 -39.7922
# 4 5.8617 -6.3395 -6.8773 42.4545 4.0310 -0.2903
# 5 23.5368 9.7373 9.7615 4.0310 33.6046 -9.2459
# 6 29.1377 11.7855 -39.7922 -0.2903 -9.2459 23.0343
#
#
#
# Elastic Compliance Matrix: (Units=1/GPa)
#
#
# Indices 1 2 3 4 5 6 
#
# 1 0.006461 -0.008249 0.006475 -0.000826 -0.002169 0.006352
# 2 -0.008249 0.014333 0.000582 0.003172 0.002492 0.005147
# 3 0.006475 0.000582 -0.001790 -0.000417 -0.008230 -0.014890
# 4 -0.000826 0.003172 -0.000417 0.024423 -0.003847 -0.002536
# 5 -0.002169 0.002492 -0.008230 -0.003847 0.033596 0.000688
# 6 0.006352 0.005147 -0.014890 -0.002536 0.000688 0.007267
#
#
# Mechanical properties :
#
#
# Convention : Reuss Voigt Hill
#
# Bulk Modulus (GPa) = 60.17887 68.04349 64.11118
# Shear Modulus (GPa) = 54.22173 23.56290 38.89232
#
# Velocity S-wave (km/s) = 4.50536 2.97000 3.81570
# Velocity P-wave (km/s) = 7.04221 6.10195 6.58887
#
# Compressibility (1/GPa) = 0.01661713
#
# Stress axis : x y z
#
# Youngs Moduli (GPa) = 154.77889 69.77126 -558.54261
#
# Poissons Ratio (x) = 0.57557 3.61634
# Poissons Ratio (y) = 1.27683 0.32500
# Poissons Ratio (z) = -1.00213 -0.04060
#
# Static dielectric constant tensor:
#      x y z
#    x 2.306890 0.089460 -0.154920 
#    y 0.089460 2.066970 -0.059760 
#    z -0.154920 -0.059760 2.162610 
# 
# From -- ./inp_files/476052.got.cif
#   From: 2010.05.17/outbox.cif.g08.bks.cpg/sg2_239_cif.got.tgz:476052.got - 2010.06.03 11:33:40.
