data_PCOD9094079
_publ_section_title
;
Structure prediction by ZEFSAII (Michael W. Deem and Ramdas Pophale) SiO2 
 PCOD9094079
Probable space group: P -1
;
_chemical_formula_sum "Si O2"
_cell_formula_units_Z 14
_cell_length_a 15.473725
_cell_length_b 9.380708
_cell_length_c 8.592632
_cell_angle_alpha 94.339686
_cell_angle_beta 48.624333
_cell_angle_gamma 119.537279
_cell_volume 752.128193
_symmetry_space_group_name_H-M "P -1"
_symmetry_group_IT_number 2
_symmetry_cell_setting 'triclinic'
loop_
_space_group_symop_operation_xyz
x,y,z
-x,-y,-z
loop_
_atom_site_type_symbol
_atom_site_label
_atom_site_fract_x
_atom_site_fract_y
_atom_site_fract_z
Si Si1 0.458880 0.549875 0.394467
Si Si2 0.709454 0.630178 0.932961
Si Si3 0.110080 0.968676 0.789121
Si Si4 0.708328 0.923622 0.115971
Si Si5 0.042401 0.374425 0.256236
Si Si6 0.923880 0.269041 0.736999
Si Si7 0.187581 0.282220 0.531366
O O1 0.500000 0.500000 0.500000
O O2 0.292731 0.429249 0.545626
O O3 0.542704 0.516075 0.162936
O O4 0.540044 0.761940 0.309205
O O5 0.798151 0.569175 0.901719
O O6 0.740617 0.649662 0.716346
O O7 0.767393 0.821021 0.955466
O O8 0.032484 0.772078 0.800666
O O9 0.171568 0.105884 0.583948
O O10 0.228684 0.021604 0.781395
O O11 0.000000 0.000000 0.000000
O O12 0.768434 0.097537 0.957236
O O13 0.959034 0.286045 0.512340
O O14 0.049063 0.547583 0.233864
O O15 0.036253 0.249996 0.692093
#
# Coordination Sequence:
#
# PCOD9094079 Si02
#       7
#     2   2   2   2   2   2   2
#     4  10  20  35  55  80 114 141 178 235 272 325
#     4   9  19  34  56  81 105 147 183 226 266 319
#     4  12  19  32  55  86 109 143 179 234 271 318
#     4  10  20  34  53  83 108 140 184 218 278 313
#     4  10  21  36  57  81 115 141 184 224 275 322
#     4  10  21  37  57  83 108 148 180 228 268 327
#     4  11  19  34  59  80 111 140 191 220 274 325
#
# _framework density 18.613848000000001
#
# number of rings (size 3 to 8) (size 9 to 14) (size 15 to 20)
#    0.857    0.857    4.286    1.286    0.000    2.857 
#    0.000    0.000    3.143    4.286    0.000    0.000 
#    0.000    0.000    0.000    0.000    0.000    0.000 
#
# Total GULP energy -78016.950511 kJ/mol
# GULP energy per Si atom -5572.639322 kJ/mol
# Density = 1.857148 g / cm^3
# Si number density = 18.613848 Si / 1000 Ang^3
#
#
#
# Elastic Constant Matrix: (Units=GPa)
#
#
# Indices 1 2 3 4 5 6 
#
# 1 36.0013 15.0548 -3.4229 0.9580 8.3387 6.9700
# 2 15.0548 94.8059 10.0136 -1.0625 1.4074 1.9791
# 3 -3.4229 10.0136 26.4430 -12.4275 4.0169 -2.4290
# 4 0.9580 -1.0625 -12.4275 29.5468 2.5626 5.3573
# 5 8.3387 1.4074 4.0169 2.5626 16.3714 -6.1613
# 6 6.9700 1.9791 -2.4290 5.3573 -6.1613 24.6238
#
#
#
# Elastic Compliance Matrix: (Units=1/GPa)
#
#
# Indices 1 2 3 4 5 6 
#
# 1 0.045944 -0.008120 0.019192 0.013782 -0.038235 -0.023025
# 2 -0.008120 0.012517 -0.008432 -0.003986 0.006903 0.003055
# 3 0.019192 -0.008432 0.061767 0.030534 -0.034203 -0.013863
# 4 0.013782 -0.003986 0.030534 0.052170 -0.029609 -0.019328
# 5 -0.038235 0.006903 -0.034203 -0.029609 0.108199 0.040409
# 6 -0.023025 0.003055 -0.013863 -0.019328 0.040409 0.059832
#
#
# Mechanical properties :
#
#
# Convention : Reuss Voigt Hill
#
# Bulk Modulus (GPa) = 7.96762 22.28237 15.12500
# Shear Modulus (GPa) = 13.26315 23.14870 18.20593
#
# Velocity S-wave (km/s) = 2.67224 3.53034 3.13083
# Velocity P-wave (km/s) = 3.71631 5.34926 4.60573
#
# Compressibility (1/GPa) = 0.12550794
#
# Stress axis : x y z
#
# Youngs Moduli (GPa) = 21.76553 79.89104 16.18987
#
# Poissons Ratio (x) = 0.64873 -0.31072
# Poissons Ratio (y) = 0.17674 0.13652
# Poissons Ratio (z) = -0.41773 0.67366
#
# Static dielectric constant tensor:
#      x y z
#    x 1.631220 0.016300 0.007990 
#    y 0.016300 1.637420 -0.018010 
#    z 0.007990 -0.018010 1.692150 
# 
# From -- ./inp_files/184377.got.cif
#   From: 2010.05.17/outbox.cif.g08.bks.cpg/sg2_93_cif.got.tgz:184377.got - 2010.06.03 11:33:40.
