data_PCOD9094469
_publ_section_title
;
Structure prediction by ZEFSAII (Michael W. Deem and Ramdas Pophale) SiO2 
 PCOD9094469
Probable space group: P -1
;
_chemical_formula_sum "Si O2"
_cell_formula_units_Z 16
_cell_length_a 7.658868
_cell_length_b 11.705503
_cell_length_c 13.481841
_cell_angle_alpha 55.797040
_cell_angle_beta 43.665092
_cell_angle_gamma 58.184127
_cell_volume 674.625251
_symmetry_space_group_name_H-M "P -1"
_symmetry_group_IT_number 2
_symmetry_cell_setting 'triclinic'
loop_
_space_group_symop_operation_xyz
x,y,z
-x,-y,-z
loop_
_atom_site_type_symbol
_atom_site_label
_atom_site_fract_x
_atom_site_fract_y
_atom_site_fract_z
Si Si1 0.503566 0.852260 0.957479
Si Si2 0.992156 0.286068 0.243777
Si Si3 0.428789 0.850411 0.590612
Si Si4 0.680550 0.565878 0.315892
Si Si5 0.520628 0.711086 0.830878
Si Si6 0.157475 0.538893 0.262022
Si Si7 0.651359 0.134808 0.764824
Si Si8 0.974715 0.705767 0.431313
O O1 0.378110 0.773246 0.960283
O O2 0.783638 0.748244 0.915108
O O3 0.569417 0.998813 0.817608
O O4 0.357712 0.891166 0.100431
O O5 0.815185 0.172476 0.359936
O O6 0.798165 0.438237 0.253580
O O7 0.187502 0.272129 0.264495
O O8 0.408345 0.795103 0.738680
O O9 0.685991 0.752091 0.486201
O O10 0.500000 0.000000 0.500000
O O11 0.500000 0.500000 0.500000
O O12 0.939064 0.596861 0.244591
O O13 0.525323 0.714932 0.266559
O O14 0.578692 0.547802 0.851900
O O15 0.171071 0.647114 0.290942
O O16 0.037595 0.420523 0.428074
O O17 0.935921 0.164399 0.616159
#
# Coordination Sequence:
#
# PCOD9094469 Si02
#       8
#     2   2   2   2   2   2   2   2
#     4   9  22  44  56  83 121 172 208 233 297 364
#     4   9  21  40  59  83 126 157 197 250 297 361
#     4  11  21  34  59  93 117 158 199 248 309 360
#     4  11  20  34  60  95 112 153 200 251 308 355
#     4   8  20  38  58  79 120 157 195 244 290 360
#     4   9  18  36  53  85 122 145 189 250 309 358
#     4  11  22  37  65  83 120 166 200 248 298 360
#     4  10  20  34  57  87 124 150 188 252 313 352
#
# _framework density 23.71687
#
# number of rings (size 3 to 8) (size 9 to 14) (size 15 to 20)
#    0.750    1.500    1.250    1.500    3.500    3.000 
#    0.000    1.875    0.000    3.750    0.000    0.000 
#    0.000    0.000    0.000    0.000    0.000    0.000 
#
# Total GULP energy -89137.349883 kJ/mol
# GULP energy per Si atom -5571.084368 kJ/mol
# Density = 2.366289 g / cm^3
# Si number density = 23.716870 Si / 1000 Ang^3
#
#
#
# Elastic Constant Matrix: (Units=GPa)
#
#
# Indices 1 2 3 4 5 6 
#
# 1 42.1284 8.1928 -10.0812 -19.2969 -11.1465 4.7699
# 2 8.1928 78.8999 3.2182 -6.0407 9.1904 13.9391
# 3 -10.0812 3.2182 42.4649 -5.7932 5.7247 0.8469
# 4 -19.2969 -6.0407 -5.7932 34.1305 10.3034 -1.4857
# 5 -11.1465 9.1904 5.7247 10.3034 26.7867 0.0295
# 6 4.7699 13.9391 0.8469 -1.4857 0.0295 32.6927
#
#
#
# Elastic Compliance Matrix: (Units=1/GPa)
#
#
# Indices 1 2 3 4 5 6 
#
# 1 0.039049 -0.002996 0.011599 0.021365 0.006584 -0.003756
# 2 -0.002996 0.015132 -0.000331 0.002934 -0.007490 -0.005866
# 3 0.011599 -0.000331 0.029031 0.013276 -0.006369 -0.001694
# 4 0.021365 0.002934 0.013276 0.048104 -0.013454 -0.002514
# 5 0.006584 -0.007490 -0.006369 -0.013454 0.049175 0.001742
# 6 -0.003756 -0.005866 -0.001694 -0.002514 0.001742 0.033565
#
#
# Mechanical properties :
#
#
# Convention : Reuss Voigt Hill
#
# Bulk Modulus (GPa) = 10.02430 18.46142 14.24286
# Shear Modulus (GPa) = 21.66723 29.53287 25.60005
#
# Velocity S-wave (km/s) = 3.02583 3.53260 3.28899
# Velocity P-wave (km/s) = 4.05504 4.94369 4.52125
#
# Compressibility (1/GPa) = 0.09975759
#
# Stress axis : x y z
#
# Youngs Moduli (GPa) = 25.60907 66.08392 34.44574
#
# Poissons Ratio (x) = 0.19796 -0.39954
# Poissons Ratio (y) = 0.07671 0.01140
# Poissons Ratio (z) = -0.29705 0.02187
#
# Static dielectric constant tensor:
#      x y z
#    x 1.897420 -0.002710 -0.021610 
#    y -0.002710 2.006400 0.065380 
#    z -0.021610 0.065380 1.988240 
# 
# From -- ./inp_files/498796.got.cif
#   From: 2010.05.17/outbox.cif.g08.bks.cpg/sg2_250_cif.got.tgz:498796.got - 2010.06.03 11:33:40.
