data_PCOD9094461
_publ_section_title
;
Structure prediction by ZEFSAII (Michael W. Deem and Ramdas Pophale) SiO2 
 PCOD9094461
Probable space group: P -1
;
_chemical_formula_sum "Si O2"
_cell_formula_units_Z 16
_cell_length_a 16.277757
_cell_length_b 11.373120
_cell_length_c 16.123491
_cell_angle_alpha 128.291790
_cell_angle_beta 155.089119
_cell_angle_gamma 39.020792
_cell_volume 749.850624
_symmetry_space_group_name_H-M "P -1"
_symmetry_group_IT_number 2
_symmetry_cell_setting 'triclinic'
loop_
_space_group_symop_operation_xyz
x,y,z
-x,-y,-z
loop_
_atom_site_type_symbol
_atom_site_label
_atom_site_fract_x
_atom_site_fract_y
_atom_site_fract_z
Si Si1 0.095379 0.676962 0.589894
Si Si2 0.977136 0.682832 0.143189
Si Si3 0.295307 0.540201 0.533572
Si Si4 0.420304 0.375450 0.284699
Si Si5 0.013393 0.157098 0.188894
Si Si6 0.759510 0.733453 0.432809
Si Si7 0.621500 0.139150 0.740199
Si Si8 0.029219 0.975531 0.284751
O O1 0.811754 0.779691 0.412009
O O2 0.166262 0.665069 0.554532
O O3 0.225418 0.454341 0.638585
O O4 0.143960 0.806292 0.739346
O O5 0.077094 0.633280 0.306265
O O6 0.234587 0.530539 0.255580
O O7 0.884176 0.892479 0.123055
O O8 0.756048 0.672135 0.927975
O O9 0.509976 0.539320 0.686402
O O10 0.410689 0.321589 0.568335
O O11 0.697780 0.182465 0.487837
O O12 0.035511 0.296866 0.325655
O O13 0.203363 0.052096 0.239563
O O14 0.089741 0.992776 0.254237
O O15 0.756387 0.218055 0.939687
O O16 0.495645 0.898797 0.309298
#
# Coordination Sequence:
#
# PCOD9094461 Si02
#       8
#     2   2   2   2   2   2   2   2
#     4   9  20  37  56  76 110 149 187 221 261 322
#     4  10  21  37  59  84 108 140 181 225 278 329
#     4  10  20  38  56  79 114 147 178 226 270 315
#     4  10  21  37  59  84 108 140 181 225 278 329
#     4  10  20  34  57  87 113 141 180 225 276 328
#     4   9  19  38  54  76 113 151 182 222 266 317
#     4  10  20  34  57  87 113 141 180 225 276 328
#     4  10  20  38  56  79 114 147 178 226 270 315
#
# _framework density 21.337582000000001
#
# number of rings (size 3 to 8) (size 9 to 14) (size 15 to 20)
#    0.000    2.250    0.000    3.375    0.000    6.000 
#    0.000   28.125    0.000    0.000    0.000    0.000 
#    0.000    0.000    0.000    0.000    0.000    0.000 
#
# Total GULP energy -89101.671874 kJ/mol
# GULP energy per Si atom -5568.854492 kJ/mol
# Density = 2.128902 g / cm^3
# Si number density = 21.337582 Si / 1000 Ang^3
#
#
#
# Elastic Constant Matrix: (Units=GPa)
#
#
# Indices 1 2 3 4 5 6 
#
# 1 134.2834 10.7490 17.1326 -4.8621 11.0670 -20.7755
# 2 10.7490 53.2854 12.6739 23.7149 -0.7220 -3.1431
# 3 17.1326 12.6739 43.0993 15.7310 3.0993 -3.3423
# 4 -4.8621 23.7149 15.7310 22.2564 1.7123 -3.1163
# 5 11.0670 -0.7220 3.0993 1.7123 16.7332 3.2100
# 6 -20.7755 -3.1431 -3.3423 -3.1163 3.2100 34.5355
#
#
#
# Elastic Compliance Matrix: (Units=1/GPa)
#
#
# Indices 1 2 3 4 5 6 
#
# 1 0.012098 -0.009063 -0.008014 0.019962 -0.010574 0.008462
# 2 -0.009063 0.043603 0.010377 -0.057759 0.013191 -0.006917
# 3 -0.008014 0.010377 0.037378 -0.040106 0.003739 -0.004225
# 4 0.019962 -0.057759 -0.040106 0.143785 -0.026492 0.018307
# 5 -0.010574 0.013191 0.003739 -0.026492 0.072006 -0.013882
# 6 0.008462 -0.006917 -0.004225 0.018307 -0.013882 0.035950
#
#
# Mechanical properties :
#
#
# Convention : Reuss Voigt Hill
#
# Bulk Modulus (GPa) = 12.55007 34.64212 23.59610
# Shear Modulus (GPa) = 12.99446 27.37919 20.18682
#
# Velocity S-wave (km/s) = 2.47046 3.58599 3.07916
# Velocity P-wave (km/s) = 3.74593 5.78068 4.87074
#
# Compressibility (1/GPa) = 0.07968085
#
# Stress axis : x y z
#
# Youngs Moduli (GPa) = 82.65660 22.93398 26.75355
#
# Poissons Ratio (x) = 0.20785 0.21439
# Poissons Ratio (y) = 0.74911 -0.27762
# Poissons Ratio (z) = 0.66238 -0.23799
#
# Static dielectric constant tensor:
#      x y z
#    x 1.788410 -0.031430 0.039060 
#    y -0.031430 1.814580 0.018920 
#    z 0.039060 0.018920 1.820850 
# 
# From -- ./inp_files/531966.got.cif
#   From: 2010.05.17/outbox.cif.g08.bks.cpg/sg2_266_cif.got.tgz:531966.got - 2010.06.03 11:33:40.
