data_PCOD9094705
_publ_section_title
;
Structure prediction by ZEFSAII (Michael W. Deem and Ramdas Pophale) SiO2 
 PCOD9094705
Probable space group: P -1
;
_chemical_formula_sum "Si O2"
_cell_formula_units_Z 12
_cell_length_a 7.725157
_cell_length_b 15.457389
_cell_length_c 7.690746
_cell_angle_alpha 43.553701
_cell_angle_beta 93.955974
_cell_angle_gamma 73.760772
_cell_volume 553.946280
_symmetry_space_group_name_H-M "P -1"
_symmetry_group_IT_number 2
_symmetry_cell_setting 'triclinic'
loop_
_space_group_symop_operation_xyz
x,y,z
-x,-y,-z
loop_
_atom_site_type_symbol
_atom_site_label
_atom_site_fract_x
_atom_site_fract_y
_atom_site_fract_z
Si Si1 0.978779 0.311356 0.361190
Si Si2 0.447277 0.882725 0.873976
Si Si3 0.398063 0.905957 0.419422
Si Si4 0.832245 0.623608 0.419225
Si Si5 0.706153 0.600648 0.802383
Si Si6 0.980795 0.988461 0.307990
O O1 0.064471 0.299666 0.577112
O O2 0.132602 0.346514 0.210883
O O3 0.985964 0.169332 0.501504
O O4 0.768045 0.454852 0.121052
O O5 0.416665 0.899056 0.640517
O O6 0.485764 0.011273 0.755890
O O7 0.244791 0.900627 0.916147
O O8 0.643775 0.736873 0.137100
O O9 0.499187 0.742202 0.602965
O O10 0.166994 0.994013 0.229460
O O11 0.750533 0.563719 0.655947
O O12 0.000000 0.500000 0.500000
O O13 0.000000 0.000000 0.500000
#
# Coordination Sequence:
#
# PCOD9094705 Si02
#       6
#     2   2   2   2   2   2
#     4   9  19  36  59  83 115 143 193 230 276 337
#     4  10  20  36  57  84 116 145 193 230 277 339
#     4  10  20  35  60  83 110 156 185 229 284 329
#     4  10  20  34  60  85 110 151 189 234 285 330
#     4   9  19  35  59  84 109 147 192 228 278 336
#     4  10  21  36  58  87 114 148 190 232 276 337
#
# _framework density 21.662749999999999
#
# number of rings (size 3 to 8) (size 9 to 14) (size 15 to 20)
#    1.000    1.333    1.667    1.000    0.000    3.333 
#    0.000    3.333    0.000    6.000    0.000    0.000 
#    0.000    0.000    0.000    0.000    0.000    0.000 
#
# Total GULP energy -66904.228811 kJ/mol
# GULP energy per Si atom -5575.352401 kJ/mol
# Density = 2.161344 g / cm^3
# Si number density = 21.662750 Si / 1000 Ang^3
#
#
#
# Elastic Constant Matrix: (Units=GPa)
#
#
# Indices 1 2 3 4 5 6 
#
# 1 86.6770 37.5459 46.3132 -4.8334 40.8598 -10.6365
# 2 37.5459 108.6951 21.5524 -17.8403 14.0565 1.8278
# 3 46.3132 21.5524 98.7242 -19.0251 39.6227 -4.4903
# 4 -4.8334 -17.8403 -19.0251 22.9356 -13.0025 7.1306
# 5 40.8598 14.0565 39.6227 -13.0025 31.6049 -12.0882
# 6 -10.6365 1.8278 -4.4903 7.1306 -12.0882 26.7157
#
#
#
# Elastic Compliance Matrix: (Units=1/GPa)
#
#
# Indices 1 2 3 4 5 6 
#
# 1 0.058248 -0.016667 0.005638 -0.049534 -0.097484 -0.005610
# 2 -0.016667 0.015807 -0.001021 0.022408 0.023836 -0.003084
# 3 0.005638 -0.001021 0.023787 0.000678 -0.041155 -0.012490
# 4 -0.049534 0.022408 0.000678 0.106908 0.094573 -0.006883
# 5 -0.097484 0.023836 -0.041155 0.094573 0.253713 0.042197
# 6 -0.005610 -0.003084 -0.012490 -0.006883 0.042197 0.054240
#
#
# Mechanical properties :
#
#
# Convention : Reuss Voigt Hill
#
# Bulk Modulus (GPa) = 13.56073 56.10213 34.83143
# Shear Modulus (GPa) = 8.90657 28.83026 18.86841
#
# Velocity S-wave (km/s) = 2.02988 3.65206 2.95449
# Velocity P-wave (km/s) = 3.43036 6.61344 5.26806
#
# Compressibility (1/GPa) = 0.07374233
#
# Stress axis : x y z
#
# Youngs Moduli (GPa) = 17.16786 63.26353 42.03952
#
# Poissons Ratio (x) = 1.05442 -0.23701
# Poissons Ratio (y) = 0.28614 0.04290
# Poissons Ratio (z) = -0.09679 0.06456
#
# Static dielectric constant tensor:
#      x y z
#    x 1.845030 -0.016260 0.019570 
#    y -0.016260 1.768250 0.014990 
#    z 0.019570 0.014990 1.805980 
# 
# From -- ./inp_files/199712.got.cif
#   From: 2010.05.17/outbox.cif.g08.bks.cpg/sg2_100_cif.got.tgz:199712.got - 2010.06.03 11:33:40.
