data_PCOD9094468
_publ_section_title
;
Structure prediction by ZEFSAII (Michael W. Deem and Ramdas Pophale) SiO2 
 PCOD9094468
Probable space group: P -1
;
_chemical_formula_sum "Si O2"
_cell_formula_units_Z 16
_cell_length_a 21.307744
_cell_length_b 10.557061
_cell_length_c 13.748989
_cell_angle_alpha 48.198620
_cell_angle_beta 32.177342
_cell_angle_gamma 27.404198
_cell_volume 711.180646
_symmetry_space_group_name_H-M "P -1"
_symmetry_group_IT_number 2
_symmetry_cell_setting 'triclinic'
loop_
_space_group_symop_operation_xyz
x,y,z
-x,-y,-z
loop_
_atom_site_type_symbol
_atom_site_label
_atom_site_fract_x
_atom_site_fract_y
_atom_site_fract_z
Si Si1 0.089088 0.172733 0.271157
Si Si2 0.094440 0.820060 0.673012
Si Si3 0.261453 0.177877 0.556319
Si Si4 0.711384 0.488056 0.840618
Si Si5 0.234160 0.186873 0.376160
Si Si6 0.116597 0.211748 0.934984
Si Si7 0.616458 0.281383 0.721416
Si Si8 0.569212 0.101293 0.163063
O O1 0.978114 0.201242 0.315818
O O2 0.917117 0.471971 0.402579
O O3 0.226644 0.899210 0.300992
O O4 0.247781 0.120537 0.042163
O O5 0.322892 0.620131 0.466806
O O6 0.944059 0.158419 0.702635
O O7 0.036373 0.766063 0.865866
O O8 0.262796 0.079526 0.502682
O O9 0.191495 0.170206 0.750660
O O10 0.468689 0.043969 0.359431
O O11 0.671679 0.733559 0.788187
O O12 0.602623 0.589514 0.826605
O O13 0.600238 0.504926 0.058254
O O14 0.000000 0.500000 0.500000
O O15 0.328163 0.947163 0.299288
O O16 0.320954 0.941489 0.868438
O O17 0.000000 0.500000 0.000000
#
# Coordination Sequence:
#
# PCOD9094468 Si02
#       8
#     2   2   2   2   2   2   2   2
#     4  10  20  34  57  87 122 147 188 241 297 348
#     4  11  22  37  57  89 124 149 197 241 298 354
#     4  11  20  38  59  86 117 156 199 240 281 349
#     4  10  22  38  61  94 119 145 197 245 301 346
#     4  11  20  38  65  86 117 155 199 241 294 350
#     4  11  22  40  57  84 123 161 198 231 291 358
#     4  11  21  37  59  88 118 155 189 246 296 339
#     4   9  20  35  58  85 116 150 192 237 291 347
#
# _framework density 22.497800000000002
#
# number of rings (size 3 to 8) (size 9 to 14) (size 15 to 20)
#    0.000    1.500    5.000    1.875    0.000    6.500 
#    2.250    0.625    0.000    0.750    0.000    0.000 
#    0.000    0.000    0.000    0.000    0.000    0.000 
#
# Total GULP energy -89350.217810 kJ/mol
# GULP energy per Si atom -5584.388613 kJ/mol
# Density = 2.244659 g / cm^3
# Si number density = 22.497800 Si / 1000 Ang^3
#
#
#
# Elastic Constant Matrix: (Units=GPa)
#
#
# Indices 1 2 3 4 5 6 
#
# 1 74.6175 12.7536 37.1989 -7.9504 11.6007 11.5243
# 2 12.7536 32.1718 18.3351 -7.3273 3.1261 13.9936
# 3 37.1989 18.3351 179.1447 -27.0244 8.2227 -4.4210
# 4 -7.9504 -7.3273 -27.0244 37.2586 -1.1975 0.8618
# 5 11.6007 3.1261 8.2227 -1.1975 27.8909 0.2977
# 6 11.5243 13.9936 -4.4210 0.8618 0.2977 20.1396
#
#
#
# Elastic Compliance Matrix: (Units=1/GPa)
#
#
# Indices 1 2 3 4 5 6 
#
# 1 0.017991 0.000988 -0.003612 0.001481 -0.006340 -0.011744
# 2 0.000988 0.052479 -0.005206 0.007515 -0.004025 -0.038434
# 3 -0.003612 -0.005206 0.007579 0.003534 -0.000074 0.007198
# 4 0.001481 0.007515 0.003534 0.031315 -0.001085 -0.006617
# 5 -0.006340 -0.004025 -0.000074 -0.001085 0.038854 0.005881
# 6 -0.011744 -0.038434 0.007198 -0.006617 0.005881 0.084855
#
#
# Mechanical properties :
#
#
# Convention : Reuss Voigt Hill
#
# Bulk Modulus (GPa) = 16.02871 46.94547 31.48709
# Shear Modulus (GPa) = 18.55080 31.56757 25.05918
#
# Velocity S-wave (km/s) = 2.87463 3.74992 3.34106
# Velocity P-wave (km/s) = 4.26122 6.29771 5.37676
#
# Compressibility (1/GPa) = 0.06238807
#
# Stress axis : x y z
#
# Youngs Moduli (GPa) = 55.58376 19.05527 131.94136
#
# Poissons Ratio (x) = -0.01883 0.47661
# Poissons Ratio (y) = -0.05494 0.68695
# Poissons Ratio (z) = 0.20079 0.09921
#
# Static dielectric constant tensor:
#      x y z
#    x 1.850560 -0.025240 -0.003010 
#    y -0.025240 1.897360 -0.047410 
#    z -0.003010 -0.047410 1.877250 
# 
# From -- ./inp_files/477706.got.cif
#   From: 2010.05.17/outbox.cif.g08.bks.cpg/sg2_239_cif.got.tgz:477706.got - 2010.06.03 11:33:40.
