data_PCOD9094546
_publ_section_title
;
Structure prediction by ZEFSAII (Michael W. Deem and Ramdas Pophale) SiO2 
 PCOD9094546
Probable space group: P -1
;
_chemical_formula_sum "Si O2"
_cell_formula_units_Z 12
_cell_length_a 7.146049
_cell_length_b 10.085778
_cell_length_c 10.647230
_cell_angle_alpha 52.482746
_cell_angle_beta 118.219754
_cell_angle_gamma 86.658523
_cell_volume 465.871694
_symmetry_space_group_name_H-M "P -1"
_symmetry_group_IT_number 2
_symmetry_cell_setting 'triclinic'
loop_
_space_group_symop_operation_xyz
x,y,z
-x,-y,-z
loop_
_atom_site_type_symbol
_atom_site_label
_atom_site_fract_x
_atom_site_fract_y
_atom_site_fract_z
Si Si1 0.716551 0.547382 0.010963
Si Si2 0.978938 0.840418 0.754399
Si Si3 0.881994 0.155789 0.715464
Si Si4 0.396414 0.868371 0.141999
Si Si5 0.641414 0.031477 0.312850
Si Si6 0.793915 0.510864 0.336313
O O1 0.876894 0.388257 0.051279
O O2 0.853119 0.508850 0.210511
O O3 0.500000 0.500000 0.000000
O O4 0.582329 0.772860 0.815498
O O5 0.170054 0.907672 0.724197
O O6 0.868875 0.973175 0.763213
O O7 0.782292 0.893982 0.552087
O O8 0.716571 0.225382 0.745846
O O9 0.787904 0.319164 0.485675
O O10 0.164468 0.060915 0.902788
O O11 0.550014 0.708648 0.179066
O O12 0.558782 0.929836 0.241744
O O13 0.000000 0.500000 0.500000
#
# Coordination Sequence:
#
# PCOD9094546 Si02
#       6
#     2   2   2   2   2   2
#     4  10  20  34  58  86 111 142 188 241 285 329
#     4  10  20  37  59  86 115 148 194 241 286 338
#     4  11  24  40  58  85 122 158 191 234 290 350
#     4  11  24  40  58  85 122 158 191 234 291 350
#     4  10  20  37  59  86 115 148 194 241 287 338
#     4  12  23  38  63  88 113 151 198 244 287 338
#
# _framework density 25.758164000000001
#
# number of rings (size 3 to 8) (size 9 to 14) (size 15 to 20)
#    0.000    1.333    0.000    8.500    0.000    2.667 
#    0.000    0.833    0.000    0.000    0.000    3.500 
#    0.000    0.000    0.000    0.000    0.000    0.000 
#
# Total GULP energy -67264.579186 kJ/mol
# GULP energy per Si atom -5605.381599 kJ/mol
# Density = 2.569954 g / cm^3
# Si number density = 25.758164 Si / 1000 Ang^3
#
#
#
# Elastic Constant Matrix: (Units=GPa)
#
#
# Indices 1 2 3 4 5 6 
#
# 1 51.1138 10.9719 8.6125 -11.1941 -2.3251 -0.1890
# 2 10.9719 136.8917 31.8913 -7.4492 18.9794 -3.6536
# 3 8.6125 31.8913 100.3493 -2.2332 14.4285 11.5490
# 4 -11.1941 -7.4492 -2.2332 58.0734 2.5904 10.7677
# 5 -2.3251 18.9794 14.4285 2.5904 16.9898 3.1088
# 6 -0.1890 -3.6536 11.5490 10.7677 3.1088 41.9647
#
#
#
# Elastic Compliance Matrix: (Units=1/GPa)
#
#
# Indices 1 2 3 4 5 6 
#
# 1 0.021411 -0.001977 -0.001936 0.003693 0.006396 -0.000964
# 2 -0.001977 0.009271 -0.001554 0.000863 -0.009755 0.001727
# 3 -0.001936 -0.001554 0.012218 0.000849 -0.008468 -0.003097
# 4 0.003693 0.000863 0.000849 0.019109 -0.003214 -0.004807
# 5 0.006396 -0.009755 -0.008468 -0.003214 0.078956 -0.003515
# 6 -0.000964 0.001727 -0.003097 -0.004807 -0.003515 0.026322
#
#
# Mechanical properties :
#
#
# Convention : Reuss Voigt Hill
#
# Bulk Modulus (GPa) = 31.28161 43.47848 37.38004
# Shear Modulus (GPa) = 26.47248 39.19751 32.83500
#
# Velocity S-wave (km/s) = 3.20930 3.90519 3.57423
# Velocity P-wave (km/s) = 5.08955 6.10329 5.61933
#
# Compressibility (1/GPa) = 0.03196767
#
# Stress axis : x y z
#
# Youngs Moduli (GPa) = 46.70563 107.86288 81.84651
#
# Poissons Ratio (x) = 0.21320 0.15844
# Poissons Ratio (y) = 0.09232 0.12716
# Poissons Ratio (z) = 0.09041 0.16758
#
# Static dielectric constant tensor:
#      x y z
#    x 2.076570 0.037370 0.023390 
#    y 0.037370 1.982770 -0.002950 
#    z 0.023390 -0.002950 1.978880 
# 
# From -- ./inp_files/164557.got.cif
#   From: 2010.05.17/outbox.cif.g08.bks.cpg/sg2_83_cif.got.tgz:164557.got - 2010.06.03 11:33:40.
