data_PCOD9094574
_publ_section_title
;
Structure prediction by ZEFSAII (Michael W. Deem and Ramdas Pophale) SiO2 
 PCOD9094574
Probable space group: P -1
;
_chemical_formula_sum "Si O2"
_cell_formula_units_Z 14
_cell_length_a 13.861026
_cell_length_b 11.773383
_cell_length_c 5.676651
_cell_angle_alpha 70.211429
_cell_angle_beta 51.742073
_cell_angle_gamma 55.455590
_cell_volume 599.054904
_symmetry_space_group_name_H-M "P -1"
_symmetry_group_IT_number 2
_symmetry_cell_setting 'triclinic'
loop_
_space_group_symop_operation_xyz
x,y,z
-x,-y,-z
loop_
_atom_site_type_symbol
_atom_site_label
_atom_site_fract_x
_atom_site_fract_y
_atom_site_fract_z
Si Si1 0.153844 0.865834 0.349829
Si Si2 0.273674 0.564749 0.389535
Si Si3 0.162499 0.956253 0.770477
Si Si4 0.336993 0.301660 0.730638
Si Si5 0.478858 0.875525 0.809917
Si Si6 0.721982 0.875206 0.765658
Si Si7 0.485181 0.390361 0.827176
O O1 0.151082 0.721291 0.443359
O O2 0.216199 0.863254 0.519357
O O3 0.218348 0.885712 0.990123
O O4 0.000000 0.000000 0.500000
O O5 0.254489 0.437212 0.598217
O O6 0.389921 0.573236 0.378636
O O7 0.349808 0.519167 0.054202
O O8 0.186635 0.085076 0.574874
O O9 0.000000 0.000000 0.000000
O O10 0.448513 0.159714 0.530614
O O11 0.437182 0.335873 0.716959
O O12 0.231933 0.266185 0.062646
O O13 0.597987 0.879124 0.791774
O O14 0.473868 0.734739 0.964269
O O15 0.339450 0.006094 0.023811
#
# Coordination Sequence:
#
# PCOD9094574 Si02
#       7
#     2   2   2   2   2   2   2
#     4  10  23  43  67  94 120 160 219 277 320 366
#     4  10  20  36  58  89 127 170 207 261 318 386
#     4  10  23  43  67  94 120 160 219 277 320 366
#     4  10  20  34  58  88 134 168 208 250 322 396
#     4   9  19  35  52  91 127 171 208 248 315 393
#     4  10  20  36  58  89 127 170 207 261 318 386
#     4   9  19  35  52  91 127 171 208 248 315 393
#
# _framework density 23.370142999999999
#
# number of rings (size 3 to 8) (size 9 to 14) (size 15 to 20)
#    0.000    2.286    0.000    1.714    4.000    0.000 
#   25.714    0.000    0.000    6.857    0.000    0.000 
#    0.000    0.000    0.000    0.000    0.000    0.000 
#
# Total GULP energy -77976.585007 kJ/mol
# GULP energy per Si atom -5569.756072 kJ/mol
# Density = 2.331695 g / cm^3
# Si number density = 23.370143 Si / 1000 Ang^3
#
#
#
# Elastic Constant Matrix: (Units=GPa)
#
#
# Indices 1 2 3 4 5 6 
#
# 1 61.0533 20.9409 22.5776 5.1292 24.1120 18.8819
# 2 20.9409 124.5987 56.5774 -10.9408 3.8512 3.7234
# 3 22.5776 56.5774 141.7520 -35.3390 10.0692 5.4540
# 4 5.1292 -10.9408 -35.3390 54.2142 15.5923 4.9790
# 5 24.1120 3.8512 10.0692 15.5923 44.2152 3.6671
# 6 18.8819 3.7234 5.4540 4.9790 3.6671 33.0970
#
#
#
# Elastic Compliance Matrix: (Units=1/GPa)
#
#
# Indices 1 2 3 4 5 6 
#
# 1 0.027502 -0.003063 -0.001395 0.001059 -0.013645 -0.013763
# 2 -0.003063 0.010174 -0.003982 -0.000912 0.001914 0.001184
# 3 -0.001395 -0.003982 0.011187 0.007930 -0.004126 -0.001336
# 4 0.001059 -0.000912 0.007930 0.027050 -0.011461 -0.004608
# 5 -0.013645 0.001914 -0.004126 -0.011461 0.034361 0.006166
# 6 -0.013763 0.001184 -0.001336 -0.004608 0.006166 0.038163
#
#
# Mechanical properties :
#
#
# Convention : Reuss Voigt Hill
#
# Bulk Modulus (GPa) = 31.26530 58.62174 44.94352
# Shear Modulus (GPa) = 28.41273 41.45917 34.93595
#
# Velocity S-wave (km/s) = 3.49057 4.21648 3.87058
# Velocity P-wave (km/s) = 5.44544 6.98881 6.26483
#
# Compressibility (1/GPa) = 0.03198434
#
# Stress axis : x y z
#
# Youngs Moduli (GPa) = 36.36095 98.29078 89.38567
#
# Poissons Ratio (x) = 0.30103 0.12471
# Poissons Ratio (y) = 0.11136 0.35591
# Poissons Ratio (z) = 0.05073 0.39137
#
# Static dielectric constant tensor:
#      x y z
#    x 2.018080 -0.121660 0.003360 
#    y -0.121660 1.999910 -0.034740 
#    z 0.003360 -0.034740 2.029510 
# 
# From -- ./inp_files/93312.got.cif
#   From: 2010.05.17/outbox.cif.g08.bks.cpg/sg2_47_cif.got.tgz:93312.got - 2010.06.03 11:33:40.
