data_PCOD9094290
_publ_section_title
;
Structure prediction by ZEFSAII (Michael W. Deem and Ramdas Pophale) SiO2 
 PCOD9094290
Probable space group: P -1
;
_chemical_formula_sum "Si O2"
_cell_formula_units_Z 12
_cell_length_a 12.815312
_cell_length_b 10.964322
_cell_length_c 13.818856
_cell_angle_alpha 30.378322
_cell_angle_beta 30.122495
_cell_angle_gamma 46.726444
_cell_volume 478.473016
_symmetry_space_group_name_H-M "P -1"
_symmetry_group_IT_number 2
_symmetry_cell_setting 'triclinic'
loop_
_space_group_symop_operation_xyz
x,y,z
-x,-y,-z
loop_
_atom_site_type_symbol
_atom_site_label
_atom_site_fract_x
_atom_site_fract_y
_atom_site_fract_z
Si Si1 0.428974 0.164224 0.681853
Si Si2 0.836798 0.739730 0.778422
Si Si3 0.699033 0.866712 0.990018
Si Si4 0.825850 0.447796 0.455872
Si Si5 0.820856 0.990897 0.425054
Si Si6 0.994429 0.184837 0.788013
O O1 0.312758 0.369092 0.595132
O O2 0.643402 0.147763 0.466565
O O3 0.462988 0.206260 0.740972
O O4 0.249579 0.903693 0.992274
O O5 0.753486 0.794913 0.702209
O O6 0.977234 0.542390 0.783056
O O7 0.679377 0.707880 0.016536
O O8 0.000000 0.000000 0.500000
O O9 0.716551 0.155884 0.753021
O O10 0.935308 0.862479 0.845606
O O11 0.927998 0.546362 0.410198
O O12 0.846375 0.864839 0.388862
O O13 0.000000 0.000000 0.000000
#
# Coordination Sequence:
#
# PCOD9094290 Si02
#       6
#     2   2   2   2   2   2
#     4  10  20  34  56  81 104 137 177 214 257 311
#     4   8  17  35  54  73 106 140 169 216 263 303
#     4   9  20  39  54  74 110 140 170 217 264 305
#     4   9  18  35  55  75 105 143 173 211 263 309
#     4   9  18  34  54  77 107 136 172 220 257 302
#     4   9  19  34  52  77 110 138 169 215 263 309
#
# _framework density 25.079782999999999
#
# number of rings (size 3 to 8) (size 9 to 14) (size 15 to 20)
#    0.000    3.333    0.000    0.000    0.000   10.000 
#    0.000   26.667    0.000    0.000    0.000    0.000 
#    0.000    0.000    0.000    0.000    0.000    0.000 
#
# Total GULP energy -67091.057435 kJ/mol
# GULP energy per Si atom -5590.921453 kJ/mol
# Density = 2.502270 g / cm^3
# Si number density = 25.079783 Si / 1000 Ang^3
#
#
#
# Elastic Constant Matrix: (Units=GPa)
#
#
# Indices 1 2 3 4 5 6 
#
# 1 102.2588 76.3661 35.0275 12.8641 23.7177 21.3595
# 2 76.3661 231.2329 62.8953 40.0306 10.6100 3.1172
# 3 35.0275 62.8953 83.0848 7.6156 0.1505 17.8636
# 4 12.8641 40.0306 7.6156 50.7178 2.5334 12.6563
# 5 23.7177 10.6100 0.1505 2.5334 21.4195 10.1697
# 6 21.3595 3.1172 17.8636 12.6563 10.1697 61.8718
#
#
#
# Elastic Compliance Matrix: (Units=1/GPa)
#
#
# Indices 1 2 3 4 5 6 
#
# 1 0.019076 -0.004438 -0.004213 0.000780 -0.017862 -0.002369
# 2 -0.004438 0.007827 -0.004313 -0.005268 0.000051 0.003452
# 3 -0.004213 -0.004313 0.018008 0.002707 0.008994 -0.005560
# 4 0.000780 -0.005268 0.002707 0.024713 0.001710 -0.006122
# 5 -0.017862 0.000051 0.008994 0.001710 0.070118 -0.008308
# 6 -0.002369 0.003452 -0.005560 -0.006122 -0.008308 0.021029
#
#
# Mechanical properties :
#
#
# Convention : Reuss Voigt Hill
#
# Bulk Modulus (GPa) = 52.67800 85.01712 68.84756
# Shear Modulus (GPa) = 25.90334 42.95433 34.42884
#
# Velocity S-wave (km/s) = 3.21727 4.14298 3.70911
# Velocity P-wave (km/s) = 5.90346 7.54042 6.77159
#
# Compressibility (1/GPa) = 0.01898326
#
# Stress axis : x y z
#
# Youngs Moduli (GPa) = 52.42303 127.77097 55.53095
#
# Poissons Ratio (x) = 0.56699 0.23393
# Poissons Ratio (y) = 0.23263 0.23952
# Poissons Ratio (z) = 0.22084 0.55112
#
# Static dielectric constant tensor:
#      x y z
#    x 2.109170 -0.024480 -0.028160 
#    y -0.024480 1.982470 -0.007170 
#    z -0.028160 -0.007170 2.089430 
# 
# From -- ./inp_files/530834.got.cif
#   From: 2010.05.17/outbox.cif.g08.bks.cpg/sg2_266_cif.got.tgz:530834.got - 2010.06.03 11:33:40.
