data_PCOD9094610
_publ_section_title
;
Structure prediction by ZEFSAII (Michael W. Deem and Ramdas Pophale) SiO2 
 PCOD9094610
Probable space group: P -1
;
_chemical_formula_sum "Si O2"
_cell_formula_units_Z 14
_cell_length_a 12.306504
_cell_length_b 14.008263
_cell_length_c 10.667311
_cell_angle_alpha 137.140896
_cell_angle_beta 65.055963
_cell_angle_gamma 146.853418
_cell_volume 585.750016
_symmetry_space_group_name_H-M "P -1"
_symmetry_group_IT_number 2
_symmetry_cell_setting 'triclinic'
loop_
_space_group_symop_operation_xyz
x,y,z
-x,-y,-z
loop_
_atom_site_type_symbol
_atom_site_label
_atom_site_fract_x
_atom_site_fract_y
_atom_site_fract_z
Si Si1 0.303094 0.204520 0.978573
Si Si2 0.819326 0.239413 0.428273
Si Si3 0.811233 0.015035 0.635533
Si Si4 0.792016 0.434577 0.285044
Si Si5 0.589203 0.074909 0.823497
Si Si6 0.645111 0.565621 0.596891
Si Si7 0.177004 0.210520 0.783937
O O1 0.218831 0.211607 0.907997
O O2 0.210540 0.953704 0.779154
O O3 0.241036 0.214055 0.149482
O O4 0.583535 0.486327 0.096286
O O5 0.000000 0.500000 0.500000
O O6 0.956005 0.377980 0.626834
O O7 0.565513 0.049014 0.343006
O O8 0.544485 0.705065 0.488730
O O9 0.876968 0.987176 0.456949
O O10 0.786216 0.156449 0.782825
O O11 0.972933 0.116131 0.764418
O O12 0.790427 0.593349 0.483217
O O13 0.601333 0.172424 0.219351
O O14 0.703544 0.320637 0.077767
O O15 0.500000 0.500000 0.500000
#
# Coordination Sequence:
#
# PCOD9094610 Si02
#       7
#     2   2   2   2   2   2   2
#     4  10  21  39  61  92 124 159 208 263 301 367
#     4  10  21  38  60  86 125 164 200 251 312 374
#     4   9  19  39  64  86 120 165 208 257 310 365
#     4   9  19  35  54  87 124 161 195 243 313 371
#     4   9  18  38  57  85 122 163 202 247 304 377
#     4  10  20  34  58  96 125 154 201 258 318 375
#     4   9  20  41  63  89 120 163 214 256 302 362
#
# _framework density 23.900980000000001
#
# number of rings (size 3 to 8) (size 9 to 14) (size 15 to 20)
#    0.000    2.571    0.000    0.857    2.000    1.714 
#   23.143    1.429    0.000    0.000    0.000    0.000 
#    0.000    0.000    0.000    0.000    0.000    0.000 
#
# Total GULP energy -78210.832169 kJ/mol
# GULP energy per Si atom -5586.488012 kJ/mol
# Density = 2.384658 g / cm^3
# Si number density = 23.900980 Si / 1000 Ang^3
#
#
#
# Elastic Constant Matrix: (Units=GPa)
#
#
# Indices 1 2 3 4 5 6 
#
# 1 149.6731 21.1226 55.1535 -11.3952 17.2292 28.4271
# 2 21.1226 82.6926 27.3126 12.8848 -7.5437 2.0520
# 3 55.1535 27.3126 106.4879 3.8864 1.6603 3.9849
# 4 -11.3952 12.8848 3.8864 25.9273 -6.0862 5.7268
# 5 17.2292 -7.5437 1.6603 -6.0862 42.1712 7.4985
# 6 28.4271 2.0520 3.9849 5.7268 7.4985 33.2773
#
#
#
# Elastic Compliance Matrix: (Units=1/GPa)
#
#
# Indices 1 2 3 4 5 6 
#
# 1 0.012006 -0.002625 -0.005457 0.009287 -0.001934 -0.010603
# 2 -0.002625 0.014952 -0.002302 -0.008282 0.002193 0.002527
# 3 -0.005457 -0.002302 0.012807 -0.004043 0.000026 0.003960
# 4 0.009287 -0.008282 -0.004043 0.052470 0.005516 -0.017211
# 5 -0.001934 0.002193 0.000026 0.005516 0.026658 -0.005442
# 6 -0.010603 0.002527 0.003960 -0.017211 -0.005442 0.042667
#
#
# Mechanical properties :
#
#
# Convention : Reuss Voigt Hill
#
# Bulk Modulus (GPa) = 52.64095 60.67012 56.65554
# Shear Modulus (GPa) = 26.50290 35.95948 31.23119
#
# Velocity S-wave (km/s) = 3.33357 3.88302 3.61874
# Velocity P-wave (km/s) = 6.07366 6.74854 6.41998
#
# Compressibility (1/GPa) = 0.01899662
#
# Stress axis : x y z
#
# Youngs Moduli (GPa) = 83.29057 66.88261 78.08514
#
# Poissons Ratio (x) = 0.17555 0.42612
# Poissons Ratio (y) = 0.21862 0.17975
# Poissons Ratio (z) = 0.45453 0.15396
#
# Static dielectric constant tensor:
#      x y z
#    x 1.923610 0.012330 0.022100 
#    y 0.012330 1.947510 0.061020 
#    z 0.022100 0.061020 1.934240 
# 
# From -- ./inp_files/433329.got.cif
#   From: 2010.05.17/outbox.cif.g08.bks.cpg/sg2_217_cif.got.tgz:433329.got - 2010.06.03 11:33:40.
