data_PCOD9094837
_publ_section_title
;
Structure prediction by ZEFSAII (Michael W. Deem and Ramdas Pophale) SiO2 
 PCOD9094837
Probable space group: P -1
;
_chemical_formula_sum "Si O2"
_cell_formula_units_Z 10
_cell_length_a 7.753874
_cell_length_b 7.206750
_cell_length_c 14.346461
_cell_angle_alpha 119.076783
_cell_angle_beta 48.205830
_cell_angle_gamma 139.978418
_cell_volume 383.862525
_symmetry_space_group_name_H-M "P -1"
_symmetry_group_IT_number 2
_symmetry_cell_setting 'triclinic'
loop_
_space_group_symop_operation_xyz
x,y,z
-x,-y,-z
loop_
_atom_site_type_symbol
_atom_site_label
_atom_site_fract_x
_atom_site_fract_y
_atom_site_fract_z
Si Si1 0.578845 0.578209 0.783895
Si Si2 0.712674 0.440830 0.950866
Si Si3 0.260034 0.329893 0.461164
Si Si4 0.393337 0.024371 0.806202
Si Si5 0.236320 0.774307 0.613272
O O1 0.572620 0.603606 0.681968
O O2 0.398920 0.253526 0.804313
O O3 0.944901 0.755449 0.716965
O O4 0.433144 0.675620 0.922322
O O5 0.653573 0.218833 0.841367
O O6 0.500000 0.500000 0.000000
O O7 0.063769 0.750923 0.904638
O O8 0.500000 0.500000 0.500000
O O9 0.103566 0.467023 0.551446
O O10 0.000000 0.000000 0.500000
O O11 0.397951 0.867187 0.679099
O O12 0.500000 0.000000 0.500000
#
# Coordination Sequence:
#
# PCOD9094837 Si02
#       5
#     2   2   2   2   2
#     4  11  23  41  70  97 130 167 223 271 312 389
#     4  10  20  34  62 105 125 157 207 284 325 362
#     4  12  29  44  62  94 138 179 212 264 335 389
#     4  11  21  36  66 103 127 156 215 282 319 369
#     4  12  24  41  71  98 131 171 226 272 319 379
#
# _framework density 26.050991
#
# number of rings (size 3 to 8) (size 9 to 14) (size 15 to 20)
#    0.000    0.800    6.000    4.200    2.800    0.000 
#    0.000    0.000    0.000    7.200    0.000    0.000 
#    0.000    0.000    0.000    0.000    0.000    0.000 
#
# Total GULP energy -55983.815786 kJ/mol
# GULP energy per Si atom -5598.381579 kJ/mol
# Density = 2.599170 g / cm^3
# Si number density = 26.050991 Si / 1000 Ang^3
#
#
#
# Elastic Constant Matrix: (Units=GPa)
#
#
# Indices 1 2 3 4 5 6 
#
# 1 81.9555 45.6001 45.3036 -5.2821 32.6698 14.3479
# 2 45.6001 202.2636 80.2198 -9.2813 24.6952 13.4719
# 3 45.3036 80.2198 227.4684 -5.0590 58.2513 5.2843
# 4 -5.2821 -9.2813 -5.0590 50.0028 13.4268 -2.5036
# 5 32.6698 24.6952 58.2513 13.4268 47.0631 1.5345
# 6 14.3479 13.4719 5.2843 -2.5036 1.5345 41.2040
#
#
#
# Elastic Compliance Matrix: (Units=1/GPa)
#
#
# Indices 1 2 3 4 5 6 
#
# 1 0.020667 -0.002519 0.001089 0.005802 -0.015846 -0.005570
# 2 -0.002519 0.006245 -0.001828 0.000495 0.000623 -0.000923
# 3 0.001089 -0.001828 0.007433 0.003177 -0.009898 -0.000173
# 4 0.005802 0.000495 0.003177 0.025128 -0.015372 -0.000490
# 5 -0.015846 0.000623 -0.009898 -0.015372 0.048431 0.003846
# 6 -0.005570 -0.000923 -0.000173 -0.000490 0.003846 0.026360
#
#
# Mechanical properties :
#
#
# Convention : Reuss Voigt Hill
#
# Bulk Modulus (GPa) = 35.93428 94.88161 65.40794
# Shear Modulus (GPa) = 33.32035 50.35826 41.83930
#
# Velocity S-wave (km/s) = 3.58025 4.40143 4.01191
# Velocity P-wave (km/s) = 5.56010 7.89498 6.82808
#
# Compressibility (1/GPa) = 0.02782858
#
# Stress axis : x y z
#
# Youngs Moduli (GPa) = 48.38562 160.12718 134.52912
#
# Poissons Ratio (x) = 0.40340 -0.14644
# Poissons Ratio (y) = 0.12190 0.24589
# Poissons Ratio (z) = -0.05267 0.29268
#
# Static dielectric constant tensor:
#      x y z
#    x 2.172480 -0.039260 -0.107500 
#    y -0.039260 2.018780 0.109630 
#    z -0.107500 0.109630 2.202180 
# 
# From -- ./inp_files/359912.got.cif
#   From: 2010.05.17/outbox.cif.g08.bks.cpg/sg2_180_cif.got.tgz:359912.got - 2010.06.03 11:33:40.
