data_PCOD9094220
_publ_section_title
;
Structure prediction by ZEFSAII (Michael W. Deem and Ramdas Pophale) SiO2 
 PCOD9094220
Probable space group: P -1
;
_chemical_formula_sum "Si O2"
_cell_formula_units_Z 16
_cell_length_a 9.631774
_cell_length_b 5.596301
_cell_length_c 21.584733
_cell_angle_alpha 52.972110
_cell_angle_beta 48.212959
_cell_angle_gamma 51.393031
_cell_volume 642.283373
_symmetry_space_group_name_H-M "P -1"
_symmetry_group_IT_number 2
_symmetry_cell_setting 'triclinic'
loop_
_space_group_symop_operation_xyz
x,y,z
-x,-y,-z
loop_
_atom_site_type_symbol
_atom_site_label
_atom_site_fract_x
_atom_site_fract_y
_atom_site_fract_z
Si Si1 0.093183 0.268952 0.429683
Si Si2 0.635538 0.891071 0.187780
Si Si3 0.869170 0.401414 0.755153
Si Si4 0.536656 0.522716 0.176959
Si Si5 0.270841 0.708592 0.013974
Si Si6 0.085413 0.722663 0.728417
Si Si7 0.278755 0.070847 0.528788
Si Si8 0.267311 0.197073 0.019454
O O1 0.161617 0.345881 0.331537
O O2 0.272416 0.129608 0.447711
O O3 0.905625 0.598115 0.450112
O O4 0.000000 0.000000 0.500000
O O5 0.480930 0.765918 0.214409
O O6 0.776186 0.552506 0.225326
O O7 0.593795 0.138672 0.219796
O O8 0.711795 0.081375 0.083241
O O9 0.652880 0.378641 0.828336
O O10 0.936710 0.570583 0.764690
O O11 0.004385 0.051464 0.741921
O O12 0.711670 0.599983 0.078331
O O13 0.175985 0.455167 0.059795
O O14 0.168321 0.957064 0.060495
O O15 0.500000 0.500000 0.000000
O O16 0.206094 0.799489 0.622195
O O17 0.500000 0.000000 0.500000
O O18 0.500000 0.000000 0.000000
#
# Coordination Sequence:
#
# PCOD9094220 Si02
#       8
#     2   2   2   2   2   2   2   2
#     4  10  21  41  58  81 115 153 197 240 296 342
#     4  10  20  34  55  85 111 139 191 236 274 336
#     4  11  23  39  58  79 118 154 185 235 292 350
#     4  10  20  34  56  85 107 147 190 229 282 333
#     4   8  14  26  46  75 104 134 170 225 276 314
#     4  11  23  40  55  83 117 151 186 235 298 338
#     4  10  23  39  60  84 112 155 199 243 290 350
#     4   8  14  26  46  76 105 130 173 229 269 315
#
# _framework density 24.911121999999999
#
# number of rings (size 3 to 8) (size 9 to 14) (size 15 to 20)
#    0.000    2.250    1.250    1.500    1.750    1.500 
#    0.000    0.000    0.000    0.000    0.000   84.000 
#    0.000    0.000    0.000    0.000    0.000    0.000 
#
# Total GULP energy -89218.329701 kJ/mol
# GULP energy per Si atom -5576.145606 kJ/mol
# Density = 2.485442 g / cm^3
# Si number density = 24.911122 Si / 1000 Ang^3
#
#
#
# Elastic Constant Matrix: (Units=GPa)
#
#
# Indices 1 2 3 4 5 6 
#
# 1 140.7276 49.4662 22.9807 -12.6637 1.7939 25.0914
# 2 49.4662 97.6265 37.1786 -30.7080 -1.6285 32.8960
# 3 22.9807 37.1786 104.7545 -28.5664 3.6079 -5.3704
# 4 -12.6637 -30.7080 -28.5664 37.1769 -3.1264 3.7615
# 5 1.7939 -1.6285 3.6079 -3.1264 37.7363 -14.3567
# 6 25.0914 32.8960 -5.3704 3.7615 -14.3567 64.5998
#
#
#
# Elastic Compliance Matrix: (Units=1/GPa)
#
#
# Indices 1 2 3 4 5 6 
#
# 1 0.008853 -0.003791 -0.000831 -0.000675 -0.001252 -0.001816
# 2 -0.003791 0.022030 -0.003322 0.015361 -0.001564 -0.011264
# 3 -0.000831 -0.003322 0.012833 0.006577 0.000263 0.002757
# 4 -0.000675 0.015361 0.006577 0.045398 0.000168 -0.009619
# 5 -0.001252 -0.001564 0.000263 0.000168 0.029464 0.007843
# 6 -0.001816 -0.011264 0.002757 -0.009619 0.007843 0.024454
#
#
# Mechanical properties :
#
#
# Convention : Reuss Voigt Hill
#
# Bulk Modulus (GPa) = 35.93278 62.48440 49.20859
# Shear Modulus (GPa) = 29.72724 43.46815 36.59770
#
# Velocity S-wave (km/s) = 3.45821 4.18177 3.83708
# Velocity P-wave (km/s) = 5.51374 6.96086 6.27913
#
# Compressibility (1/GPa) = 0.02782975
#
# Stress axis : x y z
#
# Youngs Moduli (GPa) = 112.95530 45.39253 77.92249
#
# Poissons Ratio (x) = 0.17206 0.06475
# Poissons Ratio (y) = 0.42816 0.25884
# Poissons Ratio (z) = 0.09387 0.15078
#
# Static dielectric constant tensor:
#      x y z
#    x 2.013010 0.075610 0.012670 
#    y 0.075610 2.126110 0.015030 
#    z 0.012670 0.015030 1.932160 
# 
# From -- ./inp_files/10611.got.cif
#   From: 2010.05.17/outbox.cif.g08.bks.cpg/sg2_6_cif.got.tgz:10611.got - 2010.06.03 11:33:40.
