data_PCOD9094833
_publ_section_title
;
Structure prediction by ZEFSAII (Michael W. Deem and Ramdas Pophale) SiO2 
 PCOD9094833
Probable space group: P -1
;
_chemical_formula_sum "Si O2"
_cell_formula_units_Z 15
_cell_length_a 10.552230
_cell_length_b 9.927258
_cell_length_c 8.218609
_cell_angle_alpha 46.232063
_cell_angle_beta 92.678689
_cell_angle_gamma 107.945557
_cell_volume 573.865812
_symmetry_space_group_name_H-M "P -1"
_symmetry_group_IT_number 2
_symmetry_cell_setting 'triclinic'
loop_
_space_group_symop_operation_xyz
x,y,z
-x,-y,-z
loop_
_atom_site_type_symbol
_atom_site_label
_atom_site_fract_x
_atom_site_fract_y
_atom_site_fract_z
Si Si1 0.757807 0.303644 0.743933
Si Si2 0.797625 0.767160 0.163629
Si Si3 0.457357 0.993970 0.250153
Si Si4 0.371729 0.610686 0.738117
Si Si5 0.939480 0.180547 0.651583
Si Si6 0.000000 0.000000 0.500000
Si Si7 0.756475 0.007094 0.239781
Si Si8 0.399694 0.549163 0.144891
O O1 0.618976 0.130574 0.808695
O O2 0.862774 0.322782 0.586890
O O3 0.699039 0.450382 0.712750
O O4 0.824173 0.212976 0.966082
O O5 0.717489 0.552692 0.259699
O O6 0.719742 0.834589 0.243340
O O7 0.932614 0.774785 0.258817
O O8 0.842830 0.945324 0.882346
O O9 0.376745 0.833712 0.518626
O O10 0.612535 0.015558 0.269452
O O11 0.476399 0.226621 0.046331
O O12 0.324605 0.532212 0.981770
O O13 0.523787 0.605278 0.725124
O O14 0.980122 0.172313 0.475664
O O15 0.862100 0.986405 0.393649
#
# Coordination Sequence:
#
# PCOD9094833 Si02
#       8
#     2   2   2   2   2   1   2   2
#     4  10  20  38  62  87 125 171 208 255 322 377
#     4   9  18  37  59  87 123 165 211 252 308 378
#     4  11  22  39  65  93 128 169 209 261 318 373
#     4  11  23  38  63  95 127 168 217 259 309 377
#     4   9  19  37  63  88 122 167 207 259 318 372
#     4  10  20  34  62 100 122 158 222 262 306 388
#     4   9  19  36  61  93 127 164 208 257 315 374
#     4  10  22  39  58  93 133 165 205 263 319 370
#
# _framework density 26.138514000000001
#
# number of rings (size 3 to 8) (size 9 to 14) (size 15 to 20)
#    0.000    2.133    0.000    5.200    0.000    7.467 
#    0.000    2.667    0.000    1.600    0.000    0.000 
#    0.000    0.000    0.000    0.000    0.000    0.000 
#
# Total GULP energy -83569.330023 kJ/mol
# GULP energy per Si atom -5571.288668 kJ/mol
# Density = 2.607902 g / cm^3
# Si number density = 26.138514 Si / 1000 Ang^3
#
#
#
# Elastic Constant Matrix: (Units=GPa)
#
#
# Indices 1 2 3 4 5 6 
#
# 1 92.3467 26.1737 4.7700 21.7935 11.7679 -10.7693
# 2 26.1737 123.5654 15.3992 23.1857 0.7049 -7.8709
# 3 4.7700 15.3992 75.3679 -13.2307 19.6907 -2.5929
# 4 21.7935 23.1857 -13.2307 40.4030 5.4091 10.2314
# 5 11.7679 0.7049 19.6907 5.4091 27.4631 3.1283
# 6 -10.7693 -7.8709 -2.5929 10.2314 3.1283 48.8009
#
#
#
# Elastic Compliance Matrix: (Units=1/GPa)
#
#
# Indices 1 2 3 4 5 6 
#
# 1 0.014180 -0.001107 -0.000694 -0.007860 -0.004555 0.004854
# 2 -0.001107 0.010649 -0.004800 -0.008430 0.004999 0.002665
# 3 -0.000694 -0.004800 0.020852 0.012561 -0.016848 -0.001373
# 4 -0.007860 -0.008430 0.012561 0.042277 -0.012554 -0.010486
# 5 -0.004555 0.004999 -0.016848 -0.012554 0.053000 -0.001859
# 6 0.004854 0.002665 -0.001373 -0.010486 -0.001859 0.024237
#
#
# Mechanical properties :
#
#
# Convention : Reuss Voigt Hill
#
# Bulk Modulus (GPa) = 30.78959 42.66287 36.72623
# Shear Modulus (GPa) = 26.42392 39.66255 33.04323
#
# Velocity S-wave (km/s) = 3.18294 3.89961 3.55936
# Velocity P-wave (km/s) = 5.03122 6.05253 5.56535
#
# Compressibility (1/GPa) = 0.03247851
#
# Stress axis : x y z
#
# Youngs Moduli (GPa) = 70.52326 93.90984 47.95629
#
# Poissons Ratio (x) = 0.10397 0.03328
# Poissons Ratio (y) = 0.07808 0.23018
# Poissons Ratio (z) = 0.04895 0.45075
#
# Static dielectric constant tensor:
#      x y z
#    x 2.020550 -0.042710 0.044970 
#    y -0.042710 1.986220 0.123870 
#    z 0.044970 0.123870 1.894230 
# 
# From -- ./inp_files/236845.got.cif
#   From: 2010.05.17/outbox.cif.g08.bks.cpg/sg2_119_cif.got.tgz:236845.got - 2010.06.03 11:33:40.
