data_PCOD9094158
_publ_section_title
;
Structure prediction by ZEFSAII (Michael W. Deem and Ramdas Pophale) SiO2 
 PCOD9094158
Probable space group: P -1
;
_chemical_formula_sum "Si O2"
_cell_formula_units_Z 16
_cell_length_a 14.245238
_cell_length_b 10.929412
_cell_length_c 11.531307
_cell_angle_alpha 25.179134
_cell_angle_beta 80.292747
_cell_angle_gamma 82.363824
_cell_volume 752.055595
_symmetry_space_group_name_H-M "P -1"
_symmetry_group_IT_number 2
_symmetry_cell_setting 'triclinic'
loop_
_space_group_symop_operation_xyz
x,y,z
-x,-y,-z
loop_
_atom_site_type_symbol
_atom_site_label
_atom_site_fract_x
_atom_site_fract_y
_atom_site_fract_z
Si Si1 0.179513 0.677150 0.510841
Si Si2 0.804745 0.872722 0.415310
Si Si3 0.099700 0.288360 0.039405
Si Si4 0.109335 0.536473 0.073666
Si Si5 0.378561 0.029250 0.775387
Si Si6 0.643262 0.023510 0.913529
Si Si7 0.070522 0.254972 0.723937
Si Si8 0.487524 0.599125 0.242513
O O1 0.274994 0.819713 0.312821
O O2 0.140993 0.414104 0.664041
O O3 0.113724 0.955051 0.292929
O O4 0.178857 0.511039 0.776050
O O5 0.699091 0.916142 0.352400
O O6 0.869754 0.845914 0.310886
O O7 0.842003 0.156059 0.232716
O O8 0.826992 0.600079 0.723090
O O9 0.998135 0.397176 0.922483
O O10 0.100658 0.330444 0.141222
O O11 0.465304 0.263724 0.541112
O O12 0.330365 0.061815 0.886000
O O13 0.427376 0.725493 0.039316
O O14 0.564754 0.258295 0.757950
O O15 0.592365 0.747491 0.099021
O O16 0.000000 0.500000 0.500000
O O17 0.000000 0.000000 0.000000
#
# Coordination Sequence:
#
# PCOD9094158 Si02
#       8
#     2   2   2   2   2   2   2   2
#     4  12  24  37  63  92 120 155 195 253 304 352
#     4  12  23  37  61  87 116 158 198 247 296 352
#     4  11  25  43  62  83 114 160 213 260 296 327
#     4  11  24  44  61  81 113 161 218 256 284 343
#     4  10  20  34  54  86 121 150 191 230 288 363
#     4   9  22  33  59  85 129 151 193 232 291 373
#     4  12  25  37  54  84 128 157 184 228 309 379
#     4   9  19  35  54  83 128 161 184 223 291 371
#
# _framework density 21.275022
#
# number of rings (size 3 to 8) (size 9 to 14) (size 15 to 20)
#    0.750    0.500    0.000    7.125    7.000    2.000 
#    0.000    0.000    0.000    0.000    0.000   17.500 
#    0.000    0.000    0.000    0.000    0.000    0.000 
#
# Total GULP energy -89325.720129 kJ/mol
# GULP energy per Si atom -5582.857508 kJ/mol
# Density = 2.122660 g / cm^3
# Si number density = 21.275022 Si / 1000 Ang^3
#
#
#
# Elastic Constant Matrix: (Units=GPa)
#
#
# Indices 1 2 3 4 5 6 
#
# 1 74.5015 16.1660 20.0279 4.9048 -11.5158 7.7240
# 2 16.1660 51.9338 13.1908 -6.4571 -2.4949 5.0449
# 3 20.0279 13.1908 126.1646 -4.2031 -11.2621 -5.0095
# 4 4.9048 -6.4571 -4.2031 27.2046 4.3774 0.2682
# 5 -11.5158 -2.4949 -11.2621 4.3774 44.2115 3.4648
# 6 7.7240 5.0449 -5.0095 0.2682 3.4648 14.1652
#
#
#
# Elastic Compliance Matrix: (Units=1/GPa)
#
#
# Indices 1 2 3 4 5 6 
#
# 1 0.017074 -0.004159 -0.002399 -0.005124 0.004875 -0.009773
# 2 -0.004159 0.022328 -0.001761 0.005898 -0.000360 -0.006331
# 3 -0.002399 -0.001761 0.008812 0.001163 0.001031 0.004778
# 4 -0.005124 0.005898 0.001163 0.040017 -0.004787 0.001518
# 5 0.004875 -0.000360 0.001031 -0.004787 0.025251 -0.008251
# 6 -0.009773 -0.006331 0.004778 0.001518 -0.008251 0.081858
#
#
# Mechanical properties :
#
#
# Convention : Reuss Voigt Hill
#
# Bulk Modulus (GPa) = 31.67073 39.04103 35.35588
# Shear Modulus (GPa) = 22.47150 30.66393 26.56771
#
# Velocity S-wave (km/s) = 3.25351 3.80058 3.53763
# Velocity P-wave (km/s) = 5.38817 6.13593 5.77417
#
# Compressibility (1/GPa) = 0.03157489
#
# Stress axis : x y z
#
# Youngs Moduli (GPa) = 58.56864 44.78635 113.48675
#
# Poissons Ratio (x) = 0.18627 0.27227
# Poissons Ratio (y) = 0.24359 0.19988
# Poissons Ratio (z) = 0.14052 0.07888
#
# Static dielectric constant tensor:
#      x y z
#    x 1.624640 -0.532570 0.003690 
#    y -0.532570 0.190660 -0.047060 
#    z 0.003690 -0.047060 1.760330 
# 
# From -- ./inp_files/452069.got.cif
#   From: 2010.05.17/outbox.cif.g08.bks.cpg/sg2_227_cif.got.tgz:452069.got - 2010.06.03 11:33:40.
