data_PCOD9094073
_publ_section_title
;
Structure prediction by ZEFSAII (Michael W. Deem and Ramdas Pophale) SiO2 
 PCOD9094073
Probable space group: P -1
;
_chemical_formula_sum "Si O2"
_cell_formula_units_Z 16
_cell_length_a 9.186127
_cell_length_b 5.521389
_cell_length_c 18.925154
_cell_angle_alpha 70.570179
_cell_angle_beta 55.542761
_cell_angle_gamma 81.218099
_cell_volume 745.619121
_symmetry_space_group_name_H-M "P -1"
_symmetry_group_IT_number 2
_symmetry_cell_setting 'triclinic'
loop_
_space_group_symop_operation_xyz
x,y,z
-x,-y,-z
loop_
_atom_site_type_symbol
_atom_site_label
_atom_site_fract_x
_atom_site_fract_y
_atom_site_fract_z
Si Si1 0.880239 0.607930 0.604326
Si Si2 0.468798 0.930625 0.879931
Si Si3 0.073592 0.945460 0.730570
Si Si4 0.261019 0.425938 0.097288
Si Si5 0.793491 0.238955 0.147523
Si Si6 0.224742 0.685945 0.214921
Si Si7 0.904944 0.900997 0.443893
Si Si8 0.164726 0.255868 0.987504
O O1 0.779464 0.563563 0.710143
O O2 0.953613 0.325812 0.590632
O O3 0.788372 0.737043 0.549457
O O4 0.025994 0.833060 0.563289
O O5 0.630491 0.132921 0.803400
O O6 0.312058 0.057202 0.952677
O O7 0.563856 0.723752 0.920677
O O8 0.381284 0.831927 0.841221
O O9 0.968807 0.203304 0.748002
O O10 0.154167 0.996399 0.626133
O O11 0.910557 0.731113 0.804673
O O12 0.204441 0.869684 0.763885
O O13 0.281383 0.665434 0.120439
O O14 0.217523 0.423165 0.027055
O O15 0.829219 0.545773 0.098713
O O16 0.969678 0.138150 0.069788
#
# Coordination Sequence:
#
# PCOD9094073 Si02
#       8
#     2   2   2   2   2   2   2   2
#     4   9  17  30  55  85 119 141 182 227 285 326
#     4  11  22  35  52  75 104 143 181 228 282 333
#     4   9  19  34  54  79 108 141 181 223 276 328
#     4  10  20  35  54  75 105 136 183 230 280 325
#     4  10  22  37  53  74 105 142 183 228 273 336
#     4  10  20  34  53  81 109 140 175 228 281 335
#     4   9  16  31  54  87 114 147 179 231 275 334
#     4  10  22  38  54  74  99 141 187 236 272 327
#
# _framework density 21.458677999999999
#
# number of rings (size 3 to 8) (size 9 to 14) (size 15 to 20)
#    0.000    2.250    1.250    1.500    0.000    8.000 
#    0.000    0.000    0.000    0.750    0.000    3.500 
#    0.000    0.000    0.000    0.000    0.000    0.000 
#
# Total GULP energy -89099.877375 kJ/mol
# GULP energy per Si atom -5568.742336 kJ/mol
# Density = 2.140984 g / cm^3
# Si number density = 21.458678 Si / 1000 Ang^3
#
#
#
# Elastic Constant Matrix: (Units=GPa)
#
#
# Indices 1 2 3 4 5 6 
#
# 1 96.3907 15.2224 27.6776 -7.2739 27.4975 0.6854
# 2 15.2224 53.7168 8.6467 1.9115 8.4582 2.3934
# 3 27.6776 8.6467 114.8362 -22.4149 53.8506 -4.2548
# 4 -7.2739 1.9115 -22.4149 32.2675 -5.4845 0.3625
# 5 27.4975 8.4582 53.8506 -5.4845 34.8397 -2.0576
# 6 0.6854 2.3934 -4.2548 0.3625 -2.0576 20.4155
#
#
#
# Elastic Compliance Matrix: (Units=1/GPa)
#
#
# Indices 1 2 3 4 5 6 
#
# 1 0.015837 -0.002106 0.009763 0.006037 -0.026187 -0.000996
# 2 -0.002106 0.020043 0.000912 -0.001859 -0.005058 -0.002566
# 3 0.009763 0.000912 0.045698 0.021102 -0.075172 0.001138
# 4 0.006037 -0.001859 0.021102 0.041966 -0.030287 0.000616
# 5 -0.026187 -0.005058 -0.075172 -0.030287 0.162181 0.002689
# 6 -0.000996 -0.002566 0.001138 0.000616 0.002689 0.049814
#
#
# Mechanical properties :
#
#
# Convention : Reuss Voigt Hill
#
# Bulk Modulus (GPa) = 10.13015 40.89300 25.51157
# Shear Modulus (GPa) = 14.23262 31.73101 22.98182
#
# Velocity S-wave (km/s) = 2.57817 3.84956 3.27613
# Velocity P-wave (km/s) = 3.68696 6.23353 5.12106
#
# Compressibility (1/GPa) = 0.09871525
#
# Stress axis : x y z
#
# Youngs Moduli (GPa) = 63.14428 49.89251 21.88278
#
# Poissons Ratio (x) = 0.10510 -0.21364
# Poissons Ratio (y) = 0.13301 -0.01996
# Poissons Ratio (z) = -0.61647 -0.04551
#
# Static dielectric constant tensor:
#      x y z
#    x 1.768980 0.024070 0.011320 
#    y 0.024070 1.896990 0.001410 
#    z 0.011320 0.001410 1.880460 
# 
# From -- ./inp_files/42446.got.cif
#   From: 2010.05.17/outbox.cif.g08.bks.cpg/sg2_22_cif.got.tgz:42446.got - 2010.06.03 11:33:40.
