data_PCOD9094864
_publ_section_title
;
Structure prediction by ZEFSAII (Michael W. Deem and Ramdas Pophale) SiO2 
 PCOD9094864
Probable space group: P -1
;
_chemical_formula_sum "Si O2"
_cell_formula_units_Z 16
_cell_length_a 15.779287
_cell_length_b 21.636102
_cell_length_c 5.723287
_cell_angle_alpha 70.379141
_cell_angle_beta 59.417523
_cell_angle_gamma 29.230901
_cell_volume 793.772506
_symmetry_space_group_name_H-M "P -1"
_symmetry_group_IT_number 2
_symmetry_cell_setting 'triclinic'
loop_
_space_group_symop_operation_xyz
x,y,z
-x,-y,-z
loop_
_atom_site_type_symbol
_atom_site_label
_atom_site_fract_x
_atom_site_fract_y
_atom_site_fract_z
Si Si1 0.425363 0.616791 0.929216
Si Si2 0.393284 0.372681 0.091494
Si Si3 0.001277 0.830909 0.094464
Si Si4 0.357537 0.897974 0.976902
Si Si5 0.731554 0.520830 0.373099
Si Si6 0.055490 0.253418 0.033224
Si Si7 0.399920 0.124154 0.572882
Si Si8 0.320220 0.008621 0.272976
O O1 0.497011 0.620710 0.038352
O O2 0.539033 0.586428 0.594905
O O3 0.500000 0.500000 0.000000
O O4 0.193886 0.749468 0.042082
O O5 0.552748 0.223043 0.058066
O O6 0.267291 0.441799 0.425012
O O7 0.288226 0.431597 0.910574
O O8 0.056589 0.735648 0.980219
O O9 0.846448 0.894725 0.420330
O O10 0.863219 0.961628 0.983143
O O11 0.507112 0.867350 0.702421
O O12 0.345204 0.922537 0.236113
O O13 0.917936 0.365951 0.274362
O O14 0.167900 0.244751 0.739462
O O15 0.230748 0.109342 0.081619
O O16 0.500000 0.000000 0.500000
O O17 0.474816 0.090017 0.776367
#
# Coordination Sequence:
#
# PCOD9094864 Si02
#       8
#     2   2   2   2   2   2   2   2
#     4  10  22  41  67  95 128 164 217 264 316 374
#     4  10  25  45  64  89 133 175 210 259 318 376
#     4  10  21  36  63  96 125 159 212 262 325 373
#     4  10  23  40  61  90 130 169 206 263 319 385
#     4  10  25  43  66  89 129 171 215 255 317 374
#     4  11  21  36  62  94 126 161 209 268 317 378
#     4  11  20  37  60  98 125 158 210 265 325 371
#     4  10  20  34  62  92 130 157 206 263 331 369
#
# _framework density 20.156907
#
# number of rings (size 3 to 8) (size 9 to 14) (size 15 to 20)
#    0.750    1.000    3.750    1.875    5.250    4.500 
#    0.000    2.500    0.000    0.000    0.000    0.000 
#    0.000    0.000    0.000    0.000    0.000    0.000 
#
# Total GULP energy -89078.624799 kJ/mol
# GULP energy per Si atom -5567.414050 kJ/mol
# Density = 2.011103 g / cm^3
# Si number density = 20.156907 Si / 1000 Ang^3
#
#
#
# Elastic Constant Matrix: (Units=GPa)
#
#
# Indices 1 2 3 4 5 6 
#
# 1 29.4897 14.1761 3.5218 -2.7649 15.2737 16.7050
# 2 14.1761 61.5897 14.9775 9.3364 15.5480 23.5739
# 3 3.5218 14.9775 51.1095 3.0681 22.9289 0.8167
# 4 -2.7649 9.3364 3.0681 27.8752 -0.4325 6.1810
# 5 15.2737 15.5480 22.9289 -0.4325 34.4069 5.7380
# 6 16.7050 23.5739 0.8167 6.1810 5.7380 27.5385
#
#
#
# Elastic Compliance Matrix: (Units=1/GPa)
#
#
# Indices 1 2 3 4 5 6 
#
# 1 0.075584 0.004454 0.008187 0.014867 -0.033105 -0.046344
# 2 0.004454 0.027985 -0.004513 -0.003182 -0.007616 -0.024223
# 3 0.008187 -0.004513 0.030470 -0.002074 -0.022449 0.003137
# 4 0.014867 -0.003182 -0.002074 0.042078 -0.000659 -0.015540
# 5 -0.033105 -0.007616 -0.022449 -0.000659 0.059654 0.014986
# 6 -0.046344 -0.024223 0.003137 -0.015540 0.014986 0.085434
#
#
# Mechanical properties :
#
#
# Convention : Reuss Voigt Hill
#
# Bulk Modulus (GPa) = 6.65360 23.05996 14.85678
# Shear Modulus (GPa) = 14.08258 25.26502 19.67380
#
# Velocity S-wave (km/s) = 2.64606 3.54420 3.12754
# Velocity P-wave (km/s) = 3.55578 5.31165 4.51980
#
# Compressibility (1/GPa) = 0.15029447
#
# Stress axis : x y z
#
# Youngs Moduli (GPa) = 13.23032 35.73285 32.81943
#
# Poissons Ratio (x) = -0.15916 -0.26868
# Poissons Ratio (y) = -0.05893 0.14811
# Poissons Ratio (z) = -0.10831 0.16126
#
# Static dielectric constant tensor:
#      x y z
#    x 1.737960 -0.013160 0.034230 
#    y -0.013160 1.711740 -0.045450 
#    z 0.034230 -0.045450 1.792380 
# 
# From -- ./inp_files/77456.got.cif
#   From: 2010.05.17/outbox.cif.g08.bks.cpg/sg2_39_cif.got.tgz:77456.got - 2010.06.03 11:33:40.
