data_PCOD9094517
_publ_section_title
;
Structure prediction by ZEFSAII (Michael W. Deem and Ramdas Pophale) SiO2 
 PCOD9094517
Probable space group: P -1
;
_chemical_formula_sum "Si O2"
_cell_formula_units_Z 16
_cell_length_a 8.862376
_cell_length_b 12.142936
_cell_length_c 8.298513
_cell_angle_alpha 108.025798
_cell_angle_beta 59.199984
_cell_angle_gamma 80.667496
_cell_volume 670.896858
_symmetry_space_group_name_H-M "P -1"
_symmetry_group_IT_number 2
_symmetry_cell_setting 'triclinic'
loop_
_space_group_symop_operation_xyz
x,y,z
-x,-y,-z
loop_
_atom_site_type_symbol
_atom_site_label
_atom_site_fract_x
_atom_site_fract_y
_atom_site_fract_z
Si Si1 0.757782 0.982893 0.181722
Si Si2 0.831232 0.218925 0.655868
Si Si3 0.877613 0.611510 0.739292
Si Si4 0.413128 0.403065 0.863714
Si Si5 0.572502 0.838165 0.419165
Si Si6 0.904026 0.028513 0.804666
Si Si7 0.843315 0.485109 0.199378
Si Si8 0.187731 0.275136 0.486537
O O1 0.645171 0.117995 0.388377
O O2 0.959896 0.927103 0.135767
O O3 0.624888 0.914504 0.286272
O O4 0.774318 0.996844 0.990915
O O5 0.636085 0.329017 0.749555
O O6 0.962749 0.100601 0.417059
O O7 0.975594 0.286063 0.647026
O O8 0.797837 0.140804 0.789258
O O9 0.787445 0.728115 0.720026
O O10 0.000000 0.500000 0.500000
O O11 0.025572 0.623828 0.797844
O O12 0.715916 0.575508 0.896634
O O13 0.363485 0.297067 0.752660
O O14 0.327062 0.514122 0.826003
O O15 0.681631 0.838943 0.525146
O O16 0.774409 0.605700 0.411446
O O17 0.000000 0.500000 0.000000
#
# Coordination Sequence:
#
# PCOD9094517 Si02
#       8
#     2   2   2   2   2   2   2   2
#     4  10  20  37  54  77 113 159 191 231 271 329
#     4  11  22  38  51  90 114 154 181 233 280 323
#     4   9  19  37  59  84 108 139 181 240 294 324
#     4  10  20  35  60  80 113 146 188 230 273 350
#     4  10  20  36  56  84 104 152 203 226 262 332
#     4  10  22  37  54  75 132 152 178 233 287 314
#     4   8  17  38  59  78 106 142 175 231 292 327
#     4  10  20  34  58  82 113 139 188 235 268 345
#
# _framework density 23.848673999999999
#
# number of rings (size 3 to 8) (size 9 to 14) (size 15 to 20)
#    0.000    2.250    2.500    0.000    3.500    0.000 
#    0.000    7.500    0.000    0.000    0.000    0.000 
#    0.000    0.000    0.000    0.000    0.000    0.000 
#
# Total GULP energy -89098.147890 kJ/mol
# GULP energy per Si atom -5568.634243 kJ/mol
# Density = 2.379439 g / cm^3
# Si number density = 23.848674 Si / 1000 Ang^3
#
#
#
# Elastic Constant Matrix: (Units=GPa)
#
#
# Indices 1 2 3 4 5 6 
#
# 1 96.2903 43.0315 21.2946 -11.5682 -10.6956 -41.3129
# 2 43.0315 61.2899 30.5080 -20.0907 10.3630 -29.8699
# 3 21.2946 30.5080 87.4352 -18.4975 12.4778 -16.2835
# 4 -11.5682 -20.0907 -18.4975 36.0440 -13.9500 12.5894
# 5 -10.6956 10.3630 12.4778 -13.9500 29.3432 3.3281
# 6 -41.3129 -29.8699 -16.2835 12.5894 3.3281 38.1519
#
#
#
# Elastic Compliance Matrix: (Units=1/GPa)
#
#
# Indices 1 2 3 4 5 6 
#
# 1 0.022838 -0.009610 -0.000682 -0.000045 0.010167 0.016043
# 2 -0.009610 0.037352 -0.004633 0.003671 -0.014902 0.016948
# 3 -0.000682 -0.004633 0.014563 0.002860 -0.003584 0.001220
# 4 -0.000045 0.003671 0.002860 0.042738 0.019119 -0.011725
# 5 0.010167 -0.014902 -0.003584 0.019119 0.055171 -0.013308
# 6 0.016043 0.016948 0.001220 -0.011725 -0.013308 0.062403
#
#
# Mechanical properties :
#
#
# Convention : Reuss Voigt Hill
#
# Bulk Modulus (GPa) = 22.26998 48.29816 35.28407
# Shear Modulus (GPa) = 17.86466 30.71991 24.29229
#
# Velocity S-wave (km/s) = 2.73991 3.59293 3.19502
# Velocity P-wave (km/s) = 4.40088 6.12438 5.33272
#
# Compressibility (1/GPa) = 0.04490349
#
# Stress axis : x y z
#
# Youngs Moduli (GPa) = 43.78685 26.77217 68.66698
#
# Poissons Ratio (x) = 0.25729 0.04680
# Poissons Ratio (y) = 0.42081 0.31812
# Poissons Ratio (z) = 0.02984 0.12403
#
# Static dielectric constant tensor:
#      x y z
#    x 2.059430 -0.126680 -0.012910 
#    y -0.126680 2.159120 0.088800 
#    z -0.012910 0.088800 1.914780 
# 
# From -- ./inp_files/202443.got.cif
#   From: 2010.05.17/outbox.cif.g08.bks.cpg/sg2_102_cif.got.tgz:202443.got - 2010.06.03 11:33:40.
