data_PCOD9094775
_publ_section_title
;
Structure prediction by ZEFSAII (Michael W. Deem and Ramdas Pophale) SiO2 
 PCOD9094775
Probable space group: P -1
;
_chemical_formula_sum "Si O2"
_cell_formula_units_Z 16
_cell_length_a 7.729427
_cell_length_b 9.909686
_cell_length_c 11.057569
_cell_angle_alpha 108.511273
_cell_angle_beta 62.398120
_cell_angle_gamma 97.902476
_cell_volume 711.692615
_symmetry_space_group_name_H-M "P -1"
_symmetry_group_IT_number 2
_symmetry_cell_setting 'triclinic'
loop_
_space_group_symop_operation_xyz
x,y,z
-x,-y,-z
loop_
_atom_site_type_symbol
_atom_site_label
_atom_site_fract_x
_atom_site_fract_y
_atom_site_fract_z
Si Si1 0.049238 0.839606 0.890526
Si Si2 0.259205 0.836639 0.567989
Si Si3 0.269548 0.628066 0.923243
Si Si4 0.634227 0.865981 0.325084
Si Si5 0.608927 0.035078 0.795128
Si Si6 0.906044 0.634961 0.203816
Si Si7 0.043363 0.835710 0.406316
Si Si8 0.353546 0.214213 0.114418
O O1 0.851296 0.767009 0.883412
O O2 0.186423 0.821387 0.722558
O O3 0.175214 0.769423 0.935940
O O4 0.000000 0.000000 0.000000
O O5 0.477964 0.794823 0.444749
O O6 0.123608 0.774597 0.489724
O O7 0.258152 0.009107 0.604722
O O8 0.222720 0.504305 0.807483
O O9 0.498068 0.654638 0.879809
O O10 0.123553 0.597076 0.074375
O O11 0.512596 0.949052 0.284781
O O12 0.789621 0.752642 0.193033
O O13 0.791762 0.135878 0.740794
O O14 0.669358 0.878960 0.780575
O O15 0.473968 0.109897 0.958009
O O16 0.910389 0.718058 0.353087
O O17 0.000000 0.000000 0.500000
#
# Coordination Sequence:
#
# PCOD9094775 Si02
#       8
#     2   2   2   2   2   2   2   2
#     4  12  24  42  69  97 131 167 217 277 326 376
#     4  10  21  37  61  96 122 161 215 273 320 377
#     4  11  25  44  65  94 135 171 220 260 325 399
#     4  10  20  37  62  93 128 163 213 267 321 375
#     4  10  20  34  60  97 123 156 210 270 314 376
#     4  11  23  44  63  93 130 177 210 269 325 382
#     4  11  20  36  63  90 129 160 218 265 319 377
#     4  11  21  38  63  95 131 165 208 266 332 377
#
# _framework density 22.481615999999999
#
# number of rings (size 3 to 8) (size 9 to 14) (size 15 to 20)
#    0.000    1.250    2.500    5.250    0.000    0.000 
#    6.750    3.125    0.000    0.000    0.000    0.000 
#    0.000    0.000    0.000    0.000    0.000    0.000 
#
# Total GULP energy -89162.128671 kJ/mol
# GULP energy per Si atom -5572.633042 kJ/mol
# Density = 2.243045 g / cm^3
# Si number density = 22.481616 Si / 1000 Ang^3
#
#
#
# Elastic Constant Matrix: (Units=GPa)
#
#
# Indices 1 2 3 4 5 6 
#
# 1 92.9985 20.3387 14.2804 4.4264 13.9938 33.5985
# 2 20.3387 37.9685 7.9242 13.6546 11.7705 25.4167
# 3 14.2804 7.9242 75.8663 -9.2059 5.9430 9.9378
# 4 4.4264 13.6546 -9.2059 36.7881 7.4581 5.0851
# 5 13.9938 11.7705 5.9430 7.4581 35.5129 3.6747
# 6 33.5985 25.4167 9.9378 5.0851 3.6747 38.9986
#
#
#
# Elastic Compliance Matrix: (Units=1/GPa)
#
#
# Indices 1 2 3 4 5 6 
#
# 1 0.016830 0.004109 -0.001026 -0.000323 -0.006067 -0.016302
# 2 0.004109 0.060846 -0.002788 -0.015526 -0.014009 -0.039140
# 3 -0.001026 -0.002788 0.014701 0.005483 -0.002122 -0.001560
# 4 -0.000323 -0.015526 0.005483 0.034370 -0.003363 0.004835
# 5 -0.006067 -0.014009 -0.002122 -0.003363 0.035008 0.012037
# 6 -0.016302 -0.039140 -0.001560 0.004835 0.012037 0.063828
#
#
# Mechanical properties :
#
#
# Convention : Reuss Voigt Hill
#
# Bulk Modulus (GPa) = 10.75660 32.43553 21.59607
# Shear Modulus (GPa) = 19.53259 33.21258 26.37258
#
# Velocity S-wave (km/s) = 2.95078 3.84776 3.42873
# Velocity P-wave (km/s) = 4.05025 5.84802 5.03010
#
# Compressibility (1/GPa) = 0.09296619
#
# Stress axis : x y z
#
# Youngs Moduli (GPa) = 59.41911 16.43495 68.02095
#
# Poissons Ratio (x) = -0.06752 0.06976
# Poissons Ratio (y) = -0.24413 0.18967
# Poissons Ratio (z) = 0.06094 0.04583
#
# Static dielectric constant tensor:
#      x y z
#    x 1.941460 0.003720 -0.008350 
#    y 0.003720 1.899970 -0.056880 
#    z -0.008350 -0.056880 1.937360 
# 
# From -- ./inp_files/390931.got.cif
#   From: 2010.05.17/outbox.cif.g08.bks.cpg/sg2_196_cif.got.tgz:390931.got - 2010.06.03 11:33:40.
