data_PCOD9094721
_publ_section_title
;
Structure prediction by ZEFSAII (Michael W. Deem and Ramdas Pophale) SiO2 
 PCOD9094721
Probable space group: P -1
;
_chemical_formula_sum "Si O2"
_cell_formula_units_Z 14
_cell_length_a 13.959864
_cell_length_b 29.024101
_cell_length_c 14.634278
_cell_angle_alpha 22.819778
_cell_angle_beta 20.259982
_cell_angle_gamma 20.859878
_cell_volume 680.490049
_symmetry_space_group_name_H-M "P -1"
_symmetry_group_IT_number 2
_symmetry_cell_setting 'triclinic'
loop_
_space_group_symop_operation_xyz
x,y,z
-x,-y,-z
loop_
_atom_site_type_symbol
_atom_site_label
_atom_site_fract_x
_atom_site_fract_y
_atom_site_fract_z
Si Si1 0.529225 0.450411 0.880400
Si Si2 0.453398 0.062587 0.027712
Si Si3 0.613070 0.085482 0.182099
Si Si4 0.515163 0.248084 0.135301
Si Si5 0.285324 0.759868 0.585638
Si Si6 0.201345 0.377450 0.470909
Si Si7 0.277526 0.083545 0.768311
O O1 0.414313 0.612272 0.690836
O O2 0.917863 0.360575 0.712395
O O3 0.440672 0.395372 0.970354
O O4 0.358821 0.422866 0.168469
O O5 0.079306 0.176469 0.171467
O O6 0.564055 0.948311 0.216386
O O7 0.668087 0.134060 0.711370
O O8 0.500000 0.000000 0.000000
O O9 0.473293 0.229383 0.099118
O O10 0.500000 0.000000 0.500000
O O11 0.549263 0.062341 0.177342
O O12 0.000000 0.000000 0.000000
O O13 0.329216 0.191863 0.465508
O O14 0.896594 0.142722 0.006314
O O15 0.508239 0.734983 0.520966
O O16 0.000000 0.500000 0.500000
#
# Coordination Sequence:
#
# PCOD9094721 Si02
#       7
#     2   2   2   2   2   2   2
#     4  11  21  35  59  82 105 140 178 239 282 311
#     4  12  26  38  54  76 111 157 189 217 250 332
#     4   8  16  33  55  80 108 136 170 227 282 318
#     4  10  20  34  60  88 106 131 182 235 281 325
#     4  11  23  40  53  74 112 146 190 220 268 320
#     4  10  20  35  53  78 104 143 181 222 276 313
#     4  10  21  37  55  81 114 145 179 221 275 321
#
# _framework density 20.573408000000001
#
# number of rings (size 3 to 8) (size 9 to 14) (size 15 to 20)
#    0.000    1.714    0.000    6.429    6.000    0.000 
#    0.000    0.000    0.000    1.714    0.000    0.000 
#    0.000    0.000    0.000    0.000    0.000    0.000 
#
# Total GULP energy -78133.465644 kJ/mol
# GULP energy per Si atom -5580.961832 kJ/mol
# Density = 2.052658 g / cm^3
# Si number density = 20.573408 Si / 1000 Ang^3
#
#
#
# Elastic Constant Matrix: (Units=GPa)
#
#
# Indices 1 2 3 4 5 6 
#
# 1 69.4405 22.7809 1.4155 -8.0952 -8.1004 29.6479
# 2 22.7809 70.0607 15.6964 -1.6711 -4.2155 22.2109
# 3 1.4155 15.6964 91.4388 17.2671 -8.8891 12.9309
# 4 -8.0952 -1.6711 17.2671 35.3372 6.4373 -12.9587
# 5 -8.1004 -4.2155 -8.8891 6.4373 26.4667 -4.6303
# 6 29.6479 22.2109 12.9309 -12.9587 -4.6303 30.9138
#
#
#
# Elastic Compliance Matrix: (Units=1/GPa)
#
#
# Indices 1 2 3 4 5 6 
#
# 1 0.028054 0.000019 0.006978 -0.010522 0.007702 -0.033095
# 2 0.000019 0.019236 0.000074 -0.005212 0.001595 -0.015816
# 3 0.006978 0.000074 0.017231 -0.015353 0.008320 -0.019142
# 4 -0.010522 -0.005212 -0.015353 0.050132 -0.014561 0.039091
# 5 0.007702 0.001595 0.008320 -0.014561 0.044733 -0.011417
# 6 -0.033095 -0.015816 -0.019142 0.039091 -0.011417 0.098135
#
#
# Mechanical properties :
#
#
# Convention : Reuss Voigt Hill
#
# Bulk Modulus (GPa) = 12.71254 34.52507 23.61880
# Shear Modulus (GPa) = 18.54593 31.28001 24.91297
#
# Velocity S-wave (km/s) = 3.00568 3.90347 3.48362
# Velocity P-wave (km/s) = 4.27059 6.09377 5.26175
#
# Compressibility (1/GPa) = 0.07866251
#
# Stress axis : x y z
#
# Youngs Moduli (GPa) = 35.64521 51.98480 58.03606
#
# Poissons Ratio (x) = -0.00098 -0.40499
# Poissons Ratio (y) = -0.00067 -0.00427
# Poissons Ratio (z) = -0.24874 -0.00382
#
# Static dielectric constant tensor:
#      x y z
#    x 1.777120 0.059750 -0.038740 
#    y 0.059750 1.756510 -0.039430 
#    z -0.038740 -0.039430 1.738990 
# 
# From -- ./inp_files/477268.got.cif
#   From: 2010.05.17/outbox.cif.g08.bks.cpg/sg2_239_cif.got.tgz:477268.got - 2010.06.03 11:33:40.
