data_PCOD9094138
_publ_section_title
;
Structure prediction by ZEFSAII (Michael W. Deem and Ramdas Pophale) SiO2 
 PCOD9094138
Probable space group: P -1
;
_chemical_formula_sum "Si O2"
_cell_formula_units_Z 16
_cell_length_a 11.976721
_cell_length_b 15.313557
_cell_length_c 15.516141
_cell_angle_alpha 161.240628
_cell_angle_beta 105.866120
_cell_angle_gamma 75.129537
_cell_volume 880.290819
_symmetry_space_group_name_H-M "P -1"
_symmetry_group_IT_number 2
_symmetry_cell_setting 'triclinic'
loop_
_space_group_symop_operation_xyz
x,y,z
-x,-y,-z
loop_
_atom_site_type_symbol
_atom_site_label
_atom_site_fract_x
_atom_site_fract_y
_atom_site_fract_z
Si Si1 0.698166 0.687266 0.387139
Si Si2 0.079772 0.065847 0.880876
Si Si3 0.189965 0.871597 0.069238
Si Si4 0.142856 0.159726 0.591028
Si Si5 0.915191 0.235445 0.230648
Si Si6 0.528285 0.287099 0.732024
Si Si7 0.794676 0.391517 0.842111
Si Si8 0.098176 0.642240 0.350163
O O1 0.758171 0.835725 0.456907
O O2 0.561752 0.671470 0.326357
O O3 0.735019 0.862494 0.642282
O O4 0.752740 0.388424 0.117687
O O5 0.939057 0.061832 0.859505
O O6 0.128609 0.880365 0.795584
O O7 0.120421 0.916857 0.664102
O O8 0.106307 0.384846 0.175577
O O9 0.176075 0.773928 0.875625
O O10 0.032036 0.309586 0.667729
O O11 0.125976 0.848223 0.324552
O O12 0.181096 0.331937 0.843092
O O13 0.000000 0.500000 0.500000
O O14 0.000000 0.000000 0.000000
O O15 0.661027 0.311814 0.754690
O O16 0.500000 0.000000 0.500000
O O17 0.500000 0.500000 0.000000
O O18 0.823644 0.406577 0.761937
#
# Coordination Sequence:
#
# PCOD9094138 Si02
#       8
#     2   2   2   2   2   2   2   2
#     4  12  21  34  58  79 105 149 181 222 275 314
#     4  11  20  35  54  81 112 144 170 216 278 330
#     4  11  20  35  54  83 112 137 179 220 268 335
#     4  12  21  37  55  76 112 145 185 219 272 320
#     4  10  20  34  54  82 115 145 170 215 277 338
#     4  12  23  38  56  75 105 145 190 232 274 306
#     4  12  24  39  52  77 108 150 189 229 262 314
#     4  12  23  34  55  80 110 146 185 217 265 332
#
# _framework density 18.175810999999999
#
# number of rings (size 3 to 8) (size 9 to 14) (size 15 to 20)
#    0.000    0.500    5.000    6.750    0.000    0.000 
#    0.000    0.000    0.000    0.000    0.000    5.250 
#    0.000    0.000    0.000    0.000    0.000    0.000 
#
# Total GULP energy -89302.106492 kJ/mol
# GULP energy per Si atom -5581.381656 kJ/mol
# Density = 1.813444 g / cm^3
# Si number density = 18.175811 Si / 1000 Ang^3
#
#
#
# Elastic Constant Matrix: (Units=GPa)
#
#
# Indices 1 2 3 4 5 6 
#
# 1 51.5526 14.1850 6.6538 -7.4297 -5.0813 2.5579
# 2 14.1850 60.2188 14.8188 0.4661 -9.8587 2.9144
# 3 6.6538 14.8188 111.7771 -2.4439 -3.4053 -5.7684
# 4 -7.4297 0.4661 -2.4439 33.7923 3.6725 -0.5822
# 5 -5.0813 -9.8587 -3.4053 3.6725 10.5880 -2.2605
# 6 2.5579 2.9144 -5.7684 -0.5822 -2.2605 19.4588
#
#
#
# Elastic Compliance Matrix: (Units=1/GPa)
#
#
# Indices 1 2 3 4 5 6 
#
# 1 0.021777 -0.004195 -0.000601 0.004284 0.004490 -0.001763
# 2 -0.004195 0.021134 -0.002147 -0.003332 0.017858 -0.001275
# 3 -0.000601 -0.002147 0.009492 0.000499 0.001315 0.003382
# 4 0.004284 -0.003332 0.000499 0.031918 -0.012033 -0.000359
# 5 0.004490 0.017858 0.001315 -0.012033 0.120114 0.010718
# 6 -0.001763 -0.001275 0.003382 -0.000359 0.010718 0.054050
#
#
# Mechanical properties :
#
#
# Convention : Reuss Voigt Hill
#
# Bulk Modulus (GPa) = 25.96165 32.76264 29.36215
# Shear Modulus (GPa) = 17.53104 25.29387 21.41245
#
# Velocity S-wave (km/s) = 3.10905 3.73449 3.43603
# Velocity P-wave (km/s) = 5.21564 6.05473 5.65078
#
# Compressibility (1/GPa) = 0.03851835
#
# Stress axis : x y z
#
# Youngs Moduli (GPa) = 45.92040 47.31807 105.34916
#
# Poissons Ratio (x) = 0.19849 0.06329
# Poissons Ratio (y) = 0.19262 0.22615
# Poissons Ratio (z) = 0.02759 0.10158
#
# Static dielectric constant tensor:
#      x y z
#    x 1.595530 -0.000550 0.015040 
#    y -0.000550 1.750590 -0.016500 
#    z 0.015040 -0.016500 1.621980 
# 
# From -- ./inp_files/79978.got.cif
#   From: 2010.05.17/outbox.cif.g08.bks.cpg/sg2_40_cif.got.tgz:79978.got - 2010.06.03 11:33:40.
