data_PCOD9094636
_publ_section_title
;
Structure prediction by ZEFSAII (Michael W. Deem and Ramdas Pophale) SiO2 
 PCOD9094636
Probable space group: P -1
;
_chemical_formula_sum "Si O2"
_cell_formula_units_Z 14
_cell_length_a 8.770687
_cell_length_b 19.203112
_cell_length_c 7.264859
_cell_angle_alpha 62.362087
_cell_angle_beta 101.556509
_cell_angle_gamma 51.557005
_cell_volume 602.625762
_symmetry_space_group_name_H-M "P -1"
_symmetry_group_IT_number 2
_symmetry_cell_setting 'triclinic'
loop_
_space_group_symop_operation_xyz
x,y,z
-x,-y,-z
loop_
_atom_site_type_symbol
_atom_site_label
_atom_site_fract_x
_atom_site_fract_y
_atom_site_fract_z
Si Si1 0.610634 0.369902 0.547033
Si Si2 0.586316 0.208479 0.645181
Si Si3 0.588028 0.127696 0.355932
Si Si4 0.792968 0.403126 0.266244
Si Si5 0.004877 0.520335 0.689092
Si Si6 0.988612 0.656741 0.982859
Si Si7 0.816978 0.159621 0.115375
O O1 0.596157 0.298448 0.497610
O O2 0.821516 0.340041 0.534533
O O3 0.707176 0.288781 0.858610
O O4 0.300379 0.532837 0.289999
O O5 0.598671 0.148308 0.547279
O O6 0.292294 0.320918 0.531967
O O7 0.802624 0.111758 0.983650
O O8 0.298847 0.204144 0.157652
O O9 0.625415 0.192782 0.169893
O O10 0.872715 0.964124 0.587034
O O11 0.789242 0.495717 0.202853
O O12 0.995245 0.311274 0.253809
O O13 0.500000 0.500000 0.000000
O O14 0.000000 0.500000 0.500000
O O15 0.044894 0.424748 0.933239
#
# Coordination Sequence:
#
# PCOD9094636 Si02
#       7
#     2   2   2   2   2   2   2
#     4   8  20  37  54  84 125 151 194 255 306 367
#     4   9  19  37  56  84 120 156 204 246 305 352
#     4  11  19  33  63  84 117 162 206 257 294 360
#     4  10  20  37  57  87 126 160 198 245 319 367
#     4  11  21  35  59  90 121 156 205 255 297 364
#     4  10  20  34  59  87 112 160 207 247 296 364
#     4   9  21  36  54  91 118 155 212 251 301 356
#
# _framework density 23.231666000000001
#
# number of rings (size 3 to 8) (size 9 to 14) (size 15 to 20)
#    0.857    1.429    1.429    1.714    4.000    0.000 
#    0.000    8.571    0.000    0.000    0.000    5.000 
#    0.000    0.000    0.000    0.000    0.000    0.000 
#
# Total GULP energy -78077.704200 kJ/mol
# GULP energy per Si atom -5576.978871 kJ/mol
# Density = 2.317879 g / cm^3
# Si number density = 23.231666 Si / 1000 Ang^3
#
#
#
# Elastic Constant Matrix: (Units=GPa)
#
#
# Indices 1 2 3 4 5 6 
#
# 1 123.7903 26.4373 39.8510 1.6521 -3.8088 -35.4416
# 2 26.4373 62.4489 11.0484 7.3558 0.0390 -31.3542
# 3 39.8510 11.0484 105.5671 -6.4509 7.7298 -33.6152
# 4 1.6521 7.3558 -6.4509 22.2932 -11.0756 3.4042
# 5 -3.8088 0.0390 7.7298 -11.0756 30.4308 6.7181
# 6 -35.4416 -31.3542 -33.6152 3.4042 6.7181 51.2270
#
#
#
# Elastic Compliance Matrix: (Units=1/GPa)
#
#
# Indices 1 2 3 4 5 6 
#
# 1 0.010601 -0.001332 -0.002373 -0.001707 0.000195 0.005050
# 2 -0.001332 0.029565 0.004625 -0.018410 -0.013194 0.023163
# 3 -0.002373 0.004625 0.013906 -0.002733 -0.007360 0.011461
# 4 -0.001707 -0.018410 -0.002733 0.068986 0.030656 -0.022847
# 5 0.000195 -0.013194 -0.007360 0.030656 0.050666 -0.021452
# 6 0.005050 0.023163 0.011461 -0.022847 -0.021452 0.049044
#
#
# Mechanical properties :
#
#
# Convention : Reuss Voigt Hill
#
# Bulk Modulus (GPa) = 17.88492 49.60886 33.74689
# Shear Modulus (GPa) = 20.87117 35.08817 27.97967
#
# Velocity S-wave (km/s) = 3.00057 3.89055 3.47418
# Velocity P-wave (km/s) = 4.44070 6.44842 5.53633
#
# Compressibility (1/GPa) = 0.05591302
#
# Stress axis : x y z
#
# Youngs Moduli (GPa) = 94.32949 33.82391 71.91265
#
# Poissons Ratio (x) = 0.04504 0.17065
# Poissons Ratio (y) = 0.12561 -0.33262
# Poissons Ratio (z) = 0.22385 -0.15644
#
# Static dielectric constant tensor:
#      x y z
#    x 1.913170 -0.003980 0.034700 
#    y -0.003980 1.931530 0.017040 
#    z 0.034700 0.017040 1.962350 
# 
# From -- ./inp_files/224846.got.cif
#   From: 2010.05.17/outbox.cif.g08.bks.cpg/sg2_113_cif.got.tgz:224846.got - 2010.06.03 11:33:40.
