data_PCOD9094031
_publ_section_title
;
Structure prediction by ZEFSAII (Michael W. Deem and Ramdas Pophale) SiO2 
 PCOD9094031
Probable space group: P -1
;
_chemical_formula_sum "Si O2"
_cell_formula_units_Z 14
_cell_length_a 5.342595
_cell_length_b 8.954387
_cell_length_c 16.026411
_cell_angle_alpha 64.710244
_cell_angle_beta 119.285289
_cell_angle_gamma 113.343284
_cell_volume 587.324472
_symmetry_space_group_name_H-M "P -1"
_symmetry_group_IT_number 2
_symmetry_cell_setting 'triclinic'
loop_
_space_group_symop_operation_xyz
x,y,z
-x,-y,-z
loop_
_atom_site_type_symbol
_atom_site_label
_atom_site_fract_x
_atom_site_fract_y
_atom_site_fract_z
Si Si1 0.392522 0.891678 0.143511
Si Si2 0.427246 0.760110 0.615633
Si Si3 0.408037 0.439221 0.906568
Si Si4 0.860654 0.962950 0.090781
Si Si5 0.665516 0.913469 0.439603
Si Si6 0.215321 0.501143 0.204840
Si Si7 0.818852 0.606875 0.499244
O O1 0.720641 0.983561 0.151736
O O2 0.358629 0.696990 0.206747
O O3 0.206051 0.981926 0.150515
O O4 0.225910 0.912189 0.021867
O O5 0.490532 0.819233 0.514822
O O6 0.628625 0.631559 0.696005
O O7 0.080496 0.670497 0.593869
O O8 0.485251 0.931843 0.638387
O O9 0.281063 0.234081 0.917051
O O10 0.684795 0.500093 0.875495
O O11 0.127446 0.520231 0.825877
O O12 0.500000 0.500000 0.000000
O O13 0.723407 0.778511 0.413460
O O14 0.000000 0.000000 0.500000
O O15 0.500000 0.500000 0.500000
O O16 0.000000 0.500000 0.500000
#
# Coordination Sequence:
#
# PCOD9094031 Si02
#       7
#     2   2   2   2   2   2   2
#     4   8  14  27  45  73  90 125 174 216 270 312
#     4  10  21  38  61  92 122 161 216 246 298 370
#     4  10  20  34  52  80 111 149 192 235 300 343
#     4   8  14  26  47  66  94 128 170 218 262 336
#     4   9  20  37  62  89 120 165 209 241 302 377
#     4  10  21  33  58  81 108 149 194 249 279 346
#     4  11  21  37  62  90 120 159 195 248 309 366
#
# _framework density 23.836908999999999
#
# number of rings (size 3 to 8) (size 9 to 14) (size 15 to 20)
#    0.000    2.571    1.429    0.429    4.000    0.000 
#    0.000    0.000    6.286    0.000    0.000    0.000 
#    0.000    0.000    0.000    0.000    0.000    0.000 
#
# Total GULP energy -77957.144561 kJ/mol
# GULP energy per Si atom -5568.367469 kJ/mol
# Density = 2.378266 g / cm^3
# Si number density = 23.836909 Si / 1000 Ang^3
#
#
#
# Elastic Constant Matrix: (Units=GPa)
#
#
# Indices 1 2 3 4 5 6 
#
# 1 182.8139 33.9974 19.5032 -10.3493 25.1265 -19.2163
# 2 33.9974 87.9136 48.7780 -27.6362 18.5015 -25.0627
# 3 19.5032 48.7780 77.1586 -21.6353 21.7989 -14.7750
# 4 -10.3493 -27.6362 -21.6353 39.7663 -19.9261 13.2901
# 5 25.1265 18.5015 21.7989 -19.9261 32.1375 -14.3769
# 6 -19.2163 -25.0627 -14.7750 13.2901 -14.3769 41.3555
#
#
#
# Elastic Compliance Matrix: (Units=1/GPa)
#
#
# Indices 1 2 3 4 5 6 
#
# 1 0.006525 -0.002428 0.000885 -0.002537 -0.005533 0.000768
# 2 -0.002428 0.022257 -0.011046 0.009134 0.005556 0.007410
# 3 0.000885 -0.011046 0.022288 0.000227 -0.010173 -0.001930
# 4 -0.002537 0.009134 0.000227 0.042658 0.022349 -0.001502
# 5 -0.005533 0.005556 -0.010173 0.022349 0.057454 0.009953
# 6 0.000768 0.007410 -0.001930 -0.001502 0.009953 0.032281
#
#
# Mechanical properties :
#
#
# Convention : Reuss Voigt Hill
#
# Bulk Modulus (GPa) = 38.62474 61.38260 50.00367
# Shear Modulus (GPa) = 23.01243 39.02568 31.01905
#
# Velocity S-wave (km/s) = 3.11048 4.05062 3.61127
# Velocity P-wave (km/s) = 5.39806 6.90533 6.19769
#
# Compressibility (1/GPa) = 0.02589014
#
# Stress axis : x y z
#
# Youngs Moduli (GPa) = 153.26039 44.92903 44.86682
#
# Poissons Ratio (x) = 0.10910 -0.03969
# Poissons Ratio (y) = 0.37217 0.49562
# Poissons Ratio (z) = -0.13559 0.49631
#
# Static dielectric constant tensor:
#      x y z
#    x 2.010690 -0.023660 -0.027570 
#    y -0.023660 2.007090 -0.000210 
#    z -0.027570 -0.000210 1.972040 
# 
# From -- ./inp_files/547030.got.cif
#   From: 2010.05.17/outbox.cif.g08.bks.cpg/sg2_274_cif.got.tgz:547030.got - 2010.06.03 11:33:40.
