data_PCOD9094591
_publ_section_title
;
Structure prediction by ZEFSAII (Michael W. Deem and Ramdas Pophale) SiO2 
 PCOD9094591
Probable space group: P -1
;
_chemical_formula_sum "Si O2"
_cell_formula_units_Z 15
_cell_length_a 11.119415
_cell_length_b 9.673693
_cell_length_c 9.569574
_cell_angle_alpha 72.468177
_cell_angle_beta 58.092915
_cell_angle_gamma 115.792110
_cell_volume 565.706444
_symmetry_space_group_name_H-M "P -1"
_symmetry_group_IT_number 2
_symmetry_cell_setting 'triclinic'
loop_
_space_group_symop_operation_xyz
x,y,z
-x,-y,-z
loop_
_atom_site_type_symbol
_atom_site_label
_atom_site_fract_x
_atom_site_fract_y
_atom_site_fract_z
Si Si1 0.108609 0.960482 0.150068
Si Si2 0.296211 0.859785 0.436922
Si Si3 0.692154 0.626916 0.448029
Si Si4 0.359520 0.436620 0.921265
Si Si5 0.241105 0.768430 0.002143
Si Si6 0.058588 0.212210 0.401536
Si Si7 0.000000 0.500000 0.500000
Si Si8 0.173633 0.521762 0.789111
O O1 0.903613 0.877900 0.231157
O O2 0.999769 0.789356 0.401176
O O3 0.236305 0.935563 0.996506
O O4 0.256550 0.202114 0.026411
O O5 0.216057 0.712202 0.394453
O O6 0.305078 0.760564 0.593683
O O7 0.117020 0.844835 0.568913
O O8 0.522479 0.098537 0.205259
O O9 0.500000 0.500000 0.500000
O O10 0.786715 0.547807 0.355539
O O11 0.590946 0.589928 0.670883
O O12 0.282964 0.408987 0.134183
O O13 0.253776 0.482270 0.877163
O O14 0.134446 0.598740 0.243121
O O15 0.073937 0.632487 0.021232
O O16 0.000000 0.000000 0.500000
#
# Coordination Sequence:
#
# PCOD9094591 Si02
#       8
#     2   2   2   2   2   2   1   2
#     4  10  20  37  58  88 122 152 202 247 295 360
#     4  11  21  39  61  88 123 153 198 251 306 349
#     4   9  19  36  60  90 116 154 199 247 304 346
#     4  10  21  39  58  82 126 164 198 244 289 357
#     4  10  20  36  61  91 117 154 190 263 303 339
#     4  10  23  41  58  85 120 168 204 234 298 371
#     4  10  20  34  58  92 118 142 196 244 302 352
#     4   9  21  36  59  94 114 150 210 248 298 350
#
# _framework density 26.515521
#
# number of rings (size 3 to 8) (size 9 to 14) (size 15 to 20)
#    0.000    2.133    1.333    1.200    0.000    8.000 
#    4.800    6.000    0.000    0.000    0.000    0.000 
#    0.000    0.000    0.000    0.000    0.000    0.000 
#
# Total GULP energy -83587.977309 kJ/mol
# GULP energy per Si atom -5572.531821 kJ/mol
# Density = 2.645517 g / cm^3
# Si number density = 26.515521 Si / 1000 Ang^3
#
#
#
# Elastic Constant Matrix: (Units=GPa)
#
#
# Indices 1 2 3 4 5 6 
#
# 1 75.1516 1.6312 34.2964 7.3390 13.3020 7.5578
# 2 1.6312 52.5520 -0.3379 6.1499 7.5432 16.4017
# 3 34.2964 -0.3379 167.4795 3.4798 -0.9553 8.9906
# 4 7.3390 6.1499 3.4798 29.8035 7.4615 2.2566
# 5 13.3020 7.5432 -0.9553 7.4615 57.1386 4.1997
# 6 7.5578 16.4017 8.9906 2.2566 4.1997 27.7395
#
#
#
# Elastic Compliance Matrix: (Units=1/GPa)
#
#
# Indices 1 2 3 4 5 6 
#
# 1 0.015854 0.001350 -0.003022 -0.002742 -0.003310 -0.003414
# 2 0.001350 0.024164 0.000605 -0.003823 -0.001948 -0.014246
# 3 -0.003022 0.000605 0.006699 -0.000251 0.000902 -0.001822
# 4 -0.002742 -0.003823 -0.000251 0.035894 -0.003601 0.000714
# 5 -0.003310 -0.001948 0.000902 -0.003601 0.019076 -0.000834
# 6 -0.003414 -0.014246 -0.001822 0.000714 -0.000834 0.046061
#
#
# Mechanical properties :
#
#
# Convention : Reuss Voigt Hill
#
# Bulk Modulus (GPa) = 22.43031 40.70695 31.56863
# Shear Modulus (GPa) = 30.35037 40.24256 35.29647
#
# Velocity S-wave (km/s) = 3.38690 3.89999 3.65247
# Velocity P-wave (km/s) = 4.87571 5.97205 5.45151
#
# Compressibility (1/GPa) = 0.04458252
#
# Stress axis : x y z
#
# Youngs Moduli (GPa) = 63.07744 41.38410 149.27173
#
# Poissons Ratio (x) = -0.05587 0.45116
# Poissons Ratio (y) = -0.08516 -0.09036
# Poissons Ratio (z) = 0.19065 -0.02505
#
# Static dielectric constant tensor:
#      x y z
#    x 3.744100 -0.848410 0.076380 
#    y -0.848410 2.813970 0.075470 
#    z 0.076380 0.075470 2.071820 
# 
# From -- ./inp_files/427739.got.cif
#   From: 2010.05.17/outbox.cif.g08.bks.cpg/sg2_214_cif.got.tgz:427739.got - 2010.06.03 11:33:40.
