data_PCOD9094755
_publ_section_title
;
Structure prediction by ZEFSAII (Michael W. Deem and Ramdas Pophale) SiO2 
 PCOD9094755
Probable space group: P -1
;
_chemical_formula_sum "Si O2"
_cell_formula_units_Z 16
_cell_length_a 9.624439
_cell_length_b 11.574096
_cell_length_c 14.440200
_cell_angle_alpha 39.694249
_cell_angle_beta 48.669257
_cell_angle_gamma 67.459704
_cell_volume 744.873816
_symmetry_space_group_name_H-M "P -1"
_symmetry_group_IT_number 2
_symmetry_cell_setting 'triclinic'
loop_
_space_group_symop_operation_xyz
x,y,z
-x,-y,-z
loop_
_atom_site_type_symbol
_atom_site_label
_atom_site_fract_x
_atom_site_fract_y
_atom_site_fract_z
Si Si1 0.460938 0.572046 0.186669
Si Si2 0.689597 0.987199 0.610889
Si Si3 0.374152 0.946083 0.909033
Si Si4 0.714685 0.767958 0.091270
Si Si5 0.964620 0.326354 0.869905
Si Si6 0.964743 0.614141 0.537106
Si Si7 0.397708 0.617786 0.904108
Si Si8 0.059542 0.042127 0.303229
O O1 0.522345 0.618974 0.235295
O O2 0.263311 0.421792 0.347049
O O3 0.613730 0.482424 0.126343
O O4 0.436174 0.761289 0.031020
O O5 0.533616 0.061157 0.695443
O O6 0.541604 0.821981 0.722904
O O7 0.856418 0.073486 0.409344
O O8 0.811659 0.929987 0.677275
O O9 0.348745 0.063355 0.936549
O O10 0.166958 0.861006 0.005619
O O11 0.851843 0.701710 0.142437
O O12 0.835321 0.830224 0.905634
O O13 0.019549 0.492540 0.669843
O O14 0.810507 0.379801 0.972273
O O15 0.000000 0.500000 0.500000
O O16 0.040004 0.831982 0.398751
O O17 0.500000 0.500000 0.000000
#
# Coordination Sequence:
#
# PCOD9094755 Si02
#       8
#     2   2   2   2   2   2   2   2
#     4  11  21  37  65  93 122 167 212 252 304 383
#     4  10  20  34  60  93 119 161 213 262 297 355
#     4  10  20  38  63  88 122 173 213 244 303 387
#     4  12  24  39  64  97 130 158 210 261 319 370
#     4  10  23  40  65  92 125 167 202 261 315 372
#     4  11  23  39  66  93 123 164 216 250 308 373
#     4  11  16  38  64  87 119 164 215 248 304 378
#     4  11  21  37  64  96 125 156 215 267 302 362
#
# _framework density 21.480148
#
# number of rings (size 3 to 8) (size 9 to 14) (size 15 to 20)
#    0.000    1.250    6.250    2.250    1.750    0.500 
#    0.000    3.125    8.250    0.000    0.000    0.000 
#    0.000    0.000    0.000    0.000    0.000    0.000 
#
# Total GULP energy -89169.419555 kJ/mol
# GULP energy per Si atom -5573.088722 kJ/mol
# Density = 2.143126 g / cm^3
# Si number density = 21.480148 Si / 1000 Ang^3
#
#
#
# Elastic Constant Matrix: (Units=GPa)
#
#
# Indices 1 2 3 4 5 6 
#
# 1 79.4976 31.7030 13.0676 -11.3279 9.9286 12.4331
# 2 31.7030 67.8823 -1.2759 21.6787 -10.5395 27.0468
# 3 13.0676 -1.2759 41.6290 9.0258 -12.5145 5.9857
# 4 -11.3279 21.6787 9.0258 22.7796 2.5571 -2.0269
# 5 9.9286 -10.5395 -12.5145 2.5571 1.6872 14.0735
# 6 12.4331 27.0468 5.9857 -2.0269 14.0735 17.8021
#
#
#
# Elastic Compliance Matrix: (Units=1/GPa)
#
#
# Indices 1 2 3 4 5 6 
#
# 1 0.015522 -0.001643 -0.001002 0.007089 0.010675 -0.015640
# 2 -0.001643 0.010287 -0.006598 -0.004606 -0.024781 0.006803
# 3 -0.001002 -0.006598 0.018604 0.000880 -0.011301 0.013504
# 4 0.007089 -0.004606 0.000880 0.045827 0.034238 -0.020099
# 5 0.010675 -0.024781 -0.011301 0.034238 0.013714 0.027051
# 6 -0.015640 0.006803 0.013504 -0.020099 0.027051 0.028545
#
#
# Mechanical properties :
#
#
# Convention : Reuss Voigt Hill
#
# Bulk Modulus (GPa) = 38.57045 30.66646 34.61845
# Shear Modulus (GPa) = 31.32293 18.15474 24.73883
#
# Velocity S-wave (km/s) = 3.82282 2.91036 3.39736
# Velocity P-wave (km/s) = 6.12214 5.05977 5.61613
#
# Compressibility (1/GPa) = 0.02592659
#
# Stress axis : x y z
#
# Youngs Moduli (GPa) = 64.42537 97.20798 53.75139
#
# Poissons Ratio (x) = 0.15972 0.05385
# Poissons Ratio (y) = 0.10586 0.35467
# Poissons Ratio (z) = 0.06454 0.64142
#
# Static dielectric constant tensor:
#      x y z
#    x 1.697000 -0.157700 -0.085180 
#    y -0.157700 1.492600 -0.057380 
#    z -0.085180 -0.057380 1.829860 
# 
# From -- ./inp_files/389013.got.cif
#   From: 2010.05.17/outbox.cif.g08.bks.cpg/sg2_195_cif.got.tgz:389013.got - 2010.06.03 11:33:40.
