data_PCOD9094903
_publ_section_title
;
Structure prediction by ZEFSAII (Michael W. Deem and Ramdas Pophale) SiO2 
 PCOD9094903
Probable space group: P -1
;
_chemical_formula_sum "Si O2"
_cell_formula_units_Z 16
_cell_length_a 18.655096
_cell_length_b 9.560176
_cell_length_c 15.327614
_cell_angle_alpha 36.058299
_cell_angle_beta 22.654297
_cell_angle_gamma 45.534266
_cell_volume 607.105620
_symmetry_space_group_name_H-M "P -1"
_symmetry_group_IT_number 2
_symmetry_cell_setting 'triclinic'
loop_
_space_group_symop_operation_xyz
x,y,z
-x,-y,-z
loop_
_atom_site_type_symbol
_atom_site_label
_atom_site_fract_x
_atom_site_fract_y
_atom_site_fract_z
Si Si1 0.658743 0.072452 0.615969
Si Si2 0.883883 0.309474 0.846215
Si Si3 0.083468 0.595239 0.953036
Si Si4 0.048729 0.796882 0.483636
Si Si5 0.710898 0.578889 0.762964
Si Si6 0.371431 0.726798 0.277985
Si Si7 0.265373 0.166970 0.940178
Si Si8 0.730332 0.768385 0.305562
O O1 0.775537 0.157273 0.355252
O O2 0.734123 0.240000 0.528752
O O3 0.680639 0.801908 0.745260
O O4 0.452382 0.117084 0.801171
O O5 0.763095 0.365640 0.870038
O O6 0.104118 0.332637 0.552468
O O7 0.704517 0.780397 0.222975
O O8 0.780050 0.051855 0.132778
O O9 0.203873 0.394812 0.941888
O O10 0.000000 0.500000 0.000000
O O11 0.925998 0.673250 0.150357
O O12 0.238755 0.727793 0.343808
O O13 0.899662 0.548352 0.767296
O O14 0.099981 0.935868 0.264341
O O15 0.000000 0.000000 0.500000
O O16 0.500000 0.500000 0.000000
O O17 0.420079 0.457823 0.369914
O O18 0.500000 0.000000 0.000000
#
# Coordination Sequence:
#
# PCOD9094903 Si02
#       8
#     2   2   2   2   2   2   2   2
#     4  12  21  40  66 100 139 176 231 295 352 412
#     4  11  24  44  68 102 145 189 240 293 360 431
#     4  10  20  34  64 100 128 169 221 289 343 408
#     4  12  26  43  68  99 142 191 235 285 360 433
#     4  11  23  40  71 109 142 180 237 307 358 416
#     4  12  26  43  65 100 141 188 233 291 354 430
#     4  11  22  39  68 105 136 175 236 295 351 411
#     4  11  23  44  70  99 140 183 241 295 358 420
#
# _framework density 26.354557
#
# number of rings (size 3 to 8) (size 9 to 14) (size 15 to 20)
#    0.000    0.750    5.000    4.875    3.500    0.500 
#    0.000    0.000    0.000    1.500    0.000    0.000 
#    0.000    0.000    0.000    0.000    0.000    0.000 
#
# Total GULP energy -89394.133751 kJ/mol
# GULP energy per Si atom -5587.133359 kJ/mol
# Density = 2.629457 g / cm^3
# Si number density = 26.354557 Si / 1000 Ang^3
#
#
#
# Elastic Constant Matrix: (Units=GPa)
#
#
# Indices 1 2 3 4 5 6 
#
# 1 74.1992 22.8370 38.9711 -10.1910 -2.1160 -19.5141
# 2 22.8370 149.0219 47.5173 -39.8865 -8.1872 -13.5348
# 3 38.9711 47.5173 133.8553 -43.1205 11.8071 -26.7903
# 4 -10.1910 -39.8865 -43.1205 66.9915 -12.7704 -4.0877
# 5 -2.1160 -8.1872 11.8071 -12.7704 44.2031 -6.8697
# 6 -19.5141 -13.5348 -26.7903 -4.0877 -6.8697 41.2985
#
#
#
# Elastic Compliance Matrix: (Units=1/GPa)
#
#
# Indices 1 2 3 4 5 6 
#
# 1 0.017390 -0.000530 -0.003547 0.000996 0.002954 0.006332
# 2 -0.000530 0.009168 -0.000918 0.005781 0.004119 0.003417
# 3 -0.003547 -0.000918 0.012614 0.007352 -0.000521 0.006847
# 4 0.000996 0.005781 0.007352 0.025496 0.008234 0.011028
# 5 0.002954 0.004119 -0.000521 0.008234 0.027251 0.007756
# 6 0.006332 0.003417 0.006847 0.011028 0.007756 0.035149
#
#
# Mechanical properties :
#
#
# Convention : Reuss Voigt Hill
#
# Bulk Modulus (GPa) = 34.26685 63.96969 49.11827
# Shear Modulus (GPa) = 34.06389 47.01535 40.53962
#
# Velocity S-wave (km/s) = 3.59907 4.22827 3.92629
# Velocity P-wave (km/s) = 5.50468 6.93997 6.26357
#
# Compressibility (1/GPa) = 0.02918273
#
# Stress axis : x y z
#
# Youngs Moduli (GPa) = 57.50529 109.07340 79.27846
#
# Poissons Ratio (x) = 0.05779 0.28121
# Poissons Ratio (y) = 0.03047 0.07274
# Poissons Ratio (z) = 0.20398 0.10008
#
# Static dielectric constant tensor:
#      x y z
#    x 2.104580 0.026880 0.104320 
#    y 0.026880 2.075210 0.012500 
#    z 0.104320 0.012500 2.327380 
# 
# From -- ./inp_files/602063.got.cif
#   From: 2010.05.17/outbox.cif.g08.bks.cpg/sg2_302_cif.got.tgz:602063.got - 2010.06.03 11:33:40.
