data_PCOD9094680
_publ_section_title
;
Structure prediction by ZEFSAII (Michael W. Deem and Ramdas Pophale) SiO2 
 PCOD9094680
Probable space group: P -1
;
_chemical_formula_sum "Si O2"
_cell_formula_units_Z 16
_cell_length_a 9.195707
_cell_length_b 14.698677
_cell_length_c 10.221298
_cell_angle_alpha 114.062463
_cell_angle_beta 96.221614
_cell_angle_gamma 42.823895
_cell_volume 816.037572
_symmetry_space_group_name_H-M "P -1"
_symmetry_group_IT_number 2
_symmetry_cell_setting 'triclinic'
loop_
_space_group_symop_operation_xyz
x,y,z
-x,-y,-z
loop_
_atom_site_type_symbol
_atom_site_label
_atom_site_fract_x
_atom_site_fract_y
_atom_site_fract_z
Si Si1 0.870943 0.749176 0.374933
Si Si2 0.979198 0.540387 0.866351
Si Si3 0.411967 0.974108 0.315324
Si Si4 0.504952 0.111984 0.021464
Si Si5 0.309339 0.617207 0.221575
Si Si6 0.212163 0.624656 0.917235
Si Si7 0.829800 0.092982 0.657062
Si Si8 0.074985 0.030652 0.907327
O O1 0.670916 0.864641 0.314219
O O2 0.949099 0.594882 0.284665
O O3 0.096008 0.695550 0.332787
O O4 0.748854 0.852351 0.553945
O O5 0.129396 0.556162 0.845157
O O6 0.728270 0.709622 0.915029
O O7 0.000000 0.500000 0.000000
O O8 0.391909 0.950501 0.150607
O O9 0.324510 0.924361 0.359637
O O10 0.500000 0.000000 0.000000
O O11 0.659567 0.091979 0.126006
O O12 0.564456 0.457400 0.187153
O O13 0.314673 0.733033 0.273103
O O14 0.264782 0.596089 0.061022
O O15 0.027288 0.805691 0.988565
O O16 0.975994 0.035869 0.768495
O O17 0.000000 0.000000 0.500000
O O18 0.000000 0.000000 0.000000
#
# Coordination Sequence:
#
# PCOD9094680 Si02
#       8
#     2   2   2   2   2   2   2   2
#     4  11  23  37  64  99 131 164 227 273 333 386
#     4  12  22  39  66 100 128 173 225 278 327 398
#     4  11  23  41  64  96 134 177 214 283 336 397
#     4  12  25  43  69  94 135 178 225 276 338 402
#     4  10  20  34  59  94 123 163 212 280 321 387
#     4  10  21  36  59  92 130 162 220 275 329 382
#     4  11  22  39  65  93 132 169 221 272 335 396
#     4  11  24  40  64  96 127 175 224 269 334 405
#
# _framework density 19.606940000000002
#
# number of rings (size 3 to 8) (size 9 to 14) (size 15 to 20)
#    0.000    1.000    6.250    0.750    3.500    0.000 
#    0.000    0.625    2.750    2.250    0.000    0.000 
#    0.000    0.000    0.000    0.000    0.000    0.000 
#
# Total GULP energy -89291.425243 kJ/mol
# GULP energy per Si atom -5580.714078 kJ/mol
# Density = 1.956231 g / cm^3
# Si number density = 19.606940 Si / 1000 Ang^3
#
#
#
# Elastic Constant Matrix: (Units=GPa)
#
#
# Indices 1 2 3 4 5 6 
#
# 1 101.1025 35.4215 17.7024 19.8328 -0.4068 0.2179
# 2 35.4215 98.1077 27.5099 26.0185 -2.3823 -12.0212
# 3 17.7024 27.5099 89.6906 27.4718 4.7513 1.8226
# 4 19.8328 26.0185 27.4718 25.1528 4.7135 -5.0483
# 5 -0.4068 -2.3823 4.7513 4.7135 33.4619 9.4849
# 6 0.2179 -12.0212 1.8226 -5.0483 9.4849 32.4151
#
#
#
# Elastic Compliance Matrix: (Units=1/GPa)
#
#
# Indices 1 2 3 4 5 6 
#
# 1 0.012481 -0.002698 0.001194 -0.009375 0.002019 -0.003202
# 2 -0.002698 0.015105 -0.000307 -0.012940 0.002053 0.003021
# 3 0.001194 -0.000307 0.017447 -0.021018 0.001872 -0.004924
# 4 -0.009375 -0.012940 -0.021018 0.089201 -0.014772 0.014660
# 5 0.002019 0.002053 0.001872 -0.014772 0.035265 -0.011977
# 6 -0.003202 0.003021 -0.004924 0.014660 -0.011977 0.038056
#
#
# Mechanical properties :
#
#
# Convention : Reuss Voigt Hill
#
# Bulk Modulus (GPa) = 24.14854 50.01870 37.08362
# Shear Modulus (GPa) = 22.22402 32.09043 27.15723
#
# Velocity S-wave (km/s) = 3.37037 4.04999 3.72571
# Velocity P-wave (km/s) = 5.24299 6.88738 6.12066
#
# Compressibility (1/GPa) = 0.04141037
#
# Stress axis : x y z
#
# Youngs Moduli (GPa) = 80.11948 66.20339 57.31800
#
# Poissons Ratio (x) = 0.17862 -0.06843
# Poissons Ratio (y) = 0.21617 0.01760
# Poissons Ratio (z) = -0.09565 0.02033
#
# Static dielectric constant tensor:
#      x y z
#    x 1.768210 -0.068460 -0.036640 
#    y -0.068460 1.680720 -0.005940 
#    z -0.036640 -0.005940 1.662570 
# 
# From -- ./inp_files/312470.got.cif
#   From: 2010.05.17/outbox.cif.g08.bks.cpg/sg2_157_cif.got.tgz:312470.got - 2010.06.03 11:33:40.
