data_PCOD9094414
_publ_section_title
;
Structure prediction by ZEFSAII (Michael W. Deem and Ramdas Pophale) SiO2 
 PCOD9094414
Probable space group: P -1
;
_chemical_formula_sum "Si O2"
_cell_formula_units_Z 12
_cell_length_a 11.693981
_cell_length_b 12.403023
_cell_length_c 15.033514
_cell_angle_alpha 137.103980
_cell_angle_beta 28.159318
_cell_angle_gamma 146.637575
_cell_volume 565.832077
_symmetry_space_group_name_H-M "P -1"
_symmetry_group_IT_number 2
_symmetry_cell_setting 'triclinic'
loop_
_space_group_symop_operation_xyz
x,y,z
-x,-y,-z
loop_
_atom_site_type_symbol
_atom_site_label
_atom_site_fract_x
_atom_site_fract_y
_atom_site_fract_z
Si Si1 0.293855 0.575310 0.288945
Si Si2 0.305909 0.560858 0.068381
Si Si3 0.063484 0.360657 0.729280
Si Si4 0.818226 0.757937 0.145924
Si Si5 0.469288 0.418471 0.325681
Si Si6 0.208920 0.996942 0.183351
O O1 0.258987 0.600011 0.224196
O O2 0.585316 0.768694 0.252356
O O3 0.000000 0.500000 0.500000
O O4 0.387657 0.423635 0.133896
O O5 0.246384 0.678866 0.112221
O O6 0.075580 0.336010 0.053939
O O7 0.263929 0.427785 0.544282
O O8 0.243986 0.529455 0.781676
O O9 0.019155 0.173280 0.692338
O O10 0.600000 0.580814 0.257839
O O11 0.067484 0.928905 0.140696
O O12 0.283351 0.202923 0.283657
O O13 0.500000 0.000000 0.000000
#
# Coordination Sequence:
#
# PCOD9094414 Si02
#       6
#     2   2   2   2   2   2
#     4   9  18  34  59  84 105 147 192 231 280 326
#     4   9  18  33  57  82 110 141 190 231 272 335
#     4  10  20  35  54  85 114 147 190 226 278 338
#     4   9  19  35  56  83 109 145 189 224 282 330
#     4  10  20  34  57  82 116 151 181 230 281 332
#     4  11  21  33  54  83 116 150 182 225 280 339
#
# _framework density 21.207706000000002
#
# number of rings (size 3 to 8) (size 9 to 14) (size 15 to 20)
#    1.000    1.333    0.000    3.500    0.000    2.667 
#    0.000    1.667    0.000   15.000    0.000    0.000 
#    0.000    0.000    0.000    0.000    0.000    0.000 
#
# Total GULP energy -66821.087768 kJ/mol
# GULP energy per Si atom -5568.423981 kJ/mol
# Density = 2.115944 g / cm^3
# Si number density = 21.207706 Si / 1000 Ang^3
#
#
#
# Elastic Constant Matrix: (Units=GPa)
#
#
# Indices 1 2 3 4 5 6 
#
# 1 127.8055 37.5751 18.2278 5.7763 10.4319 41.3251
# 2 37.5751 99.5308 4.1072 11.5642 8.3588 35.7698
# 3 18.2278 4.1072 70.4145 -4.2141 13.1417 16.1438
# 4 5.7763 11.5642 -4.2141 19.9768 5.6510 5.6827
# 5 10.4319 8.3588 13.1417 5.6510 29.4984 8.8181
# 6 41.3251 35.7698 16.1438 5.6827 8.8181 36.1838
#
#
#
# Elastic Compliance Matrix: (Units=1/GPa)
#
#
# Indices 1 2 3 4 5 6 
#
# 1 0.012437 0.000641 0.000251 0.000423 -0.000306 -0.014942
# 2 0.000641 0.016493 0.002655 -0.004168 -0.000036 -0.017557
# 3 0.000251 0.002655 0.018136 0.007205 -0.007198 -0.010380
# 4 0.000423 -0.004168 0.007205 0.058870 -0.011669 -0.005979
# 5 -0.000306 -0.000036 -0.007198 -0.011669 0.040811 -0.004516
# 6 -0.014942 -0.017557 -0.010380 -0.005979 -0.004516 0.068728
#
#
# Mechanical properties :
#
#
# Convention : Reuss Voigt Hill
#
# Bulk Modulus (GPa) = 18.46408 46.39679 32.43044
# Shear Modulus (GPa) = 22.08126 32.98783 27.53455
#
# Velocity S-wave (km/s) = 3.23025 3.94822 3.60714
# Velocity P-wave (km/s) = 4.75793 6.53524 5.71609
#
# Compressibility (1/GPa) = 0.05415921
#
# Stress axis : x y z
#
# Youngs Moduli (GPa) = 80.40242 60.63313 55.13814
#
# Poissons Ratio (x) = -0.03885 -0.01385
# Poissons Ratio (y) = -0.05151 -0.14637
# Poissons Ratio (z) = -0.02020 -0.16096
#
# Static dielectric constant tensor:
#      x y z
#    x 1.814730 0.018500 -0.018190 
#    y 0.018500 1.818130 -0.029610 
#    z -0.018190 -0.029610 1.805390 
# 
# From -- ./inp_files/141001.got.cif
#   From: 2010.05.17/outbox.cif.g08.bks.cpg/sg2_71_cif.got.tgz:141001.got - 2010.06.03 11:33:40.
