data_PCOD9094142
_publ_section_title
;
Structure prediction by ZEFSAII (Michael W. Deem and Ramdas Pophale) SiO2 
 PCOD9094142
Probable space group: P -1
;
_chemical_formula_sum "Si O2"
_cell_formula_units_Z 12
_cell_length_a 22.156675
_cell_length_b 5.125235
_cell_length_c 14.071672
_cell_angle_alpha 70.746720
_cell_angle_beta 153.245338
_cell_angle_gamma 116.145213
_cell_volume 637.668089
_symmetry_space_group_name_H-M "P -1"
_symmetry_group_IT_number 2
_symmetry_cell_setting 'triclinic'
loop_
_space_group_symop_operation_xyz
x,y,z
-x,-y,-z
loop_
_atom_site_type_symbol
_atom_site_label
_atom_site_fract_x
_atom_site_fract_y
_atom_site_fract_z
Si Si1 0.421660 0.234682 0.850976
Si Si2 0.559079 0.467339 0.360241
Si Si3 0.680155 0.039750 0.832277
Si Si4 0.884183 0.038957 0.454100
Si Si5 0.928542 0.348351 0.283887
Si Si6 0.613175 0.912131 0.547635
O O1 0.433211 0.356877 0.745866
O O2 0.258114 0.087519 0.670278
O O3 0.500000 0.500000 0.000000
O O4 0.500000 0.000000 0.000000
O O5 0.395727 0.268001 0.181536
O O6 0.635438 0.223786 0.490424
O O7 0.623732 0.680462 0.513956
O O8 0.702216 0.967792 0.763034
O O9 0.553046 0.179758 0.640108
O O10 0.815776 0.246251 0.053235
O O11 0.856714 0.188604 0.299841
O O12 0.004582 0.304658 0.645261
O O13 0.945779 0.783008 0.544502
#
# Coordination Sequence:
#
# PCOD9094142 Si02
#       6
#     2   2   2   2   2   2
#     4  12  24  38  60  81 113 151 189 229 278 337
#     4  10  20  34  54  83 114 140 176 247 271 322
#     4   9  20  33  61  84 110 145 186 230 290 310
#     4  10  23  38  51  86 108 149 187 219 282 330
#     4  10  21  36  59  75 118 144 181 234 267 344
#     4   9  20  33  55  90 110 136 192 234 278 322
#
# _framework density 18.818567999999999
#
# number of rings (size 3 to 8) (size 9 to 14) (size 15 to 20)
#    1.000    1.000    0.000    3.500    4.667    1.333 
#    0.000    0.000    0.000    6.000    0.000    0.000 
#    0.000    0.000    0.000    0.000    0.000    0.000 
#
# Total GULP energy -66957.829648 kJ/mol
# GULP energy per Si atom -5579.819137 kJ/mol
# Density = 1.877574 g / cm^3
# Si number density = 18.818568 Si / 1000 Ang^3
#
#
#
# Elastic Constant Matrix: (Units=GPa)
#
#
# Indices 1 2 3 4 5 6 
#
# 1 66.3564 34.6013 22.1692 -1.8636 -21.1584 13.6349
# 2 34.6013 82.7677 8.4496 -0.1409 -11.8241 2.6362
# 3 22.1692 8.4496 74.7067 11.6658 -32.5562 14.1900
# 4 -1.8636 -0.1409 11.6658 22.0823 -8.5927 -11.7370
# 5 -21.1584 -11.8241 -32.5562 -8.5927 28.1355 -0.4280
# 6 13.6349 2.6362 14.1900 -11.7370 -0.4280 37.7899
#
#
#
# Elastic Compliance Matrix: (Units=1/GPa)
#
#
# Indices 1 2 3 4 5 6 
#
# 1 0.027315 -0.008287 0.003708 0.004205 0.022496 -0.009109
# 2 -0.008287 0.015630 0.001070 0.000369 0.001713 0.001632
# 3 0.003708 0.001070 0.034468 -0.012021 0.039183 -0.017645
# 4 0.004205 0.000369 -0.012021 0.069353 0.010963 0.024635
# 5 0.022496 0.001713 0.039183 0.010963 0.101587 -0.018394
# 6 -0.009109 0.001632 -0.017645 0.024635 -0.018394 0.043704
#
#
# Mechanical properties :
#
#
# Convention : Reuss Voigt Hill
#
# Bulk Modulus (GPa) = 14.20515 39.36348 26.78431
# Shear Modulus (GPa) = 15.50199 28.17557 21.83878
#
# Velocity S-wave (km/s) = 2.87324 3.87359 3.41029
# Velocity P-wave (km/s) = 4.30955 6.40071 5.45625
#
# Compressibility (1/GPa) = 0.07039702
#
# Stress axis : x y z
#
# Youngs Moduli (GPa) = 36.60974 63.97795 29.01224
#
# Poissons Ratio (x) = 0.53017 -0.10759
# Poissons Ratio (y) = 0.30338 -0.03104
# Poissons Ratio (z) = -0.13576 -0.06846
#
# Static dielectric constant tensor:
#      x y z
#    x 1.643070 -0.008310 -0.004020 
#    y -0.008310 1.670690 -0.017900 
#    z -0.004020 -0.017900 1.643830 
# 
# From -- ./inp_files/66702.got.cif
#   From: 2010.05.17/outbox.cif.g08.bks.cpg/sg2_34_cif.got.tgz:66702.got - 2010.06.03 11:33:40.
