data_PCOD9094863
_publ_section_title
;
Structure prediction by ZEFSAII (Michael W. Deem and Ramdas Pophale) SiO2 
 PCOD9094863
Probable space group: P -1
;
_chemical_formula_sum "Si O2"
_cell_formula_units_Z 15
_cell_length_a 21.804690
_cell_length_b 12.095138
_cell_length_c 24.522722
_cell_angle_alpha 29.692255
_cell_angle_beta 19.107933
_cell_angle_gamma 19.733764
_cell_volume 702.173191
_symmetry_space_group_name_H-M "P -1"
_symmetry_group_IT_number 2
_symmetry_cell_setting 'triclinic'
loop_
_space_group_symop_operation_xyz
x,y,z
-x,-y,-z
loop_
_atom_site_type_symbol
_atom_site_label
_atom_site_fract_x
_atom_site_fract_y
_atom_site_fract_z
Si Si1 0.453325 0.648604 0.784622
Si Si2 0.198169 0.389541 0.931972
Si Si3 0.708297 0.146041 0.447491
Si Si4 0.885246 0.128268 0.126704
Si Si5 0.317465 0.192296 0.295053
Si Si6 0.500000 0.500000 0.000000
Si Si7 0.258067 0.136952 0.562270
Si Si8 0.260465 0.868152 0.143655
O O1 0.359052 0.612009 0.823808
O O2 0.552794 0.810157 0.616430
O O3 0.687615 0.308495 0.768666
O O4 0.175688 0.896386 0.949409
O O5 0.125979 0.682583 0.896224
O O6 0.504916 0.112796 0.765837
O O7 0.000000 0.500000 0.000000
O O8 0.190080 0.191474 0.066676
O O9 0.500000 0.500000 0.500000
O O10 0.725802 0.914111 0.569480
O O11 0.616282 0.152312 0.462566
O O12 0.018589 0.978009 0.260439
O O13 0.824226 0.935474 0.284951
O O14 0.025273 0.527411 0.372215
O O15 0.486608 0.263178 0.139785
O O16 0.476035 0.399610 0.002728
#
# Coordination Sequence:
#
# PCOD9094863 Si02
#       8
#     2   2   2   2   2   1   2   2
#     4  11  26  45  71  93 132 182 231 266 327 408
#     4  11  25  40  67  99 136 169 217 284 340 392
#     4  12  24  37  61 101 135 162 213 279 334 386
#     4  11  26  47  66  99 131 177 227 280 328 393
#     4  11  22  39  61  97 130 170 215 266 340 398
#     4  10  20  34  62  92 126 164 214 256 326 390
#     4  12  23  43  71  93 135 175 226 274 333 401
#     4  11  22  40  63  95 129 176 210 269 334 395
#
# _framework density 21.362252999999999
#
# number of rings (size 3 to 8) (size 9 to 14) (size 15 to 20)
#    0.000    0.800    2.667    5.600    9.333    0.533 
#    0.000    0.667    0.000    0.000    0.000    0.000 
#    0.000    0.000    0.000    0.000    0.000    0.000 
#
# Total GULP energy -83564.439792 kJ/mol
# GULP energy per Si atom -5570.962653 kJ/mol
# Density = 2.131363 g / cm^3
# Si number density = 21.362253 Si / 1000 Ang^3
#
#
#
# Elastic Constant Matrix: (Units=GPa)
#
#
# Indices 1 2 3 4 5 6 
#
# 1 89.3377 30.0300 25.2675 -0.1448 -12.1658 -3.8405
# 2 30.0300 71.2267 23.9273 -16.7363 0.6090 -4.9589
# 3 25.2675 23.9273 109.7033 -37.7614 1.6260 0.1162
# 4 -0.1448 -16.7363 -37.7614 41.1487 -4.0639 10.9412
# 5 -12.1658 0.6090 1.6260 -4.0639 25.6601 1.5283
# 6 -3.8405 -4.9589 0.1162 10.9412 1.5283 25.5124
#
#
#
# Elastic Compliance Matrix: (Units=1/GPa)
#
#
# Indices 1 2 3 4 5 6 
#
# 1 0.015844 -0.006581 -0.004908 -0.007533 0.006550 0.003966
# 2 -0.006581 0.018532 0.000084 0.007480 -0.002354 -0.000456
# 3 -0.004908 0.000084 0.016036 0.016842 -0.000201 -0.008006
# 4 -0.007533 0.007480 0.016842 0.048743 0.004149 -0.020909
# 5 0.006550 -0.002354 -0.000201 0.004149 0.043030 -0.003828
# 6 0.003966 -0.000456 -0.008006 -0.020909 -0.003828 0.048938
#
#
# Mechanical properties :
#
#
# Convention : Reuss Voigt Hill
#
# Bulk Modulus (GPa) = 36.22911 47.63524 41.93218
# Shear Modulus (GPa) = 22.40799 31.20045 26.80422
#
# Velocity S-wave (km/s) = 3.24227 3.82585 3.54608
# Velocity P-wave (km/s) = 5.56890 6.47019 6.03639
#
# Compressibility (1/GPa) = 0.02760212
#
# Stress axis : x y z
#
# Youngs Moduli (GPa) = 63.11524 53.96018 62.35812
#
# Poissons Ratio (x) = 0.35512 0.30606
# Poissons Ratio (y) = 0.41537 -0.00523
# Poissons Ratio (z) = 0.30977 -0.00453
#
# Static dielectric constant tensor:
#      x y z
#    x 1.766640 -0.003600 0.029100 
#    y -0.003600 1.917400 0.166860 
#    z 0.029100 0.166860 2.105420 
# 
# From -- ./inp_files/166220.got.cif
#   From: 2010.05.17/outbox.cif.g08.bks.cpg/sg2_84_cif.got.tgz:166220.got - 2010.06.03 11:33:40.
