data_PCOD9094348
_publ_section_title
;
Structure prediction by ZEFSAII (Michael W. Deem and Ramdas Pophale) SiO2 
 PCOD9094348
Probable space group: P -1
;
_chemical_formula_sum "Si O2"
_cell_formula_units_Z 16
_cell_length_a 12.457587
_cell_length_b 9.864075
_cell_length_c 13.381170
_cell_angle_alpha 120.163478
_cell_angle_beta 134.032745
_cell_angle_gamma 92.257706
_cell_volume 797.677603
_symmetry_space_group_name_H-M "P -1"
_symmetry_group_IT_number 2
_symmetry_cell_setting 'triclinic'
loop_
_space_group_symop_operation_xyz
x,y,z
-x,-y,-z
loop_
_atom_site_type_symbol
_atom_site_label
_atom_site_fract_x
_atom_site_fract_y
_atom_site_fract_z
Si Si1 0.568347 0.127739 0.243733
Si Si2 0.531608 0.243192 0.680571
Si Si3 0.320205 0.801925 0.440612
Si Si4 0.165541 0.222878 0.720349
Si Si5 0.093963 0.524486 0.852354
Si Si6 0.394391 0.154872 0.961229
Si Si7 0.939255 0.564659 0.579321
Si Si8 0.683632 0.608525 0.325094
O O1 0.550476 0.124897 0.348951
O O2 0.748302 0.357961 0.422982
O O3 0.621291 0.989577 0.186042
O O4 0.399253 0.075620 0.042498
O O5 0.604629 0.257412 0.621626
O O6 0.448629 0.362339 0.686588
O O7 0.361144 0.007407 0.507325
O O8 0.714576 0.333897 0.905130
O O9 0.101708 0.614800 0.259939
O O10 0.105672 0.361217 0.748079
O O11 0.248230 0.198369 0.863802
O O12 0.302311 0.307120 0.743914
O O13 0.000000 0.000000 0.500000
O O14 0.078099 0.638171 0.792462
O O15 0.591940 0.378299 0.160215
O O16 0.878963 0.693565 0.541867
O O17 0.000000 0.500000 0.500000
#
# Coordination Sequence:
#
# PCOD9094348 Si02
#       8
#     2   2   2   2   2   2   2   2
#     4   9  20  36  57  82 124 156 194 244 308 363
#     4  11  23  41  67  85 119 167 210 256 294 363
#     4  10  23  43  62  87 121 162 213 251 302 357
#     4  12  22  33  56  90 125 150 193 256 308 355
#     4  11  22  39  63  89 121 161 205 248 309 367
#     4  10  20  34  56  86 118 152 192 245 302 373
#     4  10  20  36  55  89 129 160 186 247 314 369
#     4  11  22  37  59  91 121 154 204 246 307 370
#
# _framework density 20.058229999999998
#
# number of rings (size 3 to 8) (size 9 to 14) (size 15 to 20)
#    0.000    1.500    2.500    3.750    1.750    1.000 
#    0.000    5.625    0.000    1.500    0.000    0.000 
#    0.000    0.000    0.000    0.000    0.000    0.000 
#
# Total GULP energy -89217.594646 kJ/mol
# GULP energy per Si atom -5576.099665 kJ/mol
# Density = 2.001258 g / cm^3
# Si number density = 20.058230 Si / 1000 Ang^3
#
#
#
# Elastic Constant Matrix: (Units=GPa)
#
#
# Indices 1 2 3 4 5 6 
#
# 1 80.7160 24.8879 28.5214 -21.2883 -15.4937 1.3335
# 2 24.8879 68.5960 17.5387 -21.6527 0.0709 -1.8299
# 3 28.5214 17.5387 63.6678 -21.9217 -10.9688 -1.5670
# 4 -21.2883 -21.6527 -21.9217 40.4645 0.1408 3.2186
# 5 -15.4937 0.0709 -10.9688 0.1408 29.1552 -3.8220
# 6 1.3335 -1.8299 -1.5670 3.2186 -3.8220 25.0481
#
#
#
# Elastic Compliance Matrix: (Units=1/GPa)
#
#
# Indices 1 2 3 4 5 6 
#
# 1 0.017854 -0.003867 -0.003750 0.005339 0.007937 -0.000943
# 2 -0.003867 0.018603 -0.001372 0.007174 -0.002630 0.000156
# 3 -0.003750 -0.001372 0.022039 0.009108 0.006427 0.001289
# 4 0.005339 0.007174 0.009108 0.036515 0.005675 -0.003017
# 5 0.007937 -0.002630 0.006427 0.005675 0.041623 0.005409
# 6 -0.000943 0.000156 0.001289 -0.003017 0.005409 0.041278
#
#
# Mechanical properties :
#
#
# Convention : Reuss Voigt Hill
#
# Bulk Modulus (GPa) = 24.67974 39.43065 32.05519
# Shear Modulus (GPa) = 23.87808 28.40235 26.14021
#
# Velocity S-wave (km/s) = 3.45402 3.76705 3.61393
# Velocity P-wave (km/s) = 5.31392 6.21463 5.78184
#
# Compressibility (1/GPa) = 0.04051907
#
# Stress axis : x y z
#
# Youngs Moduli (GPa) = 56.01007 53.75439 45.37333
#
# Poissons Ratio (x) = 0.20786 0.17016
# Poissons Ratio (y) = 0.21658 0.06224
# Poissons Ratio (z) = 0.21005 0.07373
#
# Static dielectric constant tensor:
#      x y z
#    x 1.694870 0.010960 0.057790 
#    y 0.010960 1.829460 -0.196740 
#    z 0.057790 -0.196740 2.007030 
# 
# From -- ./inp_files/329322.got.cif
#   From: 2010.05.17/outbox.cif.g08.bks.cpg/sg2_165_cif.got.tgz:329322.got - 2010.06.03 11:33:40.
