data_PCOD9094097
_publ_section_title
;
Structure prediction by ZEFSAII (Michael W. Deem and Ramdas Pophale) SiO2 
 PCOD9094097
Probable space group: P -1
;
_chemical_formula_sum "Si O2"
_cell_formula_units_Z 14
_cell_length_a 6.726113
_cell_length_b 15.732734
_cell_length_c 9.228776
_cell_angle_alpha 57.994693
_cell_angle_beta 131.842982
_cell_angle_gamma 111.382283
_cell_volume 616.855910
_symmetry_space_group_name_H-M "P -1"
_symmetry_group_IT_number 2
_symmetry_cell_setting 'triclinic'
loop_
_space_group_symop_operation_xyz
x,y,z
-x,-y,-z
loop_
_atom_site_type_symbol
_atom_site_label
_atom_site_fract_x
_atom_site_fract_y
_atom_site_fract_z
Si Si1 0.684606 0.380513 0.669617
Si Si2 0.924185 0.136710 0.334646
Si Si3 0.691430 0.352875 0.038926
Si Si4 0.901614 0.591585 0.593605
Si Si5 0.662404 0.950062 0.898340
Si Si6 0.892216 0.729136 0.190235
Si Si7 0.967421 0.991518 0.740345
O O1 0.815094 0.484084 0.581983
O O2 0.370261 0.374350 0.487498
O O3 0.861879 0.291060 0.778159
O O4 0.696516 0.387704 0.843619
O O5 0.862967 0.251628 0.216573
O O6 0.642471 0.080892 0.213801
O O7 0.012942 0.086493 0.572196
O O8 0.092939 0.102608 0.309176
O O9 0.846875 0.421602 0.167054
O O10 0.384684 0.323892 0.951691
O O11 0.957931 0.673819 0.423267
O O12 0.822307 0.844981 0.072764
O O13 0.775374 0.016431 0.023947
O O14 0.732314 0.001622 0.733285
#
# Coordination Sequence:
#
# PCOD9094097 Si02
#       7
#     2   2   2   2   2   2   2
#     4  10  21  37  56  80 109 140 177 219 263 315
#     4  10  20  35  53  76 105 136 174 217 260 309
#     4  10  21  36  55  80 109 140 177 220 264 314
#     4  10  21  37  56  80 109 140 177 219 263 315
#     4  10  20  35  53  76 105 136 174 217 260 309
#     4  10  21  36  55  80 109 140 177 220 264 314
#     4  10  20  34  54  76 102 138 174 212 262 312
#
# _framework density 22.695737999999999
#
# number of rings (size 3 to 8) (size 9 to 14) (size 15 to 20)
#    0.000    2.000    0.000    3.429    0.000    1.714 
#    0.000    7.143    0.000    0.000    0.000    0.000 
#    0.000    0.000    0.000    0.000    0.000    0.000 
#
# Total GULP energy -78218.047037 kJ/mol
# GULP energy per Si atom -5587.003360 kJ/mol
# Density = 2.264408 g / cm^3
# Si number density = 22.695738 Si / 1000 Ang^3
#
#
#
# Elastic Constant Matrix: (Units=GPa)
#
#
# Indices 1 2 3 4 5 6 
#
# 1 61.3821 6.7014 18.4802 9.3183 -1.3434 -9.0824
# 2 6.7014 28.8854 5.1749 4.9276 -0.3581 6.6558
# 3 18.4802 5.1749 67.4350 4.4035 -12.0037 -1.7392
# 4 9.3183 4.9276 4.4035 36.8778 -1.6770 6.2363
# 5 -1.3434 -0.3581 -12.0037 -1.6770 31.1965 -3.2572
# 6 -9.0824 6.6558 -1.7392 6.2363 -3.2572 24.9702
#
#
#
# Elastic Compliance Matrix: (Units=1/GPa)
#
#
# Indices 1 2 3 4 5 6 
#
# 1 0.020591 -0.005278 -0.004654 -0.005635 -0.000229 0.009950
# 2 -0.005278 0.039343 -0.002137 -0.001662 -0.001982 -0.012399
# 3 -0.004654 -0.002137 0.017504 -0.000512 0.006596 0.001084
# 4 -0.005635 -0.001662 -0.000512 0.030390 0.000214 -0.009204
# 5 -0.000229 -0.001982 0.006596 0.000214 0.035139 0.005435
# 6 0.009950 -0.012399 0.001084 -0.009204 0.005435 0.050055
#
#
# Mechanical properties :
#
#
# Convention : Reuss Voigt Hill
#
# Bulk Modulus (GPa) = 18.76138 24.26838 21.51488
# Shear Modulus (GPa) = 21.28331 27.09866 24.19098
#
# Velocity S-wave (km/s) = 3.06562 3.45918 3.26833
# Velocity P-wave (km/s) = 4.56236 5.16437 4.87267
#
# Compressibility (1/GPa) = 0.05330099
#
# Stress axis : x y z
#
# Youngs Moduli (GPa) = 48.56389 25.41774 57.12989
#
# Poissons Ratio (x) = 0.13414 0.26589
# Poissons Ratio (y) = 0.25630 0.12208
# Poissons Ratio (z) = 0.22602 0.05431
#
# Static dielectric constant tensor:
#      x y z
#    x 1.856470 -0.009110 0.002730 
#    y -0.009110 1.822270 -0.015850 
#    z 0.002730 -0.015850 1.849190 
# 
# From -- ./inp_files/35633.got.cif
#   From: 2010.05.17/outbox.cif.g08.bks.cpg/sg2_18_cif.got.tgz:35633.got - 2010.06.03 11:33:40.
