data_PCOD9094668
_publ_section_title
;
Structure prediction by ZEFSAII (Michael W. Deem and Ramdas Pophale) SiO2 
 PCOD9094668
Probable space group: P -1
;
_chemical_formula_sum "Si O2"
_cell_formula_units_Z 12
_cell_length_a 11.972488
_cell_length_b 9.287310
_cell_length_c 8.204481
_cell_angle_alpha 46.587805
_cell_angle_beta 75.427201
_cell_angle_gamma 54.870483
_cell_volume 525.866526
_symmetry_space_group_name_H-M "P -1"
_symmetry_group_IT_number 2
_symmetry_cell_setting 'triclinic'
loop_
_space_group_symop_operation_xyz
x,y,z
-x,-y,-z
loop_
_atom_site_type_symbol
_atom_site_label
_atom_site_fract_x
_atom_site_fract_y
_atom_site_fract_z
Si Si1 0.383666 0.997735 0.376696
Si Si2 0.590803 0.600122 0.847333
Si Si3 0.893622 0.629863 0.681336
Si Si4 0.138406 0.731779 0.180616
Si Si5 0.790264 0.150974 0.606816
Si Si6 0.912101 0.332455 0.214072
O O1 0.412509 0.204497 0.183531
O O2 0.256758 0.113916 0.469342
O O3 0.522274 0.763544 0.582329
O O4 0.318910 0.921205 0.319850
O O5 0.747193 0.371279 0.925919
O O6 0.500000 0.500000 0.000000
O O7 0.907864 0.451873 0.676817
O O8 0.025991 0.637832 0.662447
O O9 0.879113 0.533339 0.939193
O O10 0.217350 0.727775 0.315549
O O11 0.000000 0.000000 0.000000
O O12 0.789104 0.305806 0.335290
O O13 0.950583 0.910475 0.722189
#
# Coordination Sequence:
#
# PCOD9094668 Si02
#       6
#     2   2   2   2   2   2
#     4   9  21  39  63  85 118 160 213 241 292 380
#     4  10  23  43  66  87 120 168 203 246 307 370
#     4   9  18  35  59  85 124 162 205 248 291 372
#     4  11  22  37  60  93 127 153 200 264 304 346
#     4  10  20  34  59  91 123 156 202 255 304 355
#     4   9  18  33  58  88 120 167 200 241 308 362
#
# _framework density 22.819476999999999
#
# number of rings (size 3 to 8) (size 9 to 14) (size 15 to 20)
#    0.000    2.333    1.667    0.000    4.667    2.667 
#    0.000    4.167    0.000    0.000    0.000    0.000 
#    0.000    0.000    0.000    0.000    0.000    0.000 
#
# Total GULP energy -66894.055147 kJ/mol
# GULP energy per Si atom -5574.504596 kJ/mol
# Density = 2.276754 g / cm^3
# Si number density = 22.819477 Si / 1000 Ang^3
#
#
#
# Elastic Constant Matrix: (Units=GPa)
#
#
# Indices 1 2 3 4 5 6 
#
# 1 150.4399 42.4786 20.7882 1.2723 -24.7941 36.5100
# 2 42.4786 90.8140 14.8638 -11.1488 0.5810 30.9969
# 3 20.7882 14.8638 52.1641 -6.7079 -13.9253 -1.5010
# 4 1.2723 -11.1488 -6.7079 25.3801 -0.1426 9.8249
# 5 -24.7941 0.5810 -13.9253 -0.1426 41.4840 -5.0179
# 6 36.5100 30.9969 -1.5010 9.8249 -5.0179 58.7159
#
#
#
# Elastic Compliance Matrix: (Units=1/GPa)
#
#
# Indices 1 2 3 4 5 6 
#
# 1 0.009426 -0.002891 -0.001920 -0.000725 0.004559 -0.003873
# 2 -0.002891 0.017702 -0.003999 0.010637 -0.004468 -0.009811
# 3 -0.001920 -0.003999 0.023532 0.003043 0.007304 0.004022
# 4 -0.000725 0.010637 0.003043 0.050160 -0.001030 -0.013568
# 5 0.004559 -0.004468 0.007304 -0.001030 0.029634 0.002416
# 6 -0.003873 -0.009811 0.004022 -0.013568 0.002416 0.027199
#
#
# Mechanical properties :
#
#
# Convention : Reuss Voigt Hill
#
# Bulk Modulus (GPa) = 30.26759 49.96433 40.11596
# Shear Modulus (GPa) = 26.84033 39.46850 33.15441
#
# Velocity S-wave (km/s) = 3.43330 4.16335 3.81583
# Velocity P-wave (km/s) = 5.38604 6.71226 6.08539
#
# Compressibility (1/GPa) = 0.03303864
#
# Stress axis : x y z
#
# Youngs Moduli (GPa) = 106.08582 56.49231 42.49512
#
# Poissons Ratio (x) = 0.16332 0.08161
# Poissons Ratio (y) = 0.30669 0.16995
# Poissons Ratio (z) = 0.20374 0.22592
#
# Static dielectric constant tensor:
#      x y z
#    x 1.975550 0.025580 0.020410 
#    y 0.025580 1.840090 -0.029760 
#    z 0.020410 -0.029760 1.942980 
# 
# From -- ./inp_files/233162.got.cif
#   From: 2010.05.17/outbox.cif.g08.bks.cpg/sg2_117_cif.got.tgz:233162.got - 2010.06.03 11:33:40.
