data_PCOD9094984
_publ_section_title
;
Structure prediction by ZEFSAII (Michael W. Deem and Ramdas Pophale) SiO2 
 PCOD9094984
Probable space group: P -1
;
_chemical_formula_sum "Si O2"
_cell_formula_units_Z 16
_cell_length_a 9.262514
_cell_length_b 11.986817
_cell_length_c 13.522448
_cell_angle_alpha 30.856120
_cell_angle_beta 107.264081
_cell_angle_gamma 100.260484
_cell_volume 726.277124
_symmetry_space_group_name_H-M "P -1"
_symmetry_group_IT_number 2
_symmetry_cell_setting 'triclinic'
loop_
_space_group_symop_operation_xyz
x,y,z
-x,-y,-z
loop_
_atom_site_type_symbol
_atom_site_label
_atom_site_fract_x
_atom_site_fract_y
_atom_site_fract_z
Si Si1 0.461543 0.422630 0.204492
Si Si2 0.926985 0.803076 0.450494
Si Si3 0.834206 0.512216 0.504642
Si Si4 0.477253 0.163635 0.194464
Si Si5 0.598135 0.256191 0.716398
Si Si6 0.233632 0.163772 0.418610
Si Si7 0.669481 0.976519 0.135002
Si Si8 0.750048 0.095268 0.586468
O O1 0.459145 0.304315 0.186952
O O2 0.608477 0.289431 0.390627
O O3 0.300997 0.389376 0.244530
O O4 0.487280 0.669171 0.008194
O O5 0.863392 0.583172 0.569979
O O6 0.807071 0.989518 0.228903
O O7 0.094166 0.812145 0.436052
O O8 0.910179 0.819112 0.551999
O O9 0.748192 0.300837 0.652081
O O10 0.730888 0.739488 0.271964
O O11 0.000000 0.500000 0.500000
O O12 0.624137 0.984272 0.384616
O O13 0.320924 0.062587 0.232046
O O14 0.500000 0.500000 0.500000
O O15 0.482485 0.085296 0.794890
O O16 0.640707 0.169532 0.902243
O O17 0.217056 0.046246 0.400670
#
# Coordination Sequence:
#
# PCOD9094984 Si02
#       8
#     2   2   2   2   2   2   2   2
#     4   8  15  31  53  71  96 140 185 214 254 302
#     4  10  20  35  49  80 114 132 179 217 259 323
#     4   9  20  37  56  77 106 139 169 219 273 319
#     4   8  15  31  51  71  97 138 184 220 252 301
#     4   9  16  38  63  76  99 135 171 218 272 320
#     4   9  17  32  53  74 105 145 177 217 255 297
#     4   8  19  35  58  80 101 137 172 219 265 323
#     4   9  17  32  52  74 110 145 172 213 261 301
#
# _framework density 22.030159999999999
#
# number of rings (size 3 to 8) (size 9 to 14) (size 15 to 20)
#    0.750    2.500    0.000    1.875    0.000    0.500 
#    9.000    0.000    2.750    6.000    0.000    0.000 
#    0.000    0.000    0.000    0.000    0.000    0.000 
#
# Total GULP energy -89078.745047 kJ/mol
# GULP energy per Si atom -5567.421565 kJ/mol
# Density = 2.198002 g / cm^3
# Si number density = 22.030160 Si / 1000 Ang^3
#
#
#
# Elastic Constant Matrix: (Units=GPa)
#
#
# Indices 1 2 3 4 5 6 
#
# 1 126.2147 8.6214 38.2521 -6.7673 -33.7181 14.7496
# 2 8.6214 45.3064 15.5420 -8.5807 -2.6985 10.4784
# 3 38.2521 15.5420 113.4604 -15.2647 -32.5724 9.7614
# 4 -6.7673 -8.5807 -15.2647 22.8648 6.0811 -6.8020
# 5 -33.7181 -2.6985 -32.5724 6.0811 25.2921 -1.1216
# 6 14.7496 10.4784 9.7614 -6.8020 -1.1216 35.4088
#
#
#
# Elastic Compliance Matrix: (Units=1/GPa)
#
#
# Indices 1 2 3 4 5 6 
#
# 1 0.013409 -0.001060 0.001543 -0.002380 0.020077 -0.005519
# 2 -0.001060 0.025544 -0.003077 0.006912 -0.004537 -0.005085
# 3 0.001543 -0.003077 0.015262 0.003250 0.020485 -0.002666
# 4 -0.002380 0.006912 0.003250 0.052970 -0.010637 0.007889
# 5 0.020077 -0.004537 0.020485 -0.010637 0.094239 -0.011726
# 6 -0.005519 -0.005085 -0.002666 0.007889 -0.011726 0.033924
#
#
# Mechanical properties :
#
#
# Convention : Reuss Voigt Hill
#
# Bulk Modulus (GPa) = 20.39649 45.53473 32.96561
# Shear Modulus (GPa) = 19.46447 31.55086 25.50766
#
# Velocity S-wave (km/s) = 2.97566 3.78850 3.40641
# Velocity P-wave (km/s) = 4.59180 6.31278 5.51977
#
# Compressibility (1/GPa) = 0.04902803
#
# Stress axis : x y z
#
# Youngs Moduli (GPa) = 74.57848 39.14792 65.52063
#
# Poissons Ratio (x) = 0.04148 -0.10109
# Poissons Ratio (y) = 0.07902 0.20160
# Poissons Ratio (z) = -0.11507 0.12046
#
# Static dielectric constant tensor:
#      x y z
#    x 1.814610 -0.024370 -0.016930 
#    y -0.024370 1.948280 -0.007060 
#    z -0.016930 -0.007060 1.792720 
# 
# From -- ./inp_files/503652.got.cif
#   From: 2010.05.17/outbox.cif.g08.bks.cpg/sg2_252_cif.got.tgz:503652.got - 2010.06.03 11:33:40.
