data_PCOD9094890
_publ_section_title
;
Structure prediction by ZEFSAII (Michael W. Deem and Ramdas Pophale) SiO2 
 PCOD9094890
Probable space group: P -1
;
_chemical_formula_sum "Si O2"
_cell_formula_units_Z 16
_cell_length_a 18.189230
_cell_length_b 7.955264
_cell_length_c 13.359423
_cell_angle_alpha 134.206948
_cell_angle_beta 143.336307
_cell_angle_gamma 46.426251
_cell_volume 788.351093
_symmetry_space_group_name_H-M "P -1"
_symmetry_group_IT_number 2
_symmetry_cell_setting 'triclinic'
loop_
_space_group_symop_operation_xyz
x,y,z
-x,-y,-z
loop_
_atom_site_type_symbol
_atom_site_label
_atom_site_fract_x
_atom_site_fract_y
_atom_site_fract_z
Si Si1 0.764737 0.746931 0.526740
Si Si2 0.116954 0.102409 0.480603
Si Si3 0.652109 0.886537 0.139701
Si Si4 0.845680 0.111762 0.896720
Si Si5 0.846813 0.049159 0.106662
Si Si6 0.804151 0.643869 0.011101
Si Si7 0.980565 0.290784 0.594218
Si Si8 0.639231 0.528984 0.153108
O O1 0.842127 0.820050 0.548953
O O2 0.838383 0.468157 0.521993
O O3 0.641530 0.717226 0.324036
O O4 0.769856 0.931250 0.696055
O O5 0.252156 0.983176 0.642023
O O6 0.998517 0.993211 0.280006
O O7 0.045324 0.318812 0.569995
O O8 0.711388 0.804239 0.061450
O O9 0.659424 0.660868 0.127982
O O10 0.500000 0.000000 0.000000
O O11 0.830388 0.132478 0.008225
O O12 0.793443 0.370621 0.887910
O O13 0.000000 0.000000 0.000000
O O14 0.755367 0.269955 0.166944
O O15 0.801586 0.808142 0.978725
O O16 0.943286 0.616161 0.199502
O O17 0.000000 0.000000 0.500000
O O18 0.500000 0.500000 0.000000
#
# Coordination Sequence:
#
# PCOD9094890 Si02
#       8
#     2   2   2   2   2   2   2   2
#     4  11  22  39  61  92 133 169 215 264 330 391
#     4  10  20  34  63  91 127 166 212 277 329 373
#     4  10  22  38  63  96 132 169 222 277 336 385
#     4  12  24  40  63  97 144 180 207 266 335 400
#     4  12  22  41  68 100 132 170 225 270 333 389
#     4  11  22  38  63  92 137 174 214 269 328 390
#     4  11  18  31  56  96 122 156 210 272 316 367
#     4  11  23  42  71  97 127 172 224 283 331 387
#
# _framework density 20.295527
#
# number of rings (size 3 to 8) (size 9 to 14) (size 15 to 20)
#    0.000    1.000    6.250    1.125    1.750    1.500 
#    2.250    0.625    0.000    3.750    0.000    0.000 
#    0.000    0.000    0.000    0.000    0.000    0.000 
#
# Total GULP energy -89068.482962 kJ/mol
# GULP energy per Si atom -5566.780185 kJ/mol
# Density = 2.024933 g / cm^3
# Si number density = 20.295527 Si / 1000 Ang^3
#
#
#
# Elastic Constant Matrix: (Units=GPa)
#
#
# Indices 1 2 3 4 5 6 
#
# 1 59.5738 14.9607 32.1626 -1.7984 15.8192 4.8826
# 2 14.9607 82.2727 35.7340 6.5343 6.5501 11.0742
# 3 32.1626 35.7340 125.8516 9.7466 11.6769 -4.9119
# 4 -1.7984 6.5343 9.7466 26.8679 -4.7485 5.2243
# 5 15.8192 6.5501 11.6769 -4.7485 27.7394 3.8286
# 6 4.8826 11.0742 -4.9119 5.2243 3.8286 19.7479
#
#
#
# Elastic Compliance Matrix: (Units=1/GPa)
#
#
# Indices 1 2 3 4 5 6 
#
# 1 0.022801 -0.000616 -0.005232 0.003001 -0.009373 -0.005570
# 2 -0.000616 0.015602 -0.004615 -0.000307 -0.000112 -0.009642
# 3 -0.005232 -0.004615 0.011666 -0.005726 -0.003044 0.008888
# 4 0.003001 -0.000307 -0.005726 0.044517 0.010576 -0.015822
# 5 -0.009373 -0.000112 -0.003044 0.010576 0.045904 -0.010075
# 6 -0.005570 -0.009642 0.008888 -0.015822 -0.010075 0.065772
#
#
# Mechanical properties :
#
#
# Convention : Reuss Voigt Hill
#
# Bulk Modulus (GPa) = 34.31310 48.15697 41.23504
# Shear Modulus (GPa) = 21.10556 27.19376 24.14966
#
# Velocity S-wave (km/s) = 3.22827 3.66442 3.45324
# Velocity P-wave (km/s) = 5.55329 6.45627 6.02173
#
# Compressibility (1/GPa) = 0.02914339
#
# Stress axis : x y z
#
# Youngs Moduli (GPa) = 43.85695 64.09335 85.71754
#
# Poissons Ratio (x) = 0.03948 0.44851
# Poissons Ratio (y) = 0.02702 0.39557
# Poissons Ratio (z) = 0.22948 0.29578
#
# Static dielectric constant tensor:
#      x y z
#    x 1.742190 0.054400 0.022100 
#    y 0.054400 1.810480 -0.002230 
#    z 0.022100 -0.002230 1.770720 
# 
# From -- ./inp_files/540592.got.cif
#   From: 2010.05.17/outbox.cif.g08.bks.cpg/sg2_271_cif.got.tgz:540592.got - 2010.06.03 11:33:40.
