data_PCOD9094997
_publ_section_title
;
Structure prediction by ZEFSAII (Michael W. Deem and Ramdas Pophale) SiO2 
 PCOD9094997
Probable space group: P -1
;
_chemical_formula_sum "Si O2"
_cell_formula_units_Z 16
_cell_length_a 19.691733
_cell_length_b 13.404169
_cell_length_c 11.345737
_cell_angle_alpha 31.674801
_cell_angle_beta 31.209245
_cell_angle_gamma 30.843777
_cell_volume 714.678401
_symmetry_space_group_name_H-M "P -1"
_symmetry_group_IT_number 2
_symmetry_cell_setting 'triclinic'
loop_
_space_group_symop_operation_xyz
x,y,z
-x,-y,-z
loop_
_atom_site_type_symbol
_atom_site_label
_atom_site_fract_x
_atom_site_fract_y
_atom_site_fract_z
Si Si1 0.539877 0.885022 0.183106
Si Si2 0.180475 0.455030 0.007683
Si Si3 0.143051 0.361698 0.804567
Si Si4 0.004569 0.190360 0.376506
Si Si5 0.676312 0.698131 0.800907
Si Si6 0.773993 0.916545 0.244536
Si Si7 0.908551 0.091155 0.246674
Si Si8 0.328081 0.746201 0.758648
O O1 0.707704 0.702933 0.096527
O O2 0.448889 0.761209 0.479941
O O3 0.481734 0.085568 0.158556
O O4 0.500000 0.000000 0.000000
O O5 0.192147 0.675174 0.778197
O O6 0.010038 0.530037 0.155016
O O7 0.230816 0.348809 0.168059
O O8 0.149455 0.581026 0.606249
O O9 0.257646 0.165817 0.749974
O O10 0.099414 0.260462 0.080346
O O11 0.000000 0.000000 0.500000
O O12 0.071262 0.088123 0.507597
O O13 0.766584 0.748935 0.516939
O O14 0.658001 0.488640 0.013371
O O15 0.668115 0.148421 0.227979
O O16 0.930956 0.920689 0.998543
O O17 0.827772 0.101432 0.233284
#
# Coordination Sequence:
#
# PCOD9094997 Si02
#       8
#     2   2   2   2   2   2   2   2
#     4   9  19  34  51  74 115 146 183 219 256 317
#     4   9  18  35  51  80 110 145 178 219 263 317
#     4  10  23  35  57  81 108 141 179 221 274 324
#     4  11  21  39  52  78 112 138 182 226 267 318
#     4   9  20  32  51  77 115 149 178 208 260 322
#     4  10  20  35  51  82 113 148 174 215 268 330
#     4  10  21  33  56  81 113 145 178 220 269 323
#     4  10  21  35  51  85 114 147 179 211 267 328
#
# _framework density 22.387692000000001
#
# number of rings (size 3 to 8) (size 9 to 14) (size 15 to 20)
#    0.000    2.250    2.500    0.375    7.000    9.000 
#    0.000    0.000    0.000    0.000    0.000   28.000 
#    0.000    0.000    0.000    0.000    0.000    0.000 
#
# Total GULP energy -89185.664419 kJ/mol
# GULP energy per Si atom -5574.104026 kJ/mol
# Density = 2.233674 g / cm^3
# Si number density = 22.387692 Si / 1000 Ang^3
#
#
#
# Elastic Constant Matrix: (Units=GPa)
#
#
# Indices 1 2 3 4 5 6 
#
# 1 39.2306 32.0534 16.3831 -8.2526 3.3239 22.7434
# 2 32.0534 71.7951 46.5409 -10.8593 8.1462 25.2292
# 3 16.3831 46.5409 121.2391 -17.6254 15.5167 19.2719
# 4 -8.2526 -10.8593 -17.6254 39.1954 5.1201 -3.4348
# 5 3.3239 8.1462 15.5167 5.1201 28.2071 -3.5035
# 6 22.7434 25.2292 19.2719 -3.4348 -3.5035 29.2680
#
#
#
# Elastic Compliance Matrix: (Units=1/GPa)
#
#
# Indices 1 2 3 4 5 6 
#
# 1 0.060801 -0.014638 0.006898 0.010140 -0.013490 -0.039595
# 2 -0.014638 0.028935 -0.006854 0.001594 -0.004316 -0.009384
# 3 0.006898 -0.006854 0.013179 0.005810 -0.008185 -0.008428
# 4 0.010140 0.001594 0.005810 0.031306 -0.011879 -0.010828
# 5 -0.013490 -0.004316 -0.008185 -0.011879 0.047920 0.023935
# 6 -0.039595 -0.009384 -0.008428 -0.010828 0.023935 0.080169
#
#
# Mechanical properties :
#
#
# Convention : Reuss Voigt Hill
#
# Bulk Modulus (GPa) = 13.56351 46.91330 30.23840
# Shear Modulus (GPa) = 15.81919 28.48659 22.15289
#
# Velocity S-wave (km/s) = 2.66108 3.57097 3.14906
# Velocity P-wave (km/s) = 3.93871 6.16465 5.17283
#
# Compressibility (1/GPa) = 0.07372724
#
# Stress axis : x y z
#
# Youngs Moduli (GPa) = 16.44719 34.56005 75.87887
#
# Poissons Ratio (x) = 0.50589 -0.52340
# Poissons Ratio (y) = 0.24075 0.52005
# Poissons Ratio (z) = -0.11345 0.23686
#
# Static dielectric constant tensor:
#      x y z
#    x 1.945630 0.055870 -0.010380 
#    y 0.055870 1.937030 0.003600 
#    z -0.010380 0.003600 1.791160 
# 
# From -- ./inp_files/475112.got.cif
#   From: 2010.05.17/outbox.cif.g08.bks.cpg/sg2_238_cif.got.tgz:475112.got - 2010.06.03 11:33:40.
