data_PCOD9094835
_publ_section_title
;
Structure prediction by ZEFSAII (Michael W. Deem and Ramdas Pophale) SiO2 
 PCOD9094835
Probable space group: P -1
;
_chemical_formula_sum "Si O2"
_cell_formula_units_Z 16
_cell_length_a 23.252213
_cell_length_b 9.214472
_cell_length_c 9.275133
_cell_angle_alpha 149.294577
_cell_angle_beta 134.979899
_cell_angle_gamma 53.829754
_cell_volume 716.933787
_symmetry_space_group_name_H-M "P -1"
_symmetry_group_IT_number 2
_symmetry_cell_setting 'triclinic'
loop_
_space_group_symop_operation_xyz
x,y,z
-x,-y,-z
loop_
_atom_site_type_symbol
_atom_site_label
_atom_site_fract_x
_atom_site_fract_y
_atom_site_fract_z
Si Si1 0.862765 0.000510 0.502332
Si Si2 0.662873 0.310572 0.847684
Si Si3 0.508265 0.923757 0.781735
Si Si4 0.309034 0.289088 0.511624
Si Si5 0.037074 0.029571 0.751893
Si Si6 0.858432 0.397014 0.549465
Si Si7 0.609625 0.473253 0.421384
Si Si8 0.236681 0.589043 0.170345
O O1 0.852169 0.212617 0.528275
O O2 0.823049 0.154987 0.698442
O O3 0.959036 0.963049 0.656724
O O4 0.813524 0.703940 0.133371
O O5 0.578609 0.180780 0.522798
O O6 0.722229 0.423478 0.923175
O O7 0.701978 0.044968 0.768008
O O8 0.647291 0.559723 0.144878
O O9 0.566790 0.670156 0.630342
O O10 0.500000 0.000000 0.000000
O O11 0.550376 0.213611 0.041335
O O12 0.225107 0.449012 0.488206
O O13 0.360375 0.342911 0.504347
O O14 0.109599 0.813126 0.696075
O O15 0.073043 0.348455 0.102832
O O16 0.000000 0.000000 0.500000
O O17 0.689127 0.357242 0.540181
#
# Coordination Sequence:
#
# PCOD9094835 Si02
#       8
#     2   2   2   2   2   2   2   2
#     4  11  21  37  67 101 133 166 228 282 322 387
#     4  12  28  46  67  97 137 184 222 275 343 412
#     4  12  26  46  72  99 134 174 224 285 340 393
#     4  12  27  45  68 101 140 178 225 275 337 408
#     4  10  20  34  62 101 138 168 217 278 341 381
#     4  11  21  39  64  98 138 177 211 279 340 391
#     4  12  26  43  74  99 130 179 225 280 336 395
#     4  12  24  41  69  98 133 175 226 276 332 392
#
# _framework density 22.317264000000002
#
# number of rings (size 3 to 8) (size 9 to 14) (size 15 to 20)
#    0.000    0.500    2.500    7.875    3.500    3.000 
#    0.000    0.000    0.000   15.000    0.000    0.000 
#    0.000    0.000    0.000    0.000    0.000    0.000 
#
# Total GULP energy -89575.279098 kJ/mol
# GULP energy per Si atom -5598.454944 kJ/mol
# Density = 2.226647 g / cm^3
# Si number density = 22.317264 Si / 1000 Ang^3
#
#
#
# Elastic Constant Matrix: (Units=GPa)
#
#
# Indices 1 2 3 4 5 6 
#
# 1 119.6498 22.1543 27.0572 2.6430 5.5413 -14.9942
# 2 22.1543 19.4320 -3.7254 9.2977 11.0620 -7.8888
# 3 27.0572 -3.7254 98.8453 16.2517 13.7811 -6.2169
# 4 2.6430 9.2977 16.2517 29.3182 -2.4001 -5.8773
# 5 5.5413 11.0620 13.7811 -2.4001 46.7258 4.4933
# 6 -14.9942 -7.8888 -6.2169 -5.8773 4.4933 36.9482
#
#
#
# Elastic Compliance Matrix: (Units=1/GPa)
#
#
# Indices 1 2 3 4 5 6 
#
# 1 0.015471 -0.031887 -0.009142 0.014360 0.009236 -0.000907
# 2 -0.031887 0.166754 0.035080 -0.068907 -0.051882 0.023914
# 3 -0.009142 0.035080 0.019858 -0.021409 -0.014707 0.005504
# 4 0.014360 -0.068907 -0.021409 0.067616 0.024855 -0.004754
# 5 0.009236 -0.051882 -0.014707 0.024855 0.039224 -0.010620
# 6 -0.000907 0.023914 0.005504 -0.004754 -0.010620 0.033264
#
#
# Mechanical properties :
#
#
# Convention : Reuss Voigt Hill
#
# Bulk Modulus (GPa) = 5.25805 36.54439 20.90122
# Shear Modulus (GPa) = 11.97659 35.42784 23.70222
#
# Velocity S-wave (km/s) = 2.31909 3.98862 3.26246
# Velocity P-wave (km/s) = 3.08740 6.13373 4.85565
#
# Compressibility (1/GPa) = 0.19018450
#
# Stress axis : x y z
#
# Youngs Moduli (GPa) = 64.63791 5.99684 50.35730
#
# Poissons Ratio (x) = 0.19122 0.46038
# Poissons Ratio (y) = 2.06114 -1.76655
# Poissons Ratio (z) = 0.59094 -0.21037
#
# Static dielectric constant tensor:
#      x y z
#    x 1.872790 0.067650 0.084570 
#    y 0.067650 2.070960 0.195720 
#    z 0.084570 0.195720 2.008650 
# 
# From -- ./inp_files/343220.got.cif
#   From: 2010.05.17/outbox.cif.g08.bks.cpg/sg2_172_cif.got.tgz:343220.got - 2010.06.03 11:33:40.
