data_PCOD9094102
_publ_section_title
;
Structure prediction by ZEFSAII (Michael W. Deem and Ramdas Pophale) SiO2 
 PCOD9094102
Probable space group: P -1
;
_chemical_formula_sum "Si O2"
_cell_formula_units_Z 14
_cell_length_a 6.635295
_cell_length_b 17.032998
_cell_length_c 23.810898
_cell_angle_alpha 18.779287
_cell_angle_beta 50.415025
_cell_angle_gamma 58.481047
_cell_volume 631.518135
_symmetry_space_group_name_H-M "P -1"
_symmetry_group_IT_number 2
_symmetry_cell_setting 'triclinic'
loop_
_space_group_symop_operation_xyz
x,y,z
-x,-y,-z
loop_
_atom_site_type_symbol
_atom_site_label
_atom_site_fract_x
_atom_site_fract_y
_atom_site_fract_z
Si Si1 0.045543 0.668203 0.698253
Si Si2 0.103704 0.091932 0.705103
Si Si3 0.547976 0.860204 0.641465
Si Si4 0.479215 0.433531 0.644090
Si Si5 0.611806 0.169728 0.692402
Si Si6 0.745713 0.377170 0.047903
Si Si7 0.981071 0.845283 0.008616
O O1 0.770322 0.712981 0.692738
O O2 0.092718 0.443011 0.806860
O O3 0.992744 0.576964 0.834440
O O4 0.295896 0.929754 0.481083
O O5 0.263330 0.887322 0.803569
O O6 0.303741 0.385713 0.473082
O O7 0.965138 0.021556 0.839072
O O8 0.859180 0.052819 0.730461
O O9 0.275345 0.687130 0.838995
O O10 0.500000 0.000000 0.500000
O O11 0.629282 0.336037 0.633251
O O12 0.358151 0.637034 0.496085
O O13 0.242218 0.194987 0.875304
O O14 0.304352 0.962674 0.887696
O O15 0.500000 0.500000 0.000000
#
# Coordination Sequence:
#
# PCOD9094102 Si02
#       7
#     2   2   2   2   2   2   2
#     4   9  20  36  52  76 108 141 180 227 275 325
#     4  10  21  37  59  85 113 150 193 232 279 339
#     4  10  20  34  54  78 104 139 185 227 271 328
#     4  10  21  38  58  82 118 152 184 236 286 330
#     4  10  22  37  56  87 116 146 191 235 282 336
#     4   9  19  37  56  78 113 147 180 230 282 327
#     4  10  21  37  58  81 113 151 187 231 282 336
#
# _framework density 22.168800000000001
#
# number of rings (size 3 to 8) (size 9 to 14) (size 15 to 20)
#    0.000    2.286    0.000    1.714    0.000    5.714 
#    0.000    5.714    0.000    0.000    0.000    0.000 
#    0.000    0.000    0.000    0.000    0.000    0.000 
#
# Total GULP energy -78063.675314 kJ/mol
# GULP energy per Si atom -5575.976808 kJ/mol
# Density = 2.211834 g / cm^3
# Si number density = 22.168800 Si / 1000 Ang^3
#
#
#
# Elastic Constant Matrix: (Units=GPa)
#
#
# Indices 1 2 3 4 5 6 
#
# 1 60.7536 13.1315 12.3894 13.0867 10.6051 0.1770
# 2 13.1315 26.8578 7.3557 7.3043 11.2605 -3.3281
# 3 12.3894 7.3557 74.3982 27.1643 4.2704 -5.9266
# 4 13.0867 7.3043 27.1643 43.3502 12.2131 5.9668
# 5 10.6051 11.2605 4.2704 12.2131 31.5689 5.4750
# 6 0.1770 -3.3281 -5.9266 5.9668 5.4750 4.7547
#
#
#
# Elastic Compliance Matrix: (Units=1/GPa)
#
#
# Indices 1 2 3 4 5 6 
#
# 1 0.019398 -0.007711 -0.001542 -0.002685 -0.002135 -0.002214
# 2 -0.007711 0.106245 0.036260 -0.056664 -0.064238 0.264932
# 3 -0.001542 0.036260 0.043511 -0.048589 -0.029861 0.175034
# 4 -0.002685 -0.056664 -0.048589 0.088263 0.037630 -0.254224
# 5 -0.002135 -0.064238 -0.029861 0.037630 0.083993 -0.226047
# 6 -0.002214 0.264932 0.175034 -0.254224 -0.226047 1.193352
#
#
# Mechanical properties :
#
#
# Convention : Reuss Voigt Hill
#
# Bulk Modulus (GPa) = 4.48091 25.30697 14.89394
# Shear Modulus (GPa) = 3.21515 24.54360 13.87937
#
# Velocity S-wave (km/s) = 1.20559 3.33096 2.50487
# Velocity P-wave (km/s) = 1.99088 5.12192 3.88572
#
# Compressibility (1/GPa) = 0.22316907
#
# Stress axis : x y z
#
# Youngs Moduli (GPa) = 51.55049 9.41224 22.98280
#
# Poissons Ratio (x) = 0.07258 0.03543
# Poissons Ratio (y) = 0.39752 -0.83337
# Poissons Ratio (z) = 0.07947 -0.34129
#
# Static dielectric constant tensor:
#      x y z
#    x 1.830080 0.002560 0.003400 
#    y 0.002560 1.844570 0.034250 
#    z 0.003400 0.034250 1.818770 
# 
# From -- ./inp_files/112646.got.cif
#   From: 2010.05.17/outbox.cif.g08.bks.cpg/sg2_57_cif.got.tgz:112646.got - 2010.06.03 11:33:40.
