data_PCOD9094147
_publ_section_title
;
Structure prediction by ZEFSAII (Michael W. Deem and Ramdas Pophale) SiO2 
 PCOD9094147
Probable space group: P -1
;
_chemical_formula_sum "Si O2"
_cell_formula_units_Z 16
_cell_length_a 14.096130
_cell_length_b 9.786079
_cell_length_c 13.950843
_cell_angle_alpha 36.756994
_cell_angle_beta 40.543913
_cell_angle_gamma 47.949540
_cell_volume 739.351728
_symmetry_space_group_name_H-M "P -1"
_symmetry_group_IT_number 2
_symmetry_cell_setting 'triclinic'
loop_
_space_group_symop_operation_xyz
x,y,z
-x,-y,-z
loop_
_atom_site_type_symbol
_atom_site_label
_atom_site_fract_x
_atom_site_fract_y
_atom_site_fract_z
Si Si1 0.922774 0.223935 0.053111
Si Si2 0.856524 0.388622 0.197966
Si Si3 0.705947 0.190495 0.581036
Si Si4 0.549198 0.034235 0.595574
Si Si5 0.252167 0.304472 0.128861
Si Si6 0.338127 0.452175 0.182972
Si Si7 0.554420 0.525550 0.261232
Si Si8 0.222534 0.935495 0.939437
O O1 0.872584 0.498057 0.925370
O O2 0.869345 0.179984 0.226523
O O3 0.838474 0.126110 0.084146
O O4 0.095230 0.130972 0.966215
O O5 0.835398 0.302159 0.369374
O O6 0.698344 0.544184 0.206917
O O7 0.000000 0.500000 0.000000
O O8 0.614867 0.114474 0.601304
O O9 0.593041 0.359803 0.637495
O O10 0.764574 0.958810 0.724382
O O11 0.552397 0.253265 0.401231
O O12 0.631062 0.778208 0.645435
O O13 0.380117 0.011014 0.760218
O O14 0.261731 0.356663 0.203589
O O15 0.405365 0.351809 0.935526
O O16 0.500000 0.500000 0.000000
O O17 0.246239 0.710260 0.118776
#
# Coordination Sequence:
#
# PCOD9094147 Si02
#       8
#     2   2   2   2   2   2   2   2
#     4   9  19  33  54  79 111 146 186 208 279 324
#     4  10  21  35  55  82 110 144 179 226 271 328
#     4  10  20  35  57  80 109 143 185 226 270 317
#     4   9  17  30  55  80 106 134 180 229 268 312
#     4   9  18  35  53  74 111 143 177 229 268 319
#     4   8  15  30  51  79 104 138 174 221 279 310
#     4  10  20  34  54  84 106 144 189 221 272 321
#     4   9  17  32  56  80 109 150 175 224 266 334
#
# _framework density 21.64058
#
# number of rings (size 3 to 8) (size 9 to 14) (size 15 to 20)
#    0.000    2.750    0.000    1.875    3.500    0.000 
#    0.000   19.375    2.750   28.500    0.000    0.000 
#    0.000    0.000    0.000    0.000    0.000    0.000 
#
# Total GULP energy -89099.903027 kJ/mol
# GULP energy per Si atom -5568.743939 kJ/mol
# Density = 2.159133 g / cm^3
# Si number density = 21.640580 Si / 1000 Ang^3
#
#
#
# Elastic Constant Matrix: (Units=GPa)
#
#
# Indices 1 2 3 4 5 6 
#
# 1 35.4495 14.3069 4.0452 3.3762 -7.3818 -5.3280
# 2 14.3069 124.4802 69.1159 7.6549 12.2525 -23.7542
# 3 4.0452 69.1159 127.5757 -1.1870 -0.5497 -11.6784
# 4 3.3762 7.6549 -1.1870 29.6230 -2.3171 1.9350
# 5 -7.3818 12.2525 -0.5497 -2.3171 29.8986 3.1073
# 6 -5.3280 -23.7542 -11.6784 1.9350 3.1073 16.9284
#
#
#
# Elastic Compliance Matrix: (Units=1/GPa)
#
#
# Indices 1 2 3 4 5 6 
#
# 1 0.032722 -0.005268 0.002094 -0.001691 0.009861 0.002734
# 2 -0.005268 0.019194 -0.008280 -0.007125 -0.012222 0.022621
# 3 0.002094 -0.008280 0.011946 0.003010 0.004772 -0.003938
# 4 -0.001691 -0.007125 0.003010 0.037366 0.006908 -0.013993
# 5 0.009861 -0.012222 0.004772 0.006908 0.043543 -0.019536
# 6 0.002734 0.022621 -0.003938 -0.013993 -0.019536 0.094143
#
#
# Mechanical properties :
#
#
# Convention : Reuss Voigt Hill
#
# Bulk Modulus (GPa) = 24.41826 51.38236 37.90031
# Shear Modulus (GPa) = 18.15058 28.62584 23.38821
#
# Velocity S-wave (km/s) = 2.89922 3.64096 3.29105
# Velocity P-wave (km/s) = 4.74504 6.43976 5.65623
#
# Compressibility (1/GPa) = 0.04095296
#
# Stress axis : x y z
#
# Youngs Moduli (GPa) = 30.56070 52.10003 83.71143
#
# Poissons Ratio (x) = 0.27447 -0.17525
# Poissons Ratio (y) = 0.16100 0.69311
# Poissons Ratio (z) = -0.06398 0.43137
#
# Static dielectric constant tensor:
#      x y z
#    x 1.899730 0.000690 0.033140 
#    y 0.000690 1.800760 -0.053230 
#    z 0.033140 -0.053230 1.855090 
# 
# From -- ./inp_files/338419.got.cif
#   From: 2010.05.17/outbox.cif.g08.bks.cpg/sg2_170_cif.got.tgz:338419.got - 2010.06.03 11:33:40.
