data_PCOD9094189
_publ_section_title
;
Structure prediction by ZEFSAII (Michael W. Deem and Ramdas Pophale) SiO2 
 PCOD9094189
Probable space group: P -1
;
_chemical_formula_sum "Si O2"
_cell_formula_units_Z 10
_cell_length_a 11.542952
_cell_length_b 5.268459
_cell_length_c 9.403830
_cell_angle_alpha 133.114462
_cell_angle_beta 119.672258
_cell_angle_gamma 73.432299
_cell_volume 361.447332
_symmetry_space_group_name_H-M "P -1"
_symmetry_group_IT_number 2
_symmetry_cell_setting 'triclinic'
loop_
_space_group_symop_operation_xyz
x,y,z
-x,-y,-z
loop_
_atom_site_type_symbol
_atom_site_label
_atom_site_fract_x
_atom_site_fract_y
_atom_site_fract_z
Si Si1 0.987696 0.143767 0.706121
Si Si2 0.379345 0.811063 0.113428
Si Si3 0.163992 0.296156 0.306546
Si Si4 0.289151 0.243240 0.003383
Si Si5 0.382014 0.747866 0.500587
O O1 0.947504 0.540068 0.799204
O O2 0.133157 0.141772 0.861832
O O3 0.891969 0.888588 0.653368
O O4 0.000000 0.000000 0.500000
O O5 0.255866 0.028253 0.181051
O O6 0.523994 0.896277 0.308108
O O7 0.334866 0.408765 0.945921
O O8 0.376671 0.952510 0.006321
O O9 0.269810 0.644619 0.512121
O O10 0.317521 0.588933 0.255266
O O11 0.500000 0.500000 0.500000
#
# Coordination Sequence:
#
# PCOD9094189 Si02
#       5
#     2   2   2   2   2
#     4  12  25  38  52  75 113 156 189 213 246 313
#     4  10  20  35  61  89 108 129 168 233 292 325
#     4  10  21  37  58  80 109 141 179 224 274 317
#     4  10  20  34  55  81 113 141 174 219 274 321
#     4   8  18  34  59  87 109 129 166 230 290 326
#
# _framework density 27.666551999999999
#
# number of rings (size 3 to 8) (size 9 to 14) (size 15 to 20)
#    0.000    2.400    0.000    4.800    0.000   14.400 
#    0.000    1.000    0.000   31.200    0.000    0.000 
#    0.000    0.000    0.000    0.000    0.000    0.000 
#
# Total GULP energy -55825.291461 kJ/mol
# GULP energy per Si atom -5582.529146 kJ/mol
# Density = 2.760358 g / cm^3
# Si number density = 27.666552 Si / 1000 Ang^3
#
#
#
# Elastic Constant Matrix: (Units=GPa)
#
#
# Indices 1 2 3 4 5 6 
#
# 1 149.0036 39.8078 60.3733 4.9655 2.8430 37.3301
# 2 39.8078 181.3220 7.7649 -6.2297 3.9508 38.4040
# 3 60.3733 7.7649 101.4906 -10.1157 22.3893 7.2602
# 4 4.9655 -6.2297 -10.1157 34.4911 0.5779 11.7537
# 5 2.8430 3.9508 22.3893 0.5779 50.0841 7.4325
# 6 37.3301 38.4040 7.2602 11.7537 7.4325 59.4736
#
#
#
# Elastic Compliance Matrix: (Units=1/GPa)
#
#
# Indices 1 2 3 4 5 6 
#
# 1 0.011348 -0.001167 -0.007263 -0.002161 0.003536 -0.005497
# 2 -0.001167 0.006763 0.000850 0.003116 -0.000242 -0.004324
# 3 -0.007263 0.000850 0.016100 0.005402 -0.007193 0.001876
# 4 -0.002161 0.003116 0.005402 0.034154 -0.001768 -0.007845
# 5 0.003536 -0.000242 -0.007193 -0.001768 0.023582 -0.003783
# 6 -0.005497 -0.004324 0.001876 -0.007845 -0.003783 0.024851
#
#
# Mechanical properties :
#
#
# Convention : Reuss Voigt Hill
#
# Bulk Modulus (GPa) = 52.49341 71.96757 62.23049
# Shear Modulus (GPa) = 36.15124 50.40109 43.27617
#
# Velocity S-wave (km/s) = 3.61872 4.27281 3.95929
# Velocity P-wave (km/s) = 6.03945 7.10010 6.59115
#
# Compressibility (1/GPa) = 0.01905001
#
# Stress axis : x y z
#
# Youngs Moduli (GPa) = 88.12340 147.86212 62.11312
#
# Poissons Ratio (x) = 0.17259 0.45114
# Poissons Ratio (y) = 0.10286 -0.05281
# Poissons Ratio (z) = 0.64005 -0.12571
#
# Static dielectric constant tensor:
#      x y z
#    x 2.286750 0.116970 -0.073700 
#    y 0.116970 2.267210 0.000570 
#    z -0.073700 0.000570 2.289680 
# 
# From -- ./inp_files/74009.got.cif
#   From: 2010.05.17/outbox.cif.g08.bks.cpg/sg2_38_cif.got.tgz:74009.got - 2010.06.03 11:33:40.
