data_PCOD9094774
_publ_section_title
;
Structure prediction by ZEFSAII (Michael W. Deem and Ramdas Pophale) SiO2 
 PCOD9094774
Probable space group: P -1
;
_chemical_formula_sum "Si O2"
_cell_formula_units_Z 16
_cell_length_a 22.075063
_cell_length_b 19.291484
_cell_length_c 9.083301
_cell_angle_alpha 31.577388
_cell_angle_beta 140.295988
_cell_angle_gamma 159.706676
_cell_volume 693.072384
_symmetry_space_group_name_H-M "P -1"
_symmetry_group_IT_number 2
_symmetry_cell_setting 'triclinic'
loop_
_space_group_symop_operation_xyz
x,y,z
-x,-y,-z
loop_
_atom_site_type_symbol
_atom_site_label
_atom_site_fract_x
_atom_site_fract_y
_atom_site_fract_z
Si Si1 0.011917 0.280934 0.324712
Si Si2 0.321870 0.715309 0.706637
Si Si3 0.708468 0.549764 0.663370
Si Si4 0.017667 0.431264 0.801358
Si Si5 0.859885 0.599716 0.323680
Si Si6 0.611271 0.765078 0.558269
Si Si7 0.173255 0.012211 0.940260
Si Si8 0.492939 0.323937 0.157857
O O1 0.149194 0.350800 0.361623
O O2 0.083806 0.374838 0.454557
O O3 0.815136 0.989799 0.492665
O O4 0.983072 0.384921 0.993333
O O5 0.211169 0.598100 0.560552
O O6 0.230378 0.671044 0.757524
O O7 0.500000 0.000000 0.500000
O O8 0.311492 0.550063 0.038102
O O9 0.514883 0.314273 0.652830
O O10 0.767724 0.772289 0.390264
O O11 0.000000 0.500000 0.500000
O O12 0.920554 0.182695 0.010032
O O13 0.684830 0.483913 0.216137
O O14 0.030970 0.857944 0.087845
O O15 0.590047 0.808181 0.599673
O O16 0.527296 0.521052 0.858587
O O17 0.342220 0.128727 0.105279
#
# Coordination Sequence:
#
# PCOD9094774 Si02
#       8
#     2   2   2   2   2   2   2   2
#     4  11  22  39  64  95 124 166 209 260 319 374
#     4  10  25  45  66  90 127 170 211 261 318 374
#     4  10  22  41  64  95 129 165 213 261 312 376
#     4  10  25  45  66  90 127 170 211 261 318 374
#     4  11  22  39  64  95 124 166 209 260 319 374
#     4  10  20  34  60  96 132 165 200 257 322 371
#     4  10  22  41  64  95 129 165 213 261 312 376
#     4  10  20  34  60  96 132 165 200 257 322 371
#
# _framework density 23.085612999999999
#
# number of rings (size 3 to 8) (size 9 to 14) (size 15 to 20)
#    0.000    1.750    2.500    0.750    3.500    6.500 
#    0.000    8.750    0.000    0.000    0.000    0.000 
#    0.000    0.000    0.000    0.000    0.000    0.000 
#
# Total GULP energy -89158.072150 kJ/mol
# GULP energy per Si atom -5572.379509 kJ/mol
# Density = 2.303307 g / cm^3
# Si number density = 23.085613 Si / 1000 Ang^3
#
#
#
# Elastic Constant Matrix: (Units=GPa)
#
#
# Indices 1 2 3 4 5 6 
#
# 1 45.3637 22.2867 13.3268 8.4455 -13.4873 -4.9267
# 2 22.2867 143.2822 41.6486 6.6570 -19.6571 -0.1985
# 3 13.3268 41.6486 110.8976 4.7899 -23.7440 -20.0651
# 4 8.4455 6.6570 4.7899 42.5249 -3.1653 -4.0578
# 5 -13.4873 -19.6571 -23.7440 -3.1653 28.3730 7.7358
# 6 -4.9267 -0.1985 -20.0651 -4.0578 7.7358 30.7635
#
#
#
# Elastic Compliance Matrix: (Units=1/GPa)
#
#
# Indices 1 2 3 4 5 6 
#
# 1 0.027338 -0.002733 0.000456 -0.004124 0.010630 0.001441
# 2 -0.002733 0.008667 -0.002782 -0.000558 0.003150 -0.003062
# 3 0.000456 -0.002782 0.012724 0.000071 0.007156 0.006564
# 4 -0.004124 -0.000558 0.000071 0.024652 -0.000275 0.002703
# 5 0.010630 0.003150 0.007156 -0.000275 0.050143 -0.006255
# 6 0.001441 -0.003062 0.006564 0.002703 -0.006255 0.038928
#
#
# Mechanical properties :
#
#
# Convention : Reuss Voigt Hill
#
# Bulk Modulus (GPa) = 25.89944 50.45196 38.17570
# Shear Modulus (GPa) = 26.96307 35.15104 31.05705
#
# Velocity S-wave (km/s) = 3.42125 3.90633 3.67181
# Velocity P-wave (km/s) = 5.18168 6.49982 5.87782
#
# Compressibility (1/GPa) = 0.03861087
#
# Stress axis : x y z
#
# Youngs Moduli (GPa) = 36.57975 115.38321 78.59148
#
# Poissons Ratio (x) = 0.31531 -0.03583
# Poissons Ratio (y) = 0.09996 0.21864
# Poissons Ratio (z) = -0.01668 0.32099
#
# Static dielectric constant tensor:
#      x y z
#    x 2.050220 0.033650 -0.030000 
#    y 0.033650 1.796540 -0.108550 
#    z -0.030000 -0.108550 1.599360 
# 
# From -- ./inp_files/355255.got.cif
#   From: 2010.05.17/outbox.cif.g08.bks.cpg/sg2_178_cif.got.tgz:355255.got - 2010.06.03 11:33:40.
