data_PCOD9094898
_publ_section_title
;
Structure prediction by ZEFSAII (Michael W. Deem and Ramdas Pophale) SiO2 
 PCOD9094898
Probable space group: P -1
;
_chemical_formula_sum "Si O2"
_cell_formula_units_Z 16
_cell_length_a 11.497820
_cell_length_b 19.393889
_cell_length_c 16.037169
_cell_angle_alpha 159.195990
_cell_angle_beta 41.373462
_cell_angle_gamma 145.731552
_cell_volume 710.787825
_symmetry_space_group_name_H-M "P -1"
_symmetry_group_IT_number 2
_symmetry_cell_setting 'triclinic'
loop_
_space_group_symop_operation_xyz
x,y,z
-x,-y,-z
loop_
_atom_site_type_symbol
_atom_site_label
_atom_site_fract_x
_atom_site_fract_y
_atom_site_fract_z
Si Si1 0.613523 0.750793 0.818003
Si Si2 0.947181 0.262879 0.217619
Si Si3 0.089925 0.408478 0.121561
Si Si4 0.178731 0.418773 0.616792
Si Si5 0.607893 0.573300 0.798082
Si Si6 0.621730 0.924436 0.287613
Si Si7 0.111287 0.000854 0.615433
Si Si8 0.548465 0.214033 0.547430
O O1 0.389283 0.658230 0.793734
O O2 0.750354 0.698563 0.622639
O O3 0.567442 0.598805 0.753766
O O4 0.740856 0.020911 0.072638
O O5 0.959555 0.309247 0.164701
O O6 0.000000 0.500000 0.500000
O O7 0.144527 0.249373 0.123072
O O8 0.000407 0.541934 0.273879
O O9 0.326969 0.573261 0.213547
O O10 0.067086 0.198704 0.844874
O O11 0.087483 0.252540 0.558382
O O12 0.566583 0.334730 0.586496
O O13 0.504683 0.668545 0.024334
O O14 0.500000 0.000000 0.500000
O O15 0.803231 0.956833 0.286844
O O16 0.661873 0.079429 0.359051
O O17 0.305794 0.047110 0.508527
#
# Coordination Sequence:
#
# PCOD9094898 Si02
#       8
#     2   2   2   2   2   2   2   2
#     4  11  25  45  63  89 136 178 217 267 318 383
#     4  11  23  39  64  97 126 164 212 274 332 380
#     4  11  21  36  65  97 124 164 215 265 331 376
#     4  11  24  44  64  91 130 181 224 258 310 397
#     4  11  23  40  61  95 134 162 211 273 333 380
#     4  10  20  34  63  95 128 158 206 268 331 375
#     4  11  20  39  63  99 129 161 216 268 323 382
#     4  10  22  34  64 101 127 159 207 276 330 376
#
# _framework density 22.510231999999998
#
# number of rings (size 3 to 8) (size 9 to 14) (size 15 to 20)
#    0.000    1.250    5.000    1.500    5.250    0.500 
#    2.250    0.625    0.000    5.250    0.000    0.000 
#    0.000    0.000    0.000    0.000    0.000    0.000 
#
# Total GULP energy -89275.318307 kJ/mol
# GULP energy per Si atom -5579.707394 kJ/mol
# Density = 2.245900 g / cm^3
# Si number density = 22.510232 Si / 1000 Ang^3
#
#
#
# Elastic Constant Matrix: (Units=GPa)
#
#
# Indices 1 2 3 4 5 6 
#
# 1 42.0657 15.8094 20.7828 11.6519 -11.1824 -5.5968
# 2 15.8094 90.3922 29.6402 17.6173 7.5458 1.0551
# 3 20.7828 29.6402 79.5081 14.1307 -18.2943 6.8915
# 4 11.6519 17.6173 14.1307 29.1691 -1.5375 -8.0764
# 5 -11.1824 7.5458 -18.2943 -1.5375 30.0992 4.8711
# 6 -5.5968 1.0551 6.8915 -8.0764 4.8711 32.0683
#
#
#
# Elastic Compliance Matrix: (Units=1/GPa)
#
#
# Indices 1 2 3 4 5 6 
#
# 1 0.032075 -0.003823 -0.003695 -0.007315 0.009738 0.003196
# 2 -0.003823 0.015506 -0.005958 -0.005398 -0.009228 0.000145
# 3 -0.003695 -0.005958 0.020925 -0.006755 0.013912 -0.008760
# 4 -0.007315 -0.005398 -0.006755 0.047062 -0.005168 0.012990
# 5 0.009738 -0.009228 0.013912 -0.005168 0.048919 -0.009719
# 6 0.003196 0.000145 -0.008760 0.012990 -0.009719 0.038367
#
#
# Mechanical properties :
#
#
# Convention : Reuss Voigt Hill
#
# Bulk Modulus (GPa) = 24.06493 38.27009 31.16751
# Shear Modulus (GPa) = 20.52074 27.98288 24.25181
#
# Velocity S-wave (km/s) = 3.02258 3.52961 3.28589
# Velocity P-wave (km/s) = 4.78489 5.80078 5.31715
#
# Compressibility (1/GPa) = 0.04155425
#
# Stress axis : x y z
#
# Youngs Moduli (GPa) = 31.17709 64.49231 47.78975
#
# Poissons Ratio (x) = 0.24652 0.17660
# Poissons Ratio (y) = 0.11917 0.28472
# Poissons Ratio (z) = 0.11521 0.38423
#
# Static dielectric constant tensor:
#      x y z
#    x 1.807840 -0.021100 -0.020200 
#    y -0.021100 1.927710 -0.008870 
#    z -0.020200 -0.008870 1.890980 
# 
# From -- ./inp_files/570788.got.cif
#   From: 2010.05.17/outbox.cif.g08.bks.cpg/sg2_286_cif.got.tgz:570788.got - 2010.06.03 11:33:40.
