data_PCOD9094910
_publ_section_title
;
Structure prediction by ZEFSAII (Michael W. Deem and Ramdas Pophale) SiO2 
 PCOD9094910
Probable space group: P -1
;
_chemical_formula_sum "Si O2"
_cell_formula_units_Z 11
_cell_length_a 7.178923
_cell_length_b 18.754412
_cell_length_c 7.025278
_cell_angle_alpha 44.689024
_cell_angle_beta 124.197831
_cell_angle_gamma 143.105516
_cell_volume 399.290722
_symmetry_space_group_name_H-M "P -1"
_symmetry_group_IT_number 2
_symmetry_cell_setting 'triclinic'
loop_
_space_group_symop_operation_xyz
x,y,z
-x,-y,-z
loop_
_atom_site_type_symbol
_atom_site_label
_atom_site_fract_x
_atom_site_fract_y
_atom_site_fract_z
Si Si1 0.881065 0.585531 0.631837
Si Si2 0.443083 0.095892 0.984336
Si Si3 0.911271 0.369540 0.940665
Si Si4 0.397199 0.230597 0.367099
Si Si5 0.009976 0.176980 0.919647
Si Si6 0.500000 0.500000 0.000000
O O1 0.255733 0.696893 0.625913
O O2 0.796624 0.664818 0.337087
O O3 0.805723 0.448735 0.783844
O O4 0.824248 0.579923 0.839262
O O5 0.621239 0.208489 0.041882
O O6 0.323495 0.141789 0.677391
O O7 0.726952 0.126222 0.986550
O O8 0.158563 0.929868 0.152984
O O9 0.171610 0.442620 0.790843
O O10 0.387148 0.345046 0.196690
O O11 0.195496 0.159677 0.196190
#
# Coordination Sequence:
#
# PCOD9094910 Si02
#       6
#     2   2   2   2   2   1
#     4   9  22  38  59  82 123 146 186 240 289 329
#     4  10  21  35  62  84 118 147 195 234 279 335
#     4  10  20  41  57  89 112 152 190 240 281 337
#     4  10  20  36  58  87 113 150 189 236 278 342
#     4  10  20  38  58  87 115 155 184 236 283 344
#     4  10  20  34  64  82 108 152 194 230 280 334
#
# _framework density 27.548852
#
# number of rings (size 3 to 8) (size 9 to 14) (size 15 to 20)
#    0.000    2.182    1.818    0.545    2.545    2.909 
#    3.273    3.636    0.000    0.000    0.000    0.000 
#    0.000    0.000    0.000    0.000    0.000    0.000 
#
# Total GULP energy -61363.339541 kJ/mol
# GULP energy per Si atom -5578.485413 kJ/mol
# Density = 2.748615 g / cm^3
# Si number density = 27.548852 Si / 1000 Ang^3
#
#
#
# Elastic Constant Matrix: (Units=GPa)
#
#
# Indices 1 2 3 4 5 6 
#
# 1 129.3348 62.6979 42.8482 7.6872 19.7136 1.8716
# 2 62.6979 86.3339 -28.9589 -2.9049 67.8886 -34.8336
# 3 42.8482 -28.9589 67.5057 15.9913 41.1761 10.8860
# 4 7.6872 -2.9049 15.9913 31.9520 18.5934 7.4772
# 5 19.7136 67.8886 41.1761 18.5934 17.5942 11.3931
# 6 1.8716 -34.8336 10.8860 7.4772 11.3931 28.4984
#
#
#
# Elastic Compliance Matrix: (Units=1/GPa)
#
#
# Indices 1 2 3 4 5 6 
#
# 1 0.009805 -0.000438 -0.002473 0.003122 -0.008265 0.002250
# 2 -0.000438 0.001330 -0.005095 -0.003752 0.011170 0.000120
# 3 -0.002473 -0.005095 0.013314 -0.008272 0.007867 -0.012126
# 4 0.003122 -0.003752 -0.008272 0.039639 -0.005076 -0.010002
# 5 -0.008265 0.011170 0.007867 -0.005076 0.002482 0.011531
# 6 0.002250 0.000120 -0.012126 -0.010002 0.011531 0.037735
#
#
# Mechanical properties :
#
#
# Convention : Reuss Voigt Hill
#
# Bulk Modulus (GPa) = 118.53009 48.48323 83.50666
# Shear Modulus (GPa) = 40.60768 29.38143 34.99455
#
# Velocity S-wave (km/s) = 3.84347 3.26931 3.56795
# Velocity P-wave (km/s) = 7.92560 5.64698 6.88126
#
# Compressibility (1/GPa) = 0.00843668
#
# Stress axis : x y z
#
# Youngs Moduli (GPa) = 101.98789 751.77033 75.11089
#
# Poissons Ratio (x) = 0.32937 0.18572
# Poissons Ratio (y) = 0.04468 0.38272
# Poissons Ratio (z) = 0.25218 3.83056
#
# Static dielectric constant tensor:
#      x y z
#    x 2.745670 0.017040 -0.238980 
#    y 0.017040 2.267520 0.099030 
#    z -0.238980 0.099030 2.286680 
# 
# From -- ./inp_files/18370.got.cif
#   From: 2010.05.17/outbox.cif.g08.bks.cpg/sg2_10_cif.got.tgz:18370.got - 2010.06.03 11:33:40.
