data_PCOD9094463
_publ_section_title
;
Structure prediction by ZEFSAII (Michael W. Deem and Ramdas Pophale) SiO2 
 PCOD9094463
Probable space group: P -1
;
_chemical_formula_sum "Si O2"
_cell_formula_units_Z 14
_cell_length_a 16.750445
_cell_length_b 10.779234
_cell_length_c 9.289230
_cell_angle_alpha 133.646522
_cell_angle_beta 31.319272
_cell_angle_gamma 133.953055
_cell_volume 606.067078
_symmetry_space_group_name_H-M "P -1"
_symmetry_group_IT_number 2
_symmetry_cell_setting 'triclinic'
loop_
_space_group_symop_operation_xyz
x,y,z
-x,-y,-z
loop_
_atom_site_type_symbol
_atom_site_label
_atom_site_fract_x
_atom_site_fract_y
_atom_site_fract_z
Si Si1 0.367138 0.297271 0.673015
Si Si2 0.137447 0.035624 0.994934
Si Si3 0.437529 0.962283 0.403547
Si Si4 0.847774 0.716835 0.248139
Si Si5 0.961830 0.515374 0.401899
Si Si6 0.901705 0.808693 0.555226
Si Si7 0.582085 0.418637 0.936004
O O1 0.322287 0.322398 0.599456
O O2 0.467092 0.152820 0.428522
O O3 0.188543 0.196292 0.932466
O O4 0.426799 0.470209 0.817543
O O5 0.210668 0.133778 0.108810
O O6 0.959228 0.918004 0.201798
O O7 0.244255 0.910998 0.677629
O O8 0.481107 0.796686 0.130520
O O9 0.500000 0.000000 0.500000
O O10 0.836764 0.698822 0.423729
O O11 0.943795 0.590376 0.926739
O O12 0.003254 0.711783 0.421781
O O13 0.769804 0.458938 0.640196
O O14 0.000000 0.500000 0.500000
O O15 0.000000 0.000000 0.500000
O O16 0.500000 0.500000 0.000000
#
# Coordination Sequence:
#
# PCOD9094463 Si02
#       7
#     2   2   2   2   2   2   2
#     4  10  20  35  57  87 117 152 204 255 296 354
#     4   9  18  34  54  81 115 157 192 244 300 355
#     4  10  20  34  57  87 113 154 207 257 300 351
#     4  11  20  34  56  86 123 151 196 249 314 353
#     4  12  21  38  62  94 117 154 213 254 294 367
#     4  10  22  36  55  87 129 164 187 248 321 365
#     4  12  21  35  61  91 117 159 207 260 300 356
#
# _framework density 23.099751999999999
#
# number of rings (size 3 to 8) (size 9 to 14) (size 15 to 20)
#    0.857    0.571    5.714    0.857    0.000    3.429 
#    0.000    0.000    0.000    1.714    7.429    0.000 
#    0.000    0.000    0.000    0.000    0.000    0.000 
#
# Total GULP energy -77995.954172 kJ/mol
# GULP energy per Si atom -5571.139584 kJ/mol
# Density = 2.304718 g / cm^3
# Si number density = 23.099752 Si / 1000 Ang^3
#
#
#
# Elastic Constant Matrix: (Units=GPa)
#
#
# Indices 1 2 3 4 5 6 
#
# 1 173.1104 38.5799 66.7182 20.1780 20.4156 -11.9288
# 2 38.5799 90.5486 55.1409 35.5829 5.6996 -14.4693
# 3 66.7182 55.1409 105.7287 41.2977 18.8635 -12.9364
# 4 20.1780 35.5829 41.2977 54.6208 -0.5970 -0.0051
# 5 20.4156 5.6996 18.8635 -0.5970 42.1768 0.9775
# 6 -11.9288 -14.4693 -12.9364 -0.0051 0.9775 30.1356
#
#
#
# Elastic Compliance Matrix: (Units=1/GPa)
#
#
# Indices 1 2 3 4 5 6 
#
# 1 0.007831 -0.000711 -0.004561 0.001001 -0.001660 0.000854
# 2 -0.000711 0.018797 -0.005533 -0.007798 0.000021 0.006366
# 3 -0.004561 -0.005533 0.021291 -0.010883 -0.006835 0.004898
# 4 0.001001 -0.007798 -0.010883 0.031312 0.006070 -0.008211
# 5 -0.001660 0.000021 -0.006835 0.006070 0.027757 -0.004480
# 6 0.000854 0.006366 0.004898 -0.008211 -0.004480 0.038825
#
#
# Mechanical properties :
#
#
# Convention : Reuss Voigt Hill
#
# Bulk Modulus (GPa) = 38.01005 76.69619 57.35312
# Shear Modulus (GPa) = 28.37796 39.31655 33.84725
#
# Velocity S-wave (km/s) = 3.50879 4.13005 3.83203
# Velocity P-wave (km/s) = 5.73637 7.48447 6.66796
#
# Compressibility (1/GPa) = 0.02630883
#
# Stress axis : x y z
#
# Youngs Moduli (GPa) = 127.69789 53.20061 46.96761
#
# Poissons Ratio (x) = 0.03785 0.21420
# Poissons Ratio (y) = 0.09085 0.25987
# Poissons Ratio (z) = 0.58239 0.29436
#
# Static dielectric constant tensor:
#      x y z
#    x 1.991800 -0.025470 0.043910 
#    y -0.025470 2.030790 -0.003530 
#    z 0.043910 -0.003530 1.894320 
# 
# From -- ./inp_files/304084.got.cif
#   From: 2010.05.17/outbox.cif.g08.bks.cpg/sg2_153_cif.got.tgz:304084.got - 2010.06.03 11:33:40.
