data_PCOD9094628
_publ_section_title
;
Structure prediction by ZEFSAII (Michael W. Deem and Ramdas Pophale) SiO2 
 PCOD9094628
Probable space group: P -1
;
_chemical_formula_sum "Si O2"
_cell_formula_units_Z 16
_cell_length_a 14.064770
_cell_length_b 20.120602
_cell_length_c 16.899102
_cell_angle_alpha 19.121345
_cell_angle_beta 134.260164
_cell_angle_gamma 144.377361
_cell_volume 848.594624
_symmetry_space_group_name_H-M "P -1"
_symmetry_group_IT_number 2
_symmetry_cell_setting 'triclinic'
loop_
_space_group_symop_operation_xyz
x,y,z
-x,-y,-z
loop_
_atom_site_type_symbol
_atom_site_label
_atom_site_fract_x
_atom_site_fract_y
_atom_site_fract_z
Si Si1 0.219725 0.322874 0.560727
Si Si2 0.203643 0.786275 0.016345
Si Si3 0.672261 0.634174 0.745852
Si Si4 0.239966 0.017631 0.460240
Si Si5 0.446515 0.714878 0.773545
Si Si6 0.048955 0.431995 0.025723
Si Si7 0.556550 0.617680 0.522339
Si Si8 0.070865 0.206485 0.070996
O O1 0.362024 0.393523 0.628116
O O2 0.308425 0.358147 0.486983
O O3 0.205665 0.550838 0.297634
O O4 0.032054 0.022068 0.799738
O O5 0.068166 0.760410 0.025524
O O6 0.386709 0.089243 0.783188
O O7 0.116140 0.749061 0.923075
O O8 0.707209 0.883232 0.530333
O O9 0.580774 0.571744 0.678454
O O10 0.573561 0.414001 0.007424
O O11 0.845803 0.671363 0.788780
O O12 0.398179 0.216364 0.268362
O O13 0.093467 0.042545 0.330875
O O14 0.176863 0.730031 0.727303
O O15 0.500000 0.000000 0.500000
O O16 0.262641 0.501696 0.858127
O O17 0.000000 0.500000 0.000000
#
# Coordination Sequence:
#
# PCOD9094628 Si02
#       8
#     2   2   2   2   2   2   2   2
#     4  10  21  39  58  81 119 161 200 235 287 344
#     4  11  19  35  55  84 116 152 195 234 289 349
#     4  11  22  37  56  88 121 152 192 242 296 352
#     4  11  21  38  57  86 117 155 191 238 298 357
#     4  11  21  40  62  87 117 154 196 242 301 354
#     4  12  22  31  55  91 122 150 183 241 304 353
#     4  10  23  37  56  84 118 162 198 238 283 352
#     4  10  20  34  59  85 108 148 197 240 284 345
#
# _framework density 18.854704000000002
#
# number of rings (size 3 to 8) (size 9 to 14) (size 15 to 20)
#    0.000    1.250    5.000    3.375    1.750    1.000 
#    0.000    0.000    0.000    3.750    0.000    0.000 
#    0.000    0.000    0.000    0.000    0.000    0.000 
#
# Total GULP energy -89114.349592 kJ/mol
# GULP energy per Si atom -5569.646850 kJ/mol
# Density = 1.881179 g / cm^3
# Si number density = 18.854704 Si / 1000 Ang^3
#
#
#
# Elastic Constant Matrix: (Units=GPa)
#
#
# Indices 1 2 3 4 5 6 
#
# 1 74.8358 21.8119 18.7468 7.2632 9.4953 -3.9065
# 2 21.8119 109.2932 27.6480 -14.2189 -2.3120 -2.6977
# 3 18.7468 27.6480 92.5724 -20.4696 11.1488 7.1141
# 4 7.2632 -14.2189 -20.4696 33.1853 1.4339 1.1330
# 5 9.4953 -2.3120 11.1488 1.4339 30.7598 -2.9034
# 6 -3.9065 -2.6977 7.1141 1.1330 -2.9034 18.8452
#
#
#
# Elastic Compliance Matrix: (Units=1/GPa)
#
#
# Indices 1 2 3 4 5 6 
#
# 1 0.016691 -0.003246 -0.004047 -0.007557 -0.003153 0.004491
# 2 -0.003246 0.010966 -0.002230 0.003855 0.002635 0.001913
# 3 -0.004047 -0.002230 0.015969 0.010339 -0.006013 -0.008734
# 4 -0.007557 0.003855 0.010339 0.040249 -0.003748 -0.007915
# 5 -0.003153 0.002635 -0.006013 -0.003748 0.036780 0.007885
# 6 0.004491 0.001913 -0.008734 -0.007915 0.007885 0.059257
#
#
# Mechanical properties :
#
#
# Convention : Reuss Voigt Hill
#
# Bulk Modulus (GPa) = 40.68373 45.90164 43.29269
# Shear Modulus (GPa) = 24.13703 30.45771 27.29737
#
# Velocity S-wave (km/s) = 3.58181 4.02355 3.80909
# Velocity P-wave (km/s) = 6.22336 6.78108 6.50820
#
# Compressibility (1/GPa) = 0.02457985
#
# Stress axis : x y z
#
# Youngs Moduli (GPa) = 59.91417 91.19033 62.62006
#
# Poissons Ratio (x) = 0.29603 0.25342
# Poissons Ratio (y) = 0.19450 0.13963
# Poissons Ratio (z) = 0.24247 0.20334
#
# Static dielectric constant tensor:
#      x y z
#    x 1.694680 -0.007880 -0.019010 
#    y -0.007880 1.682270 -0.059220 
#    z -0.019010 -0.059220 1.743160 
# 
# From -- ./inp_files/454476.got.cif
#   From: 2010.05.17/outbox.cif.g08.bks.cpg/sg2_228_cif.got.tgz:454476.got - 2010.06.03 11:33:40.
