data_PCOD9094328
_publ_section_title
;
Structure prediction by ZEFSAII (Michael W. Deem and Ramdas Pophale) SiO2 
 PCOD9094328
Probable space group: P -1
;
_chemical_formula_sum "Si O2"
_cell_formula_units_Z 12
_cell_length_a 10.873473
_cell_length_b 16.333550
_cell_length_c 7.962097
_cell_angle_alpha 49.623572
_cell_angle_beta 125.768628
_cell_angle_gamma 148.244128
_cell_volume 564.958022
_symmetry_space_group_name_H-M "P -1"
_symmetry_group_IT_number 2
_symmetry_cell_setting 'triclinic'
loop_
_space_group_symop_operation_xyz
x,y,z
-x,-y,-z
loop_
_atom_site_type_symbol
_atom_site_label
_atom_site_fract_x
_atom_site_fract_y
_atom_site_fract_z
Si Si1 0.968440 0.115033 0.478730
Si Si2 0.040941 0.379019 0.349342
Si Si3 0.249001 0.578086 0.897873
Si Si4 0.148490 0.310555 0.043852
Si Si5 0.527810 0.599890 0.542068
Si Si6 0.790121 0.848405 0.915468
O O1 0.964032 0.214596 0.469911
O O2 0.954201 0.158466 0.223054
O O3 0.233711 0.209007 0.570706
O O4 0.799268 0.930021 0.648866
O O5 0.276017 0.516018 0.465733
O O6 0.839182 0.348556 0.292431
O O7 0.132165 0.470743 0.118820
O O8 0.529030 0.720446 0.946870
O O9 0.152338 0.440636 0.866630
O O10 0.149950 0.240023 0.974626
O O11 0.614237 0.590460 0.793713
O O12 0.500000 0.500000 0.500000
O O13 0.000000 0.000000 0.000000
#
# Coordination Sequence:
#
# PCOD9094328 Si02
#       6
#     2   2   2   2   2   2
#     4   8  18  34  58  78 107 141 179 213 273 326
#     4   9  17  35  60  77 108 145 180 214 272 332
#     4  10  20  34  56  85 108 138 181 230 267 311
#     4   9  20  37  57  81 106 144 191 211 263 333
#     4   8  14  31  61  79  94 145 186 210 252 330
#     4  12  23  33  55  84 114 140 180 233 269 306
#
# _framework density 21.240516
#
# number of rings (size 3 to 8) (size 9 to 14) (size 15 to 20)
#    1.000    1.667    1.667    2.000    2.333    0.667 
#    0.000    0.833    3.667    4.000    0.000    0.000 
#    0.000    0.000    0.000    0.000    0.000    0.000 
#
# Total GULP energy -66845.868877 kJ/mol
# GULP energy per Si atom -5570.489073 kJ/mol
# Density = 2.119217 g / cm^3
# Si number density = 21.240516 Si / 1000 Ang^3
#
#
#
# Elastic Constant Matrix: (Units=GPa)
#
#
# Indices 1 2 3 4 5 6 
#
# 1 134.9280 47.1766 20.2952 -3.9241 14.5437 -8.1296
# 2 47.1766 49.8881 4.1510 -5.1109 -2.9137 -10.9678
# 3 20.2952 4.1510 40.8503 -14.0326 -0.1667 -2.5047
# 4 -3.9241 -5.1109 -14.0326 31.3361 -1.5922 -2.9832
# 5 14.5437 -2.9137 -0.1667 -1.5922 26.6657 -0.0235
# 6 -8.1296 -10.9678 -2.5047 -2.9832 -0.0235 25.4201
#
#
#
# Elastic Compliance Matrix: (Units=1/GPa)
#
#
# Indices 1 2 3 4 5 6 
#
# 1 0.014446 -0.014769 -0.007542 -0.004768 -0.009827 -0.003064
# 2 -0.014769 0.038122 0.007710 0.009773 0.012864 0.013643
# 3 -0.007542 0.007710 0.033394 0.016160 0.006135 0.006107
# 4 -0.004768 0.009773 0.016160 0.041333 0.006246 0.009141
# 5 -0.009827 0.012864 0.006135 0.006246 0.044681 0.003786
# 6 -0.003064 0.013643 0.006107 0.009141 0.003786 0.045924
#
#
# Mechanical properties :
#
#
# Convention : Reuss Voigt Hill
#
# Bulk Modulus (GPa) = 17.61831 40.99023 29.30427
# Shear Modulus (GPa) = 18.79550 26.95395 22.87472
#
# Velocity S-wave (km/s) = 2.97794 3.56615 3.28523
# Velocity P-wave (km/s) = 4.48741 6.02467 5.31194
#
# Compressibility (1/GPa) = 0.05675914
#
# Stress axis : x y z
#
# Youngs Moduli (GPa) = 69.22506 26.23178 29.94557
#
# Poissons Ratio (x) = 0.38742 0.22585
# Poissons Ratio (y) = 1.02239 -0.23088
# Poissons Ratio (z) = 0.52210 -0.20225
#
# Static dielectric constant tensor:
#      x y z
#    x 1.834790 -0.012740 -0.034970 
#    y -0.012740 1.762340 0.021060 
#    z -0.034970 0.021060 1.876070 
# 
# From -- ./inp_files/165402.got.cif
#   From: 2010.05.17/outbox.cif.g08.bks.cpg/sg2_83_cif.got.tgz:165402.got - 2010.06.03 11:33:40.
