data_PCOD9094062
_publ_section_title
;
Structure prediction by ZEFSAII (Michael W. Deem and Ramdas Pophale) SiO2 
 PCOD9094062
Probable space group: P -1
;
_chemical_formula_sum "Si O2"
_cell_formula_units_Z 16
_cell_length_a 14.175535
_cell_length_b 19.246696
_cell_length_c 9.153491
_cell_angle_alpha 116.895027
_cell_angle_beta 64.329446
_cell_angle_gamma 159.303015
_cell_volume 786.766231
_symmetry_space_group_name_H-M "P -1"
_symmetry_group_IT_number 2
_symmetry_cell_setting 'triclinic'
loop_
_space_group_symop_operation_xyz
x,y,z
-x,-y,-z
loop_
_atom_site_type_symbol
_atom_site_label
_atom_site_fract_x
_atom_site_fract_y
_atom_site_fract_z
Si Si1 0.235805 0.208822 0.890270
Si Si2 0.759376 0.622873 0.813352
Si Si3 0.114541 0.452782 0.852207
Si Si4 0.732020 0.281294 0.155236
Si Si5 0.325532 0.823851 0.607548
Si Si6 0.099638 0.779288 0.493690
Si Si7 0.279296 0.948081 0.931596
Si Si8 0.335132 0.158468 0.017308
O O1 0.474013 0.385417 0.785634
O O2 0.274233 0.308397 0.070635
O O3 0.272479 0.154186 0.900662
O O4 0.925273 0.004165 0.861556
O O5 0.913891 0.708818 0.643846
O O6 0.958898 0.729781 0.912631
O O7 0.174362 0.572006 0.831300
O O8 0.395305 0.621218 0.892914
O O9 0.006469 0.315014 0.683126
O O10 0.911030 0.339055 0.007563
O O11 0.767191 0.297768 0.320225
O O12 0.426579 0.057179 0.092097
O O13 0.127464 0.719669 0.517336
O O14 0.384588 0.943763 0.775079
O O15 0.598441 0.983959 0.502081
O O16 0.370041 0.089378 0.922748
#
# Coordination Sequence:
#
# PCOD9094062 Si02
#       8
#     2   2   2   2   2   2   2   2
#     4   9  18  37  57  80  98 137 191 232 264 312
#     4   9  19  34  57  79 106 137 183 227 270 314
#     4  10  21  35  52  81 114 143 180 217 260 328
#     4  10  20  34  54  80 113 150 179 209 256 323
#     4  10  20  34  53  78 116 148 174 213 262 322
#     4  10  21  35  50  80 116 143 173 220 269 319
#     4   9  17  32  53  83 106 135 178 220 254 316
#     4   9  19  33  56  79 104 136 182 230 266 302
#
# _framework density 20.336409
#
# number of rings (size 3 to 8) (size 9 to 14) (size 15 to 20)
#    0.000    2.500    1.250    0.375    3.500    0.500 
#    0.000    7.500    0.000    0.000    0.000    0.000 
#    0.000    0.000    0.000    0.000    0.000    0.000 
#
# Total GULP energy -89208.810802 kJ/mol
# GULP energy per Si atom -5575.550675 kJ/mol
# Density = 2.029012 g / cm^3
# Si number density = 20.336409 Si / 1000 Ang^3
#
#
#
# Elastic Constant Matrix: (Units=GPa)
#
#
# Indices 1 2 3 4 5 6 
#
# 1 48.8111 6.8675 -1.2306 -13.7450 0.1202 -3.3964
# 2 6.8675 52.1547 11.5012 -8.6378 1.4850 6.6043
# 3 -1.2306 11.5012 46.8885 -17.4519 1.6671 5.2379
# 4 -13.7450 -8.6378 -17.4519 32.1083 3.3258 7.8770
# 5 0.1202 1.4850 1.6671 3.3258 21.5969 -2.5621
# 6 -3.3964 6.6043 5.2379 7.8770 -2.5621 23.1956
#
#
#
# Elastic Compliance Matrix: (Units=1/GPa)
#
#
# Indices 1 2 3 4 5 6 
#
# 1 0.025014 -0.001908 0.007215 0.015173 -0.003250 -0.002935
# 2 -0.001908 0.022151 -0.001924 0.006603 -0.003421 -0.008772
# 3 0.007215 -0.001924 0.033475 0.025422 -0.008245 -0.015499
# 4 0.015173 0.006603 0.025422 0.061703 -0.015330 -0.028046
# 5 -0.003250 -0.003421 -0.008245 -0.015330 0.051121 0.013213
# 6 -0.002935 -0.008772 -0.015499 -0.028046 0.013213 0.059663
#
#
# Mechanical properties :
#
#
# Convention : Reuss Voigt Hill
#
# Bulk Modulus (GPa) = 11.44072 20.23672 15.83872
# Shear Modulus (GPa) = 18.14910 24.09455 21.12182
#
# Velocity S-wave (km/s) = 2.99062 3.44582 3.22626
# Velocity P-wave (km/s) = 4.19083 5.07978 4.65657
#
# Compressibility (1/GPa) = 0.08740706
#
# Stress axis : x y z
#
# Youngs Moduli (GPa) = 39.97768 45.14459 29.87280
#
# Poissons Ratio (x) = 0.08612 -0.21554
# Poissons Ratio (y) = 0.07626 0.05748
# Poissons Ratio (z) = -0.28845 0.08687
#
# Static dielectric constant tensor:
#      x y z
#    x 1.739780 -0.010210 0.007900 
#    y -0.010210 1.787850 0.003420 
#    z 0.007900 0.003420 1.698000 
# 
# From -- ./inp_files/179250.got.cif
#   From: 2010.05.17/outbox.cif.g08.bks.cpg/sg2_90_cif.got.tgz:179250.got - 2010.06.03 11:33:40.
