data_PCOD9094718
_publ_section_title
;
Structure prediction by ZEFSAII (Michael W. Deem and Ramdas Pophale) SiO2 
 PCOD9094718
Probable space group: P -1
;
_chemical_formula_sum "Si O2"
_cell_formula_units_Z 12
_cell_length_a 8.371721
_cell_length_b 10.813293
_cell_length_c 7.953936
_cell_angle_alpha 84.773072
_cell_angle_beta 89.518590
_cell_angle_gamma 41.169075
_cell_volume 470.024419
_symmetry_space_group_name_H-M "P -1"
_symmetry_group_IT_number 2
_symmetry_cell_setting 'triclinic'
loop_
_space_group_symop_operation_xyz
x,y,z
-x,-y,-z
loop_
_atom_site_type_symbol
_atom_site_label
_atom_site_fract_x
_atom_site_fract_y
_atom_site_fract_z
Si Si1 0.558320 0.108347 0.494276
Si Si2 0.110173 0.891295 0.803932
Si Si3 0.810838 0.519532 0.410943
Si Si4 0.873399 0.217774 0.537177
Si Si5 0.987176 0.689075 0.924631
Si Si6 0.605056 0.712462 0.886032
O O1 0.437206 0.256477 0.626801
O O2 0.432615 0.232083 0.313381
O O3 0.500000 0.000000 0.500000
O O4 0.846020 0.938016 0.504941
O O5 0.231795 0.777161 0.636050
O O6 0.999865 0.830913 0.894391
O O7 0.332546 0.821567 0.917222
O O8 0.912247 0.110816 0.715925
O O9 0.773669 0.414462 0.529088
O O10 0.917408 0.415632 0.244713
O O11 0.000000 0.500000 0.500000
O O12 0.734977 0.761837 0.954547
O O13 0.195301 0.512382 0.065683
#
# Coordination Sequence:
#
# PCOD9094718 Si02
#       6
#     2   2   2   2   2   2
#     4  11  19  34  61  87 114 153 195 241 288 338
#     4   9  18  36  58  82 118 154 191 237 284 346
#     4  11  19  35  61  88 117 151 196 243 283 343
#     4   9  19  34  56  87 117 149 195 239 287 336
#     4  10  20  36  57  90 118 152 195 235 291 346
#     4  10  20  34  60  87 115 158 191 234 294 342
#
# _framework density 25.530591000000001
#
# number of rings (size 3 to 8) (size 9 to 14) (size 15 to 20)
#    0.000    2.000    3.333    1.500    0.000    0.000 
#    0.000   21.667    0.000    2.000    0.000    0.000 
#    0.000    0.000    0.000    0.000    0.000    0.000 
#
# Total GULP energy -66982.965604 kJ/mol
# GULP energy per Si atom -5581.913800 kJ/mol
# Density = 2.547248 g / cm^3
# Si number density = 25.530591 Si / 1000 Ang^3
#
#
#
# Elastic Constant Matrix: (Units=GPa)
#
#
# Indices 1 2 3 4 5 6 
#
# 1 208.9298 65.3267 42.8966 -30.1591 -3.1636 17.5373
# 2 65.3267 123.7920 37.5580 -5.6975 -3.2838 22.8027
# 3 42.8966 37.5580 92.6628 -28.8111 2.8752 9.7474
# 4 -30.1591 -5.6975 -28.8111 40.3574 5.3809 -8.4609
# 5 -3.1636 -3.2838 2.8752 5.3809 32.5288 -24.4788
# 6 17.5373 22.8027 9.7474 -8.4609 -24.4788 47.6386
#
#
#
# Elastic Compliance Matrix: (Units=1/GPa)
#
#
# Indices 1 2 3 4 5 6 
#
# 1 0.006431 -0.003012 -0.000422 0.004071 -0.000656 -0.000453
# 2 -0.003012 0.011655 -0.004028 -0.004350 -0.002227 -0.005563
# 3 -0.000422 -0.004028 0.016460 0.011147 -0.005255 -0.002005
# 4 0.004071 -0.004350 0.011147 0.036305 -0.005640 0.001853
# 5 -0.000656 -0.002227 -0.005255 -0.005640 0.053627 0.028937
# 6 -0.000453 -0.005563 -0.002005 0.001853 0.028937 0.039429
#
#
# Mechanical properties :
#
#
# Convention : Reuss Voigt Hill
#
# Bulk Modulus (GPa) = 50.96650 79.66081 65.31365
# Shear Modulus (GPa) = 26.97305 42.74517 34.85911
#
# Velocity S-wave (km/s) = 3.25391 4.09623 3.69912
# Velocity P-wave (km/s) = 5.84153 7.32407 6.62440
#
# Compressibility (1/GPa) = 0.01962073
#
# Stress axis : x y z
#
# Youngs Moduli (GPa) = 155.50802 85.80053 60.75463
#
# Poissons Ratio (x) = 0.25843 0.02565
# Poissons Ratio (y) = 0.46838 0.24472
# Poissons Ratio (z) = 0.06566 0.34561
#
# Static dielectric constant tensor:
#      x y z
#    x 2.303900 0.175340 0.049450 
#    y 0.175340 2.296140 0.099440 
#    z 0.049450 0.099440 2.087770 
# 
# From -- ./inp_files/163169.got.cif
#   From: 2010.05.17/outbox.cif.g08.bks.cpg/sg2_82_cif.got.tgz:163169.got - 2010.06.03 11:33:40.
