data_PCOD9094708
_publ_section_title
;
Structure prediction by ZEFSAII (Michael W. Deem and Ramdas Pophale) SiO2 
 PCOD9094708
Probable space group: P -1
;
_chemical_formula_sum "Si O2"
_cell_formula_units_Z 14
_cell_length_a 8.119667
_cell_length_b 13.205253
_cell_length_c 9.350052
_cell_angle_alpha 108.118126
_cell_angle_beta 48.618302
_cell_angle_gamma 87.483845
_cell_volume 669.748942
_symmetry_space_group_name_H-M "P -1"
_symmetry_group_IT_number 2
_symmetry_cell_setting 'triclinic'
loop_
_space_group_symop_operation_xyz
x,y,z
-x,-y,-z
loop_
_atom_site_type_symbol
_atom_site_label
_atom_site_fract_x
_atom_site_fract_y
_atom_site_fract_z
Si Si1 0.469816 0.499173 0.349053
Si Si2 0.488988 0.713220 0.938818
Si Si3 0.949159 0.905063 0.892443
Si Si4 0.610633 0.669462 0.157102
Si Si5 0.521443 0.071419 0.656004
Si Si6 0.010271 0.331370 0.265421
Si Si7 0.278631 0.975768 0.188044
O O1 0.500000 0.500000 0.500000
O O2 0.240197 0.290007 0.217871
O O3 0.593595 0.577024 0.235265
O O4 0.192195 0.561804 0.508479
O O5 0.449055 0.627632 0.812581
O O6 0.875178 0.644314 0.936579
O O7 0.471616 0.667302 0.088373
O O8 0.090169 0.770262 0.749425
O O9 0.928855 0.947168 0.758915
O O10 0.707035 0.905801 0.102886
O O11 0.000000 0.000000 0.000000
O O12 0.500411 0.801869 0.323796
O O13 0.720128 0.010671 0.634676
O O14 0.500000 0.000000 0.500000
O O15 0.675962 0.156975 0.923282
O O16 0.500000 0.000000 0.000000
#
# Coordination Sequence:
#
# PCOD9094708 Si02
#       7
#     2   2   2   2   2   2   2
#     4  12  24  34  62  90 108 150 201 243 280 343
#     4   9  19  40  59  77 118 155 188 233 289 350
#     4  10  20  34  60  85 116 150 185 242 282 347
#     4   8  20  40  56  78 119 151 186 233 294 337
#     4   9  18  34  58  81 114 151 182 235 293 339
#     4   9  21  40  58  82 117 153 193 223 302 340
#     4   9  16  35  59  83 110 153 191 220 298 351
#
# _framework density 20.903355000000001
#
# number of rings (size 3 to 8) (size 9 to 14) (size 15 to 20)
#    0.857    1.714    2.857    0.857    4.000    1.714 
#    0.000    0.714    0.000    0.000    0.000    0.000 
#    0.000    0.000    0.000    0.000    0.000    0.000 
#
# Total GULP energy -77961.354510 kJ/mol
# GULP energy per Si atom -5568.668179 kJ/mol
# Density = 2.085578 g / cm^3
# Si number density = 20.903355 Si / 1000 Ang^3
#
#
#
# Elastic Constant Matrix: (Units=GPa)
#
#
# Indices 1 2 3 4 5 6 
#
# 1 21.5916 22.6370 10.9637 -0.1161 11.9064 2.5037
# 2 22.6370 140.8743 61.5317 -7.8313 25.6059 3.9452
# 3 10.9637 61.5317 96.7027 6.5836 32.8870 2.0009
# 4 -0.1161 -7.8313 6.5836 36.9512 12.5400 2.4492
# 5 11.9064 25.6059 32.8870 12.5400 40.2697 3.9412
# 6 2.5037 3.9452 2.0009 2.4492 3.9412 21.3638
#
#
#
# Elastic Compliance Matrix: (Units=1/GPa)
#
#
# Indices 1 2 3 4 5 6 
#
# 1 0.063121 -0.008372 0.003890 0.003858 -0.017380 -0.003452
# 2 -0.008372 0.011643 -0.006432 0.003920 -0.000811 -0.000866
# 3 0.003890 -0.006432 0.017976 -0.000684 -0.011652 0.001276
# 4 0.003858 0.003920 -0.000684 0.032597 -0.012985 -0.002453
# 5 -0.017380 -0.000811 -0.011652 -0.012985 0.044381 -0.003421
# 6 -0.003452 -0.000866 0.001276 -0.002453 -0.003421 0.048165
#
#
# Mechanical properties :
#
#
# Convention : Reuss Voigt Hill
#
# Bulk Modulus (GPa) = 14.10213 49.93704 32.01959
# Shear Modulus (GPa) = 18.98624 30.65269 24.81946
#
# Velocity S-wave (km/s) = 3.01705 3.83352 3.44952
# Velocity P-wave (km/s) = 4.34716 6.59817 5.58720
#
# Compressibility (1/GPa) = 0.07091128
#
# Stress axis : x y z
#
# Youngs Moduli (GPa) = 15.84254 85.88921 55.63041
#
# Poissons Ratio (x) = 0.71905 -0.21640
# Poissons Ratio (y) = 0.13263 0.35784
# Poissons Ratio (z) = -0.06163 0.55248
#
# Static dielectric constant tensor:
#      x y z
#    x 1.862550 0.016790 -0.018550 
#    y 0.016790 1.762090 0.011710 
#    z -0.018550 0.011710 1.762670 
# 
# From -- ./inp_files/193971.got.cif
#   From: 2010.05.17/outbox.cif.g08.bks.cpg/sg2_97_cif.got.tgz:193971.got - 2010.06.03 11:33:40.
