data_PCOD9094273
_publ_section_title
;
Structure prediction by ZEFSAII (Michael W. Deem and Ramdas Pophale) SiO2 
 PCOD9094273
Probable space group: P -1
;
_chemical_formula_sum "Si O2"
_cell_formula_units_Z 14
_cell_length_a 11.954288
_cell_length_b 8.817838
_cell_length_c 9.823186
_cell_angle_alpha 95.436799
_cell_angle_beta 50.968231
_cell_angle_gamma 123.398774
_cell_volume 618.789716
_symmetry_space_group_name_H-M "P -1"
_symmetry_group_IT_number 2
_symmetry_cell_setting 'triclinic'
loop_
_space_group_symop_operation_xyz
x,y,z
-x,-y,-z
loop_
_atom_site_type_symbol
_atom_site_label
_atom_site_fract_x
_atom_site_fract_y
_atom_site_fract_z
Si Si1 0.458838 0.905474 0.739525
Si Si2 0.531042 0.275464 0.038691
Si Si3 0.462022 0.191256 0.585597
Si Si4 0.026091 0.837682 0.841819
Si Si5 0.636636 0.686050 0.085892
Si Si6 0.032756 0.672135 0.080153
Si Si7 0.955709 0.487474 0.690233
O O1 0.554357 0.894729 0.796602
O O2 0.434764 0.754604 0.632687
O O3 0.540121 0.101562 0.609014
O O4 0.256524 0.832618 0.928223
O O5 0.571760 0.470663 0.085374
O O6 0.425258 0.239469 0.978289
O O7 0.732015 0.340903 0.857250
O O8 0.458835 0.329665 0.701209
O O9 0.242499 0.025584 0.700432
O O10 0.014887 0.685233 0.735290
O O11 0.964094 0.754319 0.037373
O O12 0.861518 0.839239 0.924526
O O13 0.966334 0.593439 0.276833
O O14 0.000000 0.500000 0.000000
O O15 0.000000 0.500000 0.500000
#
# Coordination Sequence:
#
# PCOD9094273 Si02
#       7
#     2   2   2   2   2   2   2
#     4   9  19  35  52  79 105 131 174 220 257 298
#     4   9  20  37  53  76 108 135 171 218 259 305
#     4  10  20  34  56  78 103 138 175 213 255 309
#     4   9  18  34  50  74 108 136 170 211 255 309
#     4  10  20  35  54  75 104 143 172 207 262 311
#     4   8  15  30  52  73 100 132 168 216 255 291
#     4   9  17  31  55  79 100 132 174 220 260 297
#
# _framework density 22.62481
#
# number of rings (size 3 to 8) (size 9 to 14) (size 15 to 20)
#    0.000    2.857    0.000    1.286    0.000    5.714 
#    0.000    7.857    0.000    0.000    0.000    0.000 
#    0.000    0.000    0.000    0.000    0.000    0.000 
#
# Total GULP energy -78066.287366 kJ/mol
# GULP energy per Si atom -5576.163383 kJ/mol
# Density = 2.257331 g / cm^3
# Si number density = 22.624810 Si / 1000 Ang^3
#
#
#
# Elastic Constant Matrix: (Units=GPa)
#
#
# Indices 1 2 3 4 5 6 
#
# 1 115.0053 13.0712 12.5076 2.2157 15.8836 10.9862
# 2 13.0712 46.3477 20.3721 17.0792 3.7117 9.9306
# 3 12.5076 20.3721 102.7776 29.4701 23.5475 5.8189
# 4 2.2157 17.0792 29.4701 28.6147 0.8009 1.9965
# 5 15.8836 3.7117 23.5475 0.8009 37.8605 2.5412
# 6 10.9862 9.9306 5.8189 1.9965 2.5412 6.4720
#
#
#
# Elastic Compliance Matrix: (Units=1/GPa)
#
#
# Indices 1 2 3 4 5 6 
#
# 1 0.010859 0.001471 0.000598 -0.000870 -0.003745 -0.019488
# 2 0.001471 0.041862 0.001732 -0.022605 -0.001238 -0.060828
# 3 0.000598 0.001732 0.017356 -0.017991 -0.010182 -0.009730
# 4 -0.000870 -0.022605 -0.017991 0.064772 0.010506 0.028232
# 5 -0.003745 -0.001238 -0.010182 0.010506 0.034165 0.000755
# 6 -0.019488 -0.060828 -0.009730 0.028232 0.000755 0.280671
#
#
# Mechanical properties :
#
#
# Convention : Reuss Voigt Hill
#
# Bulk Modulus (GPa) = 12.87348 39.55916 26.21632
# Shear Modulus (GPa) = 10.68432 29.13475 19.90953
#
# Velocity S-wave (km/s) = 2.17546 3.59239 2.96968
# Velocity P-wave (km/s) = 3.46591 5.89321 4.83438
#
# Compressibility (1/GPa) = 0.07767910
#
# Stress axis : x y z
#
# Youngs Moduli (GPa) = 92.09180 23.88790 57.61729
#
# Poissons Ratio (x) = -0.03514 -0.03444
# Poissons Ratio (y) = -0.13545 -0.09982
# Poissons Ratio (z) = -0.05505 -0.04139
#
# Static dielectric constant tensor:
#      x y z
#    x 1.849360 -0.000670 0.031270 
#    y -0.000670 1.931000 -0.026790 
#    z 0.031270 -0.026790 1.868210 
# 
# From -- ./inp_files/175104.got.cif
#   From: 2010.05.17/outbox.cif.g08.bks.cpg/sg2_88_cif.got.tgz:175104.got - 2010.06.03 11:33:40.
