data_PCOD9094846
_publ_section_title
;
Structure prediction by ZEFSAII (Michael W. Deem and Ramdas Pophale) SiO2 
 PCOD9094846
Probable space group: P -1
;
_chemical_formula_sum "Si O2"
_cell_formula_units_Z 14
_cell_length_a 7.037263
_cell_length_b 9.810730
_cell_length_c 13.131739
_cell_angle_alpha 104.345736
_cell_angle_beta 75.020630
_cell_angle_gamma 47.968487
_cell_volume 526.904976
_symmetry_space_group_name_H-M "P -1"
_symmetry_group_IT_number 2
_symmetry_cell_setting 'triclinic'
loop_
_space_group_symop_operation_xyz
x,y,z
-x,-y,-z
loop_
_atom_site_type_symbol
_atom_site_label
_atom_site_fract_x
_atom_site_fract_y
_atom_site_fract_z
Si Si1 0.851899 0.424885 0.725560
Si Si2 0.462646 0.816122 0.988746
Si Si3 0.771617 0.878639 0.086711
Si Si4 0.639900 0.059166 0.361906
Si Si5 0.883226 0.995556 0.622247
Si Si6 0.466324 0.390431 0.874628
Si Si7 0.741951 0.476212 0.514987
O O1 0.773435 0.604939 0.837818
O O2 0.626382 0.436375 0.812822
O O3 0.717240 0.509728 0.645990
O O4 0.201907 0.157885 0.635623
O O5 0.210561 0.007045 0.977081
O O6 0.527997 0.906376 0.074393
O O7 0.378441 0.739302 0.063392
O O8 0.661919 0.995816 0.231790
O O9 0.102928 0.612995 0.993059
O O10 0.894054 0.043955 0.337886
O O11 0.324588 0.329164 0.483369
O O12 0.940922 0.797309 0.585395
O O13 0.000000 0.000000 0.500000
O O14 0.534853 0.235134 0.749313
O O15 0.500000 0.500000 0.500000
#
# Coordination Sequence:
#
# PCOD9094846 Si02
#       7
#     2   2   2   2   2   2   2
#     4  11  21  37  61  94 122 150 202 256 295 361
#     4  11  24  41  58  91 128 158 200 247 308 368
#     4  11  24  40  62  89 124 164 196 245 312 366
#     4  10  20  34  62  87 113 162 195 243 304 351
#     4  10  20  38  57  89 124 153 198 251 295 353
#     4  11  23  37  62  92 124 155 199 256 300 357
#     4  10  20  36  58  89 122 160 193 245 300 350
#
# _framework density 26.570257000000002
#
# number of rings (size 3 to 8) (size 9 to 14) (size 15 to 20)
#    0.000    1.429    5.714    0.857    2.000    4.000 
#    0.000    0.000    0.000    4.286    0.000    0.000 
#    0.000    0.000    0.000    0.000    0.000    0.000 
#
# Total GULP energy -78231.661013 kJ/mol
# GULP energy per Si atom -5587.975787 kJ/mol
# Density = 2.650978 g / cm^3
# Si number density = 26.570257 Si / 1000 Ang^3
#
#
#
# Elastic Constant Matrix: (Units=GPa)
#
#
# Indices 1 2 3 4 5 6 
#
# 1 88.6396 21.6981 45.8552 -9.9837 26.1947 12.3163
# 2 21.6981 155.3768 63.6781 1.1492 16.7078 16.0562
# 3 45.8552 63.6781 149.5863 14.7072 32.4203 -7.2468
# 4 -9.9837 1.1492 14.7072 65.5237 9.1386 18.5006
# 5 26.1947 16.7078 32.4203 9.1386 47.3012 1.9964
# 6 12.3163 16.0562 -7.2468 18.5006 1.9964 28.2880
#
#
#
# Elastic Compliance Matrix: (Units=1/GPa)
#
#
# Indices 1 2 3 4 5 6 
#
# 1 0.021769 0.003467 -0.008432 0.012346 -0.008997 -0.021045
# 2 0.003467 0.009768 -0.005922 0.005305 -0.001833 -0.011910
# 3 -0.008432 -0.005922 0.013807 -0.008657 -0.001719 0.016353
# 4 0.012346 0.005305 -0.008657 0.027991 -0.006985 -0.028417
# 5 -0.008997 -0.001833 -0.001719 -0.006985 0.029002 0.007039
# 6 -0.021045 -0.011910 0.016353 -0.028417 0.007039 0.073551
#
#
# Mechanical properties :
#
#
# Convention : Reuss Voigt Hill
#
# Bulk Modulus (GPa) = 42.42990 72.89617 57.66303
# Shear Modulus (GPa) = 24.32877 45.71402 35.02140
#
# Velocity S-wave (km/s) = 3.02924 4.15239 3.63446
# Velocity P-wave (km/s) = 5.31400 7.10525 6.27388
#
# Compressibility (1/GPa) = 0.02356829
#
# Stress axis : x y z
#
# Youngs Moduli (GPa) = 45.93761 102.38033 72.42710
#
# Poissons Ratio (x) = -0.35492 0.61072
# Poissons Ratio (y) = -0.15925 0.42891
# Poissons Ratio (z) = 0.38736 0.60629
#
# Static dielectric constant tensor:
#      x y z
#    x 2.137450 0.009020 0.008030 
#    y 0.009020 2.251760 0.130010 
#    z 0.008030 0.130010 2.071590 
# 
# From -- ./inp_files/390400.got.cif
#   From: 2010.05.17/outbox.cif.g08.bks.cpg/sg2_196_cif.got.tgz:390400.got - 2010.06.03 11:33:40.
