data_PCOD9094030
_publ_section_title
;
Structure prediction by ZEFSAII (Michael W. Deem and Ramdas Pophale) SiO2 
 PCOD9094030
Probable space group: P -1
;
_chemical_formula_sum "Si O2"
_cell_formula_units_Z 16
_cell_length_a 17.122652
_cell_length_b 6.456601
_cell_length_c 13.165200
_cell_angle_alpha 136.946793
_cell_angle_beta 129.166598
_cell_angle_gamma 42.142174
_cell_volume 653.762013
_symmetry_space_group_name_H-M "P -1"
_symmetry_group_IT_number 2
_symmetry_cell_setting 'triclinic'
loop_
_space_group_symop_operation_xyz
x,y,z
-x,-y,-z
loop_
_atom_site_type_symbol
_atom_site_label
_atom_site_fract_x
_atom_site_fract_y
_atom_site_fract_z
Si Si1 0.514633 0.735334 0.514589
Si Si2 0.919425 0.736675 0.675406
Si Si3 0.504599 0.137790 0.841468
Si Si4 0.049170 0.812447 0.641907
Si Si5 0.898857 0.571203 0.127364
Si Si6 0.236442 0.188753 0.089697
Si Si7 0.701680 0.810803 0.630131
Si Si8 0.741367 0.578309 0.178147
O O1 0.500000 0.500000 0.500000
O O2 0.645602 0.564237 0.512508
O O3 0.487033 0.076646 0.686259
O O4 0.419554 0.843672 0.386755
O O5 0.983209 0.343968 0.535523
O O6 0.794105 0.792499 0.619214
O O7 0.942426 0.949644 0.684299
O O8 0.984468 0.737566 0.831442
O O9 0.397210 0.144543 0.814035
O O10 0.643358 0.842235 0.864794
O O11 0.500000 0.500000 0.000000
O O12 0.167176 0.491314 0.680285
O O13 0.079019 0.103625 0.740582
O O14 0.791851 0.645355 0.141010
O O15 0.866715 0.546421 0.976364
O O16 0.238961 0.229072 0.226490
O O17 0.246435 0.807642 0.953662
#
# Coordination Sequence:
#
# PCOD9094030 Si02
#       8
#     2   2   2   2   2   2   2   2
#     4  10  22  39  60  89 120 147 188 240 287 346
#     4  10  20  35  57  78 106 150 186 226 286 344
#     4   9  18  36  60  85 114 151 190 235 289 342
#     4   9  19  35  53  80 110 136 184 243 284 332
#     4  10  20  34  52  80 111 141 186 238 279 326
#     4   9  20  36  52  78 114 148 188 234 274 337
#     4  10  22  39  58  80 114 154 186 227 290 347
#     4   9  18  34  56  78 108 146 186 235 289 334
#
# _framework density 24.473738999999998
#
# number of rings (size 3 to 8) (size 9 to 14) (size 15 to 20)
#    0.000    2.500    0.000    1.125    0.000    5.000 
#    0.000   10.625    0.000    0.000    0.000    0.000 
#    0.000    0.000    0.000    0.000    0.000    0.000 
#
# Total GULP energy -89173.792635 kJ/mol
# GULP energy per Si atom -5573.362040 kJ/mol
# Density = 2.441804 g / cm^3
# Si number density = 24.473739 Si / 1000 Ang^3
#
#
#
# Elastic Constant Matrix: (Units=GPa)
#
#
# Indices 1 2 3 4 5 6 
#
# 1 222.2174 32.2449 41.3007 -3.3414 25.7514 31.2616
# 2 32.2449 71.3787 53.7318 -22.3875 0.6423 24.5428
# 3 41.3007 53.7318 112.9584 -22.1896 -0.6667 6.8609
# 4 -3.3414 -22.3875 -22.1896 33.0260 4.2106 -3.1819
# 5 25.7514 0.6423 -0.6667 4.2106 25.2603 0.3476
# 6 31.2616 24.5428 6.8609 -3.1819 0.3476 24.3501
#
#
#
# Elastic Compliance Matrix: (Units=1/GPa)
#
#
# Indices 1 2 3 4 5 6 
#
# 1 0.007160 0.003892 -0.003651 0.000714 -0.007450 -0.011887
# 2 0.003892 0.045451 -0.017210 0.016413 -0.007712 -0.043704
# 3 -0.003651 -0.017210 0.017525 0.000850 0.004245 0.017146
# 4 0.000714 0.016413 0.000850 0.041894 -0.007940 -0.012112
# 5 -0.007450 -0.007712 0.004245 -0.007940 0.048616 0.014411
# 6 -0.011887 -0.043704 0.017146 -0.012112 0.014411 0.093759
#
#
# Mechanical properties :
#
#
# Convention : Reuss Voigt Hill
#
# Bulk Modulus (GPa) = 27.62551 73.45659 50.54105
# Shear Modulus (GPa) = 16.64400 35.14576 25.89488
#
# Velocity S-wave (km/s) = 2.61066 3.79365 3.25632
# Velocity P-wave (km/s) = 4.51660 7.01916 5.90205
#
# Compressibility (1/GPa) = 0.03619843
#
# Stress axis : x y z
#
# Youngs Moduli (GPa) = 139.65878 22.00172 57.06247
#
# Poissons Ratio (x) = -0.08563 0.20834
# Poissons Ratio (y) = -0.54358 0.98204
# Poissons Ratio (z) = 0.50990 0.37865
#
# Static dielectric constant tensor:
#      x y z
#    x 2.012920 -0.013040 0.003150 
#    y -0.013040 1.980480 0.024420 
#    z 0.003150 0.024420 1.964580 
# 
# From -- ./inp_files/442277.got.cif
#   From: 2010.05.17/outbox.cif.g08.bks.cpg/sg2_222_cif.got.tgz:442277.got - 2010.06.03 11:33:40.
