data_PCOD9094111
_publ_section_title
;
Structure prediction by ZEFSAII (Michael W. Deem and Ramdas Pophale) SiO2 
 PCOD9094111
Probable space group: P -1
;
_chemical_formula_sum "Si O2"
_cell_formula_units_Z 16
_cell_length_a 8.682274
_cell_length_b 8.261586
_cell_length_c 12.133363
_cell_angle_alpha 70.621254
_cell_angle_beta 72.489668
_cell_angle_gamma 60.108477
_cell_volume 701.952981
_symmetry_space_group_name_H-M "P -1"
_symmetry_group_IT_number 2
_symmetry_cell_setting 'triclinic'
loop_
_space_group_symop_operation_xyz
x,y,z
-x,-y,-z
loop_
_atom_site_type_symbol
_atom_site_label
_atom_site_fract_x
_atom_site_fract_y
_atom_site_fract_z
Si Si1 0.177407 0.427334 0.342230
Si Si2 0.293585 0.051866 0.019788
Si Si3 0.645027 0.413480 0.085979
Si Si4 0.936293 0.775343 0.753874
Si Si5 0.731174 0.629433 0.198196
Si Si6 0.822207 0.040121 0.264399
Si Si7 0.850698 0.257608 0.884569
Si Si8 0.752228 0.705025 0.414206
O O1 0.172260 0.245808 0.322675
O O2 0.229427 0.558105 0.220275
O O3 0.290235 0.361509 0.445075
O O4 0.967292 0.567615 0.383422
O O5 0.193600 0.146701 0.132354
O O6 0.257107 0.869693 0.050281
O O7 0.237635 0.199547 0.898082
O O8 0.500000 0.000000 0.000000
O O9 0.620138 0.571810 0.146866
O O10 0.674898 0.224411 0.190736
O O11 0.500000 0.500000 0.000000
O O12 0.834333 0.341855 0.992628
O O13 0.080482 0.558368 0.794090
O O14 0.058068 0.890671 0.698588
O O15 0.661841 0.677792 0.327610
O O16 0.735955 0.918169 0.370723
O O17 0.968048 0.895493 0.178607
#
# Coordination Sequence:
#
# PCOD9094111 Si02
#       8
#     2   2   2   2   2   2   2   2
#     4   9  18  34  56  81 109 143 185 229 270 318
#     4  11  21  34  54  81 112 141 178 227 277 331
#     4  11  21  34  54  81 112 141 178 227 277 331
#     4   9  19  34  54  82 112 143 180 224 273 326
#     4  10  20  34  54  79 110 144 180 224 275 327
#     4   9  19  34  54  82 112 143 180 224 273 326
#     4  10  20  34  54  79 110 144 180 224 275 327
#     4   9  18  34  56  81 109 143 185 229 270 318
#
# _framework density 22.79355
#
# number of rings (size 3 to 8) (size 9 to 14) (size 15 to 20)
#    0.000    2.250    0.000    3.000    0.000    7.500 
#    0.000    3.750    0.000    6.000    0.000    0.000 
#    0.000    0.000    0.000    0.000    0.000    1.750 
#
# Total GULP energy -89311.593057 kJ/mol
# GULP energy per Si atom -5581.974566 kJ/mol
# Density = 2.274167 g / cm^3
# Si number density = 22.793550 Si / 1000 Ang^3
#
#
#
# Elastic Constant Matrix: (Units=GPa)
#
#
# Indices 1 2 3 4 5 6 
#
# 1 56.9148 24.5811 17.9052 0.6129 17.1731 24.8447
# 2 24.5811 108.0072 53.7585 -10.6431 16.8462 30.5991
# 3 17.9052 53.7585 126.4793 -10.1032 25.6540 34.6251
# 4 0.6129 -10.6431 -10.1032 22.0573 7.7048 -0.1862
# 5 17.1731 16.8462 25.6540 7.7048 24.4176 9.4525
# 6 24.8447 30.5991 34.6251 -0.1862 9.4525 32.7083
#
#
#
# Elastic Compliance Matrix: (Units=1/GPa)
#
#
# Indices 1 2 3 4 5 6 
#
# 1 0.035642 0.001590 0.009526 0.013975 -0.028884 -0.030218
# 2 0.001590 0.015030 -0.000678 0.010081 -0.009397 -0.011778
# 3 0.009526 -0.000678 0.017763 0.015210 -0.022398 -0.018847
# 4 0.013975 0.010081 0.015210 0.073112 -0.047292 -0.022063
# 5 -0.028884 -0.009397 -0.022398 -0.047292 0.095972 0.026438
# 6 -0.030218 -0.011778 -0.018847 -0.022063 0.026438 0.076730
#
#
# Mechanical properties :
#
#
# Convention : Reuss Voigt Hill
#
# Bulk Modulus (GPa) = 11.19664 53.76565 32.48115
# Shear Modulus (GPa) = 15.47293 28.84707 22.16000
#
# Velocity S-wave (km/s) = 2.60826 3.56136 3.12140
# Velocity P-wave (km/s) = 3.74080 6.36792 5.22226
#
# Compressibility (1/GPa) = 0.08931248
#
# Stress axis : x y z
#
# Youngs Moduli (GPa) = 28.05647 66.53389 56.29529
#
# Poissons Ratio (x) = -0.10580 -0.53626
# Poissons Ratio (y) = -0.04461 0.03815
# Poissons Ratio (z) = -0.26726 0.04509
#
# Static dielectric constant tensor:
#      x y z
#    x 1.976580 -0.010930 0.060400 
#    y -0.010930 1.894630 0.013860 
#    z 0.060400 0.013860 1.872990 
# 
# From -- ./inp_files/381690.got.cif
#   From: 2010.05.17/outbox.cif.g08.bks.cpg/sg2_191_cif.got.tgz:381690.got - 2010.06.03 11:33:40.
