data_PCOD9094412
_publ_section_title
;
Structure prediction by ZEFSAII (Michael W. Deem and Ramdas Pophale) SiO2 
 PCOD9094412
Probable space group: P -1
;
_chemical_formula_sum "Si O2"
_cell_formula_units_Z 14
_cell_length_a 11.461586
_cell_length_b 8.666989
_cell_length_c 7.230157
_cell_angle_alpha 118.476224
_cell_angle_beta 80.973143
_cell_angle_gamma 76.489399
_cell_volume 582.832591
_symmetry_space_group_name_H-M "P -1"
_symmetry_group_IT_number 2
_symmetry_cell_setting 'triclinic'
loop_
_space_group_symop_operation_xyz
x,y,z
-x,-y,-z
loop_
_atom_site_type_symbol
_atom_site_label
_atom_site_fract_x
_atom_site_fract_y
_atom_site_fract_z
Si Si1 0.255574 0.159556 0.572929
Si Si2 0.179879 0.829992 0.424411
Si Si3 0.558214 0.092267 0.884656
Si Si4 0.034890 0.278410 0.390817
Si Si5 0.583581 0.521159 0.756900
Si Si6 0.318854 0.493832 0.677667
Si Si7 0.175691 0.898751 0.045593
O O1 0.151704 0.226621 0.474634
O O2 0.272988 0.352864 0.730386
O O3 0.206629 0.010696 0.605831
O O4 0.390191 0.030943 0.379142
O O5 0.315524 0.663712 0.288524
O O6 0.130821 0.872580 0.250027
O O7 0.083473 0.758404 0.512646
O O8 0.683861 0.101220 0.954966
O O9 0.458610 0.299242 0.998301
O O10 0.500000 0.000000 0.000000
O O11 0.000000 0.500000 0.500000
O O12 0.088383 0.109684 0.127672
O O13 0.453086 0.495042 0.718186
O O14 0.648081 0.565167 0.578936
O O15 0.209045 0.700456 0.820989
#
# Coordination Sequence:
#
# PCOD9094412 Si02
#       7
#     2   2   2   2   2   2   2
#     4  10  20  35  57  81 114 150 182 231 278 324
#     4  10  21  38  57  81 111 145 192 228 269 334
#     4   9  16  30  55  78 106 145 189 216 258 326
#     4  10  20  38  62  81 103 147 197 230 266 331
#     4  10  20  34  57  82 115 150 183 229 271 328
#     4  10  20  36  55  83 118 145 179 227 288 325
#     4   9  21  36  56  83 113 145 182 235 275 322
#
# _framework density 24.020620000000001
#
# number of rings (size 3 to 8) (size 9 to 14) (size 15 to 20)
#    0.000    2.571    1.429    2.571    2.000    5.714 
#    0.000    7.143    0.000    0.000    0.000    0.000 
#    0.000    0.000    0.000    0.000    0.000    0.000 
#
# Total GULP energy -78094.051005 kJ/mol
# GULP energy per Si atom -5578.146500 kJ/mol
# Density = 2.396595 g / cm^3
# Si number density = 24.020620 Si / 1000 Ang^3
#
#
#
# Elastic Constant Matrix: (Units=GPa)
#
#
# Indices 1 2 3 4 5 6 
#
# 1 69.8370 53.7403 35.1507 9.7919 -17.0479 17.4582
# 2 53.7403 143.1611 57.7187 45.8896 -17.4402 20.8658
# 3 35.1507 57.7187 101.1596 35.5827 -22.0408 3.4225
# 4 9.7919 45.8896 35.5827 58.2432 -7.0708 -10.2769
# 5 -17.0479 -17.4402 -22.0408 -7.0708 23.5920 0.9432
# 6 17.4582 20.8658 3.4225 -10.2769 0.9432 56.7240
#
#
#
# Elastic Compliance Matrix: (Units=1/GPa)
#
#
# Indices 1 2 3 4 5 6 
#
# 1 0.024770 -0.007410 -0.003449 0.004357 0.010667 -0.004078
# 2 -0.007410 0.014418 -0.001918 -0.009670 0.000801 -0.004673
# 3 -0.003449 -0.001918 0.016824 -0.007134 0.009698 -0.000702
# 4 0.004357 -0.009670 -0.007134 0.029575 -0.002122 0.008040
# 5 0.010667 0.000801 0.009698 -0.002122 0.059333 -0.005534
# 6 -0.004078 -0.004673 -0.000702 0.008040 -0.005534 0.022194
#
#
# Mechanical properties :
#
#
# Convention : Reuss Voigt Hill
#
# Bulk Modulus (GPa) = 32.83251 67.48633 50.15942
# Shear Modulus (GPa) = 24.65216 38.88170 31.76693
#
# Velocity S-wave (km/s) = 3.20705 4.02765 3.64054
# Velocity P-wave (km/s) = 5.23562 7.05588 6.21278
#
# Compressibility (1/GPa) = 0.03045762
#
# Stress axis : x y z
#
# Youngs Moduli (GPa) = 40.37153 69.35638 59.43800
#
# Poissons Ratio (x) = 0.51396 0.20502
# Poissons Ratio (y) = 0.29917 0.11399
# Poissons Ratio (z) = 0.13925 0.13301
#
# Static dielectric constant tensor:
#      x y z
#    x 1.907400 0.006550 0.035840 
#    y 0.006550 2.002210 0.000680 
#    z 0.035840 0.000680 2.103620 
# 
# From -- ./inp_files/184838.got.cif
#   From: 2010.05.17/outbox.cif.g08.bks.cpg/sg2_93_cif.got.tgz:184838.got - 2010.06.03 11:33:40.
