data_PCOD9094070
_publ_section_title
;
Structure prediction by ZEFSAII (Michael W. Deem and Ramdas Pophale) SiO2 
 PCOD9094070
Probable space group: P -1
;
_chemical_formula_sum "Si O2"
_cell_formula_units_Z 12
_cell_length_a 14.501877
_cell_length_b 9.307475
_cell_length_c 14.233721
_cell_angle_alpha 124.372776
_cell_angle_beta 151.505705
_cell_angle_gamma 75.838756
_cell_volume 582.042585
_symmetry_space_group_name_H-M "P -1"
_symmetry_group_IT_number 2
_symmetry_cell_setting 'triclinic'
loop_
_space_group_symop_operation_xyz
x,y,z
-x,-y,-z
loop_
_atom_site_type_symbol
_atom_site_label
_atom_site_fract_x
_atom_site_fract_y
_atom_site_fract_z
Si Si1 0.649069 0.919393 0.382896
Si Si2 0.142008 0.730754 0.131433
Si Si3 0.602969 0.143564 0.048863
Si Si4 0.205166 0.851080 0.026998
Si Si5 0.863146 0.660516 0.489668
Si Si6 0.407596 0.639701 0.453902
O O1 0.365464 0.771271 0.116048
O O2 0.746933 0.781075 0.409161
O O3 0.810999 0.119847 0.679790
O O4 0.610614 0.987478 0.272075
O O5 0.199222 0.864412 0.137564
O O6 0.317539 0.663399 0.280933
O O7 0.857404 0.503627 0.783508
O O8 0.871471 0.214129 0.282302
O O9 0.677652 0.391501 0.210431
O O10 0.500000 0.000000 0.000000
O O11 0.367618 0.103230 0.223651
O O12 0.942458 0.699929 0.684812
O O13 0.500000 0.500000 0.500000
#
# Coordination Sequence:
#
# PCOD9094070 Si02
#       6
#     2   2   2   2   2   2
#     4  10  20  39  61  85 118 153 192 237 285 341
#     4  10  22  38  57  86 123 156 189 232 282 342
#     4  10  23  42  61  85 114 147 194 246 292 339
#     4  10  22  39  58  87 123 154 189 233 283 343
#     4  10  22  40  62  86 115 150 192 241 288 343
#     4  10  20  34  53  80 115 154 194 230 270 329
#
# _framework density 20.617048
#
# number of rings (size 3 to 8) (size 9 to 14) (size 15 to 20)
#    0.000    2.000    0.000    3.500    0.000   10.000 
#    0.000    8.333    0.000    0.000    0.000    0.000 
#    0.000    0.000    0.000    0.000    0.000    0.000 
#
# Total GULP energy -66833.121225 kJ/mol
# GULP energy per Si atom -5569.426769 kJ/mol
# Density = 2.057012 g / cm^3
# Si number density = 20.617048 Si / 1000 Ang^3
#
#
#
# Elastic Constant Matrix: (Units=GPa)
#
#
# Indices 1 2 3 4 5 6 
#
# 1 93.1763 68.6922 39.6176 4.5526 -18.4407 23.7327
# 2 68.6922 144.2087 39.5070 3.2002 -10.3313 -11.6457
# 3 39.6176 39.5070 73.5718 0.7308 -10.8796 6.3127
# 4 4.5526 3.2002 0.7308 22.7614 6.0167 3.6967
# 5 -18.4407 -10.3313 -10.8796 6.0167 24.1363 1.4754
# 6 23.7327 -11.6457 6.3127 3.6967 1.4754 29.6764
#
#
#
# Elastic Compliance Matrix: (Units=1/GPa)
#
#
# Indices 1 2 3 4 5 6 
#
# 1 0.047553 -0.022841 -0.005046 -0.006149 0.028661 -0.046578
# 2 -0.022841 0.019798 -0.002415 0.000605 -0.011870 0.027064
# 3 -0.005046 -0.002415 0.018184 0.000032 0.003358 -0.000951
# 4 -0.006149 0.000605 0.000032 0.049540 -0.016763 -0.000189
# 5 0.028661 -0.011870 0.003358 -0.016763 0.065742 -0.029473
# 6 -0.046578 0.027064 -0.000951 -0.000189 -0.029473 0.083258
#
#
# Mechanical properties :
#
#
# Convention : Reuss Voigt Hill
#
# Bulk Modulus (GPa) = 40.10997 67.39892 53.75444
# Shear Modulus (GPa) = 14.16479 26.19080 20.17780
#
# Velocity S-wave (km/s) = 2.62399 3.56806 3.13180
# Velocity P-wave (km/s) = 5.35513 7.05242 6.26155
#
# Compressibility (1/GPa) = 0.02493146
#
# Stress axis : x y z
#
# Youngs Moduli (GPa) = 21.02910 50.51094 54.99324
#
# Poissons Ratio (x) = 1.15371 0.27749
# Poissons Ratio (y) = 0.48032 0.13281
# Poissons Ratio (z) = 0.10611 0.12199
#
# Static dielectric constant tensor:
#      x y z
#    x 1.827210 -0.037860 -0.077910 
#    y -0.037860 1.781430 0.074870 
#    z -0.077910 0.074870 1.925610 
# 
# From -- ./inp_files/502306.got.cif
#   From: 2010.05.17/outbox.cif.g08.bks.cpg/sg2_252_cif.got.tgz:502306.got - 2010.06.03 11:33:40.
