data_PCOD9094580
_publ_section_title
;
Structure prediction by ZEFSAII (Michael W. Deem and Ramdas Pophale) SiO2 
 PCOD9094580
Probable space group: P -1
;
_chemical_formula_sum "Si O2"
_cell_formula_units_Z 14
_cell_length_a 4.790775
_cell_length_b 8.169709
_cell_length_c 16.074684
_cell_angle_alpha 118.629539
_cell_angle_beta 103.208055
_cell_angle_gamma 65.505885
_cell_volume 502.179313
_symmetry_space_group_name_H-M "P -1"
_symmetry_group_IT_number 2
_symmetry_cell_setting 'triclinic'
loop_
_space_group_symop_operation_xyz
x,y,z
-x,-y,-z
loop_
_atom_site_type_symbol
_atom_site_label
_atom_site_fract_x
_atom_site_fract_y
_atom_site_fract_z
Si Si1 0.905597 0.900668 0.549179
Si Si2 0.192203 0.872920 0.880199
Si Si3 0.854856 0.729574 0.951689
Si Si4 0.548991 0.292664 0.684479
Si Si5 0.854899 0.679420 0.192489
Si Si6 0.257846 0.513216 0.414473
Si Si7 0.409985 0.878705 0.717548
O O1 0.945369 0.678541 0.468065
O O2 0.157860 0.888380 0.633133
O O3 0.598994 0.065416 0.604604
O O4 0.000000 0.000000 0.500000
O O5 0.495060 0.764642 0.931376
O O6 0.296094 0.815650 0.780268
O O7 0.925749 0.812847 0.887658
O O8 0.102704 0.111935 0.942587
O O9 0.078127 0.500071 0.911630
O O10 0.244653 0.383229 0.740038
O O11 0.618899 0.402214 0.636273
O O12 0.823368 0.290827 0.764838
O O13 0.599264 0.897128 0.213489
O O14 0.500000 0.500000 0.500000
O O15 0.284081 0.291316 0.337477
#
# Coordination Sequence:
#
# PCOD9094580 Si02
#       7
#     2   2   2   2   2   2   2
#     4   8  17  35  57  83 116 153 192 238 289 339
#     4  10  22  39  63  88 116 152 197 239 285 347
#     4  10  21  40  61  87 119 155 190 236 294 347
#     4  10  21  39  59  83 116 155 194 234 290 348
#     4  11  22  37  60  85 117 153 189 235 291 346
#     4   9  17  36  59  84 114 151 196 244 287 339
#     4  10  20  34  58  90 118 152 198 242 287 344
#
# _framework density 27.878487
#
# number of rings (size 3 to 8) (size 9 to 14) (size 15 to 20)
#    0.000    2.286    0.000    2.571    0.000    2.857 
#    0.000   31.429    0.000    9.429    0.000    0.000 
#    0.000    0.000    0.000    0.000    0.000    0.000 
#
# Total GULP energy -78462.295981 kJ/mol
# GULP energy per Si atom -5604.449713 kJ/mol
# Density = 2.781503 g / cm^3
# Si number density = 27.878487 Si / 1000 Ang^3
#
#
#
# Elastic Constant Matrix: (Units=GPa)
#
#
# Indices 1 2 3 4 5 6 
#
# 1 123.5536 9.7852 21.3464 7.0038 -4.0010 -0.2647
# 2 9.7852 112.8812 51.3169 56.6526 -6.7279 -10.3474
# 3 21.3464 51.3169 158.3127 48.9164 -34.2249 -12.6233
# 4 7.0038 56.6526 48.9164 83.5908 -8.8159 -15.5702
# 5 -4.0010 -6.7279 -34.2249 -8.8159 32.0437 3.8809
# 6 -0.2647 -10.3474 -12.6233 -15.5702 3.8809 30.5209
#
#
#
# Elastic Compliance Matrix: (Units=1/GPa)
#
#
# Indices 1 2 3 4 5 6 
#
# 1 0.008299 -0.000292 -0.001106 0.000053 -0.000138 -0.000440
# 2 -0.000292 0.013999 -0.002347 -0.008332 -0.001867 -0.000240
# 3 -0.001106 -0.002347 0.010314 -0.003246 0.009419 0.000607
# 4 0.000053 -0.008332 -0.003246 0.020668 -0.000300 0.006415
# 5 -0.000138 -0.001867 0.009419 -0.000300 0.041031 -0.002109
# 6 -0.000440 -0.000240 0.000607 0.006415 -0.002109 0.036471
#
#
# Mechanical properties :
#
#
# Convention : Reuss Voigt Hill
#
# Bulk Modulus (GPa) = 39.80337 62.18273 50.99305
# Shear Modulus (GPa) = 34.09561 50.05099 42.07330
#
# Velocity S-wave (km/s) = 3.50095 4.24173 3.88901
# Velocity P-wave (km/s) = 5.53630 6.80757 6.20458
#
# Compressibility (1/GPa) = 0.02512350
#
# Stress axis : x y z
#
# Youngs Moduli (GPa) = 120.49074 71.43231 96.95537
#
# Poissons Ratio (x) = 0.02085 0.10721
# Poissons Ratio (y) = 0.03517 0.22754
# Poissons Ratio (z) = 0.13324 0.16764
#
# Static dielectric constant tensor:
#      x y z
#    x 2.019450 -0.015520 0.024190 
#    y -0.015520 2.306040 0.006770 
#    z 0.024190 0.006770 2.147400 
# 
# From -- ./inp_files/76234.got.cif
#   From: 2010.05.17/outbox.cif.g08.bks.cpg/sg2_39_cif.got.tgz:76234.got - 2010.06.03 11:33:40.
