data_PCOD9094252
_publ_section_title
;
Structure prediction by ZEFSAII (Michael W. Deem and Ramdas Pophale) SiO2 
 PCOD9094252
Probable space group: P -1
;
_chemical_formula_sum "Si O2"
_cell_formula_units_Z 16
_cell_length_a 11.598876
_cell_length_b 9.442136
_cell_length_c 11.285575
_cell_angle_alpha 47.591120
_cell_angle_beta 55.611749
_cell_angle_gamma 69.734476
_cell_volume 751.879843
_symmetry_space_group_name_H-M "P -1"
_symmetry_group_IT_number 2
_symmetry_cell_setting 'triclinic'
loop_
_space_group_symop_operation_xyz
x,y,z
-x,-y,-z
loop_
_atom_site_type_symbol
_atom_site_label
_atom_site_fract_x
_atom_site_fract_y
_atom_site_fract_z
Si Si1 0.769837 0.951932 0.635602
Si Si2 0.513823 0.803532 0.032443
Si Si3 0.973290 0.262885 0.287918
Si Si4 0.590046 0.827837 0.596862
Si Si5 0.344455 0.797442 0.918827
Si Si6 0.349294 0.506007 0.709980
Si Si7 0.119930 0.660518 0.938063
Si Si8 0.378969 0.255039 0.624658
O O1 0.899997 0.833034 0.666783
O O2 0.714391 0.912156 0.558158
O O3 0.642071 0.868773 0.834975
O O4 0.831191 0.172504 0.480610
O O5 0.558836 0.639294 0.186787
O O6 0.380819 0.736674 0.065494
O O7 0.500000 0.000000 0.000000
O O8 0.961835 0.212742 0.181225
O O9 0.014082 0.488277 0.139511
O O10 0.471430 0.721515 0.807111
O O11 0.652339 0.721815 0.509114
O O12 0.500000 0.000000 0.500000
O O13 0.204902 0.745166 0.953871
O O14 0.358286 0.029514 0.789943
O O15 0.234805 0.575637 0.828763
O O16 0.301907 0.382608 0.691857
O O17 0.456116 0.677257 0.505619
#
# Coordination Sequence:
#
# PCOD9094252 Si02
#       8
#     2   2   2   2   2   2   2   2
#     4  10  21  37  63  88 118 161 207 241 298 358
#     4  11  22  38  60  92 127 151 185 252 325 361
#     4  10  22  38  59  85 119 166 207 252 280 341
#     4   9  17  31  57  89 115 148 191 245 297 349
#     4  10  20  35  61  87 121 156 192 250 306 358
#     4  11  22  34  55  89 125 153 192 237 305 370
#     4  11  22  38  60  88 122 155 212 251 286 349
#     4  10  20  34  55  88 123 154 182 239 314 367
#
# _framework density 21.279995
#
# number of rings (size 3 to 8) (size 9 to 14) (size 15 to 20)
#    0.000    1.750    3.750    1.500    3.500    1.500 
#    0.000    0.000    0.000   18.000    0.000    0.000 
#    0.000    0.000    0.000    0.000    0.000    0.000 
#
# Total GULP energy -89203.075271 kJ/mol
# GULP energy per Si atom -5575.192204 kJ/mol
# Density = 2.123156 g / cm^3
# Si number density = 21.279995 Si / 1000 Ang^3
#
#
#
# Elastic Constant Matrix: (Units=GPa)
#
#
# Indices 1 2 3 4 5 6 
#
# 1 159.1007 40.0103 26.5684 -4.3915 6.6168 32.2642
# 2 40.0103 85.3726 11.2466 5.2989 2.6579 26.3657
# 3 26.5684 11.2466 74.1534 -16.3861 -7.0641 10.9961
# 4 -4.3915 5.2989 -16.3861 24.2837 7.5603 2.6371
# 5 6.6168 2.6579 -7.0641 7.5603 32.2160 -0.8139
# 6 32.2642 26.3657 10.9961 2.6371 -0.8139 32.9541
#
#
#
# Elastic Compliance Matrix: (Units=1/GPa)
#
#
# Indices 1 2 3 4 5 6 
#
# 1 0.008521 -0.001810 -0.001498 0.002483 -0.002680 -0.006660
# 2 -0.001810 0.016189 -0.000999 -0.003161 -0.000709 -0.010611
# 3 -0.001498 -0.000999 0.017602 0.011898 0.001343 -0.004527
# 4 0.002483 -0.003161 0.011898 0.054592 -0.010666 -0.008504
# 5 -0.002680 -0.000709 0.001343 -0.010666 0.034560 0.004450
# 6 -0.006660 -0.010611 -0.004527 -0.008504 0.004450 0.047656
#
#
# Mechanical properties :
#
#
# Convention : Reuss Voigt Hill
#
# Bulk Modulus (GPa) = 29.67554 52.69748 41.18651
# Shear Modulus (GPa) = 25.12995 33.94418 29.53707
#
# Velocity S-wave (km/s) = 3.44018 3.99823 3.72966
# Velocity P-wave (km/s) = 5.45484 6.79206 6.15985
#
# Compressibility (1/GPa) = 0.03369779
#
# Stress axis : x y z
#
# Youngs Moduli (GPa) = 117.35504 61.77183 56.81138
#
# Poissons Ratio (x) = 0.11182 0.08508
# Poissons Ratio (y) = 0.21243 0.05677
# Poissons Ratio (z) = 0.17575 0.06173
#
# Static dielectric constant tensor:
#      x y z
#    x 1.850240 -0.001180 0.030080 
#    y -0.001180 1.812480 -0.004330 
#    z 0.030080 -0.004330 1.847380 
# 
# From -- ./inp_files/418866.got.cif
#   From: 2010.05.17/outbox.cif.g08.bks.cpg/sg2_210_cif.got.tgz:418866.got - 2010.06.03 11:33:40.
