data_PCOD9094841
_publ_section_title
;
Structure prediction by ZEFSAII (Michael W. Deem and Ramdas Pophale) SiO2 
 PCOD9094841
Probable space group: P -1
;
_chemical_formula_sum "Si O2"
_cell_formula_units_Z 16
_cell_length_a 19.673753
_cell_length_b 9.355272
_cell_length_c 14.065906
_cell_angle_alpha 128.358992
_cell_angle_beta 157.944769
_cell_angle_gamma 55.725692
_cell_volume 761.643695
_symmetry_space_group_name_H-M "P -1"
_symmetry_group_IT_number 2
_symmetry_cell_setting 'triclinic'
loop_
_space_group_symop_operation_xyz
x,y,z
-x,-y,-z
loop_
_atom_site_type_symbol
_atom_site_label
_atom_site_fract_x
_atom_site_fract_y
_atom_site_fract_z
Si Si1 0.574201 0.045691 0.839613
Si Si2 0.361989 0.656273 0.407685
Si Si3 0.332069 0.286057 0.519710
Si Si4 0.052639 0.844577 0.364514
Si Si5 0.038463 0.794045 0.924107
Si Si6 0.819064 0.973848 0.951819
Si Si7 0.774772 0.861801 0.173123
Si Si8 0.401087 0.652374 0.666853
O O1 0.468699 0.850804 0.625972
O O2 0.435036 0.199850 0.705794
O O3 0.687417 0.045216 0.890074
O O4 0.697025 0.036241 0.087524
O O5 0.500000 0.500000 0.500000
O O6 0.305093 0.617373 0.425786
O O7 0.202258 0.693044 0.143270
O O8 0.431842 0.462317 0.679029
O O9 0.136941 0.326606 0.325979
O O10 0.290278 0.142380 0.319312
O O11 0.247058 0.755824 0.567600
O O12 0.954813 0.851626 0.137808
O O13 0.903841 0.774262 0.222739
O O14 0.102013 0.052225 0.548380
O O15 0.082127 0.851684 0.897543
O O16 0.000000 0.000000 0.000000
O O17 0.597500 0.751336 0.938965
#
# Coordination Sequence:
#
# PCOD9094841 Si02
#       8
#     2   2   2   2   2   2   2   2
#     4  10  20  37  58  85 119 162 202 247 312 372
#     4  11  22  35  59  92 129 165 205 256 305 377
#     4  11  22  35  57  91 126 157 196 247 318 383
#     4  10  21  42  66  90 115 163 219 254 308 372
#     4  10  20  35  54  83 125 164 198 241 305 373
#     4  10  20  34  62  85 116 163 198 247 305 377
#     4   9  22  42  67  86 118 159 217 264 305 361
#     4  11  23  37  61  94 123 159 202 262 312 366
#
# _framework density 21.007197999999999
#
# number of rings (size 3 to 8) (size 9 to 14) (size 15 to 20)
#    0.000    1.750    2.500    3.000    3.500    5.000 
#    0.000    0.625    0.000    2.250    0.000    0.000 
#    0.000    0.000    0.000    0.000    0.000    0.000 
#
# Total GULP energy -89150.673222 kJ/mol
# GULP energy per Si atom -5571.917076 kJ/mol
# Density = 2.095938 g / cm^3
# Si number density = 21.007198 Si / 1000 Ang^3
#
#
#
# Elastic Constant Matrix: (Units=GPa)
#
#
# Indices 1 2 3 4 5 6 
#
# 1 108.5502 16.7506 24.8888 6.8302 9.7239 0.3396
# 2 16.7506 90.6793 25.2140 -17.4325 12.8807 20.5353
# 3 24.8888 25.2140 76.6536 -8.6744 21.0028 2.9182
# 4 6.8302 -17.4325 -8.6744 26.1344 0.3386 9.1080
# 5 9.7239 12.8807 21.0028 0.3386 32.2747 1.2979
# 6 0.3396 20.5353 2.9182 9.1080 1.2979 29.6446
#
#
#
# Elastic Compliance Matrix: (Units=1/GPa)
#
#
# Indices 1 2 3 4 5 6 
#
# 1 0.011191 -0.004181 -0.003640 -0.008971 0.000524 0.005860
# 2 -0.004181 0.022690 -0.000697 0.023987 -0.006682 -0.022678
# 3 -0.003640 -0.000697 0.018349 0.007838 -0.010518 -0.003229
# 4 -0.008971 0.023987 0.007838 0.073027 -0.011159 -0.039233
# 5 0.000524 -0.006682 -0.010518 -0.011159 0.040160 0.007328
# 6 0.005860 -0.022678 -0.003229 -0.039233 0.007328 0.061427
#
#
# Mechanical properties :
#
#
# Convention : Reuss Voigt Hill
#
# Bulk Modulus (GPa) = 28.41523 45.50998 36.96260
# Shear Modulus (GPa) = 19.56082 31.54606 25.55344
#
# Velocity S-wave (km/s) = 3.05478 3.87935 3.49150
# Velocity P-wave (km/s) = 5.09883 6.46350 5.82129
#
# Compressibility (1/GPa) = 0.03519240
#
# Stress axis : x y z
#
# Youngs Moduli (GPa) = 89.35423 44.07160 54.49920
#
# Poissons Ratio (x) = 0.18428 0.19840
# Poissons Ratio (y) = 0.37362 0.03801
# Poissons Ratio (z) = 0.32528 0.03074
#
# Static dielectric constant tensor:
#      x y z
#    x 1.794210 -0.045570 -0.013120 
#    y -0.045570 1.791300 -0.046310 
#    z -0.013120 -0.046310 1.828900 
# 
# From -- ./inp_files/189379.got.cif
#   From: 2010.05.17/outbox.cif.g08.bks.cpg/sg2_95_cif.got.tgz:189379.got - 2010.06.03 11:33:40.
