data_PCOD9094302
_publ_section_title
;
Structure prediction by ZEFSAII (Michael W. Deem and Ramdas Pophale) SiO2 
 PCOD9094302
Probable space group: P -1
;
_chemical_formula_sum "Si O2"
_cell_formula_units_Z 16
_cell_length_a 5.464591
_cell_length_b 9.540538
_cell_length_c 15.667846
_cell_angle_alpha 71.275257
_cell_angle_beta 113.909011
_cell_angle_gamma 92.469649
_cell_volume 703.646890
_symmetry_space_group_name_H-M "P -1"
_symmetry_group_IT_number 2
_symmetry_cell_setting 'triclinic'
loop_
_space_group_symop_operation_xyz
x,y,z
-x,-y,-z
loop_
_atom_site_type_symbol
_atom_site_label
_atom_site_fract_x
_atom_site_fract_y
_atom_site_fract_z
Si Si1 0.271043 0.346873 0.479397
Si Si2 0.208593 0.887322 0.391850
Si Si3 0.380231 0.475557 0.307411
Si Si4 0.455547 0.030072 0.258565
Si Si5 0.122316 0.523832 0.875220
Si Si6 0.331362 0.322359 0.090026
Si Si7 0.779890 0.183273 0.399269
Si Si8 0.270296 0.282694 0.679285
O O1 0.514201 0.219343 0.546869
O O2 0.348419 0.479791 0.405105
O O3 0.185058 0.364889 0.561384
O O4 0.034405 0.275471 0.410076
O O5 0.178014 0.902661 0.487221
O O6 0.996572 0.797661 0.327989
O O7 0.257012 0.026988 0.312487
O O8 0.525090 0.310477 0.342658
O O9 0.578610 0.591798 0.277856
O O10 0.083151 0.507106 0.222044
O O11 0.371877 0.148477 0.151154
O O12 0.723003 0.079888 0.332216
O O13 0.512758 0.862209 0.267486
O O14 0.380328 0.609529 0.868734
O O15 0.911957 0.613475 0.894288
O O16 0.242975 0.377231 0.972394
#
# Coordination Sequence:
#
# PCOD9094302 Si02
#       8
#     2   2   2   2   2   2   2   2
#     4   9  20  36  55  80 114 158 202 250 292 349
#     4   9  21  35  51  80 119 157 195 244 292 359
#     4  11  21  36  59  83 115 157 203 248 297 356
#     4  11  21  36  56  84 114 160 189 251 300 364
#     4  10  22  42  66  97 118 151 200 261 303 360
#     4  10  22  41  68  94 122 149 199 256 315 355
#     4  10  20  34  56  82 110 151 207 246 292 349
#     4  10  23  36  51  82 123 160 198 240 299 359
#
# _framework density 22.738678
#
# number of rings (size 3 to 8) (size 9 to 14) (size 15 to 20)
#    0.000    2.000    1.250    1.500    1.750   13.000 
#    0.000    0.625    0.000    0.750    0.000    0.000 
#    0.000    0.000    0.000    0.000    0.000    0.000 
#
# Total GULP energy -89283.031733 kJ/mol
# GULP energy per Si atom -5580.189483 kJ/mol
# Density = 2.268692 g / cm^3
# Si number density = 22.738678 Si / 1000 Ang^3
#
#
#
# Elastic Constant Matrix: (Units=GPa)
#
#
# Indices 1 2 3 4 5 6 
#
# 1 77.9052 17.9477 20.3000 -9.0424 14.8901 21.2459
# 2 17.9477 92.3381 38.7459 -22.1068 0.6381 18.6988
# 3 20.3000 38.7459 121.0562 -23.4215 9.2364 12.7326
# 4 -9.0424 -22.1068 -23.4215 36.9609 14.0314 5.2438
# 5 14.8901 0.6381 9.2364 14.0314 26.5685 2.3019
# 6 21.2459 18.6988 12.7326 5.2438 2.3019 38.7905
#
#
#
# Elastic Compliance Matrix: (Units=1/GPa)
#
#
# Indices 1 2 3 4 5 6 
#
# 1 0.022312 0.002502 0.002493 0.019168 -0.022210 -0.015518
# 2 0.002502 0.016376 -0.001254 0.014070 -0.007899 -0.010286
# 3 0.002493 -0.001254 0.012303 0.013053 -0.012031 -0.005850
# 4 0.019168 0.014070 0.013053 0.071842 -0.051112 -0.028244
# 5 -0.022210 -0.007899 -0.012031 -0.051112 0.079535 0.022111
# 6 -0.015518 -0.010286 -0.005850 -0.028244 0.022111 0.043663
#
#
# Mechanical properties :
#
#
# Convention : Reuss Voigt Hill
#
# Bulk Modulus (GPa) = 17.10230 49.47630 33.28930
# Shear Modulus (GPa) = 19.37688 34.75104 27.06396
#
# Velocity S-wave (km/s) = 2.92234 3.91356 3.45369
# Velocity P-wave (km/s) = 4.35021 6.49824 5.52953
#
# Compressibility (1/GPa) = 0.05847166
#
# Stress axis : x y z
#
# Youngs Moduli (GPa) = 44.81940 61.06633 81.28379
#
# Poissons Ratio (x) = -0.15279 -0.20263
# Poissons Ratio (y) = -0.11214 0.10194
# Poissons Ratio (z) = -0.11173 0.07659
#
# Static dielectric constant tensor:
#      x y z
#    x 1.978590 -0.025100 -0.023640 
#    y -0.025100 1.895620 0.047300 
#    z -0.023640 0.047300 1.845460 
# 
# From -- ./inp_files/110529.got.cif
#   From: 2010.05.17/outbox.cif.g08.bks.cpg/sg2_56_cif.got.tgz:110529.got - 2010.06.03 11:33:40.
