data_PCOD9094277
_publ_section_title
;
Structure prediction by ZEFSAII (Michael W. Deem and Ramdas Pophale) SiO2 
 PCOD9094277
Probable space group: P -1
;
_chemical_formula_sum "Si O2"
_cell_formula_units_Z 16
_cell_length_a 16.373883
_cell_length_b 5.338313
_cell_length_c 18.113255
_cell_angle_alpha 95.357871
_cell_angle_beta 147.834282
_cell_angle_gamma 86.366763
_cell_volume 838.830223
_symmetry_space_group_name_H-M "P -1"
_symmetry_group_IT_number 2
_symmetry_cell_setting 'triclinic'
loop_
_space_group_symop_operation_xyz
x,y,z
-x,-y,-z
loop_
_atom_site_type_symbol
_atom_site_label
_atom_site_fract_x
_atom_site_fract_y
_atom_site_fract_z
Si Si1 0.483834 0.514805 0.400754
Si Si2 0.069138 0.796438 0.729811
Si Si3 0.529403 0.780492 0.958018
Si Si4 0.578711 0.019893 0.724358
Si Si5 0.820664 0.703573 0.260867
Si Si6 0.661501 0.589853 0.273067
Si Si7 0.275328 0.278818 0.514151
Si Si8 0.660028 0.130055 0.950617
O O1 0.500000 0.500000 0.500000
O O2 0.396710 0.761418 0.312045
O O3 0.651121 0.557334 0.491416
O O4 0.407225 0.258893 0.303246
O O5 0.077885 0.537215 0.683147
O O6 0.897238 0.817968 0.628909
O O7 0.117369 0.042764 0.725022
O O8 0.188381 0.773992 0.888485
O O9 0.370539 0.666209 0.803146
O O10 0.614323 0.875025 0.951735
O O11 0.655014 0.627464 0.094455
O O12 0.500000 0.000000 0.000000
O O13 0.399111 0.058002 0.609997
O O14 0.672892 0.082323 0.872218
O O15 0.781698 0.743731 0.318209
O O16 0.711621 0.571129 0.394678
O O17 0.490708 0.704312 0.146796
#
# Coordination Sequence:
#
# PCOD9094277 Si02
#       8
#     2   2   2   2   2   2   2   2
#     4  10  20  39  66  91 111 138 181 229 279 340
#     4  11  24  38  52  81 115 160 184 230 282 330
#     4  11  19  31  54  79 105 146 202 249 277 304
#     4   9  21  36  61  89 109 144 180 230 272 332
#     4  11  23  34  54  76 113 153 203 230 275 317
#     4  11  19  37  53  80 108 150 199 248 267 315
#     4   9  24  37  59  82 117 146 184 225 293 339
#     4  10  20  34  56  78 112 147 195 238 271 323
#
# _framework density 19.074179999999998
#
# number of rings (size 3 to 8) (size 9 to 14) (size 15 to 20)
#    0.750    1.000    2.500    3.000    1.750    1.000 
#    0.000    0.000    0.000    1.500    0.000    0.000 
#    0.000    0.000    0.000    0.000    0.000    0.000 
#
# Total GULP energy -89134.769968 kJ/mol
# GULP energy per Si atom -5570.923123 kJ/mol
# Density = 1.903077 g / cm^3
# Si number density = 19.074180 Si / 1000 Ang^3
#
#
#
# Elastic Constant Matrix: (Units=GPa)
#
#
# Indices 1 2 3 4 5 6 
#
# 1 101.4705 27.1995 54.3928 5.4754 -34.7023 19.9911
# 2 27.1995 69.3380 14.1068 14.4418 -3.4949 6.4779
# 3 54.3928 14.1068 69.8015 3.4239 -8.6991 7.2689
# 4 5.4754 14.4418 3.4239 13.7985 -4.3629 -3.3777
# 5 -34.7023 -3.4949 -8.6991 -4.3629 32.9509 -6.5850
# 6 19.9911 6.4779 7.2689 -3.3777 -6.5850 20.4301
#
#
#
# Elastic Compliance Matrix: (Units=1/GPa)
#
#
# Indices 1 2 3 4 5 6 
#
# 1 0.036444 -0.007999 -0.021788 0.004929 0.029421 -0.015075
# 2 -0.007999 0.022830 0.002458 -0.026622 -0.010491 -0.008069
# 3 -0.021788 0.002458 0.028689 -0.004525 -0.014745 0.004832
# 4 0.004929 -0.026622 -0.004525 0.114333 0.022588 0.031411
# 5 0.029421 -0.010491 -0.014745 0.022588 0.059882 0.002819
# 6 -0.015075 -0.008069 0.004832 0.031411 0.002819 0.070640
#
#
# Mechanical properties :
#
#
# Convention : Reuss Voigt Hill
#
# Bulk Modulus (GPa) = 30.02512 48.00093 39.01303
# Shear Modulus (GPa) = 12.54461 23.09662 17.82062
#
# Velocity S-wave (km/s) = 2.56730 3.48355 3.05991
# Velocity P-wave (km/s) = 4.95615 6.43430 5.74298
#
# Compressibility (1/GPa) = 0.03330544
#
# Stress axis : x y z
#
# Youngs Moduli (GPa) = 27.43913 43.80244 34.85655
#
# Poissons Ratio (x) = 0.35036 0.75945
# Poissons Ratio (y) = 0.21948 -0.08567
# Poissons Ratio (z) = 0.59784 -0.10766
#
# Static dielectric constant tensor:
#      x y z
#    x 1.663290 0.001750 0.004320 
#    y 0.001750 1.782510 0.010600 
#    z 0.004320 0.010600 1.678050 
# 
# From -- ./inp_files/108732.got.cif
#   From: 2010.05.17/outbox.cif.g08.bks.cpg/sg2_55_cif.got.tgz:108732.got - 2010.06.03 11:33:40.
