data_PCOD9094376
_publ_section_title
;
Structure prediction by ZEFSAII (Michael W. Deem and Ramdas Pophale) SiO2 
 PCOD9094376
Probable space group: P -1
;
_chemical_formula_sum "Si O2"
_cell_formula_units_Z 16
_cell_length_a 13.915021
_cell_length_b 11.098692
_cell_length_c 13.596923
_cell_angle_alpha 140.132314
_cell_angle_beta 40.103346
_cell_angle_gamma 145.382658
_cell_volume 711.668491
_symmetry_space_group_name_H-M "P -1"
_symmetry_group_IT_number 2
_symmetry_cell_setting 'triclinic'
loop_
_space_group_symop_operation_xyz
x,y,z
-x,-y,-z
loop_
_atom_site_type_symbol
_atom_site_label
_atom_site_fract_x
_atom_site_fract_y
_atom_site_fract_z
Si Si1 0.891839 0.586650 0.751425
Si Si2 0.808959 0.216016 0.055415
Si Si3 0.049176 0.916262 0.536856
Si Si4 0.953002 0.262126 0.763554
Si Si5 0.785888 0.440396 0.515681
Si Si6 0.936962 0.946299 0.177684
Si Si7 0.448776 0.326914 0.782873
Si Si8 0.497544 0.241812 0.911204
O O1 0.834574 0.484382 0.621592
O O2 0.716796 0.405044 0.837722
O O3 0.078889 0.626299 0.666033
O O4 0.940342 0.838271 0.854594
O O5 0.889602 0.467659 0.191671
O O6 0.610825 0.009078 0.115709
O O7 0.822416 0.229944 0.934735
O O8 0.947857 0.151425 0.941530
O O9 0.136674 0.852665 0.343076
O O10 0.853264 0.675512 0.554255
O O11 0.038020 0.122310 0.640322
O O12 0.115228 0.970094 0.631083
O O13 0.569258 0.284646 0.589591
O O14 0.746273 0.768002 0.166333
O O15 0.436348 0.222745 0.834036
O O16 0.550796 0.599226 0.893940
#
# Coordination Sequence:
#
# PCOD9094376 Si02
#       8
#     2   2   2   2   2   2   2   2
#     4   9  19  35  56  87 120 152 193 234 289 363
#     4  10  20  37  62  88 115 154 200 249 296 344
#     4   9  18  37  62  83 113 156 194 245 304 346
#     4   9  19  36  63  86 109 152 207 250 296 345
#     4   9  18  35  58  82 117 157 189 234 295 352
#     4  10  20  34  58  91 125 155 190 239 295 358
#     4  10  20  34  56  90 124 156 194 234 291 367
#     4  10  20  35  57  85 121 160 195 239 294 350
#
# _framework density 22.482377
#
# number of rings (size 3 to 8) (size 9 to 14) (size 15 to 20)
#    0.000    2.500    0.000    3.750    0.000    4.500 
#    0.000    5.000    0.000   41.250    0.000    0.000 
#    0.000    0.000    0.000    0.000    0.000    0.000 
#
# Total GULP energy -89261.221229 kJ/mol
# GULP energy per Si atom -5578.826327 kJ/mol
# Density = 2.243121 g / cm^3
# Si number density = 22.482377 Si / 1000 Ang^3
#
#
#
# Elastic Constant Matrix: (Units=GPa)
#
#
# Indices 1 2 3 4 5 6 
#
# 1 51.8210 42.9816 40.4790 -6.8999 1.4869 1.5866
# 2 42.9816 137.9002 52.0214 0.0843 0.9188 -19.1028
# 3 40.4790 52.0214 97.5560 1.7576 11.1718 -4.6226
# 4 -6.8999 0.0843 1.7576 30.9073 6.4195 -9.2913
# 5 1.4869 0.9188 11.1718 6.4195 34.4180 0.1676
# 6 1.5866 -19.1028 -4.6226 -9.2913 0.1676 33.4431
#
#
#
# Elastic Compliance Matrix: (Units=1/GPa)
#
#
# Indices 1 2 3 4 5 6 
#
# 1 0.035316 -0.007626 -0.011102 0.006586 0.001081 -0.005742
# 2 -0.007626 0.011607 -0.002811 0.000254 0.000852 0.006669
# 3 -0.011102 -0.002811 0.016946 -0.002301 -0.004520 0.000646
# 4 0.006586 0.000254 -0.002301 0.038434 -0.006763 0.010226
# 5 0.001081 0.000852 -0.004520 -0.006763 0.031724 -0.002227
# 6 -0.005742 0.006669 0.000646 0.010226 -0.002227 0.036925
#
#
# Mechanical properties :
#
#
# Convention : Reuss Voigt Hill
#
# Bulk Modulus (GPa) = 48.09831 62.02681 55.06256
# Shear Modulus (GPa) = 22.62845 29.87336 26.25090
#
# Velocity S-wave (km/s) = 3.17598 3.64915 3.42075
# Velocity P-wave (km/s) = 5.90672 6.73825 6.33614
#
# Compressibility (1/GPa) = 0.02079075
#
# Stress axis : x y z
#
# Youngs Moduli (GPa) = 28.31579 86.15344 59.01205
#
# Poissons Ratio (x) = 0.65702 0.65513
# Poissons Ratio (y) = 0.21594 0.16590
# Poissons Ratio (z) = 0.31435 0.24220
#
# Static dielectric constant tensor:
#      x y z
#    x 1.837670 -0.022500 0.023730 
#    y -0.022500 1.817610 -0.001940 
#    z 0.023730 -0.001940 1.947210 
# 
# From -- ./inp_files/532030.got.cif
#   From: 2010.05.17/outbox.cif.g08.bks.cpg/sg2_267_cif.got.tgz:532030.got - 2010.06.03 11:33:40.
