data_PCOD9094424
_publ_section_title
;
Structure prediction by ZEFSAII (Michael W. Deem and Ramdas Pophale) SiO2 
 PCOD9094424
Probable space group: P -1
;
_chemical_formula_sum "Si O2"
_cell_formula_units_Z 13
_cell_length_a 13.470117
_cell_length_b 12.530566
_cell_length_c 7.259365
_cell_angle_alpha 81.995693
_cell_angle_beta 82.117390
_cell_angle_gamma 24.154881
_cell_volume 496.357721
_symmetry_space_group_name_H-M "P -1"
_symmetry_group_IT_number 2
_symmetry_cell_setting 'triclinic'
loop_
_space_group_symop_operation_xyz
x,y,z
-x,-y,-z
loop_
_atom_site_type_symbol
_atom_site_label
_atom_site_fract_x
_atom_site_fract_y
_atom_site_fract_z
Si Si1 0.612954 0.780078 0.639776
Si Si2 0.089264 0.258494 0.596187
Si Si3 0.925247 0.911338 0.626053
Si Si4 0.510824 0.644045 0.856005
Si Si5 0.588191 0.481296 0.263653
Si Si6 0.838794 0.866051 0.989979
Si Si7 0.500000 0.000000 0.000000
O O1 0.605995 0.659514 0.734697
O O2 0.852559 0.549098 0.510924
O O3 0.355492 0.042869 0.540838
O O4 0.603252 0.860467 0.805583
O O5 0.087304 0.138711 0.550769
O O6 0.059190 0.295631 0.818324
O O7 0.164110 0.751051 0.626198
O O8 0.656836 0.221161 0.667826
O O9 0.978968 0.763165 0.798265
O O10 0.482424 0.572855 0.744237
O O11 0.257124 0.930354 0.941904
O O12 0.649242 0.468794 0.046402
O O13 0.622938 0.000507 0.945874
#
# Coordination Sequence:
#
# PCOD9094424 Si02
#       7
#     2   2   2   2   2   2   1
#     4  10  20  37  58  82 115 147 185 236 279 328
#     4  10  21  38  57  83 116 147 186 233 276 328
#     4  11  22  38  58  84 115 151 186 228 278 333
#     4   8  18  35  57  84 113 149 188 233 278 325
#     4  10  20  34  57  84 114 150 191 226 275 337
#     4   9  20  38  60  83 114 148 185 235 281 329
#     4   8  18  38  62  86 108 148 190 224 284 340
#
# _framework density 26.190788999999999
#
# number of rings (size 3 to 8) (size 9 to 14) (size 15 to 20)
#    0.000    2.769    0.000    1.846    0.000   10.462 
#    0.000   14.615    0.000    0.000    0.000    0.000 
#    0.000    0.000    0.000    0.000    0.000    0.000 
#
# Total GULP energy -72367.424550 kJ/mol
# GULP energy per Si atom -5566.724965 kJ/mol
# Density = 2.613118 g / cm^3
# Si number density = 26.190789 Si / 1000 Ang^3
#
#
#
# Elastic Constant Matrix: (Units=GPa)
#
#
# Indices 1 2 3 4 5 6 
#
# 1 101.9716 59.7354 47.3420 11.0095 27.0900 12.3353
# 2 59.7354 174.6912 29.8680 13.4383 36.7162 -15.0509
# 3 47.3420 29.8680 103.6388 11.6692 5.7773 -1.8888
# 4 11.0095 13.4383 11.6692 27.8307 10.4938 3.1397
# 5 27.0900 36.7162 5.7773 10.4938 53.3158 2.6982
# 6 12.3353 -15.0509 -1.8888 3.1397 2.6982 39.8367
#
#
#
# Elastic Compliance Matrix: (Units=1/GPa)
#
#
# Indices 1 2 3 4 5 6 
#
# 1 0.017685 -0.004548 -0.006703 0.000672 -0.004894 -0.007234
# 2 -0.004548 0.008564 0.000078 -0.001602 -0.003534 0.005013
# 3 -0.006703 0.000078 0.013065 -0.004174 0.002612 0.002876
# 4 0.000672 -0.001602 -0.004174 0.041141 -0.006691 -0.003800
# 5 -0.004894 -0.003534 0.002612 -0.006691 0.024753 -0.000845
# 6 -0.007234 0.005013 0.002876 -0.003800 -0.000845 0.029730
#
#
# Mechanical properties :
#
#
# Convention : Reuss Voigt Hill
#
# Bulk Modulus (GPa) = 58.92921 72.68807 65.80864
# Shear Modulus (GPa) = 30.68643 40.42039 35.55341
#
# Velocity S-wave (km/s) = 3.42665 3.93275 3.68839
# Velocity P-wave (km/s) = 6.18100 6.95957 6.58181
#
# Compressibility (1/GPa) = 0.01696951
#
# Stress axis : x y z
#
# Youngs Moduli (GPa) = 56.54458 116.76776 76.54119
#
# Poissons Ratio (x) = 0.53103 0.51302
# Poissons Ratio (y) = 0.25715 -0.00597
# Poissons Ratio (z) = 0.37899 -0.00911
#
# Static dielectric constant tensor:
#      x y z
#    x 2.048060 -0.051240 -0.085060 
#    y -0.051240 2.095500 -0.117300 
#    z -0.085060 -0.117300 2.082040 
# 
# From -- ./inp_files/253563.got.cif
#   From: 2010.05.17/outbox.cif.g08.bks.cpg/sg2_127_cif.got.tgz:253563.got - 2010.06.03 11:33:40.
