data_PCOD9094809
_publ_section_title
;
Structure prediction by ZEFSAII (Michael W. Deem and Ramdas Pophale) SiO2 
 PCOD9094809
Probable space group: P -1
;
_chemical_formula_sum "Si O2"
_cell_formula_units_Z 14
_cell_length_a 14.130628
_cell_length_b 8.180373
_cell_length_c 7.418836
_cell_angle_alpha 114.045567
_cell_angle_beta 125.025982
_cell_angle_gamma 97.943876
_cell_volume 556.309910
_symmetry_space_group_name_H-M "P -1"
_symmetry_group_IT_number 2
_symmetry_cell_setting 'triclinic'
loop_
_space_group_symop_operation_xyz
x,y,z
-x,-y,-z
loop_
_atom_site_type_symbol
_atom_site_label
_atom_site_fract_x
_atom_site_fract_y
_atom_site_fract_z
Si Si1 0.891097 0.551813 0.521585
Si Si2 0.208116 0.747789 0.406515
Si Si3 0.110809 0.935299 0.118050
Si Si4 0.812468 0.549175 0.053565
Si Si5 0.384696 0.559284 0.910325
Si Si6 0.545814 0.265486 0.292077
Si Si7 0.697550 0.750515 0.806676
O O1 0.831883 0.340575 0.475830
O O2 0.763480 0.594174 0.405414
O O3 0.026126 0.714802 0.831971
O O4 0.093354 0.429223 0.667751
O O5 0.364468 0.827512 0.581397
O O6 0.156416 0.896090 0.343737
O O7 0.154264 0.550232 0.123800
O O8 0.237102 0.087616 0.207880
O O9 0.000000 0.000000 0.000000
O O10 0.664644 0.419078 0.934491
O O11 0.806866 0.745565 0.057312
O O12 0.443131 0.743625 0.915030
O O13 0.500000 0.500000 0.000000
O O14 0.619521 0.512259 0.541177
O O15 0.399185 0.190628 0.166222
#
# Coordination Sequence:
#
# PCOD9094809 Si02
#       7
#     2   2   2   2   2   2   2
#     4   9  21  38  62  85 114 159 196 235 288 343
#     4  10  21  39  62  84 116 156 201 241 282 351
#     4  12  24  39  56  85 124 156 195 245 298 342
#     4   9  19  36  61  92 108 152 199 235 285 348
#     4   9  15  31  59  88 110 140 198 242 272 339
#     4   9  17  36  61  88 108 154 197 235 291 344
#     4  10  20  34  61  89 119 147 193 241 291 353
#
# _framework density 25.165828000000001
#
# number of rings (size 3 to 8) (size 9 to 14) (size 15 to 20)
#    0.857    1.429    1.429    3.000    0.000    1.714 
#    0.000    1.429    0.000    0.857    0.000    0.000 
#    0.000    0.000    0.000    0.000    0.000    0.000 
#
# Total GULP energy -77967.140902 kJ/mol
# GULP energy per Si atom -5569.081493 kJ/mol
# Density = 2.510855 g / cm^3
# Si number density = 25.165828 Si / 1000 Ang^3
#
#
#
# Elastic Constant Matrix: (Units=GPa)
#
#
# Indices 1 2 3 4 5 6 
#
# 1 99.8794 12.5827 6.5624 -2.2993 25.0604 5.7517
# 2 12.5827 95.0225 49.3983 -33.2387 17.0395 3.6550
# 3 6.5624 49.3983 65.2988 -23.9998 10.1841 -6.1798
# 4 -2.2993 -33.2387 -23.9998 52.5233 -1.9056 6.5703
# 5 25.0604 17.0395 10.1841 -1.9056 29.3436 -15.7622
# 6 5.7517 3.6550 -6.1798 6.5703 -15.7622 36.1557
#
#
#
# Elastic Compliance Matrix: (Units=1/GPa)
#
#
# Indices 1 2 3 4 5 6 
#
# 1 0.016401 0.004839 -0.001475 0.004052 -0.023814 -0.014469
# 2 0.004839 0.026240 -0.014048 0.011825 -0.023517 -0.018225
# 3 -0.001475 -0.014048 0.027111 0.002628 0.004309 0.007690
# 4 0.004052 0.011825 0.002628 0.029043 -0.016891 -0.014033
# 5 -0.023814 -0.023517 0.004309 -0.016891 0.092497 0.050296
# 6 -0.014469 -0.018225 0.007690 -0.014033 0.050296 0.057593
#
#
# Mechanical properties :
#
#
# Convention : Reuss Voigt Hill
#
# Bulk Modulus (GPa) = 20.66743 44.14307 32.40525
# Shear Modulus (GPa) = 17.45918 36.38168 26.92043
#
# Velocity S-wave (km/s) = 2.63680 3.80633 3.27421
# Velocity P-wave (km/s) = 4.18337 6.07425 5.21522
#
# Compressibility (1/GPa) = 0.04838530
#
# Stress axis : x y z
#
# Youngs Moduli (GPa) = 60.97239 38.10909 36.88508
#
# Poissons Ratio (x) = -0.18443 0.05441
# Poissons Ratio (y) = -0.29507 0.51816
# Poissons Ratio (z) = 0.08994 0.53536
#
# Static dielectric constant tensor:
#      x y z
#    x 2.136710 -0.091530 -0.044860 
#    y -0.091530 2.017850 0.025810 
#    z -0.044860 0.025810 2.128370 
# 
# From -- ./inp_files/219856.got.cif
#   From: 2010.05.17/outbox.cif.g08.bks.cpg/sg2_110_cif.got.tgz:219856.got - 2010.06.03 11:33:40.
