data_PCOD9094223
_publ_section_title
;
Structure prediction by ZEFSAII (Michael W. Deem and Ramdas Pophale) SiO2 
 PCOD9094223
Probable space group: P -1
;
_chemical_formula_sum "Si O2"
_cell_formula_units_Z 16
_cell_length_a 11.845027
_cell_length_b 8.638283
_cell_length_c 12.168794
_cell_angle_alpha 53.363429
_cell_angle_beta 45.889094
_cell_angle_gamma 65.089646
_cell_volume 717.332023
_symmetry_space_group_name_H-M "P -1"
_symmetry_group_IT_number 2
_symmetry_cell_setting 'triclinic'
loop_
_space_group_symop_operation_xyz
x,y,z
-x,-y,-z
loop_
_atom_site_type_symbol
_atom_site_label
_atom_site_fract_x
_atom_site_fract_y
_atom_site_fract_z
Si Si1 0.748433 0.633323 0.582978
Si Si2 0.943997 0.683897 0.230344
Si Si3 0.237723 0.913109 0.869529
Si Si4 0.317246 0.913771 0.576264
Si Si5 0.647693 0.631101 0.881273
Si Si6 0.503141 0.045379 0.774432
Si Si7 0.437295 0.414234 0.802283
Si Si8 0.145074 0.571391 0.798878
O O1 0.901079 0.621341 0.408538
O O2 0.766522 0.587626 0.719360
O O3 0.600975 0.520397 0.676015
O O4 0.700171 0.858299 0.516357
O O5 0.880480 0.518528 0.264178
O O6 0.849968 0.885774 0.184871
O O7 0.117629 0.745086 0.050843
O O8 0.340295 0.866282 0.710307
O O9 0.338655 0.952277 0.891878
O O10 0.439506 0.859685 0.420062
O O11 0.158289 0.801875 0.699710
O O12 0.611127 0.860958 0.806445
O O13 0.500000 0.500000 0.000000
O O14 0.665188 0.589748 0.015030
O O15 0.485992 0.203763 0.812560
O O16 0.315538 0.501903 0.758773
O O17 0.000000 0.500000 0.000000
#
# Coordination Sequence:
#
# PCOD9094223 Si02
#       8
#     2   2   2   2   2   2   2   2
#     4   9  21  38  60  85 116 153 201 244 284 351
#     4  10  20  36  54  85 121 152 190 234 297 348
#     4  10  20  34  55  85 120 154 185 236 295 350
#     4  10  22  33  56  87 121 149 193 238 297 344
#     4   9  21  39  60  86 113 155 199 244 288 340
#     4  11  21  36  62  88 117 153 200 243 287 346
#     4  11  23  38  59  85 121 156 196 244 291 345
#     4  12  24  36  57  90 121 155 189 242 301 355
#
# _framework density 22.304873000000001
#
# number of rings (size 3 to 8) (size 9 to 14) (size 15 to 20)
#    0.000    1.750    2.500    1.500    8.750    1.000 
#    0.000    0.000    0.000   15.000    0.000    0.000 
#    0.000    0.000    0.000    0.000    0.000    0.000 
#
# Total GULP energy -89312.428593 kJ/mol
# GULP energy per Si atom -5582.026787 kJ/mol
# Density = 2.225411 g / cm^3
# Si number density = 22.304873 Si / 1000 Ang^3
#
#
#
# Elastic Constant Matrix: (Units=GPa)
#
#
# Indices 1 2 3 4 5 6 
#
# 1 37.9645 35.1477 33.7072 -4.7085 -3.4596 16.3304
# 2 35.1477 128.1694 37.0319 0.4719 -1.9484 30.4876
# 3 33.7072 37.0319 102.7955 11.0030 11.5626 12.7989
# 4 -4.7085 0.4719 11.0030 40.9238 13.2788 -4.6681
# 5 -3.4596 -1.9484 11.5626 13.2788 28.2614 3.3881
# 6 16.3304 30.4876 12.7989 -4.6681 3.3881 40.8786
#
#
#
# Elastic Compliance Matrix: (Units=1/GPa)
#
#
# Indices 1 2 3 4 5 6 
#
# 1 0.053189 -0.007359 -0.015205 0.005426 0.011029 -0.011294
# 2 -0.007359 0.011512 -0.001028 -0.001980 0.001928 -0.005710
# 3 -0.015205 -0.001028 0.016005 -0.003517 -0.007069 0.002014
# 4 0.005426 -0.001980 -0.003517 0.030864 -0.013137 0.005024
# 5 0.011029 0.001928 -0.007069 -0.013137 0.047014 -0.009028
# 6 -0.011294 -0.005710 0.002014 0.005024 -0.009028 0.033924
#
#
# Mechanical properties :
#
#
# Convention : Reuss Voigt Hill
#
# Bulk Modulus (GPa) = 29.83092 53.41143 41.62117
# Shear Modulus (GPa) = 19.93078 32.88225 26.40652
#
# Velocity S-wave (km/s) = 2.99249 3.84372 3.44450
# Velocity P-wave (km/s) = 5.03421 6.61037 5.87538
#
# Compressibility (1/GPa) = 0.03352227
#
# Stress axis : x y z
#
# Youngs Moduli (GPa) = 18.80076 86.86519 62.47940
#
# Poissons Ratio (x) = 0.63920 0.95002
# Poissons Ratio (y) = 0.13835 0.06425
# Poissons Ratio (z) = 0.28587 0.08932
#
# Static dielectric constant tensor:
#      x y z
#    x 1.812050 -0.016570 0.012330 
#    y -0.016570 1.838870 0.001070 
#    z 0.012330 0.001070 1.867250 
# 
# From -- ./inp_files/260333.got.cif
#   From: 2010.05.17/outbox.cif.g08.bks.cpg/sg2_131_cif.got.tgz:260333.got - 2010.06.03 11:33:40.
