data_PCOD9094919
_publ_section_title
;
Structure prediction by ZEFSAII (Michael W. Deem and Ramdas Pophale) SiO2 
 PCOD9094919
Probable space group: P -1
;
_chemical_formula_sum "Si O2"
_cell_formula_units_Z 16
_cell_length_a 19.886645
_cell_length_b 14.803011
_cell_length_c 12.260339
_cell_angle_alpha 37.254676
_cell_angle_beta 146.305064
_cell_angle_gamma 162.247822
_cell_volume 610.364606
_symmetry_space_group_name_H-M "P -1"
_symmetry_group_IT_number 2
_symmetry_cell_setting 'triclinic'
loop_
_space_group_symop_operation_xyz
x,y,z
-x,-y,-z
loop_
_atom_site_type_symbol
_atom_site_label
_atom_site_fract_x
_atom_site_fract_y
_atom_site_fract_z
Si Si1 0.642998 0.755342 0.281075
Si Si2 0.330539 0.052644 0.193963
Si Si3 0.096647 0.508327 0.952510
Si Si4 0.886546 0.553348 0.741248
Si Si5 0.796097 0.826437 0.654804
Si Si6 0.299095 0.740798 0.615356
Si Si7 0.235308 0.870372 0.601241
Si Si8 0.310510 0.394888 0.722946
O O1 0.737626 0.760361 0.509195
O O2 0.361627 0.463756 0.214336
O O3 0.667012 0.703495 0.246297
O O4 0.834671 0.093143 0.213929
O O5 0.527281 0.213278 0.215806
O O6 0.443621 0.305961 0.171516
O O7 0.063424 0.781697 0.048044
O O8 0.319517 0.894651 0.406675
O O9 0.904066 0.412801 0.843428
O O10 0.225091 0.757735 0.804414
O O11 0.224140 0.569507 0.168885
O O12 0.757399 0.528353 0.510191
O O13 0.713321 0.903129 0.515084
O O14 0.084447 0.131053 0.751393
O O15 0.360654 0.892627 0.663203
O O16 0.026533 0.396610 0.556973
#
# Coordination Sequence:
#
# PCOD9094919 Si02
#       8
#     2   2   2   2   2   2   2   2
#     4  10  21  33  58  82 106 149 190 230 270 321
#     4  10  18  33  52  83 107 145 185 225 275 332
#     4  10  20  33  58  77 116 148 172 224 286 341
#     4  10  19  36  55  81 111 148 183 220 280 336
#     4  10  18  32  52  85 111 136 186 240 269 315
#     4   9  17  26  51  76 110 138 179 226 271 321
#     4  10  16  30  49  82 109 140 173 229 281 318
#     4  11  19  36  60  84 108 145 190 234 271 318
#
# _framework density 26.213840000000001
#
# number of rings (size 3 to 8) (size 9 to 14) (size 15 to 20)
#    0.000    2.000    3.750    3.750    0.000    0.000 
#    0.000    0.625   11.000    3.750    0.000    0.000 
#    0.000    0.000    0.000    0.000    0.000    0.000 
#
# Total GULP energy -89489.317291 kJ/mol
# GULP energy per Si atom -5593.082331 kJ/mol
# Density = 2.615418 g / cm^3
# Si number density = 26.213840 Si / 1000 Ang^3
#
#
#
# Elastic Constant Matrix: (Units=GPa)
#
#
# Indices 1 2 3 4 5 6 
#
# 1 112.0094 26.4548 17.5104 7.9909 -12.8518 -16.5489
# 2 26.4548 138.7961 14.3733 11.3573 -6.9843 -25.1130
# 3 17.5104 14.3733 78.5940 -9.6729 4.3623 -3.7871
# 4 7.9909 11.3573 -9.6729 31.7871 0.8801 -6.6188
# 5 -12.8518 -6.9843 4.3623 0.8801 30.1829 -5.3496
# 6 -16.5489 -25.1130 -3.7871 -6.6188 -5.3496 49.9559
#
#
#
# Elastic Compliance Matrix: (Units=1/GPa)
#
#
# Indices 1 2 3 4 5 6 
#
# 1 0.010838 -0.000681 -0.002785 -0.002803 0.005519 0.003256
# 2 -0.000681 0.008570 -0.001708 -0.002676 0.002707 0.003889
# 3 -0.002785 -0.001708 0.014569 0.005783 -0.003914 -0.000329
# 4 -0.002803 -0.002676 0.005783 0.035494 -0.003237 0.002521
# 5 0.005519 0.002707 -0.003914 -0.003237 0.037924 0.006525
# 6 0.003256 0.003889 -0.000329 0.002521 0.006525 0.024059
#
#
# Mechanical properties :
#
#
# Convention : Reuss Voigt Hill
#
# Bulk Modulus (GPa) = 42.31721 49.56406 45.94063
# Shear Modulus (GPa) = 33.40474 40.45594 36.93034
#
# Velocity S-wave (km/s) = 3.57363 3.93275 3.75748
# Velocity P-wave (km/s) = 5.76246 6.29052 6.03227
#
# Compressibility (1/GPa) = 0.02363105
#
# Stress axis : x y z
#
# Youngs Moduli (GPa) = 92.26508 116.68284 68.63672
#
# Poissons Ratio (x) = 0.07948 0.19112
# Poissons Ratio (y) = 0.06285 0.11722
# Poissons Ratio (z) = 0.25692 0.19927
#
# Static dielectric constant tensor:
#      x y z
#    x 2.058170 0.070990 -0.020010 
#    y 0.070990 2.097330 0.009110 
#    z -0.020010 0.009110 2.067790 
# 
# From -- ./inp_files/397804.got.cif
#   From: 2010.05.17/outbox.cif.g08.bks.cpg/sg2_199_cif.got.tgz:397804.got - 2010.06.03 11:33:40.
