data_PCOD9094891
_publ_section_title
;
Structure prediction by ZEFSAII (Michael W. Deem and Ramdas Pophale) SiO2 
 PCOD9094891
Probable space group: P -1
;
_chemical_formula_sum "Si O2"
_cell_formula_units_Z 16
_cell_length_a 17.906738
_cell_length_b 5.671031
_cell_length_c 17.705893
_cell_angle_alpha 69.362419
_cell_angle_beta 26.777386
_cell_angle_gamma 63.121444
_cell_volume 716.663487
_symmetry_space_group_name_H-M "P -1"
_symmetry_group_IT_number 2
_symmetry_cell_setting 'triclinic'
loop_
_space_group_symop_operation_xyz
x,y,z
-x,-y,-z
loop_
_atom_site_type_symbol
_atom_site_label
_atom_site_fract_x
_atom_site_fract_y
_atom_site_fract_z
Si Si1 0.353945 0.941190 0.840357
Si Si2 0.764786 0.144985 0.427049
Si Si3 0.379066 0.971828 0.290121
Si Si4 0.061767 0.402787 0.093394
Si Si5 0.281354 0.470953 0.025910
Si Si6 0.219618 0.102842 0.707426
Si Si7 0.606483 0.708638 0.899730
Si Si8 0.476324 0.666750 0.601708
O O1 0.508162 0.945151 0.756385
O O2 0.424201 0.788879 0.717648
O O3 0.254240 0.773825 0.995899
O O4 0.212268 0.229216 0.921904
O O5 0.908183 0.278392 0.258785
O O6 0.790747 0.901996 0.373685
O O7 0.570126 0.353457 0.561684
O O8 0.769496 0.084466 0.518619
O O9 0.325099 0.200618 0.249774
O O10 0.517100 0.705903 0.158250
O O11 0.968348 0.707215 0.118113
O O12 0.159525 0.384011 0.087535
O O13 0.260245 0.428070 0.138088
O O14 0.367631 0.232280 0.581711
O O15 0.302431 0.799394 0.694766
O O16 0.500000 0.500000 0.000000
O O17 0.500000 0.000000 0.000000
#
# Coordination Sequence:
#
# PCOD9094891 Si02
#       8
#     2   2   2   2   2   2   2   2
#     4  11  19  37  61  86 116 155 204 253 304 366
#     4  11  20  39  59  86 120 161 202 249 309 372
#     4  10  20  34  63  92 113 159 202 255 304 369
#     4  10  24  37  57  84 123 167 195 247 319 368
#     4  10  20  38  59  88 123 156 200 252 310 368
#     4  10  21  39  55  87 121 157 200 253 310 366
#     4  10  20  36  62  99 128 156 208 267 314 368
#     4  10  21  35  63  87 113 155 209 258 299 360
#
# _framework density 22.325679999999998
#
# number of rings (size 3 to 8) (size 9 to 14) (size 15 to 20)
#    0.000    1.750    3.750    1.125    0.000    0.500 
#    0.000    3.125    0.000    3.000    0.000    0.000 
#    0.000    0.000    0.000    0.000    0.000    0.000 
#
# Total GULP energy -89271.897239 kJ/mol
# GULP energy per Si atom -5579.493577 kJ/mol
# Density = 2.227487 g / cm^3
# Si number density = 22.325680 Si / 1000 Ang^3
#
#
#
# Elastic Constant Matrix: (Units=GPa)
#
#
# Indices 1 2 3 4 5 6 
#
# 1 58.1940 11.5767 4.0986 4.8121 7.5564 -2.2900
# 2 11.5767 64.6789 11.4825 10.9609 3.0568 -0.0045
# 3 4.0986 11.4825 47.2572 8.2581 -0.2193 0.1125
# 4 4.8121 10.9609 8.2581 36.8532 2.5678 3.8029
# 5 7.5564 3.0568 -0.2193 2.5678 28.7586 -3.1668
# 6 -2.2900 -0.0045 0.1125 3.8029 -3.1668 28.9161
#
#
#
# Elastic Compliance Matrix: (Units=1/GPa)
#
#
# Indices 1 2 3 4 5 6 
#
# 1 0.018497 -0.002764 -0.000738 -0.001245 -0.004333 0.001156
# 2 -0.002764 0.017249 -0.003254 -0.004013 -0.000747 0.000242
# 3 -0.000738 -0.003254 0.022748 -0.004167 0.001143 0.000526
# 4 -0.001245 -0.004013 -0.004167 0.030038 -0.002433 -0.004300
# 5 -0.004333 -0.000747 0.001143 -0.002433 0.036655 0.003987
# 6 0.001156 0.000242 0.000526 -0.004300 0.003987 0.035675
#
#
# Mechanical properties :
#
#
# Convention : Reuss Voigt Hill
#
# Bulk Modulus (GPa) = 22.23133 24.93843 23.58488
# Shear Modulus (GPa) = 26.40381 28.43706 27.42044
#
# Velocity S-wave (km/s) = 3.44272 3.57282 3.50837
# Velocity P-wave (km/s) = 5.07764 5.31174 5.19601
#
# Compressibility (1/GPa) = 0.04498156
#
# Stress axis : x y z
#
# Youngs Moduli (GPa) = 54.06326 57.97509 43.96047
#
# Poissons Ratio (x) = 0.16023 0.03244
# Poissons Ratio (y) = 0.14942 0.14305
# Poissons Ratio (z) = 0.03990 0.18866
#
# Static dielectric constant tensor:
#      x y z
#    x 1.814330 -0.011650 0.012610 
#    y -0.011650 1.904160 -0.011990 
#    z 0.012610 -0.011990 1.843060 
# 
# From -- ./inp_files/548223.got.cif
#   From: 2010.05.17/outbox.cif.g08.bks.cpg/sg2_275_cif.got.tgz:548223.got - 2010.06.03 11:33:40.
