data_PCOD9094611
_publ_section_title
;
Structure prediction by ZEFSAII (Michael W. Deem and Ramdas Pophale) SiO2 
 PCOD9094611
Probable space group: P -1
;
_chemical_formula_sum "Si O2"
_cell_formula_units_Z 16
_cell_length_a 25.985001
_cell_length_b 17.815572
_cell_length_c 5.255438
_cell_angle_alpha 61.676565
_cell_angle_beta 72.604593
_cell_angle_gamma 21.424503
_cell_volume 701.042869
_symmetry_space_group_name_H-M "P -1"
_symmetry_group_IT_number 2
_symmetry_cell_setting 'triclinic'
loop_
_space_group_symop_operation_xyz
x,y,z
-x,-y,-z
loop_
_atom_site_type_symbol
_atom_site_label
_atom_site_fract_x
_atom_site_fract_y
_atom_site_fract_z
Si Si1 0.863052 0.723152 0.143946
Si Si2 0.693733 0.406177 0.194145
Si Si3 0.095160 0.117013 0.784787
Si Si4 0.055919 0.584809 0.955728
Si Si5 0.981967 0.931664 0.248892
Si Si6 0.338454 0.072172 0.227545
Si Si7 0.322696 0.455264 0.507823
Si Si8 0.362235 0.853342 0.832184
O O1 0.000000 0.500000 0.500000
O O2 0.724836 0.984337 0.048361
O O3 0.775424 0.770887 0.097007
O O4 0.955439 0.647989 0.940508
O O5 0.667391 0.488269 0.374622
O O6 0.688752 0.486273 0.851184
O O7 0.545250 0.567199 0.082452
O O8 0.863418 0.111986 0.372017
O O9 0.981757 0.304382 0.412586
O O10 0.102365 0.004549 0.932081
O O11 0.258864 0.924235 0.800263
O O12 0.018105 0.264141 0.923880
O O13 0.236072 0.287965 0.202361
O O14 0.163724 0.640587 0.503841
O O15 0.000000 0.000000 0.000000
O O16 0.512867 0.838893 0.269494
O O17 0.348242 0.959925 0.505028
#
# Coordination Sequence:
#
# PCOD9094611 Si02
#       8
#     2   2   2   2   2   2   2   2
#     4  11  18  31  56  89 134 167 198 227 294 376
#     4  10  21  38  65  92 118 154 208 264 312 363
#     4  11  25  39  60  92 130 160 209 258 305 369
#     4  11  23  36  58  95 131 167 196 244 308 374
#     4  10  24  48  69  86 114 167 220 266 317 358
#     4  11  19  35  59  91 132 165 200 233 307 375
#     4  10  22  38  65  92 117 158 215 257 291 373
#     4  10  20  34  58  96 132 158 197 250 308 371
#
# _framework density 22.823138
#
# number of rings (size 3 to 8) (size 9 to 14) (size 15 to 20)
#    0.000    1.500    3.750    2.250    0.000    4.500 
#    0.000    1.250    0.000    6.750    0.000    0.000 
#    0.000    0.000    0.000    0.000    0.000    0.000 
#
# Total GULP energy -89235.492242 kJ/mol
# GULP energy per Si atom -5577.218265 kJ/mol
# Density = 2.277119 g / cm^3
# Si number density = 22.823138 Si / 1000 Ang^3
#
#
#
# Elastic Constant Matrix: (Units=GPa)
#
#
# Indices 1 2 3 4 5 6 
#
# 1 95.7466 10.5966 6.8510 -0.5095 -1.1729 -20.4363
# 2 10.5966 128.1260 15.5621 -20.4482 4.5908 -30.5505
# 3 6.8510 15.5621 59.5062 13.7093 5.1044 -14.4216
# 4 -0.5095 -20.4482 13.7093 27.7432 -0.5059 31.3828
# 5 -1.1729 4.5908 5.1044 -0.5059 13.6800 -10.3579
# 6 -20.4363 -30.5505 -14.4216 31.3828 -10.3579 19.8606
#
#
#
# Elastic Compliance Matrix: (Units=1/GPa)
#
#
# Indices 1 2 3 4 5 6 
#
# 1 0.009782 -0.000315 -0.003696 0.006989 -0.000920 -0.004625
# 2 -0.000315 0.009802 -0.003410 0.006287 -0.000060 0.002313
# 3 -0.003696 -0.003410 0.015058 0.004768 -0.014694 -0.013312
# 4 0.006989 0.006287 0.004768 -0.002140 0.024095 0.036272
# 5 -0.000920 -0.000060 -0.014694 0.024095 0.068948 -0.013824
# 6 -0.004625 0.002313 -0.013312 0.036272 -0.013824 -0.025041
#
#
# Mechanical properties :
#
#
# Convention : Reuss Voigt Hill
#
# Bulk Modulus (GPa) = 50.50116 38.82202 44.66159
# Shear Modulus (GPa) = 51.09859 28.94802 40.02331
#
# Velocity S-wave (km/s) = 4.73683 3.56527 4.19218
# Velocity P-wave (km/s) = 7.21747 5.83053 6.56076
#
# Compressibility (1/GPa) = 0.01980153
#
# Stress axis : x y z
#
# Youngs Moduli (GPa) = 102.22492 102.02104 66.40983
#
# Poissons Ratio (x) = 0.03209 0.24545
# Poissons Ratio (y) = 0.03215 0.22645
# Poissons Ratio (z) = 0.37782 0.34788
#
# Static dielectric constant tensor:
#      x y z
#    x 1.927220 0.030650 -0.049680 
#    y 0.030650 1.894160 -0.013040 
#    z -0.049680 -0.013040 2.069690 
# 
# From -- ./inp_files/71994.got.cif
#   From: 2010.05.17/outbox.cif.g08.bks.cpg/sg2_36_cif.got.tgz:71994.got - 2010.06.03 11:33:40.
