data_PCOD9094524
_publ_section_title
;
Structure prediction by ZEFSAII (Michael W. Deem and Ramdas Pophale) SiO2 
 PCOD9094524
Probable space group: P -1
;
_chemical_formula_sum "Si O2"
_cell_formula_units_Z 14
_cell_length_a 9.402932
_cell_length_b 15.485592
_cell_length_c 8.606255
_cell_angle_alpha 113.100135
_cell_angle_beta 49.921827
_cell_angle_gamma 143.906848
_cell_volume 541.650265
_symmetry_space_group_name_H-M "P -1"
_symmetry_group_IT_number 2
_symmetry_cell_setting 'triclinic'
loop_
_space_group_symop_operation_xyz
x,y,z
-x,-y,-z
loop_
_atom_site_type_symbol
_atom_site_label
_atom_site_fract_x
_atom_site_fract_y
_atom_site_fract_z
Si Si1 0.798177 0.593967 0.754043
Si Si2 0.639511 0.666077 0.354255
Si Si3 0.207122 0.793542 0.870602
Si Si4 0.837992 0.942148 0.313669
Si Si5 0.730419 0.327083 0.002678
Si Si6 0.800351 0.753702 0.640270
Si Si7 0.420534 0.080593 0.828824
O O1 0.662477 0.476155 0.630256
O O2 0.918091 0.731909 0.673505
O O3 0.500000 0.500000 0.000000
O O4 0.058444 0.675271 0.750777
O O5 0.679279 0.792794 0.400530
O O6 0.671810 0.657037 0.506921
O O7 0.918242 0.723083 0.116122
O O8 0.356422 0.780648 0.875467
O O9 0.396055 0.960040 0.799211
O O10 0.638484 0.913608 0.302425
O O11 0.957864 0.069026 0.435124
O O12 0.129469 0.010853 0.072537
O O13 0.481681 0.305966 0.125995
O O14 0.716222 0.250932 0.811204
O O15 0.000000 0.500000 0.000000
#
# Coordination Sequence:
#
# PCOD9094524 Si02
#       7
#     2   2   2   2   2   2   2
#     4  10  20  34  58  83 112 149 193 225 269 339
#     4  10  21  34  62  86 115 145 189 238 283 329
#     4  10  20  38  57  86 112 150 190 229 281 339
#     4   9  18  33  60  88 108 144 196 235 273 331
#     4  11  23  34  58  86 116 144 190 234 282 334
#     4  11  21  39  58  87 116 147 187 237 286 329
#     4   9  18  34  58  83 112 148 190 233 273 332
#
# _framework density 25.846937
#
# number of rings (size 3 to 8) (size 9 to 14) (size 15 to 20)
#    0.000    2.000    1.429    3.000    8.000    0.000 
#    0.000    0.714    3.143    1.714    0.000    0.000 
#    0.000    0.000    0.000    0.000    0.000    0.000 
#
# Total GULP energy -78289.880504 kJ/mol
# GULP energy per Si atom -5592.134322 kJ/mol
# Density = 2.578811 g / cm^3
# Si number density = 25.846937 Si / 1000 Ang^3
#
#
#
# Elastic Constant Matrix: (Units=GPa)
#
#
# Indices 1 2 3 4 5 6 
#
# 1 78.2413 21.8551 9.5571 10.4865 26.0648 -6.3672
# 2 21.8551 141.0977 16.2267 27.1634 13.1362 7.7064
# 3 9.5571 16.2267 63.0187 7.1098 -2.0023 4.5173
# 4 10.4865 27.1634 7.1098 28.5573 15.0935 19.1310
# 5 26.0648 13.1362 -2.0023 15.0935 43.3261 5.6248
# 6 -6.3672 7.7064 4.5173 19.1310 5.6248 32.7408
#
#
#
# Elastic Compliance Matrix: (Units=1/GPa)
#
#
# Indices 1 2 3 4 5 6 
#
# 1 0.018304 -0.000888 -0.002832 -0.006348 -0.009904 0.009570
# 2 -0.000888 0.009294 -0.001202 -0.011911 0.001219 0.004556
# 3 -0.002832 -0.001202 0.017227 -0.003426 0.004236 -0.001370
# 4 -0.006348 -0.011911 -0.003426 0.091625 -0.018371 -0.048340
# 5 -0.009904 0.001219 0.004236 -0.018371 0.035016 0.001922
# 6 0.009570 0.004556 -0.001370 -0.048340 0.001922 0.059437
#
#
# Mechanical properties :
#
#
# Convention : Reuss Voigt Hill
#
# Bulk Modulus (GPa) = 28.58755 41.95950 35.27352
# Shear Modulus (GPa) = 19.80930 36.57276 28.19103
#
# Velocity S-wave (km/s) = 2.77141 3.76570 3.30614
# Velocity P-wave (km/s) = 4.61793 5.93097 5.31515
#
# Compressibility (1/GPa) = 0.03498027
#
# Stress axis : x y z
#
# Youngs Moduli (GPa) = 54.63291 107.59746 58.04948
#
# Poissons Ratio (x) = 0.09554 0.16438
# Poissons Ratio (y) = 0.04851 0.06980
# Poissons Ratio (z) = 0.15470 0.12938
#
# Static dielectric constant tensor:
#      x y z
#    x 1.936620 0.020970 -0.065790 
#    y 0.020970 2.057450 -0.009420 
#    z -0.065790 -0.009420 2.034400 
# 
# From -- ./inp_files/151709.got.cif
#   From: 2010.05.17/outbox.cif.g08.bks.cpg/sg2_76_cif.got.tgz:151709.got - 2010.06.03 11:33:40.
