data_PCOD9094896
_publ_section_title
;
Structure prediction by ZEFSAII (Michael W. Deem and Ramdas Pophale) SiO2 
 PCOD9094896
Probable space group: P -1
;
_chemical_formula_sum "Si O2"
_cell_formula_units_Z 14
_cell_length_a 8.401267
_cell_length_b 9.170088
_cell_length_c 11.145657
_cell_angle_alpha 109.385098
_cell_angle_beta 128.908310
_cell_angle_gamma 81.407930
_cell_volume 628.248767
_symmetry_space_group_name_H-M "P -1"
_symmetry_group_IT_number 2
_symmetry_cell_setting 'triclinic'
loop_
_space_group_symop_operation_xyz
x,y,z
-x,-y,-z
loop_
_atom_site_type_symbol
_atom_site_label
_atom_site_fract_x
_atom_site_fract_y
_atom_site_fract_z
Si Si1 0.793900 0.126817 0.474836
Si Si2 0.611245 0.389839 0.614648
Si Si3 0.197096 0.316731 0.104789
Si Si4 0.590535 0.163346 0.152096
Si Si5 0.438831 0.869686 0.304170
Si Si6 0.979755 0.080315 0.773258
Si Si7 0.155624 0.797632 0.921133
O O1 0.735655 0.282699 0.558005
O O2 0.771235 0.155276 0.332057
O O3 0.989348 0.086116 0.635158
O O4 0.618339 0.988779 0.376977
O O5 0.500000 0.500000 0.500000
O O6 0.740951 0.503267 0.798739
O O7 0.490431 0.266754 0.613972
O O8 0.406684 0.233211 0.157915
O O9 0.059746 0.272805 0.145726
O O10 0.061871 0.247335 0.910901
O O11 0.700134 0.271198 0.130062
O O12 0.500000 0.000000 0.000000
O O13 0.260937 0.948203 0.315524
O O14 0.308091 0.816423 0.110732
O O15 0.093048 0.955798 0.870084
#
# Coordination Sequence:
#
# PCOD9094896 Si02
#       7
#     2   2   2   2   2   2   2
#     4  11  22  39  66  99 130 170 227 263 324 395
#     4  11  23  38  69  96 133 174 213 275 330 383
#     4  11  23  42  65  92 134 173 213 267 331 383
#     4  12  22  41  68  96 132 175 219 267 321 392
#     4  10  21  39  65 100 126 173 225 260 326 398
#     4  10  20  34  63  95 127 167 214 270 317 378
#     4  11  23  40  68  98 131 173 217 271 323 383
#
# _framework density 22.284165999999999
#
# number of rings (size 3 to 8) (size 9 to 14) (size 15 to 20)
#    0.000    1.143    4.286    4.286    2.000    5.714 
#    0.000    1.429    0.000    0.000    0.000    0.000 
#    0.000    0.000    0.000    0.000    0.000    0.000 
#
# Total GULP energy -77963.996209 kJ/mol
# GULP energy per Si atom -5568.856872 kJ/mol
# Density = 2.223345 g / cm^3
# Si number density = 22.284166 Si / 1000 Ang^3
#
#
#
# Elastic Constant Matrix: (Units=GPa)
#
#
# Indices 1 2 3 4 5 6 
#
# 1 97.3095 6.4697 7.6163 1.9820 -2.3242 4.6885
# 2 6.4697 84.9373 24.6244 -5.0792 3.6431 -5.7463
# 3 7.6163 24.6244 86.5831 -5.2268 -26.0732 11.8147
# 4 1.9820 -5.0792 -5.2268 47.1614 6.2356 -1.9911
# 5 -2.3242 3.6431 -26.0732 6.2356 33.1479 -12.2133
# 6 4.6885 -5.7463 11.8147 -1.9911 -12.2133 25.1388
#
#
#
# Elastic Compliance Matrix: (Units=1/GPa)
#
#
# Indices 1 2 3 4 5 6 
#
# 1 0.010478 -0.000818 -0.000512 -0.000644 -0.000214 -0.002056
# 2 -0.000818 0.014138 -0.005928 0.001749 -0.005211 0.003777
# 3 -0.000512 -0.005928 0.017745 -0.000571 0.013553 -0.003060
# 4 -0.000644 0.001749 -0.000571 0.021992 -0.004740 0.000227
# 5 -0.000214 -0.005211 0.013553 -0.004740 0.047952 0.015400
# 6 -0.002056 0.003777 -0.003060 0.000227 0.015400 0.049964
#
#
# Mechanical properties :
#
#
# Convention : Reuss Voigt Hill
#
# Bulk Modulus (GPa) = 35.91330 38.47229 37.19280
# Shear Modulus (GPa) = 26.87205 36.43092 31.65148
#
# Velocity S-wave (km/s) = 3.47635 4.04769 3.77285
# Velocity P-wave (km/s) = 5.68017 6.25676 5.97542
#
# Compressibility (1/GPa) = 0.02784484
#
# Stress axis : x y z
#
# Youngs Moduli (GPa) = 95.43819 70.73172 56.35382
#
# Poissons Ratio (x) = 0.05786 0.02885
# Poissons Ratio (y) = 0.07807 0.33407
# Poissons Ratio (z) = 0.04886 0.41930
#
# Static dielectric constant tensor:
#      x y z
#    x 1.926050 -0.064050 -0.001140 
#    y -0.064050 1.851500 -0.041610 
#    z -0.001140 -0.041610 1.901080 
# 
# From -- ./inp_files/380160.got.cif
#   From: 2010.05.17/outbox.cif.g08.bks.cpg/sg2_191_cif.got.tgz:380160.got - 2010.06.03 11:33:40.
