data_PCOD9094848
_publ_section_title
;
Structure prediction by ZEFSAII (Michael W. Deem and Ramdas Pophale) SiO2 
 PCOD9094848
Probable space group: P -1
;
_chemical_formula_sum "Si O2"
_cell_formula_units_Z 14
_cell_length_a 7.078329
_cell_length_b 13.844467
_cell_length_c 7.079245
_cell_angle_alpha 79.058868
_cell_angle_beta 121.063329
_cell_angle_gamma 98.989721
_cell_volume 582.045600
_symmetry_space_group_name_H-M "P -1"
_symmetry_group_IT_number 2
_symmetry_cell_setting 'triclinic'
loop_
_space_group_symop_operation_xyz
x,y,z
-x,-y,-z
loop_
_atom_site_type_symbol
_atom_site_label
_atom_site_fract_x
_atom_site_fract_y
_atom_site_fract_z
Si Si1 0.714233 0.067933 0.646506
Si Si2 0.179752 0.329748 0.645044
Si Si3 0.889322 0.742558 0.982130
Si Si4 0.768416 0.217084 0.319096
Si Si5 0.075366 0.927677 0.843104
Si Si6 0.670595 0.341235 0.891498
Si Si7 0.262658 0.460303 0.971356
O O1 0.691771 0.174171 0.496809
O O2 0.500000 0.000000 0.500000
O O3 0.756371 0.065401 0.895103
O O4 0.944216 0.024072 0.711120
O O5 0.424849 0.346185 0.680813
O O6 0.136637 0.423497 0.725713
O O7 0.164730 0.244956 0.830862
O O8 0.988677 0.291091 0.422339
O O9 0.144834 0.715068 0.100363
O O10 0.747321 0.643330 0.884135
O O11 0.881834 0.843594 0.831764
O O12 0.808459 0.119284 0.255861
O O13 0.625406 0.282907 0.087689
O O14 0.786441 0.448719 0.956941
O O15 0.500000 0.500000 0.000000
#
# Coordination Sequence:
#
# PCOD9094848 Si02
#       7
#     2   2   2   2   2   2   2
#     4  11  24  39  63  88 113 152 195 239 303 357
#     4   9  20  37  57  83 126 150 195 248 286 342
#     4   9  18  36  59  83 120 154 197 241 291 350
#     4  11  23  40  60  88 118 154 199 241 294 361
#     4  10  23  41  59  84 120 151 191 251 292 346
#     4  10  20  34  62  87 116 164 196 241 300 339
#     4   8  16  32  59  84 118 161 192 242 295 335
#
# _framework density 24.053097999999999
#
# number of rings (size 3 to 8) (size 9 to 14) (size 15 to 20)
#    0.857    1.429    1.429    0.857    2.000    3.429 
#    0.000    0.000    0.000    7.714    0.000    0.000 
#    0.000    0.000    0.000    0.000    0.000    0.000 
#
# Total GULP energy -77953.216646 kJ/mol
# GULP energy per Si atom -5568.086903 kJ/mol
# Density = 2.399835 g / cm^3
# Si number density = 24.053098 Si / 1000 Ang^3
#
#
#
# Elastic Constant Matrix: (Units=GPa)
#
#
# Indices 1 2 3 4 5 6 
#
# 1 51.1860 0.9689 20.7470 17.7109 12.9548 5.7047
# 2 0.9689 104.4332 33.3211 18.0014 3.7462 13.9334
# 3 20.7470 33.3211 104.3442 29.7894 0.8839 9.5855
# 4 17.7109 18.0014 29.7894 34.7436 9.3605 -11.7043
# 5 12.9548 3.7462 0.8839 9.3605 27.4750 3.3030
# 6 5.7047 13.9334 9.5855 -11.7043 3.3030 39.9166
#
#
#
# Elastic Compliance Matrix: (Units=1/GPa)
#
#
# Indices 1 2 3 4 5 6 
#
# 1 0.028982 0.004782 -0.001249 -0.017694 -0.007033 -0.010118
# 2 0.004782 0.012883 -0.001137 -0.011130 0.000807 -0.008237
# 3 -0.001249 -0.001137 0.015918 -0.017382 0.007229 -0.008942
# 4 -0.017694 -0.011130 -0.017382 0.075212 -0.019321 0.034240
# 5 -0.007033 0.000807 0.007229 -0.019321 0.047225 -0.010586
# 6 -0.010118 -0.008237 -0.008942 0.034240 -0.010586 0.042437
#
#
# Mechanical properties :
#
#
# Convention : Reuss Voigt Hill
#
# Bulk Modulus (GPa) = 15.98122 41.11525 28.54824
# Shear Modulus (GPa) = 20.94478 34.08880 27.51679
#
# Velocity S-wave (km/s) = 2.95409 3.76870 3.38598
# Velocity P-wave (km/s) = 4.27716 6.00567 5.21355
#
# Compressibility (1/GPa) = 0.06257343
#
# Stress axis : x y z
#
# Youngs Moduli (GPa) = 34.50378 77.62454 62.82282
#
# Poissons Ratio (x) = -0.37119 0.07847
# Poissons Ratio (y) = -0.16499 0.07145
# Poissons Ratio (z) = 0.04310 0.08829
#
# Static dielectric constant tensor:
#      x y z
#    x 1.967090 -0.005020 -0.021510 
#    y -0.005020 1.963530 0.015500 
#    z -0.021510 0.015500 1.917860 
# 
# From -- ./inp_files/201193.got.cif
#   From: 2010.05.17/outbox.cif.g08.bks.cpg/sg2_101_cif.got.tgz:201193.got - 2010.06.03 11:33:40.
