data_PCOD9094435
_publ_section_title
;
Structure prediction by ZEFSAII (Michael W. Deem and Ramdas Pophale) SiO2 
 PCOD9094435
Probable space group: P -1
;
_chemical_formula_sum "Si O2"
_cell_formula_units_Z 13
_cell_length_a 9.428177
_cell_length_b 9.015026
_cell_length_c 11.928940
_cell_angle_alpha 139.792986
_cell_angle_beta 123.240777
_cell_angle_gamma 70.083324
_cell_volume 541.688876
_symmetry_space_group_name_H-M "P -1"
_symmetry_group_IT_number 2
_symmetry_cell_setting 'triclinic'
loop_
_space_group_symop_operation_xyz
x,y,z
-x,-y,-z
loop_
_atom_site_type_symbol
_atom_site_label
_atom_site_fract_x
_atom_site_fract_y
_atom_site_fract_z
Si Si1 0.166198 0.411564 0.650499
Si Si2 0.754060 0.318280 0.377096
Si Si3 0.664758 0.418404 0.967004
Si Si4 0.909595 0.076502 0.618917
Si Si5 0.500000 0.000000 0.500000
Si Si6 0.350247 0.607728 0.383006
Si Si7 0.767039 0.802575 0.047407
O O1 0.260549 0.537122 0.657928
O O2 0.961022 0.360463 0.514633
O O3 0.226031 0.154719 0.544743
O O4 0.203919 0.572473 0.867941
O O5 0.653233 0.383368 0.479248
O O6 0.701638 0.046107 0.176066
O O7 0.616384 0.187640 0.742059
O O8 0.500000 0.500000 0.000000
O O9 0.730744 0.629353 0.035537
O O10 0.826177 0.295806 0.674189
O O11 0.027591 0.130460 0.810216
O O12 0.000000 0.000000 0.500000
O O13 0.479060 0.794252 0.476634
O O14 0.320466 0.343230 0.176554
#
# Coordination Sequence:
#
# PCOD9094435 Si02
#       7
#     2   2   2   2   1   2   2
#     4  10  20  35  62  88 115 156 187 232 304 346
#     4  10  20  39  58  85 125 148 187 238 294 360
#     4  11  20  37  58  82 115 151 199 243 279 335
#     4  11  17  34  61  85 110 146 194 245 289 332
#     4  10  24  34  56  86 108 152 200 234 282 332
#     4  11  20  37  58  82 118 150 195 246 281 340
#     4  10  20  34  57  85 108 154 194 235 295 334
#
# _framework density 23.999013999999999
#
# number of rings (size 3 to 8) (size 9 to 14) (size 15 to 20)
#    0.000    1.538    4.615    2.308    0.000    1.231 
#    0.000   14.615    0.000    6.462    0.000    0.000 
#    0.000    0.000    0.000    0.000    0.000    0.000 
#
# Total GULP energy -72468.524150 kJ/mol
# GULP energy per Si atom -5574.501858 kJ/mol
# Density = 2.394439 g / cm^3
# Si number density = 23.999014 Si / 1000 Ang^3
#
#
#
# Elastic Constant Matrix: (Units=GPa)
#
#
# Indices 1 2 3 4 5 6 
#
# 1 58.0333 21.7664 43.2328 2.4779 -5.1517 16.2486
# 2 21.7664 123.5463 96.5625 -7.9481 -9.9520 42.4881
# 3 43.2328 96.5625 241.6854 8.3919 -12.5423 32.0748
# 4 2.4779 -7.9481 8.3919 26.4465 4.4854 2.5449
# 5 -5.1517 -9.9520 -12.5423 4.4854 32.2401 -5.0946
# 6 16.2486 42.4881 32.0748 2.5449 -5.0946 44.3915
#
#
#
# Elastic Compliance Matrix: (Units=1/GPa)
#
#
# Indices 1 2 3 4 5 6 
#
# 1 0.021174 0.001109 -0.003318 -0.000250 0.001485 -0.006229
# 2 0.001109 0.017548 -0.005693 0.008266 0.000088 -0.013551
# 3 -0.003318 -0.005693 0.006944 -0.004018 0.001293 0.002025
# 4 -0.000250 0.008266 -0.004018 0.043461 -0.006384 -0.008141
# 5 0.001485 0.000088 0.001293 -0.006384 0.033084 0.002601
# 6 -0.006229 -0.013551 0.002025 -0.008141 0.002601 0.037079
#
#
# Mechanical properties :
#
#
# Convention : Reuss Voigt Hill
#
# Bulk Modulus (GPa) = 33.48927 82.93204 58.21066
# Shear Modulus (GPa) = 27.01992 38.06250 32.54121
#
# Velocity S-wave (km/s) = 3.35905 3.98679 3.68630
# Velocity P-wave (km/s) = 5.38786 7.47155 6.51357
#
# Compressibility (1/GPa) = 0.02986031
#
# Stress axis : x y z
#
# Youngs Moduli (GPa) = 47.22723 56.98684 144.01562
#
# Poissons Ratio (x) = -0.06319 0.47787
# Poissons Ratio (y) = -0.05237 0.81994
# Poissons Ratio (z) = 0.15671 0.32445
#
# Static dielectric constant tensor:
#      x y z
#    x 1.832860 -0.018590 0.032620 
#    y -0.018590 1.884360 -0.098950 
#    z 0.032620 -0.098950 1.852060 
# 
# From -- ./inp_files/198351.got.cif
#   From: 2010.05.17/outbox.cif.g08.bks.cpg/sg2_100_cif.got.tgz:198351.got - 2010.06.03 11:33:40.
