data_PCOD9094654
_publ_section_title
;
Structure prediction by ZEFSAII (Michael W. Deem and Ramdas Pophale) SiO2 
 PCOD9094654
Probable space group: P -1
;
_chemical_formula_sum "Si O2"
_cell_formula_units_Z 16
_cell_length_a 12.755001
_cell_length_b 10.055918
_cell_length_c 13.044136
_cell_angle_alpha 59.334332
_cell_angle_beta 68.525457
_cell_angle_gamma 120.403554
_cell_volume 670.777448
_symmetry_space_group_name_H-M "P -1"
_symmetry_group_IT_number 2
_symmetry_cell_setting 'triclinic'
loop_
_space_group_symop_operation_xyz
x,y,z
-x,-y,-z
loop_
_atom_site_type_symbol
_atom_site_label
_atom_site_fract_x
_atom_site_fract_y
_atom_site_fract_z
Si Si1 0.914354 0.066401 0.765783
Si Si2 0.608105 0.744253 0.519613
Si Si3 0.560549 0.783813 0.145350
Si Si4 0.693165 0.483917 0.126022
Si Si5 0.090894 0.271870 0.403513
Si Si6 0.609932 0.317796 0.560144
Si Si7 0.755252 0.329792 0.319543
Si Si8 0.056751 0.398460 0.157231
O O1 0.947600 0.150311 0.602414
O O2 0.779933 0.026614 0.901695
O O3 0.777432 0.744437 0.947739
O O4 0.163416 0.333395 0.615597
O O5 0.483217 0.433073 0.696993
O O6 0.546596 0.757646 0.643917
O O7 0.519467 0.733391 0.457987
O O8 0.875366 0.064503 0.301479
O O9 0.547094 0.889404 0.202318
O O10 0.346451 0.554832 0.239143
O O11 0.821849 0.572077 0.146815
O O12 0.723823 0.383162 0.073078
O O13 0.083919 0.383989 0.270102
O O14 0.000000 0.000000 0.500000
O O15 0.717836 0.305014 0.462982
O O16 0.936896 0.421246 0.182954
O O17 0.500000 0.000000 0.500000
#
# Coordination Sequence:
#
# PCOD9094654 Si02
#       8
#     2   2   2   2   2   2   2   2
#     4  10  22  40  62  96 122 153 205 251 308 354
#     4  10  20  34  59  89 123 154 190 252 304 355
#     4  10  21  37  59  89 122 159 197 248 305 353
#     4  10  21  36  61  90 122 153 200 243 305 364
#     4  11  21  38  63  91 124 159 201 251 303 355
#     4  10  21  39  59  89 124 158 201 250 305 362
#     4  11  23  42  59  88 126 163 201 245 301 365
#     4  12  21  39  61  89 125 159 196 250 302 358
#
# _framework density 23.852919
#
# number of rings (size 3 to 8) (size 9 to 14) (size 15 to 20)
#    0.000    1.500    5.000    1.500    0.000    8.000 
#    2.250    2.500    0.000    1.500    0.000    0.000 
#    0.000    0.000    0.000    0.000    0.000    0.000 
#
# Total GULP energy -89362.316015 kJ/mol
# GULP energy per Si atom -5585.144751 kJ/mol
# Density = 2.379863 g / cm^3
# Si number density = 23.852919 Si / 1000 Ang^3
#
#
#
# Elastic Constant Matrix: (Units=GPa)
#
#
# Indices 1 2 3 4 5 6 
#
# 1 43.2797 12.7818 15.6928 17.4530 -9.7214 5.9650
# 2 12.7818 96.4769 41.1997 32.2153 -14.4260 9.9166
# 3 15.6928 41.1997 133.8485 42.6743 -19.7679 7.3716
# 4 17.4530 32.2153 42.6743 48.3387 -11.1932 -8.9264
# 5 -9.7214 -14.4260 -19.7679 -11.1932 33.0493 11.0010
# 6 5.9650 9.9166 7.3716 -8.9264 11.0010 40.9562
#
#
#
# Elastic Compliance Matrix: (Units=1/GPa)
#
#
# Indices 1 2 3 4 5 6 
#
# 1 0.031546 0.002593 0.002552 -0.015064 0.010784 -0.011862
# 2 0.002593 0.015684 -0.000092 -0.011350 0.006498 -0.008378
# 3 0.002552 -0.000092 0.012119 -0.011326 0.006356 -0.006707
# 4 -0.015064 -0.011350 -0.011326 0.045540 -0.006989 0.018783
# 5 0.010784 0.006498 0.006356 -0.006989 0.043527 -0.017503
# 6 -0.011862 -0.008378 -0.006707 0.018783 -0.017503 0.038175
#
#
# Mechanical properties :
#
#
# Convention : Reuss Voigt Hill
#
# Bulk Modulus (GPa) = 14.39778 45.88374 30.14076
# Shear Modulus (GPa) = 25.04551 38.06422 31.55486
#
# Velocity S-wave (km/s) = 3.24388 3.99907 3.64111
# Velocity P-wave (km/s) = 4.48102 6.37191 5.50821
#
# Compressibility (1/GPa) = 0.06945515
#
# Stress axis : x y z
#
# Youngs Moduli (GPa) = 31.69934 63.76113 82.51311
#
# Poissons Ratio (x) = -0.16531 -0.21059
# Poissons Ratio (y) = -0.08218 0.00758
# Poissons Ratio (z) = -0.08090 0.00586
#
# Static dielectric constant tensor:
#      x y z
#    x 1.928350 -0.086880 0.001250 
#    y -0.086880 1.941210 0.016400 
#    z 0.001250 0.016400 1.923810 
# 
# From -- ./inp_files/427797.got.cif
#   From: 2010.05.17/outbox.cif.g08.bks.cpg/sg2_214_cif.got.tgz:427797.got - 2010.06.03 11:33:40.
