data_PCOD9094952
_publ_section_title
;
Structure prediction by ZEFSAII (Michael W. Deem and Ramdas Pophale) SiO2 
 PCOD9094952
Probable space group: P -1
;
_chemical_formula_sum "Si O2"
_cell_formula_units_Z 14
_cell_length_a 8.851110
_cell_length_b 17.500169
_cell_length_c 7.761853
_cell_angle_alpha 55.780882
_cell_angle_beta 83.457546
_cell_angle_gamma 39.520353
_cell_volume 502.329200
_symmetry_space_group_name_H-M "P -1"
_symmetry_group_IT_number 2
_symmetry_cell_setting 'triclinic'
loop_
_space_group_symop_operation_xyz
x,y,z
-x,-y,-z
loop_
_atom_site_type_symbol
_atom_site_label
_atom_site_fract_x
_atom_site_fract_y
_atom_site_fract_z
Si Si1 0.692704 0.710805 0.085771
Si Si2 0.827148 0.367211 0.156861
Si Si3 0.897288 0.245260 0.648737
Si Si4 0.742419 0.504844 0.553741
Si Si5 0.443860 0.734179 0.797782
Si Si6 0.631724 0.932862 0.757868
Si Si7 0.137782 0.007440 0.223427
O O1 0.624652 0.650630 0.263849
O O2 0.042020 0.547920 0.282379
O O3 0.559182 0.764292 0.845542
O O4 0.555543 0.881641 0.941227
O O5 0.984591 0.229176 0.465011
O O6 0.016725 0.260662 0.095347
O O7 0.500000 0.500000 0.000000
O O8 0.738186 0.516825 0.033118
O O9 0.913001 0.334177 0.640273
O O10 0.551203 0.396732 0.477357
O O11 0.034580 0.089195 0.940919
O O12 0.165167 0.837472 0.813994
O O13 0.310340 0.828250 0.507010
O O14 0.624688 0.034879 0.716401
O O15 0.500000 0.000000 0.500000
#
# Coordination Sequence:
#
# PCOD9094952 Si02
#       7
#     2   2   2   2   2   2   2
#     4  11  20  36  64 100 134 173 225 273 333 406
#     4  12  25  44  70 102 134 177 236 280 331 403
#     4  11  20  41  68  97 131 179 227 281 329 401
#     4  10  20  34  66 102 131 173 227 279 333 399
#     4  11  22  41  71 101 135 177 231 275 332 412
#     4  12  25  43  68  96 139 182 218 279 346 406
#     4  11  22  42  71  98 137 182 221 272 346 408
#
# _framework density 27.870168
#
# number of rings (size 3 to 8) (size 9 to 14) (size 15 to 20)
#    0.000    0.857    7.143    1.714    0.000    0.571 
#    0.000    1.429    6.286    0.000    0.000    0.000 
#    0.000    0.000    0.000    0.000    0.000    0.000 
#
# Total GULP energy -78204.485302 kJ/mol
# GULP energy per Si atom -5586.034664 kJ/mol
# Density = 2.780673 g / cm^3
# Si number density = 27.870168 Si / 1000 Ang^3
#
#
#
# Elastic Constant Matrix: (Units=GPa)
#
#
# Indices 1 2 3 4 5 6 
#
# 1 151.1959 20.7583 23.1184 3.5952 -8.6454 6.7850
# 2 20.7583 74.6293 22.6050 20.0085 -12.6597 -26.3349
# 3 23.1184 22.6050 175.6419 21.5750 -20.1111 -14.7242
# 4 3.5952 20.0085 21.5750 42.4936 -8.8706 -4.9446
# 5 -8.6454 -12.6597 -20.1111 -8.8706 61.0434 5.6011
# 6 6.7850 -26.3349 -14.7242 -4.9446 5.6011 25.5457
#
#
#
# Elastic Compliance Matrix: (Units=1/GPa)
#
#
# Indices 1 2 3 4 5 6 
#
# 1 0.007773 -0.004715 -0.001141 0.001407 0.000635 -0.007449
# 2 -0.004715 0.026760 0.000728 -0.009134 0.001298 0.027206
# 3 -0.001141 0.000728 0.006592 -0.002839 0.001382 0.004001
# 4 0.001407 -0.009134 -0.002839 0.028870 0.002144 -0.006309
# 5 0.000635 0.001298 0.001382 0.002144 0.017644 -0.001488
# 6 -0.007449 0.027206 0.004001 -0.006309 -0.001488 0.070581
#
#
# Mechanical properties :
#
#
# Convention : Reuss Voigt Hill
#
# Bulk Modulus (GPa) = 32.39447 59.38116 45.88782
# Shear Modulus (GPa) = 27.96958 48.14891 38.05924
#
# Velocity S-wave (km/s) = 3.17135 4.16097 3.69940
# Velocity P-wave (km/s) = 5.00585 6.66614 5.89474
#
# Compressibility (1/GPa) = 0.03086947
#
# Stress axis : x y z
#
# Youngs Moduli (GPa) = 128.65299 37.36935 151.69383
#
# Poissons Ratio (x) = 0.17619 0.17307
# Poissons Ratio (y) = 0.60656 -0.11042
# Poissons Ratio (z) = 0.14678 -0.02720
#
# Static dielectric constant tensor:
#      x y z
#    x 2.302270 0.081630 -0.116190 
#    y 0.081630 2.262690 -0.099560 
#    z -0.116190 -0.099560 2.348470 
# 
# From -- ./inp_files/223187.got.cif
#   From: 2010.05.17/outbox.cif.g08.bks.cpg/sg2_112_cif.got.tgz:223187.got - 2010.06.03 11:33:40.
