data_PCOD9094538
_publ_section_title
;
Structure prediction by ZEFSAII (Michael W. Deem and Ramdas Pophale) SiO2 
 PCOD9094538
Probable space group: P -1
;
_chemical_formula_sum "Si O2"
_cell_formula_units_Z 14
_cell_length_a 13.037765
_cell_length_b 8.031070
_cell_length_c 10.494654
_cell_angle_alpha 42.535586
_cell_angle_beta 104.883101
_cell_angle_gamma 77.709352
_cell_volume 565.868030
_symmetry_space_group_name_H-M "P -1"
_symmetry_group_IT_number 2
_symmetry_cell_setting 'triclinic'
loop_
_space_group_symop_operation_xyz
x,y,z
-x,-y,-z
loop_
_atom_site_type_symbol
_atom_site_label
_atom_site_fract_x
_atom_site_fract_y
_atom_site_fract_z
Si Si1 0.274670 0.371454 0.733227
Si Si2 0.171305 0.468576 0.032332
Si Si3 0.880967 0.953533 0.588985
Si Si4 0.138649 0.746493 0.124419
Si Si5 0.735573 0.929644 0.329208
Si Si6 0.551765 0.828820 0.846927
Si Si7 0.383190 0.483394 0.456743
O O1 0.237732 0.176047 0.751584
O O2 0.349099 0.418769 0.619137
O O3 0.158109 0.725444 0.544830
O O4 0.377687 0.198838 0.980545
O O5 0.040436 0.670101 0.785432
O O6 0.172463 0.189355 0.251571
O O7 0.129149 0.714208 0.992337
O O8 0.317107 0.350935 0.099117
O O9 0.806000 0.030974 0.384930
O O10 0.198615 0.409054 0.393665
O O11 0.249401 0.781497 0.185529
O O12 0.000000 0.000000 0.000000
O O13 0.572226 0.183135 0.152456
O O14 0.454176 0.178991 0.562038
O O15 0.500000 0.500000 0.500000
#
# Coordination Sequence:
#
# PCOD9094538 Si02
#       7
#     2   2   2   2   2   2   2
#     4  10  20  38  58  79 117 151 182 228 282 332
#     4  10  20  36  56  84 113 141 189 236 277 330
#     4  10  21  36  59  82 107 146 192 233 272 327
#     4   9  18  34  56  80 112 148 181 230 285 326
#     4   9  20  36  56  81 110 147 187 227 275 330
#     4  10  21  36  55  80 116 150 178 230 287 332
#     4  10  20  34  58  85 109 146 192 230 274 328
#
# _framework density 24.740753000000002
#
# number of rings (size 3 to 8) (size 9 to 14) (size 15 to 20)
#    0.000    2.571    0.000    4.286    0.000    9.714 
#    0.000    2.143    0.000    0.000    0.000    1.000 
#    0.000    0.000    0.000    0.000    0.000    0.000 
#
# Total GULP energy -77978.331956 kJ/mol
# GULP energy per Si atom -5569.880854 kJ/mol
# Density = 2.468444 g / cm^3
# Si number density = 24.740753 Si / 1000 Ang^3
#
#
#
# Elastic Constant Matrix: (Units=GPa)
#
#
# Indices 1 2 3 4 5 6 
#
# 1 68.3595 43.4418 53.2174 -1.7278 21.0076 -19.3887
# 2 43.4418 151.3615 58.2723 -6.1220 24.8809 -16.4887
# 3 53.2174 58.2723 137.6024 -10.7138 36.8801 -13.3903
# 4 -1.7278 -6.1220 -10.7138 47.7813 -2.7521 9.0548
# 5 21.0076 24.8809 36.8801 -2.7521 43.2005 3.3660
# 6 -19.3887 -16.4887 -13.3903 9.0548 3.3660 25.6485
#
#
#
# Elastic Compliance Matrix: (Units=1/GPa)
#
#
# Indices 1 2 3 4 5 6 
#
# 1 0.029816 -0.002508 -0.006265 -0.005133 -0.009648 0.020734
# 2 -0.002508 0.008771 -0.001743 -0.000117 -0.002602 0.003215
# 3 -0.006265 -0.001743 0.012383 0.001798 -0.006470 0.000822
# 4 -0.005133 -0.000117 0.001798 0.023564 0.003448 -0.011788
# 5 -0.009648 -0.002602 -0.006470 0.003448 0.036511 -0.018353
# 6 0.020734 0.003215 0.000822 -0.011788 -0.018353 0.063729
#
#
# Mechanical properties :
#
#
# Convention : Reuss Voigt Hill
#
# Bulk Modulus (GPa) = 33.40432 74.13184 53.76808
# Shear Modulus (GPa) = 24.29723 36.81886 30.55805
#
# Velocity S-wave (km/s) = 3.13720 3.86189 3.51825
# Velocity P-wave (km/s) = 5.16273 7.06499 6.18740
#
# Compressibility (1/GPa) = 0.02993625
#
# Stress axis : x y z
#
# Youngs Moduli (GPa) = 33.53905 114.01387 80.75841
#
# Poissons Ratio (x) = 0.28598 0.50596
# Poissons Ratio (y) = 0.08413 0.14078
# Poissons Ratio (z) = 0.21012 0.19875
#
# Static dielectric constant tensor:
#      x y z
#    x 1.898170 0.037610 -0.123130 
#    y 0.037610 2.026800 -0.036350 
#    z -0.123130 -0.036350 1.953230 
# 
# From -- ./inp_files/446803.got.cif
#   From: 2010.05.17/outbox.cif.g08.bks.cpg/sg2_224_cif.got.tgz:446803.got - 2010.06.03 11:33:40.
