data_PCOD9094128
_publ_section_title
;
Structure prediction by ZEFSAII (Michael W. Deem and Ramdas Pophale) SiO2 
 PCOD9094128
Probable space group: P -1
;
_chemical_formula_sum "Si O2"
_cell_formula_units_Z 14
_cell_length_a 14.367812
_cell_length_b 7.018890
_cell_length_c 14.679198
_cell_angle_alpha 79.640214
_cell_angle_beta 29.344965
_cell_angle_gamma 62.258299
_cell_volume 548.092001
_symmetry_space_group_name_H-M "P -1"
_symmetry_group_IT_number 2
_symmetry_cell_setting 'triclinic'
loop_
_space_group_symop_operation_xyz
x,y,z
-x,-y,-z
loop_
_atom_site_type_symbol
_atom_site_label
_atom_site_fract_x
_atom_site_fract_y
_atom_site_fract_z
Si Si1 0.839075 0.544305 0.250585
Si Si2 0.655299 0.365623 0.750517
Si Si3 0.021176 0.991346 0.829104
Si Si4 0.655161 0.780367 0.055486
Si Si5 0.757221 0.108286 0.858465
Si Si6 0.513700 0.576761 0.668545
Si Si7 0.517144 0.143524 0.618164
O O1 0.889887 0.284634 0.201165
O O2 0.626050 0.661904 0.498615
O O3 0.726222 0.729067 0.245478
O O4 0.089799 0.445912 0.093731
O O5 0.474932 0.308709 0.877669
O O6 0.826570 0.156778 0.699158
O O7 0.701909 0.430769 0.606696
O O8 0.502324 0.627914 0.912464
O O9 0.243226 0.001099 0.639323
O O10 0.945355 0.040902 0.783022
O O11 0.765899 0.196558 0.081668
O O12 0.493517 0.958286 0.266300
O O13 0.715507 0.907937 0.921271
O O14 0.506841 0.374831 0.641513
#
# Coordination Sequence:
#
# PCOD9094128 Si02
#       7
#     2   2   2   2   2   2   2
#     4  10  20  34  54  81 113 150 188 229 280 332
#     4   9  18  35  58  82 111 146 185 231 282 335
#     4   9  18  34  56  81 112 146 188 234 277 332
#     4  10  20  36  56  82 116 148 184 232 280 334
#     4   9  18  35  58  82 111 146 185 231 282 335
#     4   9  18  34  56  81 112 146 188 234 277 332
#     4  10  20  34  54  81 113 150 188 229 280 332
#
# _framework density 25.543157000000001
#
# number of rings (size 3 to 8) (size 9 to 14) (size 15 to 20)
#    0.000    2.571    0.000    2.571    0.000    2.286 
#    0.000   25.714    0.000   28.286    0.000    0.000 
#    0.000    0.000    0.000    0.000    0.000    0.000 
#
# Total GULP energy -78283.441090 kJ/mol
# GULP energy per Si atom -5591.674364 kJ/mol
# Density = 2.548502 g / cm^3
# Si number density = 25.543157 Si / 1000 Ang^3
#
#
#
# Elastic Constant Matrix: (Units=GPa)
#
#
# Indices 1 2 3 4 5 6 
#
# 1 51.8180 21.9148 8.2249 -1.1358 13.5804 -10.0915
# 2 21.9148 91.3187 14.4381 -5.8484 3.2404 -22.9682
# 3 8.2249 14.4381 119.0587 -2.9445 21.7325 0.1624
# 4 -1.1358 -5.8484 -2.9445 18.0894 6.5782 4.4382
# 5 13.5804 3.2404 21.7325 6.5782 36.1550 -5.2485
# 6 -10.0915 -22.9682 0.1624 4.4382 -5.2485 35.5425
#
#
#
# Elastic Compliance Matrix: (Units=1/GPa)
#
#
# Indices 1 2 3 4 5 6 
#
# 1 0.024139 -0.004894 0.000694 0.002951 -0.009300 0.001946
# 2 -0.004894 0.014467 -0.001890 0.001069 0.002678 0.008230
# 3 0.000694 -0.001890 0.010026 0.004383 -0.007307 -0.002696
# 4 0.002951 0.001069 0.004383 0.064933 -0.016975 -0.009106
# 5 -0.009300 0.002678 -0.007307 -0.016975 0.039418 0.007064
# 6 0.001946 0.008230 -0.002696 -0.009106 0.007064 0.036199
#
#
# Mechanical properties :
#
#
# Convention : Reuss Voigt Hill
#
# Bulk Modulus (GPa) = 27.43324 39.03899 33.23611
# Shear Modulus (GPa) = 23.41775 32.46522 27.94149
#
# Velocity S-wave (km/s) = 3.03114 3.56897 3.31099
# Velocity P-wave (km/s) = 4.79726 5.68332 5.25898
#
# Compressibility (1/GPa) = 0.03645213
#
# Stress axis : x y z
#
# Youngs Moduli (GPa) = 41.42686 69.12069 99.73722
#
# Poissons Ratio (x) = 0.33829 -0.06920
# Poissons Ratio (y) = 0.20275 0.18850
# Poissons Ratio (z) = -0.02874 0.13063
#
# Static dielectric constant tensor:
#      x y z
#    x 1.983740 0.006270 0.068650 
#    y 0.006270 2.061050 0.002100 
#    z 0.068650 0.002100 2.101650 
# 
# From -- ./inp_files/491464.got.cif
#   From: 2010.05.17/outbox.cif.g08.bks.cpg/sg2_246_cif.got.tgz:491464.got - 2010.06.03 11:33:40.
