data_PCOD9094676
_publ_section_title
;
Structure prediction by ZEFSAII (Michael W. Deem and Ramdas Pophale) SiO2 
 PCOD9094676
Probable space group: P -1
;
_chemical_formula_sum "Si O2"
_cell_formula_units_Z 16
_cell_length_a 12.488903
_cell_length_b 8.385117
_cell_length_c 17.263204
_cell_angle_alpha 51.565544
_cell_angle_beta 151.757987
_cell_angle_gamma 115.063424
_cell_volume 631.486818
_symmetry_space_group_name_H-M "P -1"
_symmetry_group_IT_number 2
_symmetry_cell_setting 'triclinic'
loop_
_space_group_symop_operation_xyz
x,y,z
-x,-y,-z
loop_
_atom_site_type_symbol
_atom_site_label
_atom_site_fract_x
_atom_site_fract_y
_atom_site_fract_z
Si Si1 0.226273 0.805310 0.167784
Si Si2 0.739747 0.216087 0.094628
Si Si3 0.738563 0.211601 0.556237
Si Si4 0.496316 0.049198 0.586908
Si Si5 0.753664 0.455976 0.344562
Si Si6 0.089934 0.431031 0.991317
Si Si7 0.350231 0.747701 0.809072
Si Si8 0.246019 0.047845 0.962991
O O1 0.463740 0.825080 0.351058
O O2 0.243418 0.848463 0.075001
O O3 0.140291 0.603389 0.185936
O O4 0.000000 0.000000 0.000000
O O5 0.450759 0.330222 0.878327
O O6 0.827993 0.399995 0.056488
O O7 0.764158 0.019886 0.111742
O O8 0.818547 0.169110 0.248390
O O9 0.564369 0.182210 0.520673
O O10 0.674912 0.396514 0.396368
O O11 0.745643 0.998695 0.573406
O O12 0.977927 0.216472 0.749737
O O13 0.696451 0.804706 0.795718
O O14 0.760168 0.275996 0.337729
O O15 0.000000 0.500000 0.500000
O O16 0.000000 0.500000 0.000000
O O17 0.542555 0.873466 0.895553
O O18 0.500000 0.500000 0.000000
#
# Coordination Sequence:
#
# PCOD9094676 Si02
#       8
#     2   2   2   2   2   2   2   2
#     4  10  20  34  59  93 121 164 212 247 298 373
#     4  11  23  42  65  91 128 166 210 260 308 375
#     4  11  20  36  61  90 125 159 206 253 311 357
#     4  10  21  35  58  91 123 164 207 253 301 367
#     4  11  24  43  65  92 123 164 210 261 316 368
#     4  11  19  37  62  92 123 159 202 251 312 364
#     4  10  24  41  65  92 119 163 218 258 301 380
#     4  12  22  40  66  93 124 167 211 259 311 370
#
# _framework density 25.337031
#
# number of rings (size 3 to 8) (size 9 to 14) (size 15 to 20)
#    0.000    1.250    5.000    2.625    5.250    1.000 
#    0.000    3.750    0.000    9.000    0.000    0.000 
#    0.000    0.000    0.000    0.000    0.000    0.000 
#
# Total GULP energy -89356.795341 kJ/mol
# GULP energy per Si atom -5584.799709 kJ/mol
# Density = 2.527936 g / cm^3
# Si number density = 25.337031 Si / 1000 Ang^3
#
#
#
# Elastic Constant Matrix: (Units=GPa)
#
#
# Indices 1 2 3 4 5 6 
#
# 1 88.5400 35.4099 12.3426 3.4996 -18.1260 7.5918
# 2 35.4099 132.9357 27.7060 39.0207 10.5984 15.0024
# 3 12.3426 27.7060 66.6916 5.3167 -2.1938 -0.4889
# 4 3.4996 39.0207 5.3167 43.2427 0.3381 -7.1898
# 5 -18.1260 10.5984 -2.1938 0.3381 32.5389 2.1622
# 6 7.5918 15.0024 -0.4889 -7.1898 2.1622 42.6980
#
#
#
# Elastic Compliance Matrix: (Units=1/GPa)
#
#
# Indices 1 2 3 4 5 6 
#
# 1 0.015927 -0.006209 -0.000349 0.004189 0.010860 -0.000499
# 2 -0.006209 0.015622 -0.004541 -0.014032 -0.008283 -0.006380
# 3 -0.000349 -0.004541 0.016845 0.002393 0.002254 0.002139
# 4 0.004189 -0.014032 0.002393 0.036787 0.006011 0.010103
# 5 0.010860 -0.008283 0.002254 0.006011 0.039569 0.000014
# 6 -0.000499 -0.006380 0.002139 0.010103 0.000014 0.027476
#
#
# Mechanical properties :
#
#
# Convention : Reuss Voigt Hill
#
# Bulk Modulus (GPa) = 38.17423 48.78716 43.48070
# Shear Modulus (GPa) = 27.29944 37.87653 32.58798
#
# Velocity S-wave (km/s) = 3.28602 3.87060 3.59023
# Velocity P-wave (km/s) = 5.43107 6.26677 5.86383
#
# Compressibility (1/GPa) = 0.02619568
#
# Stress axis : x y z
#
# Youngs Moduli (GPa) = 62.78827 64.01215 59.36622
#
# Poissons Ratio (x) = 0.39743 0.02069
# Poissons Ratio (y) = 0.38983 0.26961
# Poissons Ratio (z) = 0.02189 0.29071
#
# Static dielectric constant tensor:
#      x y z
#    x 2.085520 -0.062580 0.037570 
#    y -0.062580 1.997110 0.011660 
#    z 0.037570 0.011660 2.108230 
# 
# From -- ./inp_files/566571.got.cif
#   From: 2010.05.17/outbox.cif.g08.bks.cpg/sg2_284_cif.got.tgz:566571.got - 2010.06.03 11:33:40.
