data_PCOD9094760
_publ_section_title
;
Structure prediction by ZEFSAII (Michael W. Deem and Ramdas Pophale) SiO2 
 PCOD9094760
Probable space group: P -1
;
_chemical_formula_sum "Si O2"
_cell_formula_units_Z 16
_cell_length_a 6.037484
_cell_length_b 24.366737
_cell_length_c 9.604301
_cell_angle_alpha 49.225598
_cell_angle_beta 42.505003
_cell_angle_gamma 59.921696
_cell_volume 722.406351
_symmetry_space_group_name_H-M "P -1"
_symmetry_group_IT_number 2
_symmetry_cell_setting 'triclinic'
loop_
_space_group_symop_operation_xyz
x,y,z
-x,-y,-z
loop_
_atom_site_type_symbol
_atom_site_label
_atom_site_fract_x
_atom_site_fract_y
_atom_site_fract_z
Si Si1 0.006702 0.309220 0.062185
Si Si2 0.358513 0.520086 0.379112
Si Si3 0.602496 0.435662 0.163684
Si Si4 0.017205 0.337857 0.682725
Si Si5 0.719782 0.920044 0.655175
Si Si6 0.634322 0.212674 0.017691
Si Si7 0.644474 0.175630 0.399411
Si Si8 0.282215 0.046412 0.727647
O O1 0.905858 0.385768 0.052064
O O2 0.711050 0.252816 0.310094
O O3 0.317002 0.264849 0.051617
O O4 0.078019 0.322333 0.843800
O O5 0.500000 0.500000 0.500000
O O6 0.620791 0.477721 0.230472
O O7 0.000000 0.500000 0.500000
O O8 0.299705 0.606417 0.263741
O O9 0.308166 0.380331 0.408465
O O10 0.500000 0.500000 0.000000
O O11 0.937633 0.263292 0.766377
O O12 0.425552 0.863436 0.901396
O O13 0.773555 0.937321 0.437913
O O14 0.034926 0.875193 0.635892
O O15 0.607125 0.992958 0.664979
O O16 0.639701 0.193791 0.208763
O O17 0.348481 0.121946 0.649464
O O18 0.000000 0.000000 0.000000
#
# Coordination Sequence:
#
# PCOD9094760 Si02
#       8
#     2   2   2   2   2   2   2   2
#     4  10  21  42  63  89 125 165 215 270 325 390
#     4  10  23  43  65  93 131 168 216 278 337 403
#     4  11  23  42  66  95 125 168 219 271 339 401
#     4  10  22  39  64  87 125 162 212 269 332 389
#     4   9  19  38  59  84 125 159 204 251 310 376
#     4   9  20  38  62  84 120 169 207 263 316 380
#     4   9  19  39  59  86 124 164 204 257 317 373
#     4  10  20  34  60  94 120 159 203 253 306 374
#
# _framework density 22.148198000000001
#
# number of rings (size 3 to 8) (size 9 to 14) (size 15 to 20)
#    0.000    2.250    1.250    0.375    3.500    1.500 
#    9.000   14.375    0.000    0.000    0.000    0.000 
#    0.000    0.000    0.000    0.000    0.000    0.000 
#
# Total GULP energy -89165.851884 kJ/mol
# GULP energy per Si atom -5572.865743 kJ/mol
# Density = 2.209779 g / cm^3
# Si number density = 22.148198 Si / 1000 Ang^3
#
#
#
# Elastic Constant Matrix: (Units=GPa)
#
#
# Indices 1 2 3 4 5 6 
#
# 1 87.8898 33.7323 47.0126 -7.8406 20.6264 -14.8504
# 2 33.7323 108.4170 31.3125 -15.6170 18.6184 -3.1771
# 3 47.0126 31.3125 127.6548 -28.2690 -15.6177 0.9687
# 4 -7.8406 -15.6170 -28.2690 32.6325 -3.0481 -0.4639
# 5 20.6264 18.6184 -15.6177 -3.0481 34.7100 -14.2936
# 6 -14.8504 -3.1771 0.9687 -0.4639 -14.2936 41.1092
#
#
#
# Elastic Compliance Matrix: (Units=1/GPa)
#
#
# Indices 1 2 3 4 5 6 
#
# 1 0.021609 -0.001533 -0.011142 -0.006732 -0.016784 0.002038
# 2 -0.001533 0.012057 -0.002796 0.002249 -0.007497 -0.002137
# 3 -0.011142 -0.002796 0.017682 0.013002 0.017928 0.001723
# 4 -0.006732 0.002249 0.013002 0.042660 0.013460 0.002597
# 5 -0.016784 -0.007497 0.017928 0.013460 0.057430 0.013055
# 6 0.002038 -0.002137 0.001723 0.002597 0.013055 0.029425
#
#
# Mechanical properties :
#
#
# Convention : Reuss Voigt Hill
#
# Bulk Modulus (GPa) = 49.00343 60.89736 54.95040
# Shear Modulus (GPa) = 22.87220 35.81728 29.34474
#
# Velocity S-wave (km/s) = 3.21703 4.02576 3.64390
# Velocity P-wave (km/s) = 5.99770 7.01171 6.52443
#
# Compressibility (1/GPa) = 0.02040673
#
# Stress axis : x y z
#
# Youngs Moduli (GPa) = 46.27759 82.94025 56.55426
#
# Poissons Ratio (x) = 0.12716 0.63011
# Poissons Ratio (y) = 0.07095 0.15811
# Poissons Ratio (z) = 0.51561 0.23188
#
# Static dielectric constant tensor:
#      x y z
#    x 1.425770 0.125050 0.460770 
#    y 0.125050 1.782810 -0.140510 
#    z 0.460770 -0.140510 1.173560 
# 
# From -- ./inp_files/142505.got.cif
#   From: 2010.05.17/outbox.cif.g08.bks.cpg/sg2_72_cif.got.tgz:142505.got - 2010.06.03 11:33:40.
