data_PCOD9094623
_publ_section_title
;
Structure prediction by ZEFSAII (Michael W. Deem and Ramdas Pophale) SiO2 
 PCOD9094623
Probable space group: P -1
;
_chemical_formula_sum "Si O2"
_cell_formula_units_Z 12
_cell_length_a 9.383521
_cell_length_b 7.130690
_cell_length_c 11.927151
_cell_angle_alpha 66.968284
_cell_angle_beta 138.877394
_cell_angle_gamma 110.416408
_cell_volume 481.088235
_symmetry_space_group_name_H-M "P -1"
_symmetry_group_IT_number 2
_symmetry_cell_setting 'triclinic'
loop_
_space_group_symop_operation_xyz
x,y,z
-x,-y,-z
loop_
_atom_site_type_symbol
_atom_site_label
_atom_site_fract_x
_atom_site_fract_y
_atom_site_fract_z
Si Si1 0.540782 0.980258 0.179941
Si Si2 0.092404 0.781205 0.938579
Si Si3 0.052948 0.195838 0.571873
Si Si4 0.148646 0.625945 0.782351
Si Si5 0.379263 0.898286 0.558880
Si Si6 0.278531 0.375597 0.108804
O O1 0.288368 0.953810 0.008618
O O2 0.692573 0.816687 0.253922
O O3 0.650443 0.203246 0.158529
O O4 0.561470 0.960849 0.330544
O O5 0.222127 0.581355 0.091538
O O6 0.009752 0.720564 0.778665
O O7 0.901609 0.795330 0.909645
O O8 0.983750 0.380799 0.409505
O O9 0.881097 0.153039 0.580557
O O10 0.000000 0.000000 0.500000
O O11 0.234628 0.431703 0.940547
O O12 0.490944 0.693333 0.705972
O O13 0.500000 0.000000 0.500000
#
# Coordination Sequence:
#
# PCOD9094623 Si02
#       6
#     2   2   2   2   2   2
#     4  10  20  34  59  84 103 142 188 216 258 323
#     4   9  19  34  56  84 107 140 179 221 268 318
#     4   8  18  32  55  78 102 143 180 211 263 321
#     4   8  16  34  56  76 104 144 176 218 259 319
#     4  10  21  35  54  79 113 145 174 222 274 318
#     4   9  20  33  56  77 115 139 176 215 286 309
#
# _framework density 24.943449999999999
#
# number of rings (size 3 to 8) (size 9 to 14) (size 15 to 20)
#    1.000    2.333    0.000    0.500    7.000    3.333 
#    0.000    4.167    0.000    0.000    0.000    0.000 
#    0.000    0.000    0.000    0.000    0.000    0.000 
#
# Total GULP energy -66900.693604 kJ/mol
# GULP energy per Si atom -5575.057800 kJ/mol
# Density = 2.488668 g / cm^3
# Si number density = 24.943450 Si / 1000 Ang^3
#
#
#
# Elastic Constant Matrix: (Units=GPa)
#
#
# Indices 1 2 3 4 5 6 
#
# 1 165.2836 25.5983 58.6575 -15.1873 -11.6772 29.6661
# 2 25.5983 48.1565 21.6223 -4.8220 -1.8224 12.0348
# 3 58.6575 21.6223 95.4720 -19.4981 -12.5739 9.1616
# 4 -15.1873 -4.8220 -19.4981 31.0850 2.6062 -0.5635
# 5 -11.6772 -1.8224 -12.5739 2.6062 54.0977 -10.8832
# 6 29.6661 12.0348 9.1616 -0.5635 -10.8832 26.4818
#
#
#
# Elastic Compliance Matrix: (Units=1/GPa)
#
#
# Indices 1 2 3 4 5 6 
#
# 1 0.009501 -0.000562 -0.004641 0.001559 -0.000962 -0.009144
# 2 -0.000562 0.025753 -0.004640 0.000828 -0.002478 -0.010470
# 3 -0.004641 -0.004640 0.015829 0.006761 0.002826 0.003137
# 4 0.001559 0.000828 0.006761 0.037284 -0.000652 -0.003936
# 5 -0.000962 -0.002478 0.002826 -0.000652 0.020850 0.009781
# 6 -0.009144 -0.010470 0.003137 -0.003936 0.009781 0.055615
#
#
# Mechanical properties :
#
#
# Convention : Reuss Voigt Hill
#
# Bulk Modulus (GPa) = 31.84959 57.85203 44.85081
# Shear Modulus (GPa) = 25.64335 35.86849 30.75592
#
# Velocity S-wave (km/s) = 3.20982 3.79620 3.51526
# Velocity P-wave (km/s) = 5.15108 6.51602 5.87334
#
# Compressibility (1/GPa) = 0.03139757
#
# Stress axis : x y z
#
# Youngs Moduli (GPa) = 105.25473 38.82995 63.17713
#
# Poissons Ratio (x) = 0.02180 0.29320
# Poissons Ratio (y) = 0.05910 0.29315
# Poissons Ratio (z) = 0.48847 0.18017
#
# Static dielectric constant tensor:
#      x y z
#    x 2.037430 -0.032880 0.009450 
#    y -0.032880 2.098800 -0.015250 
#    z 0.009450 -0.015250 2.047490 
# 
# From -- ./inp_files/290286.got.cif
#   From: 2010.05.17/outbox.cif.g08.bks.cpg/sg2_146_cif.got.tgz:290286.got - 2010.06.03 11:33:40.
