data_PCOD9094814
_publ_section_title
;
Structure prediction by ZEFSAII (Michael W. Deem and Ramdas Pophale) SiO2 
 PCOD9094814
Probable space group: P -1
;
_chemical_formula_sum "Si O2"
_cell_formula_units_Z 16
_cell_length_a 26.021713
_cell_length_b 8.206283
_cell_length_c 20.719428
_cell_angle_alpha 41.439321
_cell_angle_beta 19.205026
_cell_angle_gamma 31.768504
_cell_volume 729.200941
_symmetry_space_group_name_H-M "P -1"
_symmetry_group_IT_number 2
_symmetry_cell_setting 'triclinic'
loop_
_space_group_symop_operation_xyz
x,y,z
-x,-y,-z
loop_
_atom_site_type_symbol
_atom_site_label
_atom_site_fract_x
_atom_site_fract_y
_atom_site_fract_z
Si Si1 0.372513 0.729741 0.176031
Si Si2 0.750802 0.589858 0.505424
Si Si3 0.412879 0.363533 0.685583
Si Si4 0.650025 0.596222 0.106486
Si Si5 0.651646 0.675519 0.776949
Si Si6 0.965178 0.544282 0.677857
Si Si7 0.227288 0.354630 0.787678
Si Si8 0.389547 0.413254 0.455425
O O1 0.360370 0.550533 0.301153
O O2 0.321556 0.598555 0.215464
O O3 0.196665 0.115392 0.268185
O O4 0.589092 0.643991 0.931181
O O5 0.769766 0.538391 0.421559
O O6 0.946302 0.426438 0.368816
O O7 0.599476 0.974273 0.585607
O O8 0.500000 0.500000 0.500000
O O9 0.322715 0.510162 0.819767
O O10 0.244194 0.419775 0.821959
O O11 0.476899 0.593380 0.285318
O O12 0.551218 0.971063 0.111739
O O13 0.850933 0.416845 0.876559
O O14 0.841301 0.656076 0.540639
O O15 0.292892 0.496481 0.616439
O O16 0.403424 0.967075 0.682135
O O17 0.000000 0.500000 0.000000
#
# Coordination Sequence:
#
# PCOD9094814 Si02
#       8
#     2   2   2   2   2   2   2   2
#     4   9  17  33  59  87 113 147 189 238 280 334
#     4  10  20  38  59  85 116 152 187 235 286 340
#     4  11  21  38  60  85 114 152 195 234 279 337
#     4  11  21  36  58  86 115 150 188 237 282 336
#     4   9  17  33  55  83 116 142 183 238 280 324
#     4  10  20  34  61  90 112 144 200 234 277 340
#     4  10  23  41  58  78 114 154 195 238 285 333
#     4  10  23  40  55  81 120 151 186 236 295 335
#
# _framework density 21.941828000000001
#
# number of rings (size 3 to 8) (size 9 to 14) (size 15 to 20)
#    0.000    2.000    3.750    1.500    1.750    2.000 
#    0.000    3.750    0.000    3.750    0.000    0.000 
#    0.000    0.000    0.000    0.000    0.000    0.000 
#
# Total GULP energy -89171.474797 kJ/mol
# GULP energy per Si atom -5573.217175 kJ/mol
# Density = 2.189189 g / cm^3
# Si number density = 21.941828 Si / 1000 Ang^3
#
#
#
# Elastic Constant Matrix: (Units=GPa)
#
#
# Indices 1 2 3 4 5 6 
#
# 1 22.7237 17.2077 -6.6472 1.2672 -3.1605 5.1046
# 2 17.2077 49.9700 28.2046 -16.1537 2.4337 -17.2174
# 3 -6.6472 28.2046 118.1504 -18.5165 2.0775 -3.9494
# 4 1.2672 -16.1537 -18.5165 26.2026 -4.0159 2.5178
# 5 -3.1605 2.4337 2.0775 -4.0159 22.1836 -9.9552
# 6 5.1046 -17.2174 -3.9494 2.5178 -9.9552 11.2007
#
#
#
# Elastic Compliance Matrix: (Units=1/GPa)
#
#
# Indices 1 2 3 4 5 6 
#
# 1 -0.003240 0.039413 -0.004278 0.018761 0.040412 0.092254
# 2 0.039413 -0.029257 0.004770 -0.013249 -0.033557 -0.088101
# 3 -0.004278 0.004770 0.008921 0.008939 0.007195 0.016814
# 4 0.018761 -0.013249 0.008939 0.038116 -0.008680 -0.042048
# 5 0.040412 -0.033557 0.007195 -0.008680 0.038049 -0.031694
# 6 0.092254 -0.088101 0.016814 -0.042048 -0.031694 -0.100980
#
#
# Mechanical properties :
#
#
# Convention : Reuss Voigt Hill
#
# Bulk Modulus (GPa) = 17.78230 29.81935 23.80083
# Shear Modulus (GPa) = -45.67919 22.05598 -11.81160
#
# Velocity S-wave (km/s) = -4.56766 3.17393 -2.32268
# Velocity P-wave (km/s) = 4.43803 5.20110 1.91773
#
# Compressibility (1/GPa) = 0.05623569
#
# Stress axis : x y z
#
# Youngs Moduli (GPa) = -308.62383 -34.17949 112.09792
#
# Poissons Ratio (x) = 1.34713 0.47951
# Poissons Ratio (y) = 12.16393 -0.53475
# Poissons Ratio (z) = -1.32018 0.16305
#
# Static dielectric constant tensor:
#      x y z
#    x 1.805250 -0.011470 0.016670 
#    y -0.011470 1.826190 -0.033700 
#    z 0.016670 -0.033700 1.843990 
# 
# From -- ./inp_files/215628.got.cif
#   From: 2010.05.17/outbox.cif.g08.bks.cpg/sg2_108_cif.got.tgz:215628.got - 2010.06.03 11:33:40.
