data_PCOD9094375
_publ_section_title
;
Structure prediction by ZEFSAII (Michael W. Deem and Ramdas Pophale) SiO2 
 PCOD9094375
Probable space group: P -1
;
_chemical_formula_sum "Si O2"
_cell_formula_units_Z 16
_cell_length_a 20.887204
_cell_length_b 15.399071
_cell_length_c 8.965791
_cell_angle_alpha 123.165286
_cell_angle_beta 52.300778
_cell_angle_gamma 163.118717
_cell_volume 653.417737
_symmetry_space_group_name_H-M "P -1"
_symmetry_group_IT_number 2
_symmetry_cell_setting 'triclinic'
loop_
_space_group_symop_operation_xyz
x,y,z
-x,-y,-z
loop_
_atom_site_type_symbol
_atom_site_label
_atom_site_fract_x
_atom_site_fract_y
_atom_site_fract_z
Si Si1 0.008326 0.614297 0.686111
Si Si2 0.603773 0.233770 0.016713
Si Si3 0.322926 0.168908 0.873510
Si Si4 0.998220 0.239475 0.523594
Si Si5 0.515371 0.610371 0.462906
Si Si6 0.871064 0.370062 0.212268
Si Si7 0.095223 0.266937 0.735755
Si Si8 0.558315 0.285726 0.850011
O O1 0.983410 0.534219 0.806205
O O2 0.000000 0.500000 0.500000
O O3 0.783845 0.415024 0.798958
O O4 0.227710 0.953999 0.712324
O O5 0.502400 0.206676 0.034446
O O6 0.729578 0.432791 0.168392
O O7 0.500000 0.000000 0.000000
O O8 0.444062 0.373420 0.754195
O O9 0.457879 0.272983 0.912845
O O10 0.114087 0.981787 0.075760
O O11 0.094195 0.470843 0.637880
O O12 0.002244 0.184652 0.626070
O O13 0.183807 0.407596 0.305985
O O14 0.749033 0.948052 0.518242
O O15 0.500000 0.500000 0.500000
O O16 0.268971 0.377502 0.592290
O O17 0.604734 0.005988 0.253800
O O18 0.000000 0.500000 0.000000
#
# Coordination Sequence:
#
# PCOD9094375 Si02
#       8
#     2   2   2   2   2   2   2   2
#     4  10  20  34  56  89 137 183 228 274 335 416
#     4  11  23  35  61 105 146 190 234 278 350 431
#     4  10  23  47  68 103 144 184 243 303 359 440
#     4  12  24  45  75 104 148 194 241 304 366 431
#     4  12  29  52  78 105 139 190 252 315 374 427
#     4  11  22  36  61 104 144 192 237 274 350 442
#     4  11  26  46  73 107 144 187 246 301 367 439
#     4  11  22  41  69 104 155 198 235 290 360 437
#
# _framework density 24.486633000000001
#
# number of rings (size 3 to 8) (size 9 to 14) (size 15 to 20)
#    0.000    1.000    1.250    7.125    7.000    2.000 
#    0.000    0.625    0.000    0.000    0.000    0.000 
#    0.000    0.000    0.000    0.000    0.000    0.000 
#
# Total GULP energy -89154.848024 kJ/mol
# GULP energy per Si atom -5572.178002 kJ/mol
# Density = 2.443090 g / cm^3
# Si number density = 24.486633 Si / 1000 Ang^3
#
#
#
# Elastic Constant Matrix: (Units=GPa)
#
#
# Indices 1 2 3 4 5 6 
#
# 1 148.7010 11.1430 61.7531 -3.9494 40.5016 6.1577
# 2 11.1430 42.6835 24.6754 10.3033 -0.0084 1.6281
# 3 61.7531 24.6754 91.1406 -7.4061 32.6235 2.1154
# 4 -3.9494 10.3033 -7.4061 15.7716 1.2327 2.9241
# 5 40.5016 -0.0084 32.6235 1.2327 55.9877 -5.3701
# 6 6.1577 1.6281 2.1154 2.9241 -5.3701 29.6054
#
#
#
# Elastic Compliance Matrix: (Units=1/GPa)
#
#
# Indices 1 2 3 4 5 6 
#
# 1 0.010286 0.000244 -0.005234 0.000825 -0.004669 -0.002707
# 2 0.000244 0.044875 -0.020481 -0.040899 0.013180 0.005375
# 3 -0.005234 -0.020481 0.026980 0.026623 -0.012974 -0.004696
# 4 0.000825 -0.040899 0.026623 0.106974 -0.019813 -0.013984
# 5 -0.004669 0.013180 -0.012974 -0.019813 0.030060 0.008583
# 6 -0.002707 0.005375 -0.004696 -0.013984 0.008583 0.037319
#
#
# Mechanical properties :
#
#
# Convention : Reuss Voigt Hill
#
# Bulk Modulus (GPa) = 32.05303 53.07423 42.56363
# Shear Modulus (GPa) = 15.73146 32.60317 24.16732
#
# Velocity S-wave (km/s) = 2.53741 3.65289 3.14500
# Velocity P-wave (km/s) = 4.65865 6.28596 5.53246
#
# Compressibility (1/GPa) = 0.03119830
#
# Stress axis : x y z
#
# Youngs Moduli (GPa) = 97.21947 22.28429 37.06457
#
# Poissons Ratio (x) = -0.00543 0.19401
# Poissons Ratio (y) = -0.02370 0.75911
# Poissons Ratio (z) = 0.50888 0.45640
#
# Static dielectric constant tensor:
#      x y z
#    x 1.984040 0.091700 0.016540 
#    y 0.091700 2.120320 -0.097230 
#    z 0.016540 -0.097230 2.064680 
# 
# From -- ./inp_files/347616.got.cif
#   From: 2010.05.17/outbox.cif.g08.bks.cpg/sg2_174_cif.got.tgz:347616.got - 2010.06.03 11:33:40.
