data_PCOD9094651
_publ_section_title
;
Structure prediction by ZEFSAII (Michael W. Deem and Ramdas Pophale) SiO2 
 PCOD9094651
Probable space group: P -1
;
_chemical_formula_sum "Si O2"
_cell_formula_units_Z 16
_cell_length_a 11.939505
_cell_length_b 10.092249
_cell_length_c 11.985990
_cell_angle_alpha 97.866890
_cell_angle_beta 142.865903
_cell_angle_gamma 76.158414
_cell_volume 842.980806
_symmetry_space_group_name_H-M "P -1"
_symmetry_group_IT_number 2
_symmetry_cell_setting 'triclinic'
loop_
_space_group_symop_operation_xyz
x,y,z
-x,-y,-z
loop_
_atom_site_type_symbol
_atom_site_label
_atom_site_fract_x
_atom_site_fract_y
_atom_site_fract_z
Si Si1 0.937832 0.068993 0.793456
Si Si2 0.360061 0.628023 0.011807
Si Si3 0.578009 0.679507 0.985821
Si Si4 0.710124 0.882235 0.461410
Si Si5 0.987594 0.349299 0.432910
Si Si6 0.663089 0.042388 0.210097
Si Si7 0.940757 0.811592 0.304790
Si Si8 0.715023 0.128534 0.848150
O O1 0.824414 0.132733 0.819850
O O2 0.938616 0.177137 0.707473
O O3 0.836148 0.951341 0.652700
O O4 0.153369 0.997171 0.992868
O O5 0.530914 0.664092 0.078046
O O6 0.189657 0.639621 0.789058
O O7 0.410541 0.470478 0.071754
O O8 0.301419 0.736171 0.074869
O O9 0.407815 0.796220 0.817666
O O10 0.770009 0.734809 0.132597
O O11 0.830073 0.734189 0.500349
O O12 0.501156 0.884932 0.342697
O O13 0.676587 0.971915 0.332101
O O14 0.971390 0.262984 0.522096
O O15 0.000000 0.500000 0.500000
O O16 0.852723 0.970896 0.286650
O O17 0.500000 0.000000 0.000000
#
# Coordination Sequence:
#
# PCOD9094651 Si02
#       8
#     2   2   2   2   2   2   2   2
#     4  11  24  41  64  88 120 170 205 254 298 357
#     4  11  21  36  60  91 121 163 201 244 312 364
#     4  10  20  34  59  89 121 157 193 250 314 361
#     4  11  23  40  64  91 123 158 205 254 307 361
#     4  11  22  37  61  93 127 158 195 254 309 372
#     4   9  18  32  57  88 120 151 184 251 309 351
#     4  10  20  37  56  90 123 150 200 249 304 366
#     4  11  23  43  62  88 125 159 216 250 293 364
#
# _framework density 18.980267000000001
#
# number of rings (size 3 to 8) (size 9 to 14) (size 15 to 20)
#    0.000    1.500    2.500    4.875    3.500    1.000 
#    0.000    0.625    0.000    1.500    0.000    0.000 
#    0.000    0.000    0.000    0.000    0.000    0.000 
#
# Total GULP energy -89379.120584 kJ/mol
# GULP energy per Si atom -5586.195036 kJ/mol
# Density = 1.893707 g / cm^3
# Si number density = 18.980267 Si / 1000 Ang^3
#
#
#
# Elastic Constant Matrix: (Units=GPa)
#
#
# Indices 1 2 3 4 5 6 
#
# 1 102.9616 42.1763 20.0568 8.1228 1.3679 -9.7169
# 2 42.1763 100.2689 12.8645 -3.4900 4.9020 -10.5555
# 3 20.0568 12.8645 65.5121 9.2630 14.2778 2.3128
# 4 8.1228 -3.4900 9.2630 31.4447 1.8167 -4.1026
# 5 1.3679 4.9020 14.2778 1.8167 29.1629 4.0757
# 6 -9.7169 -10.5555 2.3128 -4.1026 4.0757 21.7972
#
#
#
# Elastic Compliance Matrix: (Units=1/GPa)
#
#
# Indices 1 2 3 4 5 6 
#
# 1 0.012737 -0.004833 -0.002992 -0.002652 0.001441 0.002887
# 2 -0.004833 0.012999 -0.001314 0.003924 -0.002321 0.005452
# 3 -0.002992 -0.001314 0.019041 -0.004952 -0.008178 -0.003393
# 4 -0.002652 0.003924 -0.004952 0.035537 -0.001471 0.008207
# 5 0.001441 -0.002321 -0.008178 -0.001471 0.039731 -0.007320
# 6 0.002887 0.005452 -0.003393 0.008207 -0.007320 0.053078
#
#
# Mechanical properties :
#
#
# Convention : Reuss Voigt Hill
#
# Bulk Modulus (GPa) = 37.73703 46.54865 42.14284
# Shear Modulus (GPa) = 24.97083 29.39063 27.18073
#
# Velocity S-wave (km/s) = 3.63108 3.93935 3.78835
# Velocity P-wave (km/s) = 6.12414 6.72824 6.43329
#
# Compressibility (1/GPa) = 0.02649917
#
# Stress axis : x y z
#
# Youngs Moduli (GPa) = 78.50982 76.93098 52.51895
#
# Poissons Ratio (x) = 0.37179 0.15712
# Poissons Ratio (y) = 0.37942 0.06903
# Poissons Ratio (z) = 0.23487 0.10111
#
# Static dielectric constant tensor:
#      x y z
#    x 1.649590 0.004920 0.035490 
#    y 0.004920 1.684650 0.008340 
#    z 0.035490 0.008340 1.706230 
# 
# From -- ./inp_files/417686.got.cif
#   From: 2010.05.17/outbox.cif.g08.bks.cpg/sg2_209_cif.got.tgz:417686.got - 2010.06.03 11:33:40.
