data_PCOD9094703
_publ_section_title
;
Structure prediction by ZEFSAII (Michael W. Deem and Ramdas Pophale) SiO2 
 PCOD9094703
Probable space group: P -1
;
_chemical_formula_sum "Si O2"
_cell_formula_units_Z 12
_cell_length_a 5.661716
_cell_length_b 12.260436
_cell_length_c 12.084324
_cell_angle_alpha 118.795808
_cell_angle_beta 59.671038
_cell_angle_gamma 112.025620
_cell_volume 624.795481
_symmetry_space_group_name_H-M "P -1"
_symmetry_group_IT_number 2
_symmetry_cell_setting 'triclinic'
loop_
_space_group_symop_operation_xyz
x,y,z
-x,-y,-z
loop_
_atom_site_type_symbol
_atom_site_label
_atom_site_fract_x
_atom_site_fract_y
_atom_site_fract_z
Si Si1 0.190355 0.447265 0.341649
Si Si2 0.758760 0.222328 0.866273
Si Si3 0.335229 0.676416 0.834124
Si Si4 0.791946 0.478045 0.868910
Si Si5 0.184511 0.098763 0.849675
Si Si6 0.085045 0.825719 0.819064
O O1 0.496143 0.430151 0.296864
O O2 0.226674 0.530713 0.263084
O O3 0.000000 0.500000 0.500000
O O4 0.062123 0.302269 0.267757
O O5 0.874577 0.355167 0.845117
O O6 0.515912 0.149990 0.808010
O O7 0.002923 0.152516 0.822832
O O8 0.596152 0.258181 0.032263
O O9 0.356900 0.782734 0.787289
O O10 0.023074 0.601891 0.892501
O O11 0.500000 0.500000 0.000000
O O12 0.132231 0.946749 0.789320
O O13 0.060264 0.137566 0.015525
#
# Coordination Sequence:
#
# PCOD9094703 Si02
#       6
#     2   2   2   2   2   2
#     4  11  23  38  59  87 120 158 201 246 299 356
#     4  11  20  34  57  93 118 151 195 247 308 350
#     4  10  20  34  60  84 122 154 196 250 300 349
#     4  11  21  36  58  89 121 156 196 250 300 358
#     4  10  21  33  59  89 120 154 195 251 292 358
#     4   9  20  35  53  85 118 155 196 245 297 351
#
# _framework density 19.206285000000001
#
# number of rings (size 3 to 8) (size 9 to 14) (size 15 to 20)
#    0.000    1.667    3.333    2.500    4.667    4.667 
#    0.000    0.000    0.000    2.000    0.000    0.000 
#    0.000    0.000    0.000    0.000    0.000    0.000 
#
# Total GULP energy -66819.394300 kJ/mol
# GULP energy per Si atom -5568.282858 kJ/mol
# Density = 1.916257 g / cm^3
# Si number density = 19.206285 Si / 1000 Ang^3
#
#
#
# Elastic Constant Matrix: (Units=GPa)
#
#
# Indices 1 2 3 4 5 6 
#
# 1 109.6040 58.2169 27.2534 -2.3098 -11.2847 -23.5249
# 2 58.2169 141.7621 25.7940 8.8782 -1.5514 -41.4206
# 3 27.2534 25.7940 76.7145 -6.1516 -10.6460 -8.9171
# 4 -2.3098 8.8782 -6.1516 18.3064 0.5620 4.6048
# 5 -11.2847 -1.5514 -10.6460 0.5620 11.0507 1.0760
# 6 -23.5249 -41.4206 -8.9171 4.6048 1.0760 38.4724
#
#
#
# Elastic Compliance Matrix: (Units=1/GPa)
#
#
# Indices 1 2 3 4 5 6 
#
# 1 0.013732 -0.004802 -0.001124 0.002739 0.011902 0.002305
# 2 -0.004802 0.014121 -0.003416 -0.011677 -0.006891 0.013065
# 3 -0.001124 -0.003416 0.016980 0.007202 0.014529 -0.001698
# 4 0.002739 -0.011677 0.007202 0.067249 0.006375 -0.017456
# 5 0.011902 -0.006891 0.014529 0.006375 0.115426 -0.000765
# 6 0.002305 0.013065 -0.001698 -0.017456 -0.000765 0.043186
#
#
# Mechanical properties :
#
#
# Convention : Reuss Voigt Hill
#
# Bulk Modulus (GPa) = 38.24477 61.17880 49.71179
# Shear Modulus (GPa) = 16.77318 28.02032 22.39675
#
# Velocity S-wave (km/s) = 2.95840 3.82372 3.41855
# Velocity P-wave (km/s) = 5.62364 7.17057 6.44370
#
# Compressibility (1/GPa) = 0.02614736
#
# Stress axis : x y z
#
# Youngs Moduli (GPa) = 72.82237 70.81557 58.89374
#
# Poissons Ratio (x) = 0.34009 0.06623
# Poissons Ratio (y) = 0.34973 0.20117
# Poissons Ratio (z) = 0.08189 0.24190
#
# Static dielectric constant tensor:
#      x y z
#    x 1.881750 -0.014920 -0.002780 
#    y -0.014920 1.675060 0.018690 
#    z -0.002780 0.018690 1.632970 
# 
# From -- ./inp_files/23606.got.cif
#   From: 2010.05.17/outbox.cif.g08.bks.cpg/sg2_12_cif.got.tgz:23606.got - 2010.06.03 11:33:40.
