data_PCOD9094216
_publ_section_title
;
Structure prediction by ZEFSAII (Michael W. Deem and Ramdas Pophale) SiO2 
 PCOD9094216
Probable space group: P -1
;
_chemical_formula_sum "Si O2"
_cell_formula_units_Z 12
_cell_length_a 13.569385
_cell_length_b 17.621206
_cell_length_c 20.034601
_cell_angle_alpha 22.033894
_cell_angle_beta 23.176053
_cell_angle_gamma 21.648298
_cell_volume 602.575349
_symmetry_space_group_name_H-M "P -1"
_symmetry_group_IT_number 2
_symmetry_cell_setting 'triclinic'
loop_
_space_group_symop_operation_xyz
x,y,z
-x,-y,-z
loop_
_atom_site_type_symbol
_atom_site_label
_atom_site_fract_x
_atom_site_fract_y
_atom_site_fract_z
Si Si1 0.760218 0.234091 0.048711
Si Si2 0.161876 0.192149 0.710925
Si Si3 0.985029 0.665370 0.967916
Si Si4 0.364101 0.538861 0.288278
Si Si5 0.262405 0.995541 0.034207
Si Si6 0.109201 0.164138 0.265816
O O1 0.998853 0.198881 0.873951
O O2 0.949824 0.138604 0.075285
O O3 0.500000 0.500000 0.000000
O O4 0.643950 0.068412 0.228903
O O5 0.334138 0.324825 0.506873
O O6 0.900373 0.324709 0.711037
O O7 0.325403 0.561750 0.858445
O O8 0.947997 0.776677 0.826208
O O9 0.962885 0.429876 0.171607
O O10 0.776303 0.866728 0.985746
O O11 0.336516 0.724258 0.210567
O O12 0.534763 0.969555 0.843085
O O13 0.000000 0.000000 0.500000
#
# Coordination Sequence:
#
# PCOD9094216 Si02
#       6
#     2   2   2   2   2   2
#     4  10  20  34  55  84 119 150 189 230 279 339
#     4   9  19  35  54  81 119 153 188 228 278 342
#     4  10  21  40  61  84 119 147 192 245 291 343
#     4   9  19  36  58  81 114 156 187 230 289 335
#     4  10  21  38  59  86 116 146 193 242 282 340
#     4  10  23  41  61  84 114 154 192 238 300 346
#
# _framework density 19.914522999999999
#
# number of rings (size 3 to 8) (size 9 to 14) (size 15 to 20)
#    0.000    2.333    0.000    1.500    2.333    3.333 
#    3.000    5.000    0.000    0.000    0.000    0.000 
#    0.000    0.000    0.000    0.000    0.000    0.000 
#
# Total GULP energy -66898.194381 kJ/mol
# GULP energy per Si atom -5574.849532 kJ/mol
# Density = 1.986920 g / cm^3
# Si number density = 19.914523 Si / 1000 Ang^3
#
#
#
# Elastic Constant Matrix: (Units=GPa)
#
#
# Indices 1 2 3 4 5 6 
#
# 1 47.5806 47.3380 36.2143 -15.3593 -6.4164 27.8834
# 2 47.3380 130.5015 47.7476 -22.4823 -15.4492 17.7603
# 3 36.2143 47.7476 146.1448 -35.4973 -18.2905 19.4980
# 4 -15.3593 -22.4823 -35.4973 22.6384 -1.1000 -5.9856
# 5 -6.4164 -15.4492 -18.2905 -1.1000 22.0423 0.1725
# 6 27.8834 17.7603 19.4980 -5.9856 0.1725 34.2751
#
#
#
# Elastic Compliance Matrix: (Units=1/GPa)
#
#
# Indices 1 2 3 4 5 6 
#
# 1 0.071862 -0.014231 0.000467 0.023470 0.012873 -0.047319
# 2 -0.014231 0.013810 0.000884 0.007122 0.006586 0.005129
# 3 0.000467 0.000884 0.014540 0.023325 0.014025 -0.005107
# 4 0.023470 0.007122 0.023325 0.100573 0.036344 -0.018672
# 5 0.012873 0.006586 0.014025 0.036344 0.067306 -0.015856
# 6 -0.047319 0.005129 -0.005107 -0.018672 -0.015856 0.064737
#
#
# Mechanical properties :
#
#
# Convention : Reuss Voigt Hill
#
# Bulk Modulus (GPa) = 13.43128 65.20295 39.31711
# Shear Modulus (GPa) = 13.04104 28.65295 20.84700
#
# Velocity S-wave (km/s) = 2.56178 3.79726 3.23898
# Velocity P-wave (km/s) = 3.93820 7.21374 5.81152
#
# Compressibility (1/GPa) = 0.07445309
#
# Stress axis : x y z
#
# Youngs Moduli (GPa) = 13.91551 72.41133 68.77618
#
# Poissons Ratio (x) = 1.03049 -0.03212
# Poissons Ratio (y) = 0.19803 -0.06083
# Poissons Ratio (z) = -0.00650 -0.06404
#
# Static dielectric constant tensor:
#      x y z
#    x 1.757050 -0.029540 -0.013460 
#    y -0.029540 1.703010 -0.039290 
#    z -0.013460 -0.039290 1.709380 
# 
# From -- ./inp_files/20068.got.cif
#   From: 2010.05.17/outbox.cif.g08.bks.cpg/sg2_11_cif.got.tgz:20068.got - 2010.06.03 11:33:40.
