data_PCOD9094080
_publ_section_title
;
Structure prediction by ZEFSAII (Michael W. Deem and Ramdas Pophale) SiO2 
 PCOD9094080
Probable space group: P -1
;
_chemical_formula_sum "Si O2"
_cell_formula_units_Z 16
_cell_length_a 14.950064
_cell_length_b 13.014884
_cell_length_c 5.469324
_cell_angle_alpha 73.929836
_cell_angle_beta 104.424325
_cell_angle_gamma 142.578793
_cell_volume 620.622640
_symmetry_space_group_name_H-M "P -1"
_symmetry_group_IT_number 2
_symmetry_cell_setting 'triclinic'
loop_
_space_group_symop_operation_xyz
x,y,z
-x,-y,-z
loop_
_atom_site_type_symbol
_atom_site_label
_atom_site_fract_x
_atom_site_fract_y
_atom_site_fract_z
Si Si1 0.832479 0.427710 0.180931
Si Si2 0.363154 0.276229 0.856776
Si Si3 0.851577 0.817506 0.840239
Si Si4 0.409083 0.139856 0.642663
Si Si5 0.509003 0.822367 0.834363
Si Si6 0.998249 0.364134 0.332560
Si Si7 0.665692 0.536378 0.505897
Si Si8 0.011407 0.167917 0.680025
O O1 0.660271 0.296665 0.187712
O O2 0.874834 0.342344 0.221731
O O3 0.911669 0.526316 0.428829
O O4 0.902104 0.547234 0.905567
O O5 0.321899 0.167272 0.661084
O O6 0.417635 0.441091 0.699983
O O7 0.231890 0.190015 0.001356
O O8 0.469947 0.288471 0.055662
O O9 0.727742 0.643320 0.725759
O O10 0.963307 0.829223 0.016745
O O11 0.946761 0.996924 0.667519
O O12 0.403832 0.075405 0.423580
O O13 0.571053 0.345095 0.595168
O O14 0.413326 0.069987 0.932304
O O15 0.926432 0.187128 0.481690
O O16 0.819842 0.657610 0.395966
#
# Coordination Sequence:
#
# PCOD9094080 Si02
#       8
#     2   2   2   2   2   2   2   2
#     4  10  20  38  59  90 118 136 183 234 291 347
#     4   9  22  33  52  77 111 151 185 235 271 335
#     4  10  22  38  52  77 117 152 203 224 271 328
#     4  10  22  31  54  80 112 146 181 224 288 328
#     4  10  20  34  53  83 109 146 175 228 287 338
#     4  10  22  37  60  87 114 148 180 234 289 334
#     4  11  20  33  52  78 111 146 192 236 272 333
#     4  10  22  36  56  80 109 160 188 235 274 335
#
# _framework density 25.780563000000001
#
# number of rings (size 3 to 8) (size 9 to 14) (size 15 to 20)
#    0.750    1.250    0.000    3.750    7.000    1.000 
#    0.000    0.000    0.000    0.750    0.000    1.750 
#    0.000    0.000    0.000    0.000    0.000    0.000 
#
# Total GULP energy -89216.390165 kJ/mol
# GULP energy per Si atom -5576.024385 kJ/mol
# Density = 2.572189 g / cm^3
# Si number density = 25.780563 Si / 1000 Ang^3
#
#
#
# Elastic Constant Matrix: (Units=GPa)
#
#
# Indices 1 2 3 4 5 6 
#
# 1 179.7057 3.9602 73.4888 -21.6380 -56.8466 20.6754
# 2 3.9602 40.3114 20.4515 -10.0329 -0.0560 -3.5071
# 3 73.4888 20.4515 161.6580 -3.3190 -30.6881 -0.4503
# 4 -21.6380 -10.0329 -3.3190 30.7722 4.5133 -4.9490
# 5 -56.8466 -0.0560 -30.6881 4.5133 96.1626 -37.9288
# 6 20.6754 -3.5071 -0.4503 -4.9490 -37.9288 45.0633
#
#
#
# Elastic Compliance Matrix: (Units=1/GPa)
#
#
# Indices 1 2 3 4 5 6 
#
# 1 0.008895 0.002420 -0.003493 0.006099 0.003853 -0.000015
# 2 0.002420 0.029952 -0.004527 0.011362 0.000638 0.002960
# 3 -0.003493 -0.004527 0.008644 -0.002856 0.001839 0.002571
# 4 0.006099 0.011362 -0.002856 0.040556 0.002676 0.004764
# 5 0.003853 0.000638 0.001839 0.002676 0.018837 0.014449
# 6 -0.000015 0.002960 0.002571 0.004764 0.014449 0.035139
#
#
# Mechanical properties :
#
#
# Convention : Reuss Voigt Hill
#
# Bulk Modulus (GPa) = 27.55463 64.16400 45.85932
# Shear Modulus (GPa) = 30.24454 53.31794 41.78124
#
# Velocity S-wave (km/s) = 3.42885 4.55262 4.03010
# Velocity P-wave (km/s) = 5.13686 7.25105 6.28351
#
# Compressibility (1/GPa) = 0.03629154
#
# Stress axis : x y z
#
# Youngs Moduli (GPa) = 112.42772 33.38677 115.68425
#
# Poissons Ratio (x) = -0.08081 0.40410
# Poissons Ratio (y) = -0.27213 0.52370
# Poissons Ratio (z) = 0.39273 0.15114
#
# Static dielectric constant tensor:
#      x y z
#    x 2.062980 -0.016050 0.002410 
#    y -0.016050 2.017240 0.043110 
#    z 0.002410 0.043110 2.257810 
# 
# From -- ./inp_files/94682.got.cif
#   From: 2010.05.17/outbox.cif.g08.bks.cpg/sg2_48_cif.got.tgz:94682.got - 2010.06.03 11:33:40.
