data_PCOD9094008
_publ_section_title
;
Structure prediction by ZEFSAII (Michael W. Deem and Ramdas Pophale) SiO2 
 PCOD9094008
Probable space group: P -1
;
_chemical_formula_sum "Si O2"
_cell_formula_units_Z 16
_cell_length_a 6.248104
_cell_length_b 16.322479
_cell_length_c 14.808568
_cell_angle_alpha 151.741985
_cell_angle_beta 103.681352
_cell_angle_gamma 62.640560
_cell_volume 581.961473
_symmetry_space_group_name_H-M "P -1"
_symmetry_group_IT_number 2
_symmetry_cell_setting 'triclinic'
loop_
_space_group_symop_operation_xyz
x,y,z
-x,-y,-z
loop_
_atom_site_type_symbol
_atom_site_label
_atom_site_fract_x
_atom_site_fract_y
_atom_site_fract_z
Si Si1 0.265213 0.776360 0.296143
Si Si2 0.705648 0.951592 0.872021
Si Si3 0.315477 0.513995 0.222365
Si Si4 0.556599 0.921011 0.554284
Si Si5 0.845671 0.063741 0.814501
Si Si6 0.974195 0.631573 0.037317
Si Si7 0.388005 0.342059 0.519562
Si Si8 0.133422 0.210085 0.078722
O O1 0.290384 0.645091 0.258975
O O2 0.501935 0.814686 0.361955
O O3 0.211690 0.668575 0.102875
O O4 0.000000 0.000000 0.500000
O O5 0.629162 0.782095 0.685536
O O6 0.847505 0.901772 0.933093
O O7 0.856714 0.946556 0.793562
O O8 0.421444 0.167333 0.054119
O O9 0.580104 0.289442 0.017666
O O10 0.378070 0.616179 0.410581
O O11 0.077598 0.477404 0.156713
O O12 0.580357 0.789648 0.516560
O O13 0.291144 0.144414 0.758914
O O14 0.796237 0.955140 0.620523
O O15 0.074801 0.105849 0.887836
O O16 0.000000 0.500000 0.000000
O O17 0.111241 0.559296 0.709726
#
# Coordination Sequence:
#
# PCOD9094008 Si02
#       8
#     2   2   2   2   2   2   2   2
#     4   8  12  19  35  63  99 125 155 202 235 275
#     4  10  20  34  52  73  97 129 167 204 249 299
#     4   8  14  24  40  64  97 130 158 198 242 285
#     4   8  14  24  40  64  97 130 158 198 242 285
#     4   9  17  31  49  69 101 130 161 207 246 286
#     4   8  12  19  35  63  99 125 155 202 235 275
#     4   9  17  31  49  69 101 130 161 207 246 286
#     4  10  20  34  52  73  97 129 167 204 249 299
#
# _framework density 27.493227000000001
#
# number of rings (size 3 to 8) (size 9 to 14) (size 15 to 20)
#    0.000    3.250    0.000    0.750    0.000    0.000 
#    0.000    5.000    0.000   13.500    0.000    0.000 
#    0.000 1716.000    0.000    0.000    0.000    0.000 
#
# Total GULP energy -89594.484490 kJ/mol
# GULP energy per Si atom -5599.655281 kJ/mol
# Density = 2.743065 g / cm^3
# Si number density = 27.493227 Si / 1000 Ang^3
#
#
#
# Elastic Constant Matrix: (Units=GPa)
#
#
# Indices 1 2 3 4 5 6 
#
# 1 86.3908 47.0929 45.0349 -1.8069 0.3588 0.2120
# 2 47.0929 151.8559 65.3416 -2.4060 8.6837 -21.5553
# 3 45.0349 65.3416 134.6648 -14.5732 23.6859 -18.7255
# 4 -1.8069 -2.4060 -14.5732 63.8939 -17.3570 13.9695
# 5 0.3588 8.6837 23.6859 -17.3570 47.4151 -14.9609
# 6 0.2120 -21.5553 -18.7255 13.9695 -14.9609 42.7764
#
#
#
# Elastic Compliance Matrix: (Units=1/GPa)
#
#
# Indices 1 2 3 4 5 6 
#
# 1 0.015776 -0.003637 -0.004231 0.000563 0.001822 -0.003309
# 2 -0.003637 0.009574 -0.003107 -0.001159 0.000697 0.004105
# 3 -0.004231 -0.003107 0.011424 0.000841 -0.004265 0.001690
# 4 0.000563 -0.001159 0.000841 0.018144 0.005048 -0.004378
# 5 0.001822 0.000697 -0.004265 0.005048 0.026894 0.006233
# 6 -0.003309 0.004105 0.001690 -0.004378 0.006233 0.029812
#
#
# Mechanical properties :
#
#
# Convention : Reuss Voigt Hill
#
# Bulk Modulus (GPa) = 67.45043 76.42783 71.93913
# Shear Modulus (GPa) = 36.09753 45.17989 40.63871
#
# Velocity S-wave (km/s) = 3.62741 4.05817 3.84882
# Velocity P-wave (km/s) = 6.49083 7.05815 6.78043
#
# Compressibility (1/GPa) = 0.01482570
#
# Stress axis : x y z
#
# Youngs Moduli (GPa) = 63.38906 104.44758 87.53323
#
# Poissons Ratio (x) = 0.37986 0.37034
# Poissons Ratio (y) = 0.23053 0.27192
# Poissons Ratio (z) = 0.26819 0.32447
#
# Static dielectric constant tensor:
#      x y z
#    x 2.113640 -0.091180 0.100240 
#    y -0.091180 2.141460 0.006900 
#    z 0.100240 0.006900 2.163750 
# 
# From -- ./inp_files/210261.got.cif
#   From: 2010.05.17/outbox.cif.g08.bks.cpg/sg2_106_cif.got.tgz:210261.got - 2010.06.03 11:33:40.
