data_PCOD9094545
_publ_section_title
;
Structure prediction by ZEFSAII (Michael W. Deem and Ramdas Pophale) SiO2 
 PCOD9094545
Probable space group: P -1
;
_chemical_formula_sum "Si O2"
_cell_formula_units_Z 15
_cell_length_a 19.140878
_cell_length_b 16.149566
_cell_length_c 8.245620
_cell_angle_alpha 62.813000
_cell_angle_beta 112.591455
_cell_angle_gamma 165.877987
_cell_volume 532.401051
_symmetry_space_group_name_H-M "P -1"
_symmetry_group_IT_number 2
_symmetry_cell_setting 'triclinic'
loop_
_space_group_symop_operation_xyz
x,y,z
-x,-y,-z
loop_
_atom_site_type_symbol
_atom_site_label
_atom_site_fract_x
_atom_site_fract_y
_atom_site_fract_z
Si Si1 0.450539 0.359950 0.345968
Si Si2 0.346630 0.720774 0.276209
Si Si3 0.409856 0.963109 0.307914
Si Si4 0.000000 0.500000 0.000000
Si Si5 0.512963 0.251672 0.336298
Si Si6 0.995851 0.304158 0.023954
Si Si7 0.707051 0.638699 0.667165
Si Si8 0.004366 0.875862 0.958220
O O1 0.349909 0.149688 0.346675
O O2 0.477914 0.365835 0.556620
O O3 0.289888 0.267361 0.298564
O O4 0.755358 0.756291 0.172925
O O5 0.223160 0.675400 0.274046
O O6 0.382257 0.685817 0.474992
O O7 0.122331 0.425082 0.203196
O O8 0.673396 0.126823 0.132048
O O9 0.500000 0.000000 0.500000
O O10 0.311353 0.941646 0.325249
O O11 0.718685 0.350382 0.147704
O O12 0.136374 0.752943 0.001574
O O13 0.811113 0.632918 0.163025
O O14 0.825895 0.015934 0.047137
O O15 0.757280 0.606662 0.843526
O O16 0.000000 0.000000 0.500000
#
# Coordination Sequence:
#
# PCOD9094545 Si02
#       8
#     2   2   2   1   2   2   2   2
#     4  10  20  37  60  86 115 154 195 234 280 339
#     4  10  20  37  59  82 112 152 191 237 291 338
#     4   8  16  32  54  78 106 142 181 228 285 335
#     4  10  20  34  58  86 108 138 196 242 276 342
#     4  10  20  35  58  83 117 155 189 234 289 342
#     4  10  20  35  59  82 109 149 187 233 289 335
#     4   9  20  37  58  81 112 149 194 239 278 329
#     4  10  21  37  57  85 119 154 190 234 285 341
#
# _framework density 28.174247999999999
#
# number of rings (size 3 to 8) (size 9 to 14) (size 15 to 20)
#    0.000    2.400    0.000    2.800    0.000    4.800 
#    0.000    1.333    0.000   84.800    0.000    0.000 
#    0.000    0.000    0.000    0.000    0.000    0.000 
#
# Total GULP energy -83807.937799 kJ/mol
# GULP energy per Si atom -5587.195853 kJ/mol
# Density = 2.811012 g / cm^3
# Si number density = 28.174248 Si / 1000 Ang^3
#
#
#
# Elastic Constant Matrix: (Units=GPa)
#
#
# Indices 1 2 3 4 5 6 
#
# 1 279.1468 39.4239 23.8406 4.1566 -18.1364 -40.8504
# 2 39.4239 67.7151 36.0913 -11.9136 -1.0206 -11.7588
# 3 23.8406 36.0913 157.3855 9.8451 5.3174 -5.2190
# 4 4.1566 -11.9136 9.8451 33.1587 -4.9094 -7.6192
# 5 -18.1364 -1.0206 5.3174 -4.9094 34.6165 2.0456
# 6 -40.8504 -11.7588 -5.2190 -7.6192 2.0456 51.0295
#
#
#
# Elastic Compliance Matrix: (Units=1/GPa)
#
#
# Indices 1 2 3 4 5 6 
#
# 1 0.004453 -0.001992 -0.000176 -0.000230 0.002093 0.002969
# 2 -0.001992 0.021341 -0.005173 0.010690 0.001641 0.004324
# 3 -0.000176 -0.005173 0.007895 -0.004751 -0.002063 -0.001152
# 4 -0.000230 0.010690 -0.004751 0.037969 0.005882 0.007227
# 5 0.002093 0.001641 -0.002063 0.005882 0.031097 0.001474
# 6 0.002969 0.004324 -0.001152 0.007227 0.001474 0.023872
#
#
# Mechanical properties :
#
#
# Convention : Reuss Voigt Hill
#
# Bulk Modulus (GPa) = 52.60920 78.10654 65.35787
# Shear Modulus (GPa) = 33.86526 50.75371 42.30948
#
# Velocity S-wave (km/s) = 3.47074 4.24892 3.87939
# Velocity P-wave (km/s) = 5.89701 7.20097 6.58136
#
# Compressibility (1/GPa) = 0.01900808
#
# Stress axis : x y z
#
# Youngs Moduli (GPa) = 224.58826 46.85851 126.65719
#
# Poissons Ratio (x) = 0.09334 0.02224
# Poissons Ratio (y) = 0.44737 0.65517
# Poissons Ratio (z) = 0.03943 0.24239
#
# Static dielectric constant tensor:
#      x y z
#    x 2.162110 -0.049030 0.028210 
#    y -0.049030 2.626850 0.304080 
#    z 0.028210 0.304080 2.349510 
# 
# From -- ./inp_files/287731.got.cif
#   From: 2010.05.17/outbox.cif.g08.bks.cpg/sg2_144_cif.got.tgz:287731.got - 2010.06.03 11:33:40.
