data_PCOD9094581
_publ_section_title
;
Structure prediction by ZEFSAII (Michael W. Deem and Ramdas Pophale) SiO2 
 PCOD9094581
Probable space group: P -1
;
_chemical_formula_sum "Si O2"
_cell_formula_units_Z 16
_cell_length_a 5.276612
_cell_length_b 8.417382
_cell_length_c 16.649135
_cell_angle_alpha 71.708600
_cell_angle_beta 106.196257
_cell_angle_gamma 119.252572
_cell_volume 605.496663
_symmetry_space_group_name_H-M "P -1"
_symmetry_group_IT_number 2
_symmetry_cell_setting 'triclinic'
loop_
_space_group_symop_operation_xyz
x,y,z
-x,-y,-z
loop_
_atom_site_type_symbol
_atom_site_label
_atom_site_fract_x
_atom_site_fract_y
_atom_site_fract_z
Si Si1 0.227827 0.948932 0.197133
Si Si2 0.871481 0.301773 0.977686
Si Si3 0.791461 0.266467 0.610661
Si Si4 0.290146 0.236599 0.940290
Si Si5 0.167656 0.064194 0.421072
Si Si6 0.686591 0.464800 0.810097
Si Si7 0.903301 0.125936 0.233678
Si Si8 0.537466 0.510645 0.387282
O O1 0.176169 0.793360 0.285740
O O2 0.954430 0.892790 0.121522
O O3 0.569035 0.023969 0.191304
O O4 0.171181 0.103412 0.218040
O O5 0.546901 0.183041 0.998371
O O6 0.807134 0.319727 0.873934
O O7 0.131151 0.246817 0.005007
O O8 0.000000 0.500000 0.000000
O O9 0.601265 0.383959 0.584162
O O10 0.115040 0.402005 0.586391
O O11 0.704103 0.077522 0.579279
O O12 0.469422 0.427323 0.873962
O O13 0.389639 0.284771 0.410919
O O14 0.921189 0.054769 0.335823
O O15 0.000000 0.000000 0.500000
O O16 0.518907 0.436744 0.717054
O O17 0.978125 0.654277 0.796474
#
# Coordination Sequence:
#
# PCOD9094581 Si02
#       8
#     2   2   2   2   2   2   2   2
#     4  11  20  38  61  92 121 155 210 264 320 372
#     4  10  20  34  58  90 122 158 202 253 308 374
#     4  11  22  41  65  93 128 167 219 272 332 387
#     4  10  20  34  61  86 117 157 205 254 301 373
#     4  10  25  45  64  96 136 173 220 271 336 409
#     4   9  22  35  62  91 119 156 219 257 313 375
#     4  10  23  37  62  89 121 159 202 270 321 369
#     4  11  23  41  68  95 125 171 221 277 326 384
#
# _framework density 26.424586000000001
#
# number of rings (size 3 to 8) (size 9 to 14) (size 15 to 20)
#    0.750    1.000    1.250    3.375    1.750    7.000 
#    0.000    8.750    0.000    4.500    0.000    0.000 
#    0.000    0.000    0.000    0.000    0.000    0.000 
#
# Total GULP energy -89359.209895 kJ/mol
# GULP energy per Si atom -5584.950618 kJ/mol
# Density = 2.636444 g / cm^3
# Si number density = 26.424586 Si / 1000 Ang^3
#
#
#
# Elastic Constant Matrix: (Units=GPa)
#
#
# Indices 1 2 3 4 5 6 
#
# 1 196.2229 80.1094 24.5647 -14.7398 16.5525 -10.7661
# 2 80.1094 127.2420 48.9274 3.0298 26.6901 -1.1735
# 3 24.5647 48.9274 124.8377 -11.4000 7.4883 -1.3814
# 4 -14.7398 3.0298 -11.4000 28.7542 25.6344 -1.5409
# 5 16.5525 26.6901 7.4883 25.6344 -44.5607 31.8329
# 6 -10.7661 -1.1735 -1.3814 -1.5409 31.8329 28.1856
#
#
#
# Elastic Compliance Matrix: (Units=1/GPa)
#
#
# Indices 1 2 3 4 5 6 
#
# 1 0.007290 -0.005367 0.000841 0.003020 0.001853 0.000674
# 2 -0.005367 0.013159 -0.004689 -0.006152 0.000046 -0.002120
# 3 0.000841 -0.004689 0.009965 0.003869 0.001104 -0.000421
# 4 0.003020 -0.006152 0.003869 0.029653 0.009453 -0.007969
# 5 0.001853 0.000046 0.001104 0.009453 -0.008405 0.010774
# 6 0.000674 -0.002120 -0.000421 -0.007969 0.010774 0.023024
#
#
# Mechanical properties :
#
#
# Convention : Reuss Voigt Hill
#
# Bulk Modulus (GPa) = 83.45106 83.94506 83.69806
# Shear Modulus (GPa) = 51.48779 22.12253 36.80516
#
# Velocity S-wave (km/s) = 4.41895 2.89657 3.73612
# Velocity P-wave (km/s) = 7.59510 6.55924 7.09609
#
# Compressibility (1/GPa) = 0.01198307
#
# Stress axis : x y z
#
# Youngs Moduli (GPa) = 137.17953 75.99615 100.35024
#
# Poissons Ratio (x) = 0.40790 -0.08442
# Poissons Ratio (y) = 0.73630 0.47055
# Poissons Ratio (z) = -0.11541 0.35635
#
# Static dielectric constant tensor:
#      x y z
#    x 1.604400 -0.196720 0.360620 
#    y -0.196720 2.073680 0.102320 
#    z 0.360620 0.102320 1.887910 
# 
# From -- ./inp_files/547167.got.cif
#   From: 2010.05.17/outbox.cif.g08.bks.cpg/sg2_274_cif.got.tgz:547167.got - 2010.06.03 11:33:40.
