data_PCOD9094504
_publ_section_title
;
Structure prediction by ZEFSAII (Michael W. Deem and Ramdas Pophale) SiO2 
 PCOD9094504
Probable space group: P -1
;
_chemical_formula_sum "Si O2"
_cell_formula_units_Z 12
_cell_length_a 23.451702
_cell_length_b 8.126259
_cell_length_c 22.537291
_cell_angle_alpha 146.561335
_cell_angle_beta 167.389715
_cell_angle_gamma 33.322164
_cell_volume 508.582507
_symmetry_space_group_name_H-M "P -1"
_symmetry_group_IT_number 2
_symmetry_cell_setting 'triclinic'
loop_
_space_group_symop_operation_xyz
x,y,z
-x,-y,-z
loop_
_atom_site_type_symbol
_atom_site_label
_atom_site_fract_x
_atom_site_fract_y
_atom_site_fract_z
Si Si1 0.542462 0.215285 0.697774
Si Si2 0.888047 0.265752 0.548787
Si Si3 0.270266 0.357514 0.073191
Si Si4 0.560575 0.679783 0.174638
Si Si5 0.868923 0.610611 0.290861
Si Si6 0.922252 0.136592 0.896469
O O1 0.381410 0.492203 0.654864
O O2 0.345871 0.975772 0.426570
O O3 0.565604 0.396690 0.713874
O O4 0.837541 0.025422 0.949842
O O5 0.048451 0.317881 0.786794
O O6 0.070798 0.315059 0.693258
O O7 0.829519 0.927963 0.382057
O O8 0.134561 0.504957 0.040055
O O9 0.459036 0.036943 0.174473
O O10 0.867831 0.595398 0.477425
O O11 0.500000 0.500000 0.000000
O O12 0.378746 0.550038 0.999006
O O13 0.000000 0.000000 0.000000
#
# Coordination Sequence:
#
# PCOD9094504 Si02
#       6
#     2   2   2   2   2   2
#     4  11  21  37  62  98 122 154 212 263 304 349
#     4  11  24  41  67  91 127 165 212 249 311 365
#     4  11  23  37  70  94 124 163 208 259 309 362
#     4  12  25  44  63  91 130 164 207 251 318 364
#     4  11  28  42  61  95 130 165 203 257 306 377
#     4  10  20  34  58 100 121 151 208 271 295 351
#
# _framework density 23.594992000000001
#
# number of rings (size 3 to 8) (size 9 to 14) (size 15 to 20)
#    0.000    1.000    5.000    3.500    4.667    1.333 
#    0.000    0.000    0.000    6.000    0.000    0.000 
#    0.000    0.000    0.000    0.000    0.000    0.000 
#
# Total GULP energy -67126.608132 kJ/mol
# GULP energy per Si atom -5593.884011 kJ/mol
# Density = 2.354129 g / cm^3
# Si number density = 23.594992 Si / 1000 Ang^3
#
#
#
# Elastic Constant Matrix: (Units=GPa)
#
#
# Indices 1 2 3 4 5 6 
#
# 1 30.9432 56.7374 48.7987 -15.2571 7.5736 -4.0243
# 2 56.7374 178.2548 35.5673 -4.2844 -11.2162 -55.0515
# 3 48.7987 35.5673 98.7150 -4.3670 1.1178 -29.7046
# 4 -15.2571 -4.2844 -4.3670 -5.1091 7.7712 16.9233
# 5 7.5736 -11.2162 1.1178 7.7712 28.0319 -8.7032
# 6 -4.0243 -55.0515 -29.7046 16.9233 -8.7032 24.8867
#
#
#
# Elastic Compliance Matrix: (Units=1/GPa)
#
#
# Indices 1 2 3 4 5 6 
#
# 1 0.045802 -0.008148 -0.018909 -0.063430 0.006497 0.012217
# 2 -0.008148 0.009626 0.003178 0.028022 -0.000424 0.004566
# 3 -0.018909 0.003178 0.020639 0.036929 -0.004033 0.002084
# 4 -0.063430 0.028022 0.036929 0.090284 0.014059 0.039330
# 5 0.006497 -0.000424 -0.004033 0.014059 0.028700 -0.004226
# 6 0.012217 0.004566 0.002084 0.039330 -0.004226 0.026523
#
#
# Mechanical properties :
#
#
# Convention : Reuss Voigt Hill
#
# Bulk Modulus (GPa) = 35.32473 65.56888 50.44680
# Shear Modulus (GPa) = 17.93602 20.68254 19.30928
#
# Velocity S-wave (km/s) = 2.76009 2.96390 2.86381
# Velocity P-wave (km/s) = 5.01610 6.28988 5.68875
#
# Compressibility (1/GPa) = 0.02830878
#
# Stress axis : x y z
#
# Youngs Moduli (GPa) = 21.83318 103.88214 48.45177
#
# Poissons Ratio (x) = 0.84644 0.91618
# Poissons Ratio (y) = 0.17790 -0.15398
# Poissons Ratio (z) = 0.41284 -0.33013
#
# Static dielectric constant tensor:
#      x y z
#    x 2.003830 -0.036180 0.021020 
#    y -0.036180 1.910590 -0.011690 
#    z 0.021020 -0.011690 1.892240 
# 
# From -- ./inp_files/621123.got.cif
#   From: 2010.05.17/outbox.cif.g08.bks.cpg/sg2_311_cif.got.tgz:621123.got - 2010.06.03 11:33:40.
