data_PCOD9094558
_publ_section_title
;
Structure prediction by ZEFSAII (Michael W. Deem and Ramdas Pophale) SiO2 
 PCOD9094558
Probable space group: P -1
;
_chemical_formula_sum "Si O2"
_cell_formula_units_Z 14
_cell_length_a 24.380401
_cell_length_b 14.250302
_cell_length_c 10.824184
_cell_angle_alpha 30.250212
_cell_angle_beta 31.287872
_cell_angle_gamma 18.790820
_cell_volume 594.371863
_symmetry_space_group_name_H-M "P -1"
_symmetry_group_IT_number 2
_symmetry_cell_setting 'triclinic'
loop_
_space_group_symop_operation_xyz
x,y,z
-x,-y,-z
loop_
_atom_site_type_symbol
_atom_site_label
_atom_site_fract_x
_atom_site_fract_y
_atom_site_fract_z
Si Si1 0.917837 0.740599 0.120015
Si Si2 0.628333 0.235269 0.947520
Si Si3 0.866515 0.340766 0.024330
Si Si4 0.503968 0.892049 0.805404
Si Si5 0.477129 0.752850 0.267430
Si Si6 0.580068 0.179656 0.434446
Si Si7 0.087058 0.664478 0.338236
O O1 0.947564 0.477401 0.360905
O O2 0.758609 0.988406 0.243036
O O3 0.078789 0.620557 0.005641
O O4 0.828073 0.951926 0.930315
O O5 0.566483 0.453711 0.706062
O O6 0.500000 0.500000 0.000000
O O7 0.583252 0.085590 0.168663
O O8 0.662652 0.587972 0.125746
O O9 0.928278 0.343057 0.772053
O O10 0.961543 0.007356 0.226725
O O11 0.711500 0.555769 0.780218
O O12 0.503917 0.111560 0.582591
O O13 0.421152 0.915398 0.060272
O O14 0.500000 0.500000 0.500000
O O15 0.371019 0.938361 0.385347
#
# Coordination Sequence:
#
# PCOD9094558 Si02
#       7
#     2   2   2   2   2   2   2
#     4  10  21  36  59  85 116 145 191 229 283 334
#     4  10  20  34  58  87 118 149 188 235 277 333
#     4  10  21  36  56  83 115 148 184 235 286 334
#     4  10  20  37  59  89 115 147 194 232 285 332
#     4  11  22  39  61  84 116 149 189 238 289 336
#     4  10  21  37  60  88 113 152 188 237 281 337
#     4   9  19  34  57  84 111 149 186 235 280 332
#
# _framework density 23.554276999999999
#
# number of rings (size 3 to 8) (size 9 to 14) (size 15 to 20)
#    0.000    2.000    1.429    2.571    4.000    6.286 
#    2.571    0.714    0.000    1.714    0.000    0.000 
#    0.000    0.000    0.000    0.000    0.000    0.000 
#
# Total GULP energy -78267.514971 kJ/mol
# GULP energy per Si atom -5590.536784 kJ/mol
# Density = 2.350067 g / cm^3
# Si number density = 23.554277 Si / 1000 Ang^3
#
#
#
# Elastic Constant Matrix: (Units=GPa)
#
#
# Indices 1 2 3 4 5 6 
#
# 1 106.4617 5.4598 12.0364 5.8288 -22.0254 -9.8316
# 2 5.4598 43.8934 11.7131 -15.4477 -5.5164 2.0292
# 3 12.0364 11.7131 36.2722 -7.2320 0.9125 1.6221
# 4 5.8288 -15.4477 -7.2320 24.9419 -4.0323 -1.7287
# 5 -22.0254 -5.5164 0.9125 -4.0323 30.7009 2.6384
# 6 -9.8316 2.0292 1.6221 -1.7287 2.6384 29.2680
#
#
#
# Elastic Compliance Matrix: (Units=1/GPa)
#
#
# Indices 1 2 3 4 5 6 
#
# 1 0.012111 -0.000392 -0.004835 -0.002928 0.008080 0.003462
# 2 -0.000392 0.032667 -0.006640 0.019661 0.008509 -0.001634
# 3 -0.004835 -0.006640 0.032646 0.005568 -0.004710 -0.002220
# 4 -0.002928 0.019661 0.005568 0.055955 0.008626 -0.000128
# 5 0.008080 0.008509 -0.004710 0.008626 0.041242 -0.000823
# 6 0.003462 -0.001634 -0.002220 -0.000128 -0.000823 0.035633
#
#
# Mechanical properties :
#
#
# Convention : Reuss Voigt Hill
#
# Bulk Modulus (GPa) = 18.62467 27.22733 22.92600
# Shear Modulus (GPa) = 19.85044 27.47671 23.66358
#
# Velocity S-wave (km/s) = 2.90617 3.41915 3.17304
# Velocity P-wave (km/s) = 4.38011 5.21267 4.81442
#
# Compressibility (1/GPa) = 0.05369222
#
# Stress axis : x y z
#
# Youngs Moduli (GPa) = 82.56644 30.61149 30.63193
#
# Poissons Ratio (x) = 0.01199 0.14809
# Poissons Ratio (y) = 0.03233 0.20340
# Poissons Ratio (z) = 0.39917 0.20326
#
# Static dielectric constant tensor:
#      x y z
#    x 1.956820 -0.013450 0.077570 
#    y -0.013450 1.903440 -0.038180 
#    z 0.077570 -0.038180 1.939710 
# 
# From -- ./inp_files/254451.got.cif
#   From: 2010.05.17/outbox.cif.g08.bks.cpg/sg2_128_cif.got.tgz:254451.got - 2010.06.03 11:33:40.
