data_PCOD9094401
_publ_section_title
;
Structure prediction by ZEFSAII (Michael W. Deem and Ramdas Pophale) SiO2 
 PCOD9094401
Probable space group: P -1
;
_chemical_formula_sum "Si O2"
_cell_formula_units_Z 14
_cell_length_a 15.704868
_cell_length_b 25.079468
_cell_length_c 5.103447
_cell_angle_alpha 75.097486
_cell_angle_beta 84.677644
_cell_angle_gamma 151.032769
_cell_volume 690.695285
_symmetry_space_group_name_H-M "P -1"
_symmetry_group_IT_number 2
_symmetry_cell_setting 'triclinic'
loop_
_space_group_symop_operation_xyz
x,y,z
-x,-y,-z
loop_
_atom_site_type_symbol
_atom_site_label
_atom_site_fract_x
_atom_site_fract_y
_atom_site_fract_z
Si Si1 0.422479 0.061450 0.292420
Si Si2 0.985869 0.716147 0.825566
Si Si3 0.810498 0.857089 0.426286
Si Si4 0.370836 0.868079 0.328992
Si Si5 0.312181 0.437970 0.384470
Si Si6 0.727765 0.712394 0.287675
Si Si7 0.183366 0.027930 0.503898
O O1 0.495670 0.079990 0.529630
O O2 0.174936 0.880199 0.523786
O O3 0.365571 0.091747 0.276408
O O4 0.617331 0.165034 0.882111
O O5 0.127995 0.746178 0.674926
O O6 0.776849 0.597445 0.826078
O O7 0.879264 0.657075 0.221288
O O8 0.658195 0.723036 0.468977
O O9 0.979427 0.925639 0.490515
O O10 0.692443 0.839899 0.611644
O O11 0.000000 0.000000 0.000000
O O12 0.500000 0.000000 0.000000
O O13 0.566547 0.612670 0.197798
O O14 0.311979 0.371375 0.471547
O O15 0.011674 0.892716 0.932060
#
# Coordination Sequence:
#
# PCOD9094401 Si02
#       7
#     2   2   2   2   2   2   2
#     4  11  20  33  56  81 110 146 178 229 277 328
#     4  11  20  36  50  78 111 149 182 218 270 318
#     4   9  20  36  54  77 112 142 185 232 271 322
#     4  10  21  33  53  78 111 144 185 226 275 324
#     4  11  23  33  56  79 115 157 178 214 266 329
#     4  10  22  34  51  81 114 146 187 215 263 334
#     4  10  20  34  57  80 113 144 181 230 279 317
#
# _framework density 20.269428999999999
#
# number of rings (size 3 to 8) (size 9 to 14) (size 15 to 20)
#    0.000    1.714    1.429    5.143    6.000    1.143 
#    0.000    0.000    0.000    0.000    0.000    6.000 
#    0.000    0.000    0.000    0.000    0.000    0.000 
#
# Total GULP energy -78117.368826 kJ/mol
# GULP energy per Si atom -5579.812059 kJ/mol
# Density = 2.022330 g / cm^3
# Si number density = 20.269429 Si / 1000 Ang^3
#
#
#
# Elastic Constant Matrix: (Units=GPa)
#
#
# Indices 1 2 3 4 5 6 
#
# 1 158.0786 53.0050 30.2625 14.1043 -20.7963 -20.2174
# 2 53.0050 82.8746 6.8405 12.2641 15.9149 -11.3369
# 3 30.2625 6.8405 67.9297 11.6209 -8.0430 -8.9707
# 4 14.1043 12.2641 11.6209 22.2000 -4.8138 -7.5464
# 5 -20.7963 15.9149 -8.0430 -4.8138 24.4186 5.2861
# 6 -20.2174 -11.3369 -8.9707 -7.5464 5.2861 28.9601
#
#
#
# Elastic Compliance Matrix: (Units=1/GPa)
#
#
# Indices 1 2 3 4 5 6 
#
# 1 0.013360 -0.012484 -0.003051 0.004562 0.019152 0.001188
# 2 -0.012484 0.029133 0.001920 -0.014445 -0.033036 0.005551
# 3 -0.003051 0.001920 0.017448 -0.007564 -0.000040 0.002063
# 4 0.004562 -0.014445 -0.007564 0.061165 0.021299 0.007237
# 5 0.019152 -0.033036 -0.000040 0.021299 0.085048 -0.009548
# 6 0.001188 0.005551 0.002063 0.007237 -0.009548 0.041800
#
#
# Mechanical properties :
#
#
# Convention : Reuss Voigt Hill
#
# Bulk Modulus (GPa) = 30.56811 54.34431 42.45621
# Shear Modulus (GPa) = 17.47715 29.70073 23.58894
#
# Velocity S-wave (km/s) = 2.93958 3.83207 3.41511
# Velocity P-wave (km/s) = 5.16093 6.81534 6.04500
#
# Compressibility (1/GPa) = 0.03271383
#
# Stress axis : x y z
#
# Youngs Moduli (GPa) = 74.84819 34.32495 57.31159
#
# Poissons Ratio (x) = 0.42850 0.17485
# Poissons Ratio (y) = 0.93438 -0.11005
# Poissons Ratio (z) = 0.22835 -0.06591
#
# Static dielectric constant tensor:
#      x y z
#    x 1.756690 -0.030420 -0.012790 
#    y -0.030420 1.750600 0.059460 
#    z -0.012790 0.059460 1.805160 
# 
# From -- ./inp_files/63918.got.cif
#   From: 2010.05.17/outbox.cif.g08.bks.cpg/sg2_32_cif.got.tgz:63918.got - 2010.06.03 11:33:40.
