data_PCOD9094395
_publ_section_title
;
Structure prediction by ZEFSAII (Michael W. Deem and Ramdas Pophale) SiO2 
 PCOD9094395
Probable space group: P -1
;
_chemical_formula_sum "Si O2"
_cell_formula_units_Z 14
_cell_length_a 16.664887
_cell_length_b 6.324063
_cell_length_c 5.056946
_cell_angle_alpha 79.094339
_cell_angle_beta 100.379358
_cell_angle_gamma 87.690630
_cell_volume 513.233319
_symmetry_space_group_name_H-M "P -1"
_symmetry_group_IT_number 2
_symmetry_cell_setting 'triclinic'
loop_
_space_group_symop_operation_xyz
x,y,z
-x,-y,-z
loop_
_atom_site_type_symbol
_atom_site_label
_atom_site_fract_x
_atom_site_fract_y
_atom_site_fract_z
Si Si1 0.346497 0.221078 0.015419
Si Si2 0.911629 0.805825 0.278945
Si Si3 0.762188 0.995153 0.364979
Si Si4 0.940077 0.395285 0.779895
Si Si5 0.205882 0.405025 0.150130
Si Si6 0.506628 0.287500 0.881669
Si Si7 0.396672 0.872253 0.520641
O O1 0.286956 0.425319 0.022766
O O2 0.394713 0.103374 0.314367
O O3 0.287228 0.042778 0.922373
O O4 0.409439 0.268399 0.816148
O O5 0.858490 0.999547 0.350944
O O6 0.920774 0.586123 0.511098
O O7 0.006096 0.814073 0.246003
O O8 0.855941 0.736665 0.019095
O O9 0.764509 0.757109 0.560152
O O10 0.699456 0.152678 0.459755
O O11 0.850046 0.381904 0.852229
O O12 0.000000 0.500000 0.000000
O O13 0.557142 0.277944 0.641748
O O14 0.500000 0.500000 0.000000
O O15 0.554556 0.137304 0.170241
#
# Coordination Sequence:
#
# PCOD9094395 Si02
#       7
#     2   2   2   2   2   2   2
#     4  10  20  34  57  75 103 134 180 215 256 311
#     4   8  13  22  36  64  98 134 161 203 248 302
#     4   9  17  29  49  75  96 132 174 212 251 302
#     4   8  12  20  35  58  99 137 161 193 253 301
#     4   8  15  24  41  68  97 133 166 207 246 306
#     4  12  26  39  54  77 105 135 172 220 270 313
#     4  11  22  39  57  76 101 135 176 215 261 317
#
# _framework density 27.278044000000001
#
# number of rings (size 3 to 8) (size 9 to 14) (size 15 to 20)
#    0.000    2.571    1.429    1.286    4.000    0.000 
#    0.000    0.000    0.000    0.000    0.000    0.000 
#    0.000    2.286    0.286   34.429    0.000    8.143 
#
# Total GULP energy -77987.153370 kJ/mol
# GULP energy per Si atom -5570.510955 kJ/mol
# Density = 2.721596 g / cm^3
# Si number density = 27.278044 Si / 1000 Ang^3
#
#
#
# Elastic Constant Matrix: (Units=GPa)
#
#
# Indices 1 2 3 4 5 6 
#
# 1 65.9960 125.5361 14.7953 -5.2326 19.1814 -56.2662
# 2 125.5361 107.0934 -2.8804 14.7048 -19.6671 -108.7451
# 3 14.7953 -2.8804 134.6053 8.7954 5.0905 -4.8980
# 4 -5.2326 14.7048 8.7954 35.2310 -0.6525 -4.0372
# 5 19.1814 -19.6671 5.0905 -0.6525 32.9602 0.1859
# 6 -56.2662 -108.7451 -4.8980 -4.0372 0.1859 76.8766
#
#
#
# Elastic Compliance Matrix: (Units=1/GPa)
#
#
# Indices 1 2 3 4 5 6 
#
# 1 0.014294 0.014071 -0.000148 -0.000237 -0.000076 0.030344
# 2 0.014071 -0.002575 -0.001262 0.004084 -0.009487 0.006813
# 3 -0.000148 -0.001262 0.007538 -0.001582 -0.001854 -0.001491
# 4 -0.000237 0.004084 -0.001582 0.027898 0.003333 0.006960
# 5 -0.000076 -0.009487 -0.001854 0.003333 0.025151 -0.013480
# 6 0.030344 0.006813 -0.001491 0.006960 -0.013480 0.045157
#
#
# Mechanical properties :
#
#
# Convention : Reuss Voigt Hill
#
# Bulk Modulus (GPa) = 22.43191 64.73296 43.58243
# Shear Modulus (GPa) = 46.72847 40.36313 43.54580
#
# Velocity S-wave (km/s) = 4.14338 3.85085 3.99979
# Velocity P-wave (km/s) = 5.57956 6.59957 6.11088
#
# Compressibility (1/GPa) = 0.04457936
#
# Stress axis : x y z
#
# Youngs Moduli (GPa) = 69.95893 -388.39759 132.66853
#
# Poissons Ratio (x) = 5.46497 0.01957
# Poissons Ratio (y) = -0.98436 0.16741
# Poissons Ratio (z) = 0.01032 -0.49010
#
# Static dielectric constant tensor:
#      x y z
#    x 2.444730 0.121250 0.019150 
#    y 0.121250 2.576770 0.070570 
#    z 0.019150 0.070570 2.256240 
# 
# From -- ./inp_files/42546.got.cif
#   From: 2010.05.17/outbox.cif.g08.bks.cpg/sg2_22_cif.got.tgz:42546.got - 2010.06.03 11:33:40.
