data_PCOD9094851
_publ_section_title
;
Structure prediction by ZEFSAII (Michael W. Deem and Ramdas Pophale) SiO2 
 PCOD9094851
Probable space group: P -1
;
_chemical_formula_sum "Si O2"
_cell_formula_units_Z 14
_cell_length_a 14.816875
_cell_length_b 9.016373
_cell_length_c 10.661789
_cell_angle_alpha 129.653027
_cell_angle_beta 108.187328
_cell_angle_gamma 110.152709
_cell_volume 696.945245
_symmetry_space_group_name_H-M "P -1"
_symmetry_group_IT_number 2
_symmetry_cell_setting 'triclinic'
loop_
_space_group_symop_operation_xyz
x,y,z
-x,-y,-z
loop_
_atom_site_type_symbol
_atom_site_label
_atom_site_fract_x
_atom_site_fract_y
_atom_site_fract_z
Si Si1 0.434188 0.191352 0.329630
Si Si2 0.366701 0.785239 0.420310
Si Si3 0.395523 0.294799 0.960765
Si Si4 0.828865 0.719527 0.135218
Si Si5 0.163757 0.273970 0.572017
Si Si6 0.348323 0.871097 0.867649
Si Si7 0.665197 0.857898 0.485270
O O1 0.500000 0.500000 0.500000
O O2 0.562074 0.233545 0.447274
O O3 0.321651 0.039426 0.313534
O O4 0.353012 0.000314 0.067444
O O5 0.500000 0.000000 0.500000
O O6 0.321785 0.942617 0.497495
O O7 0.243612 0.498516 0.130572
O O8 0.254495 0.205715 0.850700
O O9 0.351236 0.015091 0.827867
O O10 0.500000 0.500000 0.000000
O O11 0.502641 0.537212 0.243650
O O12 0.805328 0.607573 0.207429
O O13 0.995819 0.994764 0.336803
O O14 0.228741 0.528796 0.643600
O O15 0.239168 0.181206 0.529103
O O16 0.500000 0.000000 0.000000
#
# Coordination Sequence:
#
# PCOD9094851 Si02
#       7
#     2   2   2   2   2   2   2
#     4  11  20  36  61  94 122 155 207 265 308 354
#     4  10  20  34  62  88 118 165 204 253 305 367
#     4  12  22  38  67  94 120 160 214 265 307 376
#     4  11  22  41  61  92 134 166 210 258 313 375
#     4  11  24  39  61  93 132 172 204 262 313 371
#     4  12  23  39  65  95 125 164 213 261 315 373
#     4  11  21  37  60  94 121 162 210 253 309 370
#
# _framework density 20.087661000000001
#
# number of rings (size 3 to 8) (size 9 to 14) (size 15 to 20)
#    0.000    0.857    7.143    1.714    2.000    1.143 
#    0.000    0.000    0.000    7.714    0.000    0.000 
#    0.000    0.000    0.000    0.000    0.000    0.000 
#
# Total GULP energy -78051.559018 kJ/mol
# GULP energy per Si atom -5575.111358 kJ/mol
# Density = 2.004194 g / cm^3
# Si number density = 20.087661 Si / 1000 Ang^3
#
#
#
# Elastic Constant Matrix: (Units=GPa)
#
#
# Indices 1 2 3 4 5 6 
#
# 1 104.3205 57.8903 35.6934 12.4715 -0.2038 -19.0396
# 2 57.8903 143.4098 36.5981 15.9023 -6.2795 -19.4132
# 3 35.6934 36.5981 56.7315 -0.6700 0.7989 -9.4150
# 4 12.4715 15.9023 -0.6700 31.8103 -0.6794 -15.3965
# 5 -0.2038 -6.2795 0.7989 -0.6794 30.5418 -3.4618
# 6 -19.0396 -19.4132 -9.4150 -15.3965 -3.4618 38.2669
#
#
#
# Elastic Compliance Matrix: (Units=1/GPa)
#
#
# Indices 1 2 3 4 5 6 
#
# 1 0.014612 -0.003585 -0.006456 -0.002754 -0.000222 0.002735
# 2 -0.003585 0.010077 -0.004097 -0.003042 0.002235 0.001299
# 3 -0.006456 -0.004097 0.025007 0.006779 -0.000992 0.003499
# 4 -0.002754 -0.003042 0.006779 0.041850 0.001897 0.015764
# 5 -0.000222 0.002235 -0.000992 0.001897 0.033789 0.004599
# 6 0.002735 0.001299 0.003499 0.015764 0.004599 0.035771
#
#
# Mechanical properties :
#
#
# Convention : Reuss Voigt Hill
#
# Bulk Modulus (GPa) = 46.68701 62.75838 54.72269
# Shear Modulus (GPa) = 25.44242 31.74248 28.59245
#
# Velocity S-wave (km/s) = 3.56275 3.97948 3.77687
# Velocity P-wave (km/s) = 6.34164 7.24052 6.80593
#
# Compressibility (1/GPa) = 0.02141924
#
# Stress axis : x y z
#
# Youngs Moduli (GPa) = 68.43586 99.23925 39.98944
#
# Poissons Ratio (x) = 0.35578 0.25818
# Poissons Ratio (y) = 0.24534 0.16383
# Poissons Ratio (z) = 0.44184 0.40657
#
# Static dielectric constant tensor:
#      x y z
#    x 1.719540 0.038280 -0.053730 
#    y 0.038280 1.769040 -0.114550 
#    z -0.053730 -0.114550 1.701310 
# 
# From -- ./inp_files/174418.got.cif
#   From: 2010.05.17/outbox.cif.g08.bks.cpg/sg2_88_cif.got.tgz:174418.got - 2010.06.03 11:33:40.
