data_PCOD9094838
_publ_section_title
;
Structure prediction by ZEFSAII (Michael W. Deem and Ramdas Pophale) SiO2 
 PCOD9094838
Probable space group: P -1
;
_chemical_formula_sum "Si O2"
_cell_formula_units_Z 14
_cell_length_a 5.219504
_cell_length_b 7.871765
_cell_length_c 13.663311
_cell_angle_alpha 95.847812
_cell_angle_beta 96.372203
_cell_angle_gamma 72.925176
_cell_volume 531.899856
_symmetry_space_group_name_H-M "P -1"
_symmetry_group_IT_number 2
_symmetry_cell_setting 'triclinic'
loop_
_space_group_symop_operation_xyz
x,y,z
-x,-y,-z
loop_
_atom_site_type_symbol
_atom_site_label
_atom_site_fract_x
_atom_site_fract_y
_atom_site_fract_z
Si Si1 0.837754 0.896176 0.925101
Si Si2 0.989407 0.915106 0.311098
Si Si3 0.334389 0.159399 0.877109
Si Si4 0.587014 0.865480 0.619109
Si Si5 0.699311 0.591444 0.456906
Si Si6 0.658251 0.481614 0.704204
Si Si7 0.977281 0.478257 0.113875
O O1 0.028652 0.720106 0.875708
O O2 0.615879 0.022695 0.855648
O O3 0.678307 0.835211 0.005068
O O4 0.000000 0.000000 0.000000
O O5 0.712398 0.017606 0.359292
O O6 0.196567 0.028645 0.344590
O O7 0.891735 0.905470 0.193581
O O8 0.129340 0.707303 0.334575
O O9 0.277285 0.362645 0.855730
O O10 0.615254 0.792473 0.504309
O O11 0.655499 0.675409 0.670839
O O12 0.500000 0.500000 0.500000
O O13 0.625080 0.551656 0.340995
O O14 0.000000 0.500000 0.500000
O O15 0.762324 0.495106 0.818994
O O16 0.000000 0.500000 0.000000
#
# Coordination Sequence:
#
# PCOD9094838 Si02
#       7
#     2   2   2   2   2   2   2
#     4  10  20  34  62  83 117 164 211 272 331 383
#     4  11  25  41  68 101 135 179 230 277 338 416
#     4   9  21  38  53  88 123 160 218 269 321 401
#     4  11  24  43  69 101 138 180 228 280 341 406
#     4  10  22  42  70 102 137 179 229 280 339 410
#     4  10  23  43  69 100 141 182 225 287 346 402
#     4   9  19  39  62  90 128 169 217 274 336 397
#
# _framework density 26.320744000000001
#
# number of rings (size 3 to 8) (size 9 to 14) (size 15 to 20)
#    0.000    2.000    0.000    2.571    4.000    5.143 
#    0.000    0.000    0.000    0.000    0.000    0.000 
#    0.000    0.000    0.000    0.000    0.000    0.000 
#
# Total GULP energy -78244.092541 kJ/mol
# GULP energy per Si atom -5588.863753 kJ/mol
# Density = 2.626084 g / cm^3
# Si number density = 26.320744 Si / 1000 Ang^3
#
#
#
# Elastic Constant Matrix: (Units=GPa)
#
#
# Indices 1 2 3 4 5 6 
#
# 1 133.3310 84.9329 45.9136 -6.0849 34.3127 -4.8490
# 2 84.9329 247.4363 61.1108 12.9659 42.5131 -13.1254
# 3 45.9136 61.1108 173.3927 -5.4940 28.3487 9.2408
# 4 -6.0849 12.9659 -5.4940 43.7575 1.7524 14.2819
# 5 34.3127 42.5131 28.3487 1.7524 52.7649 0.4909
# 6 -4.8490 -13.1254 9.2408 14.2819 0.4909 24.1311
#
#
#
# Elastic Compliance Matrix: (Units=1/GPa)
#
#
# Indices 1 2 3 4 5 6 
#
# 1 0.010918 -0.002905 -0.001068 0.002546 -0.004266 -0.000397
# 2 -0.002905 0.006381 -0.001567 -0.004402 -0.002321 0.006140
# 3 -0.001068 -0.001567 0.007342 0.003187 -0.002040 -0.005723
# 4 0.002546 -0.004402 0.003187 0.032160 -0.000683 -0.022124
# 5 -0.004266 -0.002321 -0.002040 -0.000683 0.024729 -0.001437
# 6 -0.000397 0.006140 -0.005723 -0.022124 -0.001437 0.060015
#
#
# Mechanical properties :
#
#
# Convention : Reuss Voigt Hill
#
# Bulk Modulus (GPa) = 73.74140 104.23051 88.98596
# Shear Modulus (GPa) = 31.81786 48.27753 40.04769
#
# Velocity S-wave (km/s) = 3.48063 4.28740 3.90491
# Velocity P-wave (km/s) = 6.65059 8.01219 7.36293
#
# Compressibility (1/GPa) = 0.01356090
#
# Stress axis : x y z
#
# Youngs Moduli (GPa) = 91.58937 156.71953 136.20704
#
# Poissons Ratio (x) = 0.45534 0.14544
# Poissons Ratio (y) = 0.26611 0.21340
# Poissons Ratio (z) = 0.09779 0.24554
#
# Static dielectric constant tensor:
#      x y z
#    x 2.087030 0.022470 -0.100220 
#    y 0.022470 2.162280 -0.048230 
#    z -0.100220 -0.048230 2.137210 
# 
# From -- ./inp_files/548244.got.cif
#   From: 2010.05.17/outbox.cif.g08.bks.cpg/sg2_275_cif.got.tgz:548244.got - 2010.06.03 11:33:40.
