data_PCOD9094883
_publ_section_title
;
Structure prediction by ZEFSAII (Michael W. Deem and Ramdas Pophale) SiO2 
 PCOD9094883
Probable space group: P -1
;
_chemical_formula_sum "Si O2"
_cell_formula_units_Z 14
_cell_length_a 19.021266
_cell_length_b 6.943190
_cell_length_c 5.236924
_cell_angle_alpha 100.594578
_cell_angle_beta 76.968614
_cell_angle_gamma 129.252598
_cell_volume 521.003564
_symmetry_space_group_name_H-M "P -1"
_symmetry_group_IT_number 2
_symmetry_cell_setting 'triclinic'
loop_
_space_group_symop_operation_xyz
x,y,z
-x,-y,-z
loop_
_atom_site_type_symbol
_atom_site_label
_atom_site_fract_x
_atom_site_fract_y
_atom_site_fract_z
Si Si1 0.316491 0.512608 0.200244
Si Si2 0.514041 0.338810 0.141814
Si Si3 0.013295 0.865759 0.728398
Si Si4 0.647206 0.774025 0.533256
Si Si5 0.835719 0.487526 0.479125
Si Si6 0.807313 0.904092 0.150157
Si Si7 0.115731 0.647770 0.112071
O O1 0.318491 0.302823 0.282296
O O2 0.260371 0.559379 0.442297
O O3 0.421730 0.710847 0.067606
O O4 0.248065 0.372104 0.981964
O O5 0.576377 0.517638 0.369300
O O6 0.412054 0.143671 0.294156
O O7 0.500000 0.500000 0.000000
O O8 0.932117 0.756197 0.558608
O O9 0.122947 0.033144 0.667311
O O10 0.984510 0.596266 0.783899
O O11 0.000000 0.000000 0.000000
O O12 0.730280 0.929602 0.307016
O O13 0.857294 0.437919 0.174168
O O14 0.826811 0.316847 0.678124
O O15 0.866775 0.102948 0.926554
#
# Coordination Sequence:
#
# PCOD9094883 Si02
#       7
#     2   2   2   2   2   2   2
#     4  10  20  34  63  87 118 154 203 248 298 351
#     4   8  16  34  51  92 116 147 189 254 294 351
#     4  10  22  40  58  87 119 160 205 250 291 351
#     4   9  19  30  61  87 117 147 199 249 298 350
#     4  10  24  41  60  85 123 162 201 249 292 357
#     4  11  21  38  59  89 117 161 199 249 299 356
#     4  10  25  41  57  86 125 162 200 247 302 351
#
# _framework density 26.871214999999999
#
# number of rings (size 3 to 8) (size 9 to 14) (size 15 to 20)
#    0.857    1.429    1.429    0.429    8.000    2.286 
#    0.000    0.000    0.000    1.714    0.000    0.000 
#    0.000    0.000    0.000    0.000    0.000    0.000 
#
# Total GULP energy -78163.755105 kJ/mol
# GULP energy per Si atom -5583.125365 kJ/mol
# Density = 2.681006 g / cm^3
# Si number density = 26.871215 Si / 1000 Ang^3
#
#
#
# Elastic Constant Matrix: (Units=GPa)
#
#
# Indices 1 2 3 4 5 6 
#
# 1 135.5757 18.9324 38.7906 -1.5368 -12.8298 23.1266
# 2 18.9324 41.5998 1.0117 -7.3922 3.6188 12.0973
# 3 38.7906 1.0117 133.2785 21.7344 -6.0587 4.5196
# 4 -1.5368 -7.3922 21.7344 26.0225 -0.3303 -6.1330
# 5 -12.8298 3.6188 -6.0587 -0.3303 61.2012 -7.1061
# 6 23.1266 12.0973 4.5196 -6.1330 -7.1061 34.1720
#
#
#
# Elastic Compliance Matrix: (Units=1/GPa)
#
#
# Indices 1 2 3 4 5 6 
#
# 1 0.009459 -0.002863 -0.002661 0.000903 0.001361 -0.004591
# 2 -0.002863 0.029052 -0.000324 0.006472 -0.003222 -0.007813
# 3 -0.002661 -0.000324 0.009718 -0.008562 0.000279 -0.000848
# 4 0.000903 0.006472 -0.008562 0.049135 0.000044 0.007057
# 5 0.001361 -0.003222 0.000279 0.000044 0.017283 0.003785
# 6 -0.004591 -0.007813 -0.000848 0.007057 0.003785 0.037303
#
#
# Mechanical properties :
#
#
# Convention : Reuss Voigt Hill
#
# Bulk Modulus (GPa) = 27.37321 47.54706 37.46014
# Shear Modulus (GPa) = 28.43761 41.06042 34.74902
#
# Velocity S-wave (km/s) = 3.25667 3.91326 3.59997
# Velocity P-wave (km/s) = 4.93459 6.17665 5.59022
#
# Compressibility (1/GPa) = 0.03653207
#
# Stress axis : x y z
#
# Youngs Moduli (GPa) = 105.71567 34.42122 102.90444
#
# Poissons Ratio (x) = 0.09855 0.27384
# Poissons Ratio (y) = 0.30267 0.03337
# Poissons Ratio (z) = 0.28132 0.01116
#
# Static dielectric constant tensor:
#      x y z
#    x 2.181890 -0.073920 0.022160 
#    y -0.073920 2.243450 -0.092690 
#    z 0.022160 -0.092690 2.191410 
# 
# From -- ./inp_files/41746.got.cif
#   From: 2010.05.17/outbox.cif.g08.bks.cpg/sg2_21_cif.got.tgz:41746.got - 2010.06.03 11:33:40.
