data_PCOD9094650
_publ_section_title
;
Structure prediction by ZEFSAII (Michael W. Deem and Ramdas Pophale) SiO2 
 PCOD9094650
Probable space group: P -1
;
_chemical_formula_sum "Si O2"
_cell_formula_units_Z 16
_cell_length_a 5.410324
_cell_length_b 8.477959
_cell_length_c 18.845661
_cell_angle_alpha 87.501676
_cell_angle_beta 82.519477
_cell_angle_gamma 51.377997
_cell_volume 668.816448
_symmetry_space_group_name_H-M "P -1"
_symmetry_group_IT_number 2
_symmetry_cell_setting 'triclinic'
loop_
_space_group_symop_operation_xyz
x,y,z
-x,-y,-z
loop_
_atom_site_type_symbol
_atom_site_label
_atom_site_fract_x
_atom_site_fract_y
_atom_site_fract_z
Si Si1 0.660284 0.127253 0.740146
Si Si2 0.240222 0.150452 0.863138
Si Si3 0.100325 0.353590 0.646157
Si Si4 0.211059 0.812679 0.899069
Si Si5 0.303446 0.531039 0.216061
Si Si6 0.247785 0.267668 0.015133
Si Si7 0.495696 0.687799 0.484806
Si Si8 0.915915 0.998936 0.392186
O O1 0.537511 0.043194 0.800227
O O2 0.381616 0.278153 0.691740
O O3 0.694511 0.281779 0.774316
O O4 0.955286 0.959854 0.682582
O O5 0.982660 0.370300 0.833212
O O6 0.096732 0.031936 0.876839
O O7 0.344530 0.161132 0.936977
O O8 0.177729 0.402613 0.567438
O O9 0.137520 0.154454 0.631937
O O10 0.787861 0.504652 0.702809
O O11 0.391419 0.662140 0.828900
O O12 0.470353 0.759702 0.950953
O O13 0.956502 0.788545 0.937506
O O14 0.000000 0.500000 0.000000
O O15 0.500000 0.500000 0.500000
O O16 0.209615 0.860043 0.439655
O O17 0.391236 0.812199 0.559555
#
# Coordination Sequence:
#
# PCOD9094650 Si02
#       8
#     2   2   2   2   2   2   2   2
#     4   9  20  39  63  84 121 163 206 250 314 370
#     4  11  24  40  65  91 124 162 208 263 315 378
#     4   9  19  38  58  86 120 161 201 250 308 369
#     4  12  27  42  66  97 126 167 213 266 319 380
#     4  10  22  41  63  87 123 167 205 259 315 378
#     4  12  25  45  67  93 129 168 210 265 323 380
#     4  10  20  34  59  89 117 156 200 252 302 366
#     4   9  19  38  58  84 121 158 198 249 305 367
#
# _framework density 23.922858999999999
#
# number of rings (size 3 to 8) (size 9 to 14) (size 15 to 20)
#    0.000    1.750    1.250    2.250    5.250    1.500 
#    0.000   11.250    0.000    0.000    0.000    0.000 
#    0.000    0.000    0.000    0.000    0.000    0.000 
#
# Total GULP energy -89387.020498 kJ/mol
# GULP energy per Si atom -5586.688781 kJ/mol
# Density = 2.386841 g / cm^3
# Si number density = 23.922859 Si / 1000 Ang^3
#
#
#
# Elastic Constant Matrix: (Units=GPa)
#
#
# Indices 1 2 3 4 5 6 
#
# 1 75.4777 8.8725 47.8348 -3.3967 -13.6527 4.0210
# 2 8.8725 57.3229 50.0977 10.3559 -19.9163 -0.3862
# 3 47.8348 50.0977 174.5247 20.2143 -34.0956 2.2021
# 4 -3.3967 10.3559 20.2143 31.8832 10.6702 -3.1258
# 5 -13.6527 -19.9163 -34.0956 10.6702 53.5045 -6.1944
# 6 4.0210 -0.3862 2.2021 -3.1258 -6.1944 24.7624
#
#
#
# Elastic Compliance Matrix: (Units=1/GPa)
#
#
# Indices 1 2 3 4 5 6 
#
# 1 0.016909 0.001444 -0.005514 0.004593 0.000238 -0.001594
# 2 0.001444 0.026276 -0.005445 -0.007561 0.008396 0.001805
# 3 -0.005514 -0.005445 0.010540 -0.007062 0.004710 0.000160
# 4 0.004593 -0.007561 -0.007062 0.043867 -0.014703 0.001624
# 5 0.000238 0.008396 0.004710 -0.014703 0.028379 0.004917
# 6 -0.001594 0.001805 0.000160 0.001624 0.004917 0.042091
#
#
# Mechanical properties :
#
#
# Convention : Reuss Voigt Hill
#
# Bulk Modulus (GPa) = 28.82301 57.88170 43.35236
# Shear Modulus (GPa) = 25.16907 35.39805 30.28356
#
# Velocity S-wave (km/s) = 3.24712 3.85083 3.56179
# Velocity P-wave (km/s) = 5.11203 6.63472 5.92251
#
# Compressibility (1/GPa) = 0.03469450
#
# Stress axis : x y z
#
# Youngs Moduli (GPa) = 59.14170 38.05808 94.87379
#
# Poissons Ratio (x) = -0.05497 0.52317
# Poissons Ratio (y) = -0.08542 0.51659
# Poissons Ratio (z) = 0.32613 0.20723
#
# Static dielectric constant tensor:
#      x y z
#    x 1.993620 -0.039420 0.003250 
#    y -0.039420 1.863670 0.000450 
#    z 0.003250 0.000450 2.001290 
# 
# From -- ./inp_files/51125.got.cif
#   From: 2010.05.17/outbox.cif.g08.bks.cpg/sg2_26_cif.got.tgz:51125.got - 2010.06.03 11:33:40.
