data_PCOD9094049
_publ_section_title
;
Structure prediction by ZEFSAII (Michael W. Deem and Ramdas Pophale) SiO2 
 PCOD9094049
Probable space group: P -1
;
_chemical_formula_sum "Si O2"
_cell_formula_units_Z 16
_cell_length_a 5.081103
_cell_length_b 14.331023
_cell_length_c 19.328658
_cell_angle_alpha 142.438711
_cell_angle_beta 88.391863
_cell_angle_gamma 103.693925
_cell_volume 802.779240
_symmetry_space_group_name_H-M "P -1"
_symmetry_group_IT_number 2
_symmetry_cell_setting 'triclinic'
loop_
_space_group_symop_operation_xyz
x,y,z
-x,-y,-z
loop_
_atom_site_type_symbol
_atom_site_label
_atom_site_fract_x
_atom_site_fract_y
_atom_site_fract_z
Si Si1 0.432349 0.373558 0.723944
Si Si2 0.470138 0.951884 0.096146
Si Si3 0.334630 0.229980 0.307066
Si Si4 0.263671 0.033039 0.567400
Si Si5 0.161381 0.273087 0.063912
Si Si6 0.101802 0.689581 0.406680
Si Si7 0.841139 0.549777 0.467323
Si Si8 0.948018 0.146541 0.128131
O O1 0.361022 0.226560 0.694409
O O2 0.632505 0.547754 0.853865
O O3 0.620513 0.328552 0.637835
O O4 0.148811 0.371370 0.685239
O O5 0.445219 0.079847 0.229008
O O6 0.615670 0.085505 0.111928
O O7 0.673508 0.847039 0.031146
O O8 0.159189 0.818065 0.011960
O O9 0.566661 0.390214 0.367377
O O10 0.236370 0.296534 0.415540
O O11 0.092747 0.175673 0.218783
O O12 0.500000 0.000000 0.500000
O O13 0.169177 0.883764 0.534077
O O14 0.000000 0.000000 0.500000
O O15 0.101413 0.288052 0.155751
O O16 0.009511 0.591898 0.420399
O O17 0.000000 0.500000 0.500000
O O18 0.000000 0.000000 0.000000
#
# Coordination Sequence:
#
# PCOD9094049 Si02
#       8
#     2   2   2   2   2   2   2   2
#     4  10  20  35  57  89 115 141 186 233 289 350
#     4  11  21  36  49  75 107 145 181 228 274 336
#     4  11  23  39  54  74 113 149 198 236 270 320
#     4   8  16  33  56  82 110 142 177 233 290 344
#     4  11  22  30  53  80 108 143 176 220 290 338
#     4  10  21  37  58  79 116 152 187 230 289 331
#     4  11  26  38  55  81 114 158 204 231 265 325
#     4  10  20  34  53  74 106 143 187 225 281 327
#
# _framework density 19.930762000000001
#
# number of rings (size 3 to 8) (size 9 to 14) (size 15 to 20)
#    0.000    1.750    2.500    2.625    8.750    0.000 
#    0.000    0.000    0.000    0.000    0.000    1.750 
#    0.000    0.125    0.000    0.000    0.000    0.000 
#
# Total GULP energy -89082.902019 kJ/mol
# GULP energy per Si atom -5567.681376 kJ/mol
# Density = 1.988540 g / cm^3
# Si number density = 19.930762 Si / 1000 Ang^3
#
#
#
# Elastic Constant Matrix: (Units=GPa)
#
#
# Indices 1 2 3 4 5 6 
#
# 1 98.4898 7.1587 16.7281 8.6817 3.2555 12.5501
# 2 7.1587 34.9660 18.3964 15.2124 5.1692 5.2176
# 3 16.7281 18.3964 99.5344 29.6691 -2.6539 6.0872
# 4 8.6817 15.2124 29.6691 27.3991 5.3811 3.8837
# 5 3.2555 5.1692 -2.6539 5.3811 32.6304 6.1960
# 6 12.5501 5.2176 6.0872 3.8837 6.1960 18.7558
#
#
#
# Elastic Compliance Matrix: (Units=1/GPa)
#
#
# Indices 1 2 3 4 5 6 
#
# 1 0.011351 -0.000149 -0.000982 -0.001530 0.000403 -0.007051
# 2 -0.000149 0.038627 -0.001179 -0.018924 -0.002000 -0.005684
# 3 -0.000982 -0.001179 0.015630 -0.016570 0.004709 -0.002212
# 4 -0.001530 -0.018924 -0.016570 0.067162 -0.009440 0.000878
# 5 0.000403 -0.002000 0.004709 -0.009440 0.034918 -0.010822
# 6 -0.007051 -0.005684 -0.002212 0.000878 -0.010822 0.063727
#
#
# Mechanical properties :
#
#
# Convention : Reuss Voigt Hill
#
# Bulk Modulus (GPa) = 16.39672 35.28405 25.84038
# Shear Modulus (GPa) = 19.50353 28.47085 23.98719
#
# Velocity S-wave (km/s) = 3.13159 3.78363 3.47295
# Velocity P-wave (km/s) = 4.61742 6.06874 5.39213
#
# Compressibility (1/GPa) = 0.06098782
#
# Stress axis : x y z
#
# Youngs Moduli (GPa) = 88.09749 25.88860 63.98046
#
# Poissons Ratio (x) = 0.00385 0.06284
# Poissons Ratio (y) = 0.01311 0.07544
# Poissons Ratio (z) = 0.08652 0.03053
#
# Static dielectric constant tensor:
#      x y z
#    x 1.812940 -0.047780 0.022680 
#    y -0.047780 1.800500 0.056190 
#    z 0.022680 0.056190 1.757960 
# 
# From -- ./inp_files/549865.got.cif
#   From: 2010.05.17/outbox.cif.g08.bks.cpg/sg2_275_cif.got.tgz:549865.got - 2010.06.03 11:33:40.
