data_PCOD9094953
_publ_section_title
;
Structure prediction by ZEFSAII (Michael W. Deem and Ramdas Pophale) SiO2 
 PCOD9094953
Probable space group: P -1
;
_chemical_formula_sum "Si O2"
_cell_formula_units_Z 15
_cell_length_a 8.459554
_cell_length_b 8.575525
_cell_length_c 14.319353
_cell_angle_alpha 103.818483
_cell_angle_beta 91.040063
_cell_angle_gamma 143.178551
_cell_volume 564.088125
_symmetry_space_group_name_H-M "P -1"
_symmetry_group_IT_number 2
_symmetry_cell_setting 'triclinic'
loop_
_space_group_symop_operation_xyz
x,y,z
-x,-y,-z
loop_
_atom_site_type_symbol
_atom_site_label
_atom_site_fract_x
_atom_site_fract_y
_atom_site_fract_z
Si Si1 0.724419 0.568031 0.845926
Si Si2 0.144272 0.468854 0.447489
Si Si3 0.744195 0.432327 0.212413
Si Si4 0.164222 0.467971 0.973676
Si Si5 0.298774 0.761876 0.317933
Si Si6 0.926767 0.004437 0.261785
Si Si7 0.500000 0.000000 0.000000
Si Si8 0.447077 0.247973 0.356755
O O1 0.860900 0.679802 0.966684
O O2 0.719971 0.377375 0.787006
O O3 0.914453 0.817642 0.807738
O O4 0.390084 0.322801 0.808183
O O5 0.363713 0.720593 0.407223
O O6 0.928002 0.170370 0.347140
O O7 0.324586 0.514853 0.528810
O O8 0.000000 0.500000 0.500000
O O9 0.561577 0.380669 0.273719
O O10 0.975969 0.546698 0.295982
O O11 0.899237 0.629423 0.147672
O O12 0.559149 0.137106 0.120393
O O13 0.481135 0.804019 0.020213
O O14 0.000000 0.500000 0.000000
O O15 0.441817 0.050458 0.340259
O O16 0.137219 0.064946 0.331146
#
# Coordination Sequence:
#
# PCOD9094953 Si02
#       8
#     2   2   2   2   2   2   1   2
#     4  11  24  46  71 105 139 183 244 289 342 422
#     4  11  23  44  74 105 133 179 248 297 344 413
#     4  10  22  36  66 101 135 173 233 283 362 395
#     4  10  20  34  66 102 132 173 233 297 346 394
#     4  11  23  40  73 103 135 177 244 298 345 408
#     4  11  29  46  71 101 150 195 223 287 366 429
#     4   8  20  32  60 100 126 166 224 286 342 386
#     4  12  25  46  65 100 148 186 229 289 366 430
#
# _framework density 26.591591000000001
#
# number of rings (size 3 to 8) (size 9 to 14) (size 15 to 20)
#    0.800    0.533    2.667    2.400    9.333    1.067 
#    0.000    5.333    0.000    0.000    0.000    0.000 
#    0.000    0.000    0.000    0.000    0.000    0.000 
#
# Total GULP energy -83553.682596 kJ/mol
# GULP energy per Si atom -5570.245506 kJ/mol
# Density = 2.653107 g / cm^3
# Si number density = 26.591591 Si / 1000 Ang^3
#
#
#
# Elastic Constant Matrix: (Units=GPa)
#
#
# Indices 1 2 3 4 5 6 
#
# 1 93.3296 10.0379 19.7145 -4.7450 12.5166 16.9747
# 2 10.0379 89.3774 46.2888 -20.0235 11.6226 9.8129
# 3 19.7145 46.2888 157.3468 -22.9704 0.1271 3.2978
# 4 -4.7450 -20.0235 -22.9704 27.3290 6.2591 6.5266
# 5 12.5166 11.6226 0.1271 6.2591 27.0419 0.0623
# 6 16.9747 9.8129 3.2978 6.5266 0.0623 39.7706
#
#
#
# Elastic Compliance Matrix: (Units=1/GPa)
#
#
# Indices 1 2 3 4 5 6 
#
# 1 0.013669 0.002789 -0.001312 0.007227 -0.009175 -0.007585
# 2 0.002789 0.018939 -0.003315 0.016585 -0.013235 -0.008290
# 3 -0.001312 -0.003315 0.008053 0.003840 0.001105 0.000078
# 4 0.007227 0.016585 0.003840 0.063229 -0.025085 -0.017832
# 5 -0.009175 -0.013235 0.001105 -0.025085 0.052690 0.011124
# 6 -0.007585 -0.008290 0.000078 -0.017832 0.011124 0.033330
#
#
# Mechanical properties :
#
#
# Convention : Reuss Voigt Hill
#
# Bulk Modulus (GPa) = 27.03751 54.68178 40.85965
# Shear Modulus (GPa) = 24.28190 36.42913 30.35551
#
# Velocity S-wave (km/s) = 3.02510 3.70530 3.38234
# Velocity P-wave (km/s) = 4.73196 6.23810 5.53648
#
# Compressibility (1/GPa) = 0.03698565
#
# Stress axis : x y z
#
# Youngs Moduli (GPa) = 73.15636 52.80085 124.17501
#
# Poissons Ratio (x) = -0.14727 0.16289
# Poissons Ratio (y) = -0.20405 0.41170
# Poissons Ratio (z) = 0.09596 0.17506
#
# Static dielectric constant tensor:
#      x y z
#    x 2.025170 -0.154110 -0.034530 
#    y -0.154110 1.636390 -0.313990 
#    z -0.034530 -0.313990 1.924610 
# 
# From -- ./inp_files/494935.got.cif
#   From: 2010.05.17/outbox.cif.g08.bks.cpg/sg2_248_cif.got.tgz:494935.got - 2010.06.03 11:33:40.
