data_PCOD9094182
_publ_section_title
;
Structure prediction by ZEFSAII (Michael W. Deem and Ramdas Pophale) SiO2 
 PCOD9094182
Probable space group: P -1
;
_chemical_formula_sum "Si O2"
_cell_formula_units_Z 16
_cell_length_a 7.501298
_cell_length_b 14.807733
_cell_length_c 14.925313
_cell_angle_alpha 28.553269
_cell_angle_beta 114.136887
_cell_angle_gamma 107.348865
_cell_volume 716.032688
_symmetry_space_group_name_H-M "P -1"
_symmetry_group_IT_number 2
_symmetry_cell_setting 'triclinic'
loop_
_space_group_symop_operation_xyz
x,y,z
-x,-y,-z
loop_
_atom_site_type_symbol
_atom_site_label
_atom_site_fract_x
_atom_site_fract_y
_atom_site_fract_z
Si Si1 0.621193 0.500580 0.931835
Si Si2 0.752674 0.467940 0.274181
Si Si3 0.696431 0.057148 0.943203
Si Si4 0.427489 0.573229 0.323639
Si Si5 0.562593 0.202109 0.592235
Si Si6 0.127226 0.765867 0.671717
Si Si7 0.694096 0.902627 0.517603
Si Si8 0.144143 0.337224 0.721779
O O1 0.469988 0.442730 0.877177
O O2 0.664376 0.709511 0.731466
O O3 0.500000 0.500000 0.000000
O O4 0.815145 0.354929 0.120429
O O5 0.726030 0.298267 0.486808
O O6 0.847613 0.371075 0.289026
O O7 0.873084 0.616783 0.216679
O O8 0.729920 0.242768 0.846390
O O9 0.641824 0.112946 0.780099
O O10 0.500000 0.000000 0.000000
O O11 0.863458 0.873960 0.132245
O O12 0.500000 0.500000 0.500000
O O13 0.396447 0.384590 0.426280
O O14 0.626522 0.636939 0.268541
O O15 0.469554 0.068652 0.619090
O O16 0.905396 0.866081 0.544037
O O17 0.281093 0.920556 0.566992
O O18 0.000000 0.500000 0.500000
#
# Coordination Sequence:
#
# PCOD9094182 Si02
#       8
#     2   2   2   2   2   2   2   2
#     4   9  19  36  59  83 114 154 196 239 285 352
#     4   9  20  36  53  81 113 152 194 236 296 347
#     4   9  18  33  57  84 106 151 200 237 296 359
#     4   8  16  34  54  75 106 145 188 232 285 344
#     4   9  18  34  57  82 112 151 197 245 285 360
#     4  10  21  37  57  86 123 155 192 247 299 354
#     4  10  21  36  59  87 119 155 195 245 301 347
#     4  10  20  34  55  80 115 144 188 250 291 348
#
# _framework density 22.345348999999999
#
# number of rings (size 3 to 8) (size 9 to 14) (size 15 to 20)
#    0.000    2.750    0.000    0.375    1.750    7.500 
#    2.250    5.625    2.750    0.000    0.000    0.000 
#    0.000    0.000    0.000    0.000    0.000    0.000 
#
# Total GULP energy -89166.488194 kJ/mol
# GULP energy per Si atom -5572.905512 kJ/mol
# Density = 2.229449 g / cm^3
# Si number density = 22.345349 Si / 1000 Ang^3
#
#
#
# Elastic Constant Matrix: (Units=GPa)
#
#
# Indices 1 2 3 4 5 6 
#
# 1 48.8878 27.2933 14.2066 0.7208 -4.3217 9.6657
# 2 27.2933 92.0117 20.0344 -15.4702 14.5192 -10.0187
# 3 14.2066 20.0344 93.4634 -5.0676 9.6398 -6.8268
# 4 0.7208 -15.4702 -5.0676 40.9916 -12.7939 -0.7370
# 5 -4.3217 14.5192 9.6398 -12.7939 36.5233 -5.6646
# 6 9.6657 -10.0187 -6.8268 -0.7370 -5.6646 26.4148
#
#
#
# Elastic Compliance Matrix: (Units=1/GPa)
#
#
# Indices 1 2 3 4 5 6 
#
# 1 0.032206 -0.011988 -0.004335 -0.004128 0.005741 -0.016336
# 2 -0.011988 0.017241 -0.000365 0.005369 -0.004750 0.009963
# 3 -0.004335 -0.000365 0.012042 0.000658 -0.002695 0.004000
# 4 -0.004128 0.005369 0.000658 0.029331 0.008463 0.006350
# 5 0.005741 -0.004750 -0.002695 0.008463 0.034080 0.002946
# 6 -0.016336 0.009963 0.004000 0.006350 0.002946 0.049457
#
#
# Mechanical properties :
#
#
# Convention : Reuss Voigt Hill
#
# Bulk Modulus (GPa) = 35.57002 39.71461 37.64231
# Shear Modulus (GPa) = 23.03062 32.30784 27.66923
#
# Velocity S-wave (km/s) = 3.21388 3.80655 3.52270
# Velocity P-wave (km/s) = 5.45206 6.09356 5.78171
#
# Compressibility (1/GPa) = 0.02811357
#
# Stress axis : x y z
#
# Youngs Moduli (GPa) = 31.05056 58.00268 83.04045
#
# Poissons Ratio (x) = 0.69533 0.35996
# Poissons Ratio (y) = 0.37223 0.03029
# Poissons Ratio (z) = 0.13460 0.02115
#
# Static dielectric constant tensor:
#      x y z
#    x 1.923950 0.004870 0.037570 
#    y 0.004870 1.892400 -0.056040 
#    z 0.037570 -0.056040 1.887970 
# 
# From -- ./inp_files/503715.got.cif
#   From: 2010.05.17/outbox.cif.g08.bks.cpg/sg2_252_cif.got.tgz:503715.got - 2010.06.03 11:33:40.
