data_PCOD9094702
_publ_section_title
;
Structure prediction by ZEFSAII (Michael W. Deem and Ramdas Pophale) SiO2 
 PCOD9094702
Probable space group: P -1
;
_chemical_formula_sum "Si O2"
_cell_formula_units_Z 16
_cell_length_a 8.600492
_cell_length_b 14.307704
_cell_length_c 10.628504
_cell_angle_alpha 138.734060
_cell_angle_beta 71.827876
_cell_angle_gamma 114.899828
_cell_volume 782.406594
_symmetry_space_group_name_H-M "P -1"
_symmetry_group_IT_number 2
_symmetry_cell_setting 'triclinic'
loop_
_space_group_symop_operation_xyz
x,y,z
-x,-y,-z
loop_
_atom_site_type_symbol
_atom_site_label
_atom_site_fract_x
_atom_site_fract_y
_atom_site_fract_z
Si Si1 0.515234 0.644983 0.055069
Si Si2 0.695601 0.643392 0.741908
Si Si3 0.855133 0.756976 0.444221
Si Si4 0.519750 0.671811 0.582549
Si Si5 0.694839 0.932093 0.467420
Si Si6 0.196393 0.725738 0.286343
Si Si7 0.989537 0.138081 0.219661
Si Si8 0.635971 0.160198 0.396797
O O1 0.624647 0.797377 0.250719
O O2 0.323167 0.663002 0.106636
O O3 0.500000 0.500000 0.000000
O O4 0.618537 0.637577 0.893975
O O5 0.633950 0.479415 0.532143
O O6 0.896496 0.719900 0.744667
O O7 0.597477 0.723702 0.751526
O O8 0.671431 0.652150 0.432719
O O9 0.813690 0.870032 0.468669
O O10 0.933560 0.842263 0.639103
O O11 0.989635 0.671618 0.278041
O O12 0.524221 0.943240 0.592871
O O13 0.448396 0.787197 0.646412
O O14 0.775145 0.097132 0.562566
O O15 0.268142 0.713369 0.396985
O O16 0.789067 0.107426 0.256594
O O17 0.000000 0.000000 0.000000
#
# Coordination Sequence:
#
# PCOD9094702 Si02
#       8
#     2   2   2   2   2   2   2   2
#     4  11  22  37  58  87 117 152 194 239 283 341
#     4  10  21  37  59  81 116 149 187 235 286 341
#     4   9  19  38  58  82 114 152 190 239 286 339
#     4   9  19  40  59  81 108 154 189 229 293 341
#     4  10  20  36  60  83 114 159 193 232 287 353
#     4  10  20  34  60  84 114 157 192 234 288 344
#     4  10  22  35  56  86 116 146 187 246 278 325
#     4   9  18  35  57  79 110 148 190 231 280 337
#
# _framework density 20.449725000000001
#
# number of rings (size 3 to 8) (size 9 to 14) (size 15 to 20)
#    0.000    2.250    0.000    4.125    5.250    0.500 
#    2.250    6.875    0.000    0.000    0.000    0.000 
#    0.000    0.000    0.000    0.000    0.000    0.000 
#
# Total GULP energy -89105.061254 kJ/mol
# GULP energy per Si atom -5569.066328 kJ/mol
# Density = 2.040318 g / cm^3
# Si number density = 20.449725 Si / 1000 Ang^3
#
#
#
# Elastic Constant Matrix: (Units=GPa)
#
#
# Indices 1 2 3 4 5 6 
#
# 1 78.4903 18.2159 13.3852 -14.2512 -15.9213 5.9947
# 2 18.2159 77.3967 19.1113 -12.5029 6.1736 -11.9083
# 3 13.3852 19.1113 49.3654 -13.9409 -12.2984 9.6938
# 4 -14.2512 -12.5029 -13.9409 31.5893 9.2091 4.2849
# 5 -15.9213 6.1736 -12.2984 9.2091 18.2544 -1.6073
# 6 5.9947 -11.9083 9.6938 4.2849 -1.6073 26.9682
#
#
#
# Elastic Compliance Matrix: (Units=1/GPa)
#
#
# Indices 1 2 3 4 5 6 
#
# 1 0.019455 -0.008922 0.006400 0.002998 0.021928 -0.009734
# 2 -0.008922 0.024258 -0.015671 0.004479 -0.027395 0.015983
# 3 0.006400 -0.015671 0.038774 0.007618 0.031257 -0.021627
# 4 0.002998 0.004479 0.007618 0.044385 -0.016995 -0.009492
# 5 0.021928 -0.027395 0.031257 -0.016995 0.111142 -0.018882
# 6 -0.009734 0.015983 -0.021627 -0.009492 -0.018882 0.054459
#
#
# Mechanical properties :
#
#
# Convention : Reuss Voigt Hill
#
# Bulk Modulus (GPa) = 21.69127 34.07525 27.88326
# Shear Modulus (GPa) = 14.52536 25.66505 20.09520
#
# Velocity S-wave (km/s) = 2.66803 3.54649 3.13815
# Velocity P-wave (km/s) = 4.48568 5.78526 5.17641
#
# Compressibility (1/GPa) = 0.04610149
#
# Stress axis : x y z
#
# Youngs Moduli (GPa) = 51.39969 41.22411 25.79056
#
# Poissons Ratio (x) = 0.36779 -0.16506
# Poissons Ratio (y) = 0.45858 0.40416
# Poissons Ratio (z) = -0.32895 0.64601
#
# Static dielectric constant tensor:
#      x y z
#    x 1.781450 0.003660 -0.016200 
#    y 0.003660 1.822940 -0.025930 
#    z -0.016200 -0.025930 1.725140 
# 
# From -- ./inp_files/397880.got.cif
#   From: 2010.05.17/outbox.cif.g08.bks.cpg/sg2_199_cif.got.tgz:397880.got - 2010.06.03 11:33:40.
