data_PCOD9094937
_publ_section_title
;
Structure prediction by ZEFSAII (Michael W. Deem and Ramdas Pophale) SiO2 
 PCOD9094937
Probable space group: P -1
;
_chemical_formula_sum "Si O2"
_cell_formula_units_Z 14
_cell_length_a 16.271852
_cell_length_b 10.487369
_cell_length_c 9.443387
_cell_angle_alpha 102.057276
_cell_angle_beta 77.663520
_cell_angle_gamma 34.743416
_cell_volume 648.939855
_symmetry_space_group_name_H-M "P -1"
_symmetry_group_IT_number 2
_symmetry_cell_setting 'triclinic'
loop_
_space_group_symop_operation_xyz
x,y,z
-x,-y,-z
loop_
_atom_site_type_symbol
_atom_site_label
_atom_site_fract_x
_atom_site_fract_y
_atom_site_fract_z
Si Si1 0.245423 0.607606 0.704539
Si Si2 0.146761 0.866536 0.521267
Si Si3 0.107590 0.546537 0.104284
Si Si4 0.639424 0.916693 0.863407
Si Si5 0.510341 0.899823 0.328909
Si Si6 0.090723 0.100259 0.996417
Si Si7 0.476835 0.633685 0.915204
O O1 0.249757 0.623260 0.539479
O O2 0.434734 0.314586 0.667174
O O3 0.161533 0.863671 0.847210
O O4 0.100708 0.686459 0.799873
O O5 0.336373 0.655732 0.321711
O O6 0.000000 0.000000 0.500000
O O7 0.005539 0.173503 0.715435
O O8 0.170543 0.361213 0.164561
O O9 0.962320 0.721301 0.065534
O O10 0.303905 0.316617 0.889841
O O11 0.662515 0.862179 0.672217
O O12 0.500000 0.000000 0.000000
O O13 0.528012 0.210704 0.992905
O O14 0.500000 0.000000 0.500000
O O15 0.266714 0.905640 0.980656
O O16 0.500000 0.500000 0.000000
#
# Coordination Sequence:
#
# PCOD9094937 Si02
#       7
#     2   2   2   2   2   2   2
#     4   9  19  36  63  92 130 173 222 271 324 404
#     4  11  22  37  67  96 129 175 225 274 333 399
#     4   9  21  39  61  92 132 169 215 278 322 396
#     4  10  22  42  66  97 134 171 226 273 332 400
#     4  10  20  34  64  97 129 170 222 273 327 391
#     4   9  19  40  62  93 132 173 217 276 339 386
#     4  12  25  41  69  99 135 177 224 282 336 403
#
# _framework density 21.573647000000001
#
# number of rings (size 3 to 8) (size 9 to 14) (size 15 to 20)
#    0.000    2.000    0.000    4.286    6.000    4.000 
#    0.000    0.714    6.286    0.000    0.000    0.000 
#    0.000    0.000    0.000    0.000    0.000    0.000 
#
# Total GULP energy -77934.660337 kJ/mol
# GULP energy per Si atom -5566.761453 kJ/mol
# Density = 2.152454 g / cm^3
# Si number density = 21.573647 Si / 1000 Ang^3
#
#
#
# Elastic Constant Matrix: (Units=GPa)
#
#
# Indices 1 2 3 4 5 6 
#
# 1 60.7340 27.7248 31.2461 -2.0980 0.3768 -2.7906
# 2 27.7248 209.7772 51.3552 -42.9367 -3.9488 3.9677
# 3 31.2461 51.3552 86.8496 -27.4483 17.6610 11.9504
# 4 -2.0980 -42.9367 -27.4483 35.4526 7.9619 6.8807
# 5 0.3768 -3.9488 17.6610 7.9619 14.9741 0.9380
# 6 -2.7906 3.9677 11.9504 6.8807 0.9380 34.3903
#
#
#
# Elastic Compliance Matrix: (Units=1/GPa)
#
#
# Indices 1 2 3 4 5 6 
#
# 1 -0.074384 0.011724 0.176586 0.240308 -0.324319 -0.107985
# 2 0.011724 0.004797 -0.028284 -0.029250 0.048958 0.014743
# 3 0.176586 -0.028284 -0.338052 -0.466111 0.621405 0.211372
# 4 0.240308 -0.029250 -0.466111 -0.596063 0.835299 0.281320
# 5 -0.324319 0.048958 0.621405 0.835299 -1.065015 -0.385975
# 6 -0.107985 0.014743 0.211372 0.281320 -0.385975 -0.100594
#
#
# Mechanical properties :
#
#
# Convention : Reuss Voigt Hill
#
# Bulk Modulus (GPa) = -11.41748 64.22366 26.40309
# Shear Modulus (GPa) = -1.98526 33.43238 15.72356
#
# Velocity S-wave (km/s) = -0.96032 3.94088 2.70262
# Velocity P-wave (km/s) = 2.55606 7.10925 4.69084
#
# Compressibility (1/GPa) = -0.08758503
#
# Stress axis : x y z
#
# Youngs Moduli (GPa) = -13.44366 208.45118 -2.95812
#
# Poissons Ratio (x) = -2.44398 0.52236
# Poissons Ratio (y) = 0.15762 -0.08367
# Poissons Ratio (z) = 2.37397 5.89573
#
# Static dielectric constant tensor:
#      x y z
#    x 1.863330 0.011570 0.060540 
#    y 0.011570 1.878160 -0.013210 
#    z 0.060540 -0.013210 1.768600 
# 
# From -- ./inp_files/209125.got.cif
#   From: 2010.05.17/outbox.cif.g08.bks.cpg/sg2_105_cif.got.tgz:209125.got - 2010.06.03 11:33:40.
