data_PCOD9094737
_publ_section_title
;
Structure prediction by ZEFSAII (Michael W. Deem and Ramdas Pophale) SiO2 
 PCOD9094737
Probable space group: P -1
;
_chemical_formula_sum "Si O2"
_cell_formula_units_Z 10
_cell_length_a 18.287741
_cell_length_b 7.143479
_cell_length_c 10.213439
_cell_angle_alpha 49.894595
_cell_angle_beta 25.170292
_cell_angle_gamma 55.325247
_cell_volume 433.631531
_symmetry_space_group_name_H-M "P -1"
_symmetry_group_IT_number 2
_symmetry_cell_setting 'triclinic'
loop_
_space_group_symop_operation_xyz
x,y,z
-x,-y,-z
loop_
_atom_site_type_symbol
_atom_site_label
_atom_site_fract_x
_atom_site_fract_y
_atom_site_fract_z
Si Si1 0.329303 0.117239 0.281848
Si Si2 0.833019 0.322335 0.351045
Si Si3 0.756616 0.067306 0.985508
Si Si4 0.143029 0.159210 0.319879
Si Si5 0.600449 0.740756 0.604652
O O1 0.197285 0.878457 0.623612
O O2 0.248322 0.266285 0.224990
O O3 0.363787 0.242323 0.306922
O O4 0.500000 0.000000 0.000000
O O5 0.848211 0.134081 0.531569
O O6 0.671120 0.488919 0.551879
O O7 0.000000 0.500000 0.000000
O O8 0.596631 0.216292 0.128883
O O9 0.707974 0.954778 0.256132
O O10 0.775449 0.835174 0.958647
O O11 0.942356 0.207316 0.625840
#
# Coordination Sequence:
#
# PCOD9094737 Si02
#       5
#     2   2   2   2   2
#     4  10  21  38  63  89 114 159 201 243 279 366
#     4  10  21  38  63  89 114 159 201 243 279 366
#     4  10  20  34  60  90 115 162 180 253 300 349
#     4   9  20  38  60  81 128 150 196 235 310 332
#     4  11  20  38  66  83 120 154 208 229 304 340
#
# _framework density 23.061052
#
# number of rings (size 3 to 8) (size 9 to 14) (size 15 to 20)
#    1.200    0.800    4.000    0.000    0.000    6.400 
#    0.000    4.000    8.800    4.800    0.000    0.000 
#    0.000    0.000    0.000    0.000    0.000    0.000 
#
# Total GULP energy -55785.788467 kJ/mol
# GULP energy per Si atom -5578.578847 kJ/mol
# Density = 2.300856 g / cm^3
# Si number density = 23.061052 Si / 1000 Ang^3
#
#
#
# Elastic Constant Matrix: (Units=GPa)
#
#
# Indices 1 2 3 4 5 6 
#
# 1 135.4382 0.3354 27.2610 16.1822 -3.7075 3.6864
# 2 0.3354 46.3551 8.6028 10.2215 -8.2062 2.0636
# 3 27.2610 8.6028 96.4503 18.7535 -9.5301 -7.8461
# 4 16.1822 10.2215 18.7535 36.5319 -10.1807 -9.1903
# 5 -3.7075 -8.2062 -9.5301 -10.1807 39.6495 4.2031
# 6 3.6864 2.0636 -7.8461 -9.1903 4.2031 18.7785
#
#
#
# Elastic Compliance Matrix: (Units=1/GPa)
#
#
# Indices 1 2 3 4 5 6 
#
# 1 0.008440 0.001484 -0.002072 -0.004294 0.000003 -0.004788
# 2 0.001484 0.024583 -0.001386 -0.007856 0.003752 -0.008256
# 3 -0.002072 -0.001386 0.012207 -0.003752 0.001111 0.003575
# 4 -0.004294 -0.007856 -0.003752 0.039464 0.005267 0.018274
# 5 0.000003 0.003752 0.001111 0.005267 0.028003 -0.003639
# 6 -0.004788 -0.008256 0.003575 0.018274 -0.003639 0.066351
#
#
# Mechanical properties :
#
#
# Convention : Reuss Voigt Hill
#
# Bulk Modulus (GPa) = 24.22297 38.96021 31.59159
# Shear Modulus (GPa) = 25.41205 35.12830 30.27017
#
# Velocity S-wave (km/s) = 3.32316 3.90715 3.62693
# Velocity P-wave (km/s) = 5.02505 6.10618 5.59181
#
# Compressibility (1/GPa) = 0.04128313
#
# Stress axis : x y z
#
# Youngs Moduli (GPa) = 118.47928 40.67863 81.91710
#
# Poissons Ratio (x) = -0.06037 0.16975
# Poissons Ratio (y) = -0.17583 0.11350
# Poissons Ratio (z) = 0.24552 0.05636
#
# Static dielectric constant tensor:
#      x y z
#    x 1.914520 0.031350 -0.015140 
#    y 0.031350 1.860400 -0.026390 
#    z -0.015140 -0.026390 1.916960 
# 
# From -- ./inp_files/20332.got.cif
#   From: 2010.05.17/outbox.cif.g08.bks.cpg/sg2_11_cif.got.tgz:20332.got - 2010.06.03 11:33:40.
