data_PCOD9094352
_publ_section_title
;
Structure prediction by ZEFSAII (Michael W. Deem and Ramdas Pophale) SiO2 
 PCOD9094352
Probable space group: P -1
;
_chemical_formula_sum "Si O2"
_cell_formula_units_Z 14
_cell_length_a 14.237678
_cell_length_b 7.639600
_cell_length_c 12.233972
_cell_angle_alpha 58.311534
_cell_angle_beta 29.440103
_cell_angle_gamma 58.709788
_cell_volume 550.414199
_symmetry_space_group_name_H-M "P -1"
_symmetry_group_IT_number 2
_symmetry_cell_setting 'triclinic'
loop_
_space_group_symop_operation_xyz
x,y,z
-x,-y,-z
loop_
_atom_site_type_symbol
_atom_site_label
_atom_site_fract_x
_atom_site_fract_y
_atom_site_fract_z
Si Si1 0.709858 0.218550 0.050990
Si Si2 0.493338 0.819918 0.938433
Si Si3 0.797082 0.037559 0.630500
Si Si4 0.986832 0.254304 0.932388
Si Si5 0.575030 0.688646 0.509287
Si Si6 0.398447 0.282138 0.784705
Si Si7 0.005317 0.194584 0.172566
O O1 0.561369 0.171886 0.311978
O O2 0.577577 0.302890 0.053418
O O3 0.857614 0.332909 0.933320
O O4 0.855288 0.022026 0.922966
O O5 0.461111 0.060793 0.849848
O O6 0.710914 0.822257 0.760865
O O7 0.349574 0.823176 0.184703
O O8 0.000000 0.000000 0.500000
O O9 0.847212 0.148484 0.432384
O O10 0.201209 0.312586 0.688992
O O11 0.917978 0.289121 0.116835
O O12 0.000000 0.000000 0.000000
O O13 0.500103 0.466749 0.667834
O O14 0.554724 0.739012 0.384977
O O15 0.164489 0.323662 0.016986
#
# Coordination Sequence:
#
# PCOD9094352 Si02
#       7
#     2   2   2   2   2   2   2
#     4  10  20  34  56  87 109 147 184 227 280 333
#     4  10  23  35  62  86 106 149 193 228 293 316
#     4  11  20  38  58  87 109 141 193 252 265 325
#     4   9  20  33  51  88 113 145 183 223 281 334
#     4  10  21  35  55  80 129 148 177 226 275 344
#     4   9  19  39  52  84 117 157 180 219 285 339
#     4   9  19  35  58  81 112 144 192 234 274 324
#
# _framework density 25.435389000000001
#
# number of rings (size 3 to 8) (size 9 to 14) (size 15 to 20)
#    0.000    2.286    2.857    0.857    6.000    8.000 
#    2.571    2.143    0.000    6.857    0.000    0.000 
#    0.000    0.000    0.000    0.000    0.000    0.000 
#
# Total GULP energy -78224.592991 kJ/mol
# GULP energy per Si atom -5587.470928 kJ/mol
# Density = 2.537750 g / cm^3
# Si number density = 25.435389 Si / 1000 Ang^3
#
#
#
# Elastic Constant Matrix: (Units=GPa)
#
#
# Indices 1 2 3 4 5 6 
#
# 1 147.4793 31.3761 60.8651 0.1974 -23.4680 38.1907
# 2 31.3761 74.3384 35.6559 -2.5718 -1.4409 28.4294
# 3 60.8651 35.6559 203.1141 11.7775 -8.3037 23.7997
# 4 0.1974 -2.5718 11.7775 32.5183 15.3537 -6.3667
# 5 -23.4680 -1.4409 -8.3037 15.3537 51.1333 -14.4283
# 6 38.1907 28.4294 23.7997 -6.3667 -14.4283 46.6432
#
#
#
# Elastic Compliance Matrix: (Units=1/GPa)
#
#
# Indices 1 2 3 4 5 6 
#
# 1 0.009740 -0.001072 -0.001811 -0.002100 0.003167 -0.005705
# 2 -0.001072 0.018901 -0.002038 0.002002 -0.003861 -0.010524
# 3 -0.001811 -0.002038 0.006081 -0.002833 0.000804 -0.000516
# 4 -0.002100 0.002002 -0.002833 0.038234 -0.011862 0.003495
# 5 0.003167 -0.003861 0.000804 -0.011862 0.026244 0.005849
# 6 -0.005705 -0.010524 -0.000516 0.003495 0.005849 0.035074
#
#
# Mechanical properties :
#
#
# Convention : Reuss Voigt Hill
#
# Bulk Modulus (GPa) = 40.19067 75.63622 57.91345
# Shear Modulus (GPa) = 32.80633 45.86127 39.33380
#
# Velocity S-wave (km/s) = 3.59526 4.25084 3.93672
# Velocity P-wave (km/s) = 5.75065 7.34125 6.59409
#
# Compressibility (1/GPa) = 0.02488140
#
# Stress axis : x y z
#
# Youngs Moduli (GPa) = 102.66907 52.90770 164.43752
#
# Poissons Ratio (x) = 0.05672 0.29776
# Poissons Ratio (y) = 0.11007 0.33504
# Poissons Ratio (z) = 0.18591 0.10780
#
# Static dielectric constant tensor:
#      x y z
#    x 2.164510 -0.024600 -0.082740 
#    y -0.024600 2.174430 0.001240 
#    z -0.082740 0.001240 1.969260 
# 
# From -- ./inp_files/447309.got.cif
#   From: 2010.05.17/outbox.cif.g08.bks.cpg/sg2_224_cif.got.tgz:447309.got - 2010.06.03 11:33:40.
