data_PCOD9094930
_publ_section_title
;
Structure prediction by ZEFSAII (Michael W. Deem and Ramdas Pophale) SiO2 
 PCOD9094930
Probable space group: P -1
;
_chemical_formula_sum "Si O2"
_cell_formula_units_Z 15
_cell_length_a 5.100127
_cell_length_b 13.578773
_cell_length_c 22.028572
_cell_angle_alpha 151.889576
_cell_angle_beta 99.082459
_cell_angle_gamma 94.267101
_cell_volume 630.533781
_symmetry_space_group_name_H-M "P -1"
_symmetry_group_IT_number 2
_symmetry_cell_setting 'triclinic'
loop_
_space_group_symop_operation_xyz
x,y,z
-x,-y,-z
loop_
_atom_site_type_symbol
_atom_site_label
_atom_site_fract_x
_atom_site_fract_y
_atom_site_fract_z
Si Si1 0.583867 0.108414 0.627763
Si Si2 0.415537 0.936061 0.828814
Si Si3 0.507404 0.327647 0.531249
Si Si4 0.000000 0.500000 0.000000
Si Si5 0.082315 0.766227 0.599224
Si Si6 0.664207 0.776107 0.213200
Si Si7 0.092860 0.171961 0.154304
Si Si8 0.868734 0.421592 0.066861
O O1 0.323122 0.145317 0.673546
O O2 0.868973 0.368311 0.773450
O O3 0.500000 0.000000 0.500000
O O4 0.620649 0.911280 0.563157
O O5 0.206002 0.797732 0.688953
O O6 0.695996 0.887073 0.825516
O O7 0.204216 0.870482 0.843806
O O8 0.587362 0.219719 0.978608
O O9 0.726219 0.313033 0.480529
O O10 0.705285 0.552341 0.702598
O O11 0.260707 0.369499 0.507688
O O12 0.322085 0.697583 0.144354
O O13 0.992750 0.323053 0.964379
O O14 0.158678 0.024372 0.718673
O O15 0.767459 0.574079 0.099074
O O16 0.000000 0.000000 0.000000
#
# Coordination Sequence:
#
# PCOD9094930 Si02
#       8
#     2   2   2   1   2   2   2   2
#     4  10  24  42  66 101 135 188 232 277 345 419
#     4  12  28  44  77 108 140 187 241 293 346 429
#     4  11  25  48  74  99 146 186 231 301 350 412
#     4  10  20  34  64  92 148 178 208 276 354 414
#     4  11  23  44  73 111 137 178 235 294 367 408
#     4  10  21  37  60 101 141 178 214 279 358 405
#     4  12  30  53  71 101 140 194 241 289 353 414
#     4  11  23  38  67 104 141 177 226 282 352 414
#
# _framework density 23.789369000000001
#
# number of rings (size 3 to 8) (size 9 to 14) (size 15 to 20)
#    0.000    1.067    2.667    2.400    5.600    3.733 
#    2.400    0.000    0.000    0.000    0.000    0.000 
#    0.000    0.000    0.000    0.000    0.000    0.000 
#
# Total GULP energy -83621.815921 kJ/mol
# GULP energy per Si atom -5574.787728 kJ/mol
# Density = 2.373522 g / cm^3
# Si number density = 23.789369 Si / 1000 Ang^3
#
#
#
# Elastic Constant Matrix: (Units=GPa)
#
#
# Indices 1 2 3 4 5 6 
#
# 1 77.6312 14.9825 32.9866 -4.8754 9.3802 -4.8919
# 2 14.9825 56.4701 20.6128 -8.7127 -3.5010 1.9652
# 3 32.9866 20.6128 87.2837 -19.4519 11.3751 18.4298
# 4 -4.8754 -8.7127 -19.4519 54.1087 10.1776 -6.9482
# 5 9.3802 -3.5010 11.3751 10.1776 31.2876 -1.4062
# 6 -4.8919 1.9652 18.4298 -6.9482 -1.4062 24.7720
#
#
#
# Elastic Compliance Matrix: (Units=1/GPa)
#
#
# Indices 1 2 3 4 5 6 
#
# 1 0.017455 -0.002276 -0.007699 0.000056 -0.002291 0.009241
# 2 -0.002276 0.020393 -0.004799 0.000750 0.004553 0.001972
# 3 -0.007699 -0.004799 0.021227 0.005738 -0.008523 -0.015807
# 4 0.000056 0.000750 0.005738 0.022613 -0.009308 0.001497
# 5 -0.002291 0.004553 -0.008523 -0.009308 0.039516 0.005160
# 6 0.009241 0.001972 -0.015807 0.001497 0.005160 0.054509
#
#
# Mechanical properties :
#
#
# Convention : Reuss Voigt Hill
#
# Bulk Modulus (GPa) = 33.86617 39.83876 36.85247
# Shear Modulus (GPa) = 23.24462 32.22053 27.73257
#
# Velocity S-wave (km/s) = 3.12925 3.68422 3.41802
# Velocity P-wave (km/s) = 5.22714 5.90600 5.57691
#
# Compressibility (1/GPa) = 0.02952799
#
# Stress axis : x y z
#
# Youngs Moduli (GPa) = 57.29030 49.03578 47.10988
#
# Poissons Ratio (x) = 0.11159 0.36272
# Poissons Ratio (y) = 0.13037 0.22606
# Poissons Ratio (z) = 0.44110 0.23530
#
# Static dielectric constant tensor:
#      x y z
#    x 1.660710 -0.165820 0.168130 
#    y -0.165820 1.871610 0.139320 
#    z 0.168130 0.139320 1.894410 
# 
# From -- ./inp_files/604590.got.cif
#   From: 2010.05.17/outbox.cif.g08.bks.cpg/sg2_303_cif.got.tgz:604590.got - 2010.06.03 11:33:40.
