data_PCOD9094117
_publ_section_title
;
Structure prediction by ZEFSAII (Michael W. Deem and Ramdas Pophale) SiO2 
 PCOD9094117
Probable space group: P -1
;
_chemical_formula_sum "Si O2"
_cell_formula_units_Z 16
_cell_length_a 19.176570
_cell_length_b 11.091752
_cell_length_c 14.600565
_cell_angle_alpha 152.288794
_cell_angle_beta 145.999595
_cell_angle_gamma 47.373836
_cell_volume 788.104109
_symmetry_space_group_name_H-M "P -1"
_symmetry_group_IT_number 2
_symmetry_cell_setting 'triclinic'
loop_
_space_group_symop_operation_xyz
x,y,z
-x,-y,-z
loop_
_atom_site_type_symbol
_atom_site_label
_atom_site_fract_x
_atom_site_fract_y
_atom_site_fract_z
Si Si1 0.718972 0.113653 0.568151
Si Si2 0.469321 0.863499 0.473050
Si Si3 0.828310 0.414505 0.651245
Si Si4 0.169497 0.829334 0.707167
Si Si5 0.045303 0.909073 0.287736
Si Si6 0.652963 0.581392 0.706896
Si Si7 0.561064 0.605710 0.991111
Si Si8 0.658536 0.323172 0.071121
O O1 0.656765 0.080981 0.578693
O O2 0.852280 0.031304 0.642452
O O3 0.718824 0.412197 0.737404
O O4 0.620173 0.916512 0.261774
O O5 0.500000 0.000000 0.500000
O O6 0.452993 0.554368 0.225733
O O7 0.584422 0.018637 0.765024
O O8 0.827705 0.339668 0.494764
O O9 0.873143 0.187316 0.607039
O O10 0.696439 0.473731 0.585298
O O11 0.934906 0.672891 0.969485
O O12 0.210666 0.685081 0.743961
O O13 0.030864 0.886563 0.615267
O O14 0.274970 0.109388 0.997806
O O15 0.500000 0.500000 0.500000
O O16 0.651514 0.483371 0.077743
O O17 0.427880 0.566226 0.873778
#
# Coordination Sequence:
#
# PCOD9094117 Si02
#       8
#     2   2   2   2   2   2   2   2
#     4  10  20  34  54  80 107 138 179 221 264 318
#     4   9  18  34  57  79 103 139 177 217 267 316
#     4   9  20  37  56  76 106 149 182 210 262 319
#     4  11  21  35  57  79 108 146 179 216 263 313
#     4   9  20  37  52  76 110 141 182 223 254 311
#     4  10  21  35  51  82 117 135 167 222 268 318
#     4   9  18  34  55  76 105 139 173 218 269 316
#     4   9  19  34  53  81 106 134 179 220 260 316
#
# _framework density 20.301886
#
# number of rings (size 3 to 8) (size 9 to 14) (size 15 to 20)
#    0.000    2.500    0.000    3.375    0.000    6.500 
#    0.000    0.625    0.000    3.750    0.000    0.000 
#    0.000    0.000    0.000    0.000    0.000    0.000 
#
# Total GULP energy -89168.184638 kJ/mol
# GULP energy per Si atom -5573.011540 kJ/mol
# Density = 2.025568 g / cm^3
# Si number density = 20.301886 Si / 1000 Ang^3
#
#
#
# Elastic Constant Matrix: (Units=GPa)
#
#
# Indices 1 2 3 4 5 6 
#
# 1 128.6827 4.9388 22.7857 -14.7504 -9.6970 -23.3579
# 2 4.9388 42.3741 6.7386 -8.6833 -4.6121 -5.0423
# 3 22.7857 6.7386 27.7847 -3.1823 -15.7150 -4.6467
# 4 -14.7504 -8.6833 -3.1823 25.9048 -4.3645 5.6363
# 5 -9.6970 -4.6121 -15.7150 -4.3645 38.4679 2.4568
# 6 -23.3579 -5.0423 -4.6467 5.6363 2.4568 24.8854
#
#
#
# Elastic Compliance Matrix: (Units=1/GPa)
#
#
# Indices 1 2 3 4 5 6 
#
# 1 0.011044 0.001747 -0.007757 0.004057 -0.000250 0.008378
# 2 0.001747 0.026723 -0.004877 0.008915 0.002415 0.003887
# 3 -0.007757 -0.004877 0.055630 0.004485 0.020755 -0.000946
# 4 0.004057 0.008915 0.004485 0.047200 0.009610 -0.005188
# 5 -0.000250 0.002415 0.020755 0.009610 0.035893 -0.001590
# 6 0.008378 0.003887 -0.000946 -0.005188 -0.001590 0.049991
#
#
# Mechanical properties :
#
#
# Convention : Reuss Voigt Hill
#
# Bulk Modulus (GPa) = 13.96170 29.75199 21.85685
# Shear Modulus (GPa) = 18.37367 28.81019 23.59193
#
# Velocity S-wave (km/s) = 3.01162 3.77117 3.41259
# Velocity P-wave (km/s) = 4.35719 5.80077 5.13001
#
# Compressibility (1/GPa) = 0.07162452
#
# Stress axis : x y z
#
# Youngs Moduli (GPa) = 90.54403 37.42040 17.97603
#
# Poissons Ratio (x) = -0.06538 0.13944
# Poissons Ratio (y) = -0.15820 0.08767
# Poissons Ratio (z) = 0.70233 0.18250
#
# Static dielectric constant tensor:
#      x y z
#    x 1.738900 0.001770 0.022750 
#    y 0.001770 1.780890 0.042060 
#    z 0.022750 0.042060 1.742430 
# 
# From -- ./inp_files/455142.got.cif
#   From: 2010.05.17/outbox.cif.g08.bks.cpg/sg2_228_cif.got.tgz:455142.got - 2010.06.03 11:33:40.
