data_PCOD9094643
_publ_section_title
;
Structure prediction by ZEFSAII (Michael W. Deem and Ramdas Pophale) SiO2 
 PCOD9094643
Probable space group: P -1
;
_chemical_formula_sum "Si O2"
_cell_formula_units_Z 16
_cell_length_a 11.517950
_cell_length_b 12.330734
_cell_length_c 9.267974
_cell_angle_alpha 86.060438
_cell_angle_beta 60.623375
_cell_angle_gamma 47.094489
_cell_volume 764.185637
_symmetry_space_group_name_H-M "P -1"
_symmetry_group_IT_number 2
_symmetry_cell_setting 'triclinic'
loop_
_space_group_symop_operation_xyz
x,y,z
-x,-y,-z
loop_
_atom_site_type_symbol
_atom_site_label
_atom_site_fract_x
_atom_site_fract_y
_atom_site_fract_z
Si Si1 0.289006 0.288295 0.222670
Si Si2 0.470849 0.811449 0.173400
Si Si3 0.916643 0.367019 0.384321
Si Si4 0.878603 0.883908 0.472987
Si Si5 0.817186 0.551267 0.182267
Si Si6 0.324776 0.181448 0.525945
Si Si7 0.409476 0.446646 0.221480
Si Si8 0.760931 0.230599 0.847898
O O1 0.372466 0.197453 0.334240
O O2 0.308107 0.406897 0.202871
O O3 0.066353 0.376034 0.334418
O O4 0.420628 0.178190 0.012216
O O5 0.643269 0.640421 0.164974
O O6 0.318050 0.825554 0.183990
O O7 0.342302 0.949822 0.359867
O O8 0.896344 0.393685 0.224141
O O9 0.689909 0.506050 0.567114
O O10 0.016521 0.209554 0.429054
O O11 0.860173 0.787646 0.395264
O O12 0.004693 0.895500 0.306807
O O13 0.734402 0.685001 0.343280
O O14 0.000000 0.500000 0.000000
O O15 0.500000 0.000000 0.500000
O O16 0.330481 0.606553 0.187916
O O17 0.646251 0.295576 0.065081
#
# Coordination Sequence:
#
# PCOD9094643 Si02
#       8
#     2   2   2   2   2   2   2   2
#     4  10  20  34  63  85 119 157 202 243 307 367
#     4  11  22  39  59  90 125 164 199 254 301 361
#     4  10  20  34  59  88 116 156 199 248 303 358
#     4  10  22  38  62  86 122 165 206 245 296 373
#     4  12  24  37  59  93 130 152 197 258 312 355
#     4  11  23  39  62  90 123 160 195 253 319 364
#     4   9  17  33  56  86 111 149 203 254 284 349
#     4   9  20  34  60  86 116 159 213 242 292 354
#
# _framework density 20.93732
#
# number of rings (size 3 to 8) (size 9 to 14) (size 15 to 20)
#    0.000    1.750    3.750    0.750    3.500    4.000 
#    0.000    2.500    0.000    8.250    0.000    0.000 
#    0.000    0.000    0.000    0.000    0.000    0.000 
#
# Total GULP energy -89118.465658 kJ/mol
# GULP energy per Si atom -5569.904104 kJ/mol
# Density = 2.088967 g / cm^3
# Si number density = 20.937320 Si / 1000 Ang^3
#
#
#
# Elastic Constant Matrix: (Units=GPa)
#
#
# Indices 1 2 3 4 5 6 
#
# 1 35.4100 -0.3190 15.8450 -5.1671 -6.9098 2.2032
# 2 -0.3190 69.9277 18.6222 -8.7146 2.5462 -14.9896
# 3 15.8450 18.6222 130.6251 -5.6636 -26.0288 -11.9630
# 4 -5.1671 -8.7146 -5.6636 21.6054 1.5558 3.3889
# 5 -6.9098 2.5462 -26.0288 1.5558 18.4301 -3.9919
# 6 2.2032 -14.9896 -11.9630 3.3889 -3.9919 24.6734
#
#
#
# Elastic Compliance Matrix: (Units=1/GPa)
#
#
# Indices 1 2 3 4 5 6 
#
# 1 0.032054 0.000751 -0.002662 0.007352 0.006750 -0.003615
# 2 0.000751 0.017529 -0.002514 0.005680 -0.004468 0.007860
# 3 -0.002662 -0.002514 0.012936 -0.000960 0.019491 0.008268
# 4 0.007352 0.005680 -0.000960 0.051300 -0.004909 -0.005512
# 5 0.006750 -0.004468 0.019491 -0.004909 0.089976 0.021364
# 6 -0.003615 0.007860 0.008268 -0.005512 0.021364 0.053850
#
#
# Mechanical properties :
#
#
# Convention : Reuss Voigt Hill
#
# Bulk Modulus (GPa) = 18.63341 33.80659 26.22000
# Shear Modulus (GPa) = 17.58182 26.39609 21.98896
#
# Velocity S-wave (km/s) = 2.90096 3.55451 3.24424
# Velocity P-wave (km/s) = 4.48773 5.74697 5.15594
#
# Compressibility (1/GPa) = 0.05366704
#
# Stress axis : x y z
#
# Youngs Moduli (GPa) = 31.19776 57.04880 77.30228
#
# Poissons Ratio (x) = -0.04283 0.20581
# Poissons Ratio (y) = -0.02342 0.19435
# Poissons Ratio (z) = 0.08306 0.14343
#
# Static dielectric constant tensor:
#      x y z
#    x 1.751780 0.018090 0.015780 
#    y 0.018090 1.780060 0.040740 
#    z 0.015780 0.040740 1.835090 
# 
# From -- ./inp_files/225379.got.cif
#   From: 2010.05.17/outbox.cif.g08.bks.cpg/sg2_113_cif.got.tgz:225379.got - 2010.06.03 11:33:40.
