data_PCOD9094977
_publ_section_title
;
Structure prediction by ZEFSAII (Michael W. Deem and Ramdas Pophale) SiO2 
 PCOD9094977
Probable space group: P -1
;
_chemical_formula_sum "Si O2"
_cell_formula_units_Z 13
_cell_length_a 9.082949
_cell_length_b 5.369044
_cell_length_c 18.846835
_cell_angle_alpha 53.775167
_cell_angle_beta 128.002812
_cell_angle_gamma 96.175647
_cell_volume 534.656716
_symmetry_space_group_name_H-M "P -1"
_symmetry_group_IT_number 2
_symmetry_cell_setting 'triclinic'
loop_
_space_group_symop_operation_xyz
x,y,z
-x,-y,-z
loop_
_atom_site_type_symbol
_atom_site_label
_atom_site_fract_x
_atom_site_fract_y
_atom_site_fract_z
Si Si1 0.933861 0.806026 0.872487
Si Si2 0.143553 0.605178 0.739128
Si Si3 0.329238 0.106457 0.752138
Si Si4 0.526472 0.153683 0.658562
Si Si5 0.312193 0.293061 0.431770
Si Si6 0.000000 0.000000 0.000000
Si Si7 0.712064 0.680471 0.023695
O O1 0.119995 0.684153 0.893502
O O2 0.909535 0.091701 0.873911
O O3 0.726415 0.802700 0.779423
O O4 0.000000 0.500000 0.000000
O O5 0.221801 0.419775 0.719170
O O6 0.272744 0.351549 0.882296
O O7 0.905680 0.680456 0.661837
O O8 0.181225 0.943495 0.703581
O O9 0.435025 0.207610 0.700474
O O10 0.496412 0.806189 0.899272
O O11 0.350229 0.212868 0.539997
O O12 0.647860 0.376403 0.630033
O O13 0.500000 0.000000 0.500000
O O14 0.797621 0.950396 0.975235
#
# Coordination Sequence:
#
# PCOD9094977 Si02
#       7
#     2   2   2   2   2   1   2
#     4  10  20  38  71 112 141 186 249 312 367 443
#     4  12  30  48  75 111 159 202 254 308 392 456
#     4  12  29  48  75 115 159 204 241 320 389 466
#     4  11  25  48  79 111 147 199 267 311 382 451
#     4  11  28  51  81 104 145 205 264 329 363 451
#     4  10  20  34  70 104 142 194 250 306 354 436
#     4  11  24  42  72 110 158 197 251 305 387 450
#
# _framework density 24.314667
#
# number of rings (size 3 to 8) (size 9 to 14) (size 15 to 20)
#    0.000    0.923    3.077    2.769   12.923    2.462 
#    0.000    0.000    0.000    0.000    0.000    0.000 
#    0.000    0.000    0.000    0.000    0.000    0.000 
#
# Total GULP energy -72402.555341 kJ/mol
# GULP energy per Si atom -5569.427334 kJ/mol
# Density = 2.425933 g / cm^3
# Si number density = 24.314667 Si / 1000 Ang^3
#
#
#
# Elastic Constant Matrix: (Units=GPa)
#
#
# Indices 1 2 3 4 5 6 
#
# 1 106.1569 42.6304 40.2889 19.3863 6.5415 -12.7241
# 2 42.6304 87.8559 25.2035 27.9606 0.5270 -12.0605
# 3 40.2889 25.2035 119.6818 34.5613 0.8592 3.8783
# 4 19.3863 27.9606 34.5613 26.6492 4.4896 5.3904
# 5 6.5415 0.5270 0.8592 4.4896 38.7529 15.8997
# 6 -12.7241 -12.0605 3.8783 5.3904 15.8997 47.3240
#
#
#
# Elastic Compliance Matrix: (Units=1/GPa)
#
#
# Indices 1 2 3 4 5 6 
#
# 1 0.013468 -0.004866 -0.003526 -0.000293 -0.003717 0.003952
# 2 -0.004866 0.021881 0.004547 -0.026799 0.000785 0.006684
# 3 -0.003526 0.004547 0.014937 -0.022132 0.002491 0.000671
# 4 -0.000293 -0.026799 -0.022132 0.098296 -0.004407 -0.014811
# 5 -0.003717 0.000785 0.002491 -0.004407 0.031412 -0.011055
# 6 0.003952 0.006684 0.000671 -0.014811 -0.011055 0.029243
#
#
# Mechanical properties :
#
#
# Convention : Reuss Voigt Hill
#
# Bulk Modulus (GPa) = 23.47652 58.88226 41.17939
# Shear Modulus (GPa) = 21.63320 36.25000 28.94160
#
# Velocity S-wave (km/s) = 2.98605 3.86537 3.45381
# Velocity P-wave (km/s) = 4.64380 6.64761 5.73392
#
# Compressibility (1/GPa) = 0.04259576
#
# Stress axis : x y z
#
# Youngs Moduli (GPa) = 74.24744 45.70249 66.94990
#
# Poissons Ratio (x) = 0.22237 0.23607
# Poissons Ratio (y) = 0.36126 -0.30441
# Poissons Ratio (z) = 0.26180 -0.20780
#
# Static dielectric constant tensor:
#      x y z
#    x 1.966110 0.085230 -0.006680 
#    y 0.085230 -8.764280 10.555250 
#    z -0.006680 10.555250 -8.154880 
# 
# From -- ./inp_files/23434.got.cif
#   From: 2010.05.17/outbox.cif.g08.bks.cpg/sg2_12_cif.got.tgz:23434.got - 2010.06.03 11:33:40.
