data_PCOD9094498
_publ_section_title
;
Structure prediction by ZEFSAII (Michael W. Deem and Ramdas Pophale) SiO2 
 PCOD9094498
Probable space group: P -1
;
_chemical_formula_sum "Si O2"
_cell_formula_units_Z 16
_cell_length_a 9.293521
_cell_length_b 21.987959
_cell_length_c 7.702921
_cell_angle_alpha 81.908330
_cell_angle_beta 101.222100
_cell_angle_gamma 153.742385
_cell_volume 680.989005
_symmetry_space_group_name_H-M "P -1"
_symmetry_group_IT_number 2
_symmetry_cell_setting 'triclinic'
loop_
_space_group_symop_operation_xyz
x,y,z
-x,-y,-z
loop_
_atom_site_type_symbol
_atom_site_label
_atom_site_fract_x
_atom_site_fract_y
_atom_site_fract_z
Si Si1 0.541831 0.219545 0.423864
Si Si2 0.352406 0.686067 0.064347
Si Si3 0.101125 0.066222 0.701585
Si Si4 0.779236 0.710543 0.733239
Si Si5 0.821137 0.446966 0.262053
Si Si6 0.769830 0.234260 0.156520
Si Si7 0.866853 0.112906 0.584607
Si Si8 0.792406 0.066497 0.975455
O O1 0.394696 0.153659 0.607791
O O2 0.744875 0.358486 0.394795
O O3 0.729752 0.237933 0.349442
O O4 0.191431 0.091592 0.289753
O O5 0.723132 0.845277 0.120734
O O6 0.195025 0.600582 0.236905
O O7 0.318022 0.623858 0.931821
O O8 0.169502 0.679243 0.962700
O O9 0.931513 0.064559 0.586543
O O10 0.390459 0.575122 0.712891
O O11 0.942148 0.707015 0.825110
O O12 0.889792 0.763046 0.540633
O O13 0.948859 0.825920 0.851371
O O14 0.423176 0.074988 0.070324
O O15 0.922243 0.141546 0.791649
O O16 0.500000 0.000000 0.500000
O O17 0.500000 0.000000 0.000000
#
# Coordination Sequence:
#
# PCOD9094498 Si02
#       8
#     2   2   2   2   2   2   2   2
#     4  10  21  37  59  91 121 159 203 254 320 361
#     4  10  24  41  62  89 126 166 217 253 311 383
#     4  11  22  37  62  95 120 166 203 262 317 373
#     4  11  22  39  64  92 127 167 208 260 321 368
#     4  10  22  41  63  89 121 171 209 261 312 372
#     4  10  21  38  58  90 122 165 202 263 305 376
#     4  12  20  37  60  96 128 159 204 261 313 380
#     4  10  20  34  57  94 124 163 192 254 321 365
#
# _framework density 23.495238000000001
#
# number of rings (size 3 to 8) (size 9 to 14) (size 15 to 20)
#    0.000    1.500    5.000    0.750    1.750    2.000 
#    4.500    0.000    0.000    0.750    0.000    0.000 
#    0.000    0.000    0.000    0.000    0.000    0.000 
#
# Total GULP energy -89278.827852 kJ/mol
# GULP energy per Si atom -5579.926741 kJ/mol
# Density = 2.344176 g / cm^3
# Si number density = 23.495238 Si / 1000 Ang^3
#
#
#
# Elastic Constant Matrix: (Units=GPa)
#
#
# Indices 1 2 3 4 5 6 
#
# 1 124.4638 -0.1564 5.6289 -9.0285 -0.8376 -1.1122
# 2 -0.1564 28.7806 2.4479 -10.9750 -0.3064 -8.5994
# 3 5.6289 2.4479 91.9256 -10.5502 -25.3648 -1.5681
# 4 -9.0285 -10.9750 -10.5502 35.0423 -0.9084 -5.7574
# 5 -0.8376 -0.3064 -25.3648 -0.9084 37.3300 -3.0177
# 6 -1.1122 -8.5994 -1.5681 -5.7574 -3.0177 25.2661
#
#
#
# Elastic Compliance Matrix: (Units=1/GPa)
#
#
# Indices 1 2 3 4 5 6 
#
# 1 0.008267 0.001640 -0.000099 0.002887 0.000332 0.001614
# 2 0.001640 0.048866 0.002511 0.020211 0.004414 0.021992
# 3 -0.000099 0.002511 0.014443 0.006095 0.010334 0.004370
# 4 0.002887 0.020211 0.006095 0.040483 0.006765 0.017417
# 5 0.000332 0.004414 0.010334 0.006765 0.034651 0.007838
# 6 0.001614 0.021992 0.004370 0.017417 0.007838 0.052311
#
#
# Mechanical properties :
#
#
# Convention : Reuss Voigt Hill
#
# Bulk Modulus (GPa) = 12.55028 29.00121 20.77575
# Shear Modulus (GPa) = 22.99086 35.34433 29.16760
#
# Velocity S-wave (km/s) = 3.13154 3.88276 3.52721
# Velocity P-wave (km/s) = 4.29286 5.69837 5.04480
#
# Compressibility (1/GPa) = 0.07967948
#
# Stress axis : x y z
#
# Youngs Moduli (GPa) = 120.96100 20.46410 69.23801
#
# Poissons Ratio (x) = -0.03356 0.00688
# Poissons Ratio (y) = -0.19839 -0.17385
# Poissons Ratio (z) = 0.01201 -0.05138
#
# Static dielectric constant tensor:
#      x y z
#    x 1.911500 -0.006770 -0.003000 
#    y -0.006770 1.929460 0.013980 
#    z -0.003000 0.013980 1.952240 
# 
# From -- ./inp_files/222114.got.cif
#   From: 2010.05.17/outbox.cif.g08.bks.cpg/sg2_112_cif.got.tgz:222114.got - 2010.06.03 11:33:40.
