data_PCOD9094923
_publ_section_title
;
Structure prediction by ZEFSAII (Michael W. Deem and Ramdas Pophale) SiO2 
 PCOD9094923
Probable space group: P -1
;
_chemical_formula_sum "Si O2"
_cell_formula_units_Z 16
_cell_length_a 20.102408
_cell_length_b 8.867631
_cell_length_c 5.011543
_cell_angle_alpha 76.475557
_cell_angle_beta 98.530296
_cell_angle_gamma 64.577464
_cell_volume 752.353130
_symmetry_space_group_name_H-M "P -1"
_symmetry_group_IT_number 2
_symmetry_cell_setting 'triclinic'
loop_
_space_group_symop_operation_xyz
x,y,z
-x,-y,-z
loop_
_atom_site_type_symbol
_atom_site_label
_atom_site_fract_x
_atom_site_fract_y
_atom_site_fract_z
Si Si1 0.910524 0.290614 0.272743
Si Si2 0.696368 0.369275 0.646729
Si Si3 0.547097 0.556104 0.706334
Si Si4 0.393522 0.771968 0.719848
Si Si5 0.752698 0.881255 0.539930
Si Si6 0.816460 0.478930 0.611603
Si Si7 0.944238 0.963126 0.787021
Si Si8 0.195351 0.004285 0.962127
O O1 0.875993 0.437226 0.422911
O O2 0.998712 0.214216 0.265819
O O3 0.909200 0.122448 0.484250
O O4 0.860664 0.365928 0.945407
O O5 0.624353 0.546245 0.645183
O O6 0.654420 0.281427 0.492186
O O7 0.754104 0.419411 0.511461
O O8 0.750104 0.208147 0.940611
O O9 0.500000 0.500000 0.500000
O O10 0.477995 0.738588 0.698062
O O11 0.582266 0.386773 0.991163
O O12 0.332906 0.973128 0.665010
O O13 0.772721 0.681910 0.585882
O O14 0.766031 0.916810 0.839291
O O15 0.809024 0.916790 0.364104
O O16 0.881585 0.958634 0.944949
O O17 0.000000 0.000000 0.000000
#
# Coordination Sequence:
#
# PCOD9094923 Si02
#       8
#     2   2   2   2   2   2   2   2
#     4  11  24  40  64  92 123 157 202 259 311 354
#     4  10  20  34  64  90 115 159 211 255 296 360
#     4   9  17  33  58  91 120 150 209 258 299 347
#     4   9  19  35  60  89 120 160 203 254 302 360
#     4  11  25  42  60  91 131 165 199 250 314 372
#     4  12  25  42  62  92 130 163 201 255 313 368
#     4  11  23  40  70  96 119 155 214 268 300 354
#     4  11  23  40  65  91 117 163 213 250 302 367
#
# _framework density 21.266608000000002
#
# number of rings (size 3 to 8) (size 9 to 14) (size 15 to 20)
#    0.000    1.500    3.750    0.750    7.000    0.000 
#    0.000    4.375    0.000    6.750    0.000    0.000 
#    0.000    0.000    0.000    0.000    0.000    0.000 
#
# Total GULP energy -89188.559562 kJ/mol
# GULP energy per Si atom -5574.284973 kJ/mol
# Density = 2.121820 g / cm^3
# Si number density = 21.266608 Si / 1000 Ang^3
#
#
#
# Elastic Constant Matrix: (Units=GPa)
#
#
# Indices 1 2 3 4 5 6 
#
# 1 83.4050 40.2288 17.9086 -14.8013 6.8605 -38.7360
# 2 40.2288 109.7506 12.9786 -16.2940 12.3535 -35.0294
# 3 17.9086 12.9786 78.2494 1.6766 8.1145 -14.9257
# 4 -14.8013 -16.2940 1.6766 31.6150 -8.1815 2.7027
# 5 6.8605 12.3535 8.1145 -8.1815 19.4034 -0.5410
# 6 -38.7360 -35.0294 -14.9257 2.7027 -0.5410 37.4983
#
#
#
# Elastic Compliance Matrix: (Units=1/GPa)
#
#
# Indices 1 2 3 4 5 6 
#
# 1 0.026280 0.001037 -0.000698 0.009265 -0.004998 0.027098
# 2 0.001037 0.015010 0.000830 0.004881 -0.007795 0.014959
# 3 -0.000698 0.000830 0.014822 -0.003185 -0.007654 0.006074
# 4 0.009265 0.004881 -0.003185 0.041033 0.012531 0.010086
# 5 -0.004998 -0.007795 -0.007654 0.012531 0.066322 -0.015438
# 6 0.027098 0.014959 0.006074 0.010086 -0.015438 0.070102
#
#
# Mechanical properties :
#
#
# Convention : Reuss Voigt Hill
#
# Bulk Modulus (GPa) = 17.10851 45.95965 31.53408
# Shear Modulus (GPa) = 19.94298 31.05597 25.49948
#
# Velocity S-wave (km/s) = 3.06561 3.82555 3.46647
# Velocity P-wave (km/s) = 4.53793 6.41648 5.55716
#
# Compressibility (1/GPa) = 0.05845044
#
# Stress axis : x y z
#
# Youngs Moduli (GPa) = 38.05154 66.62274 67.46659
#
# Poissons Ratio (x) = -0.06907 0.04708
# Poissons Ratio (y) = -0.03945 -0.05601
# Poissons Ratio (z) = 0.02656 -0.05531
#
# Static dielectric constant tensor:
#      x y z
#    x 1.621060 -0.036110 -0.272530 
#    y -0.036110 1.850020 0.092430 
#    z -0.272530 0.092430 1.479260 
# 
# From -- ./inp_files/45556.got.cif
#   From: 2010.05.17/outbox.cif.g08.bks.cpg/sg2_23_cif.got.tgz:45556.got - 2010.06.03 11:33:40.
