data_PCOD9094856
_publ_section_title
;
Structure prediction by ZEFSAII (Michael W. Deem and Ramdas Pophale) SiO2 
 PCOD9094856
Probable space group: P -1
;
_chemical_formula_sum "Si O2"
_cell_formula_units_Z 16
_cell_length_a 11.843846
_cell_length_b 7.278002
_cell_length_c 18.075246
_cell_angle_alpha 124.433837
_cell_angle_beta 30.388042
_cell_angle_gamma 123.243654
_cell_volume 643.203351
_symmetry_space_group_name_H-M "P -1"
_symmetry_group_IT_number 2
_symmetry_cell_setting 'triclinic'
loop_
_space_group_symop_operation_xyz
x,y,z
-x,-y,-z
loop_
_atom_site_type_symbol
_atom_site_label
_atom_site_fract_x
_atom_site_fract_y
_atom_site_fract_z
Si Si1 0.970746 0.382415 0.409590
Si Si2 0.378577 0.017888 0.285820
Si Si3 0.219025 0.076912 0.042184
Si Si4 0.944999 0.771874 0.030606
Si Si5 0.061374 0.488447 0.167321
Si Si6 0.580003 0.658399 0.885413
Si Si7 0.040849 0.062510 0.610416
Si Si8 0.507461 0.511794 0.724966
O O1 0.717781 0.419115 0.545034
O O2 0.000000 0.500000 0.500000
O O3 0.201221 0.475577 0.256922
O O4 0.984487 0.119827 0.351965
O O5 0.510006 0.272340 0.266356
O O6 0.251913 0.997954 0.430279
O O7 0.574526 0.873462 0.122426
O O8 0.175672 0.980257 0.331769
O O9 0.045093 0.255173 0.169012
O O10 0.343801 0.114885 0.058381
O O11 0.087863 0.837451 0.038936
O O12 0.695003 0.681841 0.182578
O O13 0.999543 0.582851 0.898941
O O14 0.000000 0.000000 0.000000
O O15 0.937776 0.684500 0.314515
O O16 0.330210 0.576590 0.036859
O O17 0.561595 0.637099 0.802683
#
# Coordination Sequence:
#
# PCOD9094856 Si02
#       8
#     2   2   2   2   2   2   2   2
#     4  10  21  36  61  93 127 166 200 258 316 370
#     4  11  24  36  63  96 133 157 207 256 320 367
#     4  11  23  38  64  93 121 166 210 261 310 369
#     4   9  22  43  67  85 125 169 212 254 316 370
#     4  10  22  39  64  92 125 165 209 264 307 373
#     4  10  20  34  62  90 121 153 212 251 311 356
#     4  11  23  37  61  99 128 165 203 260 316 370
#     4  10  22  41  63  93 128 165 202 261 314 369
#
# _framework density 24.875495000000001
#
# number of rings (size 3 to 8) (size 9 to 14) (size 15 to 20)
#    0.000    1.750    3.750    0.375    8.750    3.500 
#    0.000    1.250    0.000    0.000    0.000    0.000 
#    0.000    0.000    0.000    0.000    0.000    0.000 
#
# Total GULP energy -89214.436784 kJ/mol
# GULP energy per Si atom -5575.902299 kJ/mol
# Density = 2.481888 g / cm^3
# Si number density = 24.875495 Si / 1000 Ang^3
#
#
#
# Elastic Constant Matrix: (Units=GPa)
#
#
# Indices 1 2 3 4 5 6 
#
# 1 48.4259 42.0526 3.2684 7.2840 6.7758 20.3575
# 2 42.0526 109.1030 30.1141 -1.0075 7.7853 15.2935
# 3 3.2684 30.1141 117.6144 6.4617 4.8773 13.6085
# 4 7.2840 -1.0075 6.4617 46.1279 -4.8489 1.2903
# 5 6.7758 7.7853 4.8773 -4.8489 24.9906 7.1587
# 6 20.3575 15.2935 13.6085 1.2903 7.1587 55.1704
#
#
#
# Elastic Compliance Matrix: (Units=1/GPa)
#
#
# Indices 1 2 3 4 5 6 
#
# 1 0.039436 -0.014628 0.004525 -0.007446 -0.005387 -0.010740
# 2 -0.014628 0.015667 -0.004003 0.003148 -0.000090 0.001980
# 3 0.004525 -0.004003 0.009910 -0.002278 -0.001569 -0.002747
# 4 -0.007446 0.003148 -0.002278 0.023819 0.005781 0.001130
# 5 -0.005387 -0.000090 -0.001569 0.005781 0.043915 -0.003434
# 6 -0.010740 0.001980 -0.002747 0.001130 -0.003434 0.022636
#
#
# Mechanical properties :
#
#
# Convention : Reuss Voigt Hill
#
# Bulk Modulus (GPa) = 27.17444 47.33483 37.25463
# Shear Modulus (GPa) = 25.52813 38.57165 32.04989
#
# Velocity S-wave (km/s) = 3.20697 3.94202 3.59334
# Velocity P-wave (km/s) = 4.96596 6.30788 5.67671
#
# Compressibility (1/GPa) = 0.03679929
#
# Stress axis : x y z
#
# Youngs Moduli (GPa) = 25.35745 63.82965 100.91135
#
# Poissons Ratio (x) = 0.93370 -0.45658
# Poissons Ratio (y) = 0.37093 0.40396
# Poissons Ratio (z) = -0.11473 0.25552
#
# Static dielectric constant tensor:
#      x y z
#    x 2.080640 -0.010370 -0.016790 
#    y -0.010370 2.032680 -0.023960 
#    z -0.016790 -0.023960 2.051660 
# 
# From -- ./inp_files/597246.got.cif
#   From: 2010.05.17/outbox.cif.g08.bks.cpg/sg2_299_cif.got.tgz:597246.got - 2010.06.03 11:33:40.
