data_PCOD9094233
_publ_section_title
;
Structure prediction by ZEFSAII (Michael W. Deem and Ramdas Pophale) SiO2 
 PCOD9094233
Probable space group: P -1
;
_chemical_formula_sum "Si O2"
_cell_formula_units_Z 12
_cell_length_a 8.127082
_cell_length_b 12.202859
_cell_length_c 9.639249
_cell_angle_alpha 38.232944
_cell_angle_beta 104.540475
_cell_angle_gamma 106.668511
_cell_volume 566.211014
_symmetry_space_group_name_H-M "P -1"
_symmetry_group_IT_number 2
_symmetry_cell_setting 'triclinic'
loop_
_space_group_symop_operation_xyz
x,y,z
-x,-y,-z
loop_
_atom_site_type_symbol
_atom_site_label
_atom_site_fract_x
_atom_site_fract_y
_atom_site_fract_z
Si Si1 0.834897 0.095058 0.341006
Si Si2 0.762789 0.814266 0.067796
Si Si3 0.171963 0.880548 0.010734
Si Si4 0.364055 0.219214 0.222170
Si Si5 0.198422 0.566998 0.511381
Si Si6 0.252422 0.594300 0.816602
O O1 0.853460 0.289465 0.224047
O O2 0.687779 0.951675 0.522417
O O3 0.804538 0.112986 0.154078
O O4 0.000000 0.000000 0.500000
O O5 0.657121 0.845842 0.876784
O O6 0.751732 0.940400 0.070211
O O7 0.710797 0.607804 0.303578
O O8 0.964968 0.847825 0.029897
O O9 0.253590 0.723189 0.259437
O O10 0.552659 0.316869 0.199824
O O11 0.245108 0.379986 0.050263
O O12 0.209949 0.626541 0.614839
O O13 0.000000 0.500000 0.500000
#
# Coordination Sequence:
#
# PCOD9094233 Si02
#       6
#     2   2   2   2   2   2
#     4  12  24  36  59  95 122 149 193 252 298 337
#     4   9  18  36  58  81 113 157 193 233 284 352
#     4  10  20  34  55  86 119 145 194 243 288 339
#     4  10  21  43  62  84 118 162 198 235 293 354
#     4   9  19  35  59  83 109 154 197 234 284 346
#     4  10  23  41  63  85 118 160 199 237 291 358
#
# _framework density 21.193511999999998
#
# number of rings (size 3 to 8) (size 9 to 14) (size 15 to 20)
#    0.000    2.000    1.667    1.500    4.667    2.000 
#    0.000    3.333    0.000    6.000    0.000    0.000 
#    0.000    0.000    0.000    0.000    0.000    0.000 
#
# Total GULP energy -67026.499312 kJ/mol
# GULP energy per Si atom -5585.541609 kJ/mol
# Density = 2.114527 g / cm^3
# Si number density = 21.193512 Si / 1000 Ang^3
#
#
#
# Elastic Constant Matrix: (Units=GPa)
#
#
# Indices 1 2 3 4 5 6 
#
# 1 25.4421 17.1212 10.4142 5.9214 13.6369 -2.9545
# 2 17.1212 189.7302 86.8485 30.3641 5.1788 -20.8572
# 3 10.4142 86.8485 153.7895 31.8582 -4.7731 -36.1186
# 4 5.9214 30.3641 31.8582 38.5581 2.4515 7.9251
# 5 13.6369 5.1788 -4.7731 2.4515 11.9192 -0.8459
# 6 -2.9545 -20.8572 -36.1186 7.9251 -0.8459 26.5494
#
#
#
# Elastic Compliance Matrix: (Units=1/GPa)
#
#
# Indices 1 2 3 4 5 6 
#
# 1 0.129941 -0.002910 -0.022412 0.017016 -0.161904 -0.028553
# 2 -0.002910 0.007749 -0.002218 -0.004698 0.000335 0.004159
# 3 -0.022412 -0.002218 0.025962 -0.027535 0.045558 0.040754
# 4 0.017016 -0.004698 -0.027535 0.065066 -0.046104 -0.060148
# 5 -0.161904 0.000335 0.045558 -0.046104 0.301513 0.067593
# 6 -0.028553 0.004159 0.040754 -0.060148 0.067593 0.113306
#
#
# Mechanical properties :
#
#
# Convention : Reuss Voigt Hill
#
# Bulk Modulus (GPa) = 9.21049 66.41439 37.81244
# Shear Modulus (GPa) = 6.80452 32.37720 19.59086
#
# Velocity S-wave (km/s) = 1.79378 3.91281 3.04366
# Velocity P-wave (km/s) = 2.94032 7.19852 5.49837
#
# Compressibility (1/GPa) = 0.10857191
#
# Stress axis : x y z
#
# Youngs Moduli (GPa) = 7.69580 129.05580 38.51777
#
# Poissons Ratio (x) = 0.37551 0.86325
# Poissons Ratio (y) = 0.02239 0.08545
# Poissons Ratio (z) = 0.17248 0.28630
#
# Static dielectric constant tensor:
#      x y z
#    x 1.821550 -0.017990 0.020880 
#    y -0.017990 1.729870 -0.043470 
#    z 0.020880 -0.043470 1.765120 
# 
# From -- ./inp_files/150636.got.cif
#   From: 2010.05.17/outbox.cif.g08.bks.cpg/sg2_76_cif.got.tgz:150636.got - 2010.06.03 11:33:40.
