data_PCOD9094436
_publ_section_title
;
Structure prediction by ZEFSAII (Michael W. Deem and Ramdas Pophale) SiO2 
 PCOD9094436
Probable space group: P -1
;
_chemical_formula_sum "Si O2"
_cell_formula_units_Z 16
_cell_length_a 10.775600
_cell_length_b 8.595423
_cell_length_c 10.899008
_cell_angle_alpha 84.663476
_cell_angle_beta 86.321950
_cell_angle_gamma 42.299179
_cell_volume 676.417883
_symmetry_space_group_name_H-M "P -1"
_symmetry_group_IT_number 2
_symmetry_cell_setting 'triclinic'
loop_
_space_group_symop_operation_xyz
x,y,z
-x,-y,-z
loop_
_atom_site_type_symbol
_atom_site_label
_atom_site_fract_x
_atom_site_fract_y
_atom_site_fract_z
Si Si1 0.525831 0.290794 0.510292
Si Si2 0.083732 0.258476 0.052524
Si Si3 0.716636 0.433997 0.992546
Si Si4 0.653504 0.583048 0.254506
Si Si5 0.830539 0.078951 0.328440
Si Si6 0.004946 0.580505 0.689499
Si Si7 0.125630 0.598100 0.419599
Si Si8 0.644708 0.155345 0.085250
O O1 0.500000 0.500000 0.500000
O O2 0.515562 0.246114 0.654754
O O3 0.709946 0.100993 0.436683
O O4 0.342752 0.396358 0.447896
O O5 0.929117 0.282163 0.006897
O O6 0.094307 0.246315 0.200691
O O7 0.000000 0.500000 0.000000
O O8 0.275205 0.055069 0.987344
O O9 0.623709 0.578885 0.115388
O O10 0.693029 0.270829 0.000351
O O11 0.574895 0.640277 0.889169
O O12 0.772344 0.315961 0.308136
O O13 0.783498 0.611489 0.262600
O O14 0.761659 0.067971 0.207327
O O15 0.041696 0.841281 0.361897
O O16 0.026298 0.643891 0.551168
O O17 0.926137 0.484076 0.671229
#
# Coordination Sequence:
#
# PCOD9094436 Si02
#       8
#     2   2   2   2   2   2   2   2
#     4   9  19  34  55  84 108 134 179 225 270 324
#     4  11  22  37  58  84 113 148 192 234 277 333
#     4   9  20  39  58  80 115 149 186 238 280 326
#     4   8  17  36  56  80 112 142 183 230 273 328
#     4  10  20  34  57  85 109 143 186 226 273 328
#     4   9  20  37  55  80 112 148 183 221 279 336
#     4  10  20  38  58  78 114 147 176 228 278 326
#     4  10  21  37  58  84 113 151 191 228 280 332
#
# _framework density 23.654015999999999
#
# number of rings (size 3 to 8) (size 9 to 14) (size 15 to 20)
#    0.000    2.500    0.000    1.125    0.000    8.000 
#    0.000   18.125    0.000    0.000    0.000    0.000 
#    0.000    0.000    0.000    0.000    0.000    0.000 
#
# Total GULP energy -89272.252699 kJ/mol
# GULP energy per Si atom -5579.515794 kJ/mol
# Density = 2.360018 g / cm^3
# Si number density = 23.654016 Si / 1000 Ang^3
#
#
#
# Elastic Constant Matrix: (Units=GPa)
#
#
# Indices 1 2 3 4 5 6 
#
# 1 75.5959 3.4736 -0.1482 0.0014 15.9486 3.7585
# 2 3.4736 64.8628 5.2994 -5.0327 9.0827 -10.9173
# 3 -0.1482 5.2994 49.2789 14.0875 8.3393 -3.8109
# 4 0.0014 -5.0327 14.0875 29.1859 -2.8669 2.6032
# 5 15.9486 9.0827 8.3393 -2.8669 25.2239 5.5652
# 6 3.7585 -10.9173 -3.8109 2.6032 5.5652 19.2954
#
#
#
# Elastic Compliance Matrix: (Units=1/GPa)
#
#
# Indices 1 2 3 4 5 6 
#
# 1 0.015581 0.000636 0.002790 -0.002521 -0.011637 0.001572
# 2 0.000636 0.019171 0.000537 0.000799 -0.010421 0.013727
# 3 0.002790 0.000537 0.028560 -0.016349 -0.015951 0.012207
# 4 -0.002521 0.000799 -0.016349 0.044842 0.014575 -0.012539
# 5 -0.011637 -0.010421 -0.015951 0.014575 0.063666 -0.027108
# 6 0.001572 0.013727 0.012207 -0.012539 -0.027108 0.071207
#
#
# Mechanical properties :
#
#
# Convention : Reuss Voigt Hill
#
# Bulk Modulus (GPa) = 14.03732 22.99856 18.51794
# Shear Modulus (GPa) = 19.31635 26.81524 23.06579
#
# Velocity S-wave (km/s) = 2.86076 3.37062 3.12610
# Velocity P-wave (km/s) = 4.10600 4.98920 4.56899
#
# Compressibility (1/GPa) = 0.07123865
#
# Stress axis : x y z
#
# Youngs Moduli (GPa) = 64.17935 52.16276 35.01346
#
# Poissons Ratio (x) = -0.03318 -0.09769
# Poissons Ratio (y) = -0.04083 -0.01880
# Poissons Ratio (z) = -0.17906 -0.02801
#
# Static dielectric constant tensor:
#      x y z
#    x 1.911440 -0.013140 -0.016080 
#    y -0.013140 1.909000 -0.025780 
#    z -0.016080 -0.025780 1.955260 
# 
# From -- ./inp_files/417364.got.cif
#   From: 2010.05.17/outbox.cif.g08.bks.cpg/sg2_209_cif.got.tgz:417364.got - 2010.06.03 11:33:40.
