data_PCOD9094543
_publ_section_title
;
Structure prediction by ZEFSAII (Michael W. Deem and Ramdas Pophale) SiO2 
 PCOD9094543
Probable space group: P -1
;
_chemical_formula_sum "Si O2"
_cell_formula_units_Z 16
_cell_length_a 25.416980
_cell_length_b 11.357922
_cell_length_c 18.729809
_cell_angle_alpha 150.783088
_cell_angle_beta 160.959034
_cell_angle_gamma 30.129270
_cell_volume 833.615038
_symmetry_space_group_name_H-M "P -1"
_symmetry_group_IT_number 2
_symmetry_cell_setting 'triclinic'
loop_
_space_group_symop_operation_xyz
x,y,z
-x,-y,-z
loop_
_atom_site_type_symbol
_atom_site_label
_atom_site_fract_x
_atom_site_fract_y
_atom_site_fract_z
Si Si1 0.777521 0.871937 0.938463
Si Si2 0.017703 0.806420 0.079798
Si Si3 0.760539 0.103476 0.250107
Si Si4 0.554840 0.025952 0.165239
Si Si5 0.397279 0.519973 0.452726
Si Si6 0.125878 0.274454 0.502684
Si Si7 0.999127 0.666887 0.252092
Si Si8 0.307856 0.607821 0.827817
O O1 0.625152 0.742873 0.686053
O O2 0.908200 0.765231 0.113256
O O3 0.879597 0.799069 0.958519
O O4 0.718748 0.167979 0.030320
O O5 0.206809 0.669508 0.272207
O O6 0.029971 0.090792 0.243479
O O7 0.981021 0.628610 0.875700
O O8 0.773269 0.260914 0.279138
O O9 0.831871 0.243689 0.478402
O O10 0.878040 0.827137 0.241497
O O11 0.575004 0.082087 0.012165
O O12 0.534689 0.311707 0.314571
O O13 0.740811 0.876494 0.347845
O O14 0.500000 0.000000 0.000000
O O15 0.500000 0.500000 0.500000
O O16 0.226719 0.394671 0.638820
O O17 0.000000 0.500000 0.500000
O O18 0.500000 0.500000 0.000000
#
# Coordination Sequence:
#
# PCOD9094543 Si02
#       8
#     2   2   2   2   2   2   2   2
#     4  10  20  34  60  85 112 156 200 243 292 364
#     4  10  20  34  58  85 115 153 202 243 290 364
#     4  10  21  36  58  87 119 156 193 253 301 364
#     4  11  24  36  62  94 123 151 199 262 311 345
#     4  10  20  35  57  88 120 153 200 249 301 352
#     4  11  23  40  61  87 121 161 203 245 297 369
#     4   9  19  34  59  85 116 150 195 246 305 345
#     4  11  21  39  59  83 115 161 207 233 292 371
#
# _framework density 19.193511999999998
#
# number of rings (size 3 to 8) (size 9 to 14) (size 15 to 20)
#    0.000    1.750    2.500    3.750    7.000    1.000 
#    0.000    0.625    2.750    2.250    0.000    0.000 
#    0.000    0.000    0.000    0.000    0.000    0.000 
#
# Total GULP energy -89185.208801 kJ/mol
# GULP energy per Si atom -5574.075550 kJ/mol
# Density = 1.914983 g / cm^3
# Si number density = 19.193512 Si / 1000 Ang^3
#
#
#
# Elastic Constant Matrix: (Units=GPa)
#
#
# Indices 1 2 3 4 5 6 
#
# 1 75.8663 22.1188 36.1341 14.9821 11.6508 -4.0153
# 2 22.1188 87.7216 41.4928 24.9979 0.0209 -15.4136
# 3 36.1341 41.4928 117.2474 35.6204 3.0078 -8.6282
# 4 14.9821 24.9979 35.6204 43.9957 -3.1625 3.5492
# 5 11.6508 0.0209 3.0078 -3.1625 33.5008 3.0899
# 6 -4.0153 -15.4136 -8.6282 3.5492 3.0899 25.9870
#
#
#
# Elastic Compliance Matrix: (Units=1/GPa)
#
#
# Indices 1 2 3 4 5 6 
#
# 1 0.016835 -0.001564 -0.003628 -0.002452 -0.005898 0.001505
# 2 -0.001564 0.017022 -0.002259 -0.008216 -0.000993 0.010345
# 3 -0.003628 -0.002259 0.013415 -0.008736 -0.001124 0.003880
# 4 -0.002452 -0.008216 -0.008736 0.036892 0.006412 -0.013954
# 5 -0.005898 -0.000993 -0.001124 0.006412 0.033226 -0.006700
# 6 0.001505 0.010345 0.003880 -0.013954 -0.006700 0.048840
#
#
# Mechanical properties :
#
#
# Convention : Reuss Voigt Hill
#
# Bulk Modulus (GPa) = 30.89301 53.36964 42.13132
# Shear Modulus (GPa) = 26.05239 32.76933 29.41086
#
# Velocity S-wave (km/s) = 3.68823 4.13645 3.91875
# Velocity P-wave (km/s) = 5.85387 7.11899 6.51720
#
# Compressibility (1/GPa) = 0.03236978
#
# Stress axis : x y z
#
# Youngs Moduli (GPa) = 59.40130 58.74824 74.54434
#
# Poissons Ratio (x) = 0.09189 0.27041
# Poissons Ratio (y) = 0.09292 0.16840
# Poissons Ratio (z) = 0.21548 0.13271
#
# Static dielectric constant tensor:
#      x y z
#    x 1.705020 -0.019420 0.014870 
#    y -0.019420 1.739570 0.009210 
#    z 0.014870 0.009210 1.718880 
# 
# From -- ./inp_files/389145.got.cif
#   From: 2010.05.17/outbox.cif.g08.bks.cpg/sg2_195_cif.got.tgz:389145.got - 2010.06.03 11:33:40.
