data_PCOD9094949
_publ_section_title
;
Structure prediction by ZEFSAII (Michael W. Deem and Ramdas Pophale) SiO2 
 PCOD9094949
Probable space group: P -1
;
_chemical_formula_sum "Si O2"
_cell_formula_units_Z 16
_cell_length_a 13.751075
_cell_length_b 7.106286
_cell_length_c 18.446925
_cell_angle_alpha 119.778593
_cell_angle_beta 145.658074
_cell_angle_gamma 48.441356
_cell_volume 755.335309
_symmetry_space_group_name_H-M "P -1"
_symmetry_group_IT_number 2
_symmetry_cell_setting 'triclinic'
loop_
_space_group_symop_operation_xyz
x,y,z
-x,-y,-z
loop_
_atom_site_type_symbol
_atom_site_label
_atom_site_fract_x
_atom_site_fract_y
_atom_site_fract_z
Si Si1 0.122805 0.093778 0.045992
Si Si2 0.035643 0.768874 0.325830
Si Si3 0.358251 0.072495 0.527901
Si Si4 0.420578 0.310041 0.744917
Si Si5 0.069367 0.484580 0.667841
Si Si6 0.894106 0.220549 0.417977
Si Si7 0.511053 0.627374 0.434485
Si Si8 0.127190 0.588909 0.185354
O O1 0.345313 0.852017 0.125903
O O2 0.138178 0.320924 0.136614
O O3 0.013365 0.220666 0.927431
O O4 0.000000 0.000000 0.000000
O O5 0.262883 0.605679 0.465355
O O6 0.043990 0.709559 0.235750
O O7 0.912021 0.672550 0.278469
O O8 0.954542 0.058403 0.351156
O O9 0.374524 0.124443 0.632165
O O10 0.481287 0.184004 0.583878
O O11 0.127266 0.236072 0.388279
O O12 0.451914 0.787643 0.503744
O O13 0.282295 0.414447 0.751758
O O14 0.340242 0.564402 0.694765
O O15 0.985722 0.385511 0.532742
O O16 0.000000 0.000000 0.500000
O O17 0.344997 0.557336 0.302286
#
# Coordination Sequence:
#
# PCOD9094949 Si02
#       8
#     2   2   2   2   2   2   2   2
#     4  11  27  50  68  90 121 172 234 282 321 374
#     4  10  21  38  60 101 134 160 203 266 330 388
#     4   9  18  34  60 103 135 163 204 255 329 392
#     4  11  21  39  65  91 128 179 212 254 327 391
#     4   9  20  34  58  94 137 169 201 249 321 401
#     4   9  19  35  58  97 135 165 196 252 317 396
#     4  10  20  34  65  99 134 167 202 269 332 387
#     4  11  25  44  69  95 125 172 224 281 319 382
#
# _framework density 21.182645999999998
#
# number of rings (size 3 to 8) (size 9 to 14) (size 15 to 20)
#    0.000    2.000    0.000    4.125    5.250    2.000 
#    6.750    1.250    0.000    0.000    0.000    0.000 
#    0.000    0.000    0.000    0.000    0.000    0.000 
#
# Total GULP energy -89273.285278 kJ/mol
# GULP energy per Si atom -5579.580330 kJ/mol
# Density = 2.113443 g / cm^3
# Si number density = 21.182646 Si / 1000 Ang^3
#
#
#
# Elastic Constant Matrix: (Units=GPa)
#
#
# Indices 1 2 3 4 5 6 
#
# 1 133.6993 33.5156 44.1840 -6.5573 5.3784 1.9121
# 2 33.5156 124.9749 53.1445 -21.4342 12.4327 -15.9404
# 3 44.1840 53.1445 88.1589 -12.9780 8.2582 -3.0410
# 4 -6.5573 -21.4342 -12.9780 35.0023 -8.8159 -0.0257
# 5 5.3784 12.4327 8.2582 -8.8159 33.0548 -2.1050
# 6 1.9121 -15.9404 -3.0410 -0.0257 -2.1050 39.1439
#
#
#
# Elastic Compliance Matrix: (Units=1/GPa)
#
#
# Indices 1 2 3 4 5 6 
#
# 1 0.009057 -0.000882 -0.004082 -0.000436 -0.000311 -0.001136
# 2 -0.000882 0.012330 -0.005994 0.004807 -0.001427 0.004525
# 3 -0.004082 -0.005994 0.017319 0.001732 -0.001007 -0.000949
# 4 -0.000436 0.004807 0.001732 0.033843 0.007016 0.002513
# 5 -0.000311 -0.001427 -0.001007 0.007016 0.033035 0.001137
# 6 -0.001136 0.004525 -0.000949 0.002513 0.001137 0.027434
#
#
# Mechanical properties :
#
#
# Convention : Reuss Voigt Hill
#
# Bulk Modulus (GPa) = 59.55501 67.61349 63.58425
# Shear Modulus (GPa) = 31.14686 35.83944 33.49315
#
# Velocity S-wave (km/s) = 3.83873 4.11776 3.98069
# Velocity P-wave (km/s) = 6.91548 7.38895 7.15613
#
# Compressibility (1/GPa) = 0.01679120
#
# Stress axis : x y z
#
# Youngs Moduli (GPa) = 110.41421 81.09994 57.74115
#
# Poissons Ratio (x) = 0.07151 0.23569
# Poissons Ratio (y) = 0.09736 0.34609
# Poissons Ratio (z) = 0.45069 0.48610
#
# Static dielectric constant tensor:
#      x y z
#    x 1.864010 0.017220 -0.009780 
#    y 0.017220 1.820720 -0.023770 
#    z -0.009780 -0.023770 1.765300 
# 
# From -- ./inp_files/572027.got.cif
#   From: 2010.05.17/outbox.cif.g08.bks.cpg/sg2_287_cif.got.tgz:572027.got - 2010.06.03 11:33:40.
