data_PCOD9094099
_publ_section_title
;
Structure prediction by ZEFSAII (Michael W. Deem and Ramdas Pophale) SiO2 
 PCOD9094099
Probable space group: P -1
;
_chemical_formula_sum "Si O2"
_cell_formula_units_Z 16
_cell_length_a 21.442384
_cell_length_b 7.053698
_cell_length_c 13.349755
_cell_angle_alpha 70.445528
_cell_angle_beta 159.048113
_cell_angle_gamma 108.214325
_cell_volume 680.363900
_symmetry_space_group_name_H-M "P -1"
_symmetry_group_IT_number 2
_symmetry_cell_setting 'triclinic'
loop_
_space_group_symop_operation_xyz
x,y,z
-x,-y,-z
loop_
_atom_site_type_symbol
_atom_site_label
_atom_site_fract_x
_atom_site_fract_y
_atom_site_fract_z
Si Si1 0.292562 0.016834 0.196888
Si Si2 0.691305 0.437582 0.331606
Si Si3 0.707438 0.016835 0.319201
Si Si4 0.000000 0.592357 0.645182
Si Si5 0.205132 0.213357 0.322005
Si Si6 0.794869 0.213357 0.706611
Si Si7 1.000000 0.830589 0.405190
Si Si8 0.691305 0.562418 0.742310
O O1 0.262196 0.222438 0.176453
O O2 0.500000 0.000000 0.500000
O O3 0.237087 0.831798 0.217065
O O4 0.171724 0.050953 0.912524
O O5 0.737804 0.222438 0.389864
O O6 0.701011 0.388213 0.472814
O O7 0.832049 0.583943 0.466558
O O8 0.500000 0.500000 0.000000
O O9 0.828276 0.050954 0.397351
O O10 0.762913 0.831799 0.505803
O O11 0.500000 0.000000 0.000000
O O12 0.000000 0.385341 0.615696
O O13 0.000000 0.769810 0.532255
O O14 0.167950 0.583943 0.970410
O O15 0.298989 0.388212 0.369782
O O16 0.253407 1.000000 0.380110
O O17 0.000000 0.247827 0.992377
O O18 0.500000 0.500000 0.500000
#
# Coordination Sequence:
#
# PCOD9094099 Si02
#       8
#     2   2   2   2   2   2   2   2
#     4  10  20  34  54  77 102 133 170 210 251 298
#     4  10  20  34  54  77 102 133 170 210 251 298
#     4  10  20  34  54  77 102 133 170 210 251 298
#     4   9  18  33  52  74 101 135 172 206 245 300
#     4   9  16  32  55  74  95 132 178 211 239 292
#     4   9  16  32  55  74  95 132 178 211 239 292
#     4   9  18  33  52  74 101 135 172 206 245 300
#     4  10  20  34  54  77 102 133 170 210 251 298
#
# _framework density 23.516825999999998
#
# number of rings (size 3 to 8) (size 9 to 14) (size 15 to 20)
#    0.000    2.500    2.500    0.000    3.500    0.000 
#    0.000    1.250    0.000    3.000    0.000    0.000 
#    0.000    0.000    0.000    0.000    0.000    0.000 
#
# Total GULP energy -89416.131413 kJ/mol
# GULP energy per Si atom -5588.508213 kJ/mol
# Density = 2.346330 g / cm^3
# Si number density = 23.516826 Si / 1000 Ang^3
#
#
#
# Elastic Constant Matrix: (Units=GPa)
#
#
# Indices 1 2 3 4 5 6 
#
# 1 130.0761 71.8109 72.2097 -11.9925 -18.0299 52.9872
# 2 71.8109 161.9898 66.2308 -22.7812 -9.3611 48.5634
# 3 72.2097 66.2308 171.5955 -30.2871 -7.5748 64.6622
# 4 -11.9925 -22.7812 -30.2871 41.3960 11.7790 -5.0245
# 5 -18.0299 -9.3611 -7.5748 11.7790 30.0145 -1.3725
# 6 52.9872 48.5634 64.6622 -5.0245 -1.3725 72.1076
#
#
#
# Elastic Compliance Matrix: (Units=1/GPa)
#
#
# Indices 1 2 3 4 5 6 
#
# 1 0.014189 -0.003399 -0.002548 -0.002479 0.007524 -0.005882
# 2 -0.003399 0.009243 -0.000308 0.003728 -0.000846 -0.003208
# 3 -0.002548 -0.000308 0.010827 0.006663 -0.001838 -0.007200
# 4 -0.002479 0.003728 0.006663 0.033190 -0.011879 -0.004578
# 5 0.007524 -0.000846 -0.001838 -0.011879 0.041618 -0.003346
# 6 -0.005882 -0.003208 -0.007200 -0.004578 -0.003346 0.026425
#
#
# Mechanical properties :
#
#
# Convention : Reuss Voigt Hill
#
# Bulk Modulus (GPa) = 45.97738 98.24049 72.10894
# Shear Modulus (GPa) = 32.20598 45.59760 38.90179
#
# Velocity S-wave (km/s) = 3.70467 4.40811 4.07161
# Velocity P-wave (km/s) = 6.15571 8.23249 7.26865
#
# Compressibility (1/GPa) = 0.02174982
#
# Stress axis : x y z
#
# Youngs Moduli (GPa) = 70.47603 108.19251 92.36463
#
# Poissons Ratio (x) = 0.36771 0.23534
# Poissons Ratio (y) = 0.23953 0.02843
# Poissons Ratio (z) = 0.17957 0.03330
#
# Static dielectric constant tensor:
#      x y z
#    x 1.834110 -0.047030 0.006200 
#    y -0.047030 1.923350 -0.005970 
#    z 0.006200 -0.005970 1.820790 
# 
# From -- ./inp_files/388147.got.cif
#   From: 2010.05.17/outbox.cif.g08.bks.cpg/sg2_195_cif.got.tgz:388147.got - 2010.06.03 11:33:40.
