data_PCOD9094768
_publ_section_title
;
Structure prediction by ZEFSAII (Michael W. Deem and Ramdas Pophale) SiO2 
 PCOD9094768
Probable space group: P -1
;
_chemical_formula_sum "Si O2"
_cell_formula_units_Z 16
_cell_length_a 4.752852
_cell_length_b 16.983309
_cell_length_c 10.969681
_cell_angle_alpha 55.792441
_cell_angle_beta 94.078253
_cell_angle_gamma 81.883794
_cell_volume 712.597251
_symmetry_space_group_name_H-M "P -1"
_symmetry_group_IT_number 2
_symmetry_cell_setting 'triclinic'
loop_
_space_group_symop_operation_xyz
x,y,z
-x,-y,-z
loop_
_atom_site_type_symbol
_atom_site_label
_atom_site_fract_x
_atom_site_fract_y
_atom_site_fract_z
Si Si1 0.553386 0.458548 0.831243
Si Si2 0.169593 0.676760 0.435666
Si Si3 0.347095 0.823104 0.481682
Si Si4 0.152104 0.363252 0.033523
Si Si5 0.743484 0.593664 0.377145
Si Si6 0.850380 0.962490 0.646702
Si Si7 0.603344 0.170558 0.249019
Si Si8 0.157858 0.357565 0.318179
O O1 0.402828 0.424147 0.737910
O O2 0.647527 0.561805 0.740834
O O3 0.327882 0.447337 0.940166
O O4 0.862386 0.384399 0.928082
O O5 0.921673 0.678333 0.326037
O O6 0.072637 0.622476 0.598458
O O7 0.194079 0.779186 0.405428
O O8 0.474454 0.620730 0.438223
O O9 0.288417 0.939533 0.369492
O O10 0.270720 0.803104 0.638767
O O11 0.663493 0.752012 0.551329
O O12 0.391214 0.264211 0.104645
O O13 0.062619 0.359267 0.174601
O O14 0.000000 0.500000 0.500000
O O15 0.603100 0.904218 0.662226
O O16 0.000000 0.000000 0.500000
O O17 0.125793 0.883877 0.775215
#
# Coordination Sequence:
#
# PCOD9094768 Si02
#       8
#     2   2   2   2   2   2   2   2
#     4  12  27  46  64  93 129 188 226 274 314 395
#     4  12  26  40  67  98 131 174 213 275 344 382
#     4  10  22  36  62  96 140 165 209 265 344 396
#     4  11  26  43  68  92 138 178 228 262 330 393
#     4  12  28  46  67  91 127 175 236 280 329 376
#     4  10  20  34  60  95 134 174 207 257 337 410
#     4  10  22  37  62  94 134 175 213 264 324 402
#     4  11  26  40  67 100 140 170 218 272 340 397
#
# _framework density 22.453077
#
# number of rings (size 3 to 8) (size 9 to 14) (size 15 to 20)
#    0.000    1.000    1.250    4.875   17.500    0.000 
#    0.000    0.000    0.000    0.000    0.000   17.500 
#    0.000    0.000    0.000    0.000    0.000    0.000 
#
# Total GULP energy -89383.398820 kJ/mol
# GULP energy per Si atom -5586.462426 kJ/mol
# Density = 2.240197 g / cm^3
# Si number density = 22.453077 Si / 1000 Ang^3
#
#
#
# Elastic Constant Matrix: (Units=GPa)
#
#
# Indices 1 2 3 4 5 6 
#
# 1 158.6200 69.4506 42.1792 -6.4849 20.9470 -3.3775
# 2 69.4506 148.5819 39.2237 1.1577 24.7827 -7.0797
# 3 42.1792 39.2237 47.3364 3.4939 30.1807 -9.8498
# 4 -6.4849 1.1577 3.4939 30.7169 4.3898 9.9389
# 5 20.9470 24.7827 30.1807 4.3898 52.7873 -0.4611
# 6 -3.3775 -7.0797 -9.8498 9.9389 -0.4611 43.4410
#
#
#
# Elastic Compliance Matrix: (Units=1/GPa)
#
#
# Indices 1 2 3 4 5 6 
#
# 1 0.009522 -0.002752 -0.008130 0.003532 0.001847 -0.002340
# 2 -0.002752 0.009423 -0.004985 -0.000395 -0.000447 0.000277
# 3 -0.008130 -0.004985 0.049402 -0.007660 -0.021944 0.011277
# 4 0.003532 -0.000395 -0.007660 0.037460 -0.000040 -0.010098
# 5 0.001847 -0.000447 -0.021944 -0.000040 0.030930 -0.004567
# 6 -0.002340 0.000277 0.011277 -0.010098 -0.004567 0.027702
#
#
# Mechanical properties :
#
#
# Convention : Reuss Voigt Hill
#
# Bulk Modulus (GPa) = 27.31080 72.91614 50.11347
# Shear Modulus (GPa) = 23.99516 38.96802 31.48159
#
# Velocity S-wave (km/s) = 3.27261 4.17049 3.74853
# Velocity P-wave (km/s) = 5.14489 7.46566 6.41116
#
# Compressibility (1/GPa) = 0.03661555
#
# Stress axis : x y z
#
# Youngs Moduli (GPa) = 105.02537 106.12156 20.24200
#
# Poissons Ratio (x) = 0.29201 0.16456
# Poissons Ratio (y) = 0.28899 0.10090
# Poissons Ratio (z) = 0.85381 0.52896
#
# Static dielectric constant tensor:
#      x y z
#    x 1.905450 -0.005970 0.036320 
#    y -0.005970 1.909770 -0.030960 
#    z 0.036320 -0.030960 1.920490 
# 
# From -- ./inp_files/367618.got.cif
#   From: 2010.05.17/outbox.cif.g08.bks.cpg/sg2_184_cif.got.tgz:367618.got - 2010.06.03 11:33:40.
