data_PCOD9094728
_publ_section_title
;
Structure prediction by ZEFSAII (Michael W. Deem and Ramdas Pophale) SiO2 
 PCOD9094728
Probable space group: P -1
;
_chemical_formula_sum "Si O2"
_cell_formula_units_Z 16
_cell_length_a 9.535014
_cell_length_b 9.365472
_cell_length_c 17.961693
_cell_angle_alpha 131.622765
_cell_angle_beta 126.910468
_cell_angle_gamma 44.904937
_cell_volume 820.301946
_symmetry_space_group_name_H-M "P -1"
_symmetry_group_IT_number 2
_symmetry_cell_setting 'triclinic'
loop_
_space_group_symop_operation_xyz
x,y,z
-x,-y,-z
loop_
_atom_site_type_symbol
_atom_site_label
_atom_site_fract_x
_atom_site_fract_y
_atom_site_fract_z
Si Si1 0.708229 0.859001 0.163404
Si Si2 0.007728 0.246313 0.514572
Si Si3 0.293461 0.044556 0.410341
Si Si4 0.297710 0.911542 0.613059
Si Si5 0.108210 0.592251 0.010726
Si Si6 0.752607 0.711630 0.670047
Si Si7 0.749219 0.762131 0.857115
Si Si8 0.843858 0.286734 0.783149
O O1 0.907117 0.860264 0.195423
O O2 0.711547 0.908301 0.268851
O O3 0.483058 0.050465 0.131956
O O4 0.747026 0.618078 0.068235
O O5 0.824718 0.197911 0.430784
O O6 0.924161 0.469557 0.612650
O O7 0.107250 0.239269 0.465378
O O8 0.183808 0.040308 0.546813
O O9 0.260997 0.835267 0.329870
O O10 0.500000 0.000000 0.500000
O O11 0.279645 0.115580 0.344988
O O12 0.533330 0.729472 0.612304
O O13 0.208709 0.672974 0.131477
O O14 0.000000 0.500000 0.000000
O O15 0.921580 0.773364 0.964159
O O16 0.790316 0.766245 0.784081
O O17 0.779377 0.519865 0.802338
#
# Coordination Sequence:
#
# PCOD9094728 Si02
#       8
#     2   2   2   2   2   2   2   2
#     4   9  16  32  57  90 113 137 189 238 287 326
#     4  11  21  37  59  78 116 155 197 236 283 330
#     4  12  25  42  55  81 127 158 189 236 290 340
#     4  10  20  34  60  89 109 148 193 246 276 341
#     4   8  17  32  58  86 116 142 183 244 286 333
#     4  11  23  37  58  87 114 153 192 236 288 342
#     4   9  19  35  63  88 111 143 194 239 279 348
#     4  10  21  38  56  84 116 154 189 234 287 337
#
# _framework density 19.505012000000001
#
# number of rings (size 3 to 8) (size 9 to 14) (size 15 to 20)
#    0.000    2.250    2.500    2.250    1.750    6.500 
#    2.250    0.625    0.000    3.000    0.000    0.000 
#    0.000    0.000    0.000    0.000    0.000    0.000 
#
# Total GULP energy -89162.961715 kJ/mol
# GULP energy per Si atom -5572.685107 kJ/mol
# Density = 1.946062 g / cm^3
# Si number density = 19.505012 Si / 1000 Ang^3
#
#
#
# Elastic Constant Matrix: (Units=GPa)
#
#
# Indices 1 2 3 4 5 6 
#
# 1 62.6044 21.1871 21.9484 -5.6826 -15.1033 -6.7807
# 2 21.1871 65.5239 17.8826 -12.4262 -4.5861 -9.3603
# 3 21.9484 17.8826 83.4028 -4.0057 -10.3977 -4.9202
# 4 -5.6826 -12.4262 -4.0057 23.9741 7.7247 -10.9165
# 5 -15.1033 -4.5861 -10.3977 7.7247 14.0400 -1.2255
# 6 -6.7807 -9.3603 -4.9202 -10.9165 -1.2255 23.2845
#
#
#
# Elastic Compliance Matrix: (Units=1/GPa)
#
#
# Indices 1 2 3 4 5 6 
#
# 1 0.025042 -0.005932 -0.002030 -0.004095 0.026094 0.003932
# 2 -0.005932 0.023668 -0.002888 0.021604 -0.011216 0.016715
# 3 -0.002030 -0.002888 0.014154 -0.002028 0.008535 0.000737
# 4 -0.004095 0.021604 -0.002028 0.085635 -0.042038 0.045000
# 5 0.026094 -0.011216 0.008535 -0.042038 0.124359 -0.008270
# 6 0.003932 0.016715 0.000737 0.045000 -0.008270 0.071629
#
#
# Mechanical properties :
#
#
# Convention : Reuss Voigt Hill
#
# Bulk Modulus (GPa) = 24.29358 37.06306 30.67832
# Shear Modulus (GPa) = 13.16111 22.29392 17.72751
#
# Velocity S-wave (km/s) = 2.60042 3.38447 3.01802
# Velocity P-wave (km/s) = 4.63663 5.85798 5.28272
#
# Compressibility (1/GPa) = 0.04116314
#
# Stress axis : x y z
#
# Youngs Moduli (GPa) = 39.93324 42.25169 70.65353
#
# Poissons Ratio (x) = 0.25063 0.14341
# Poissons Ratio (y) = 0.23688 0.20407
# Poissons Ratio (z) = 0.08106 0.12204
#
# Static dielectric constant tensor:
#      x y z
#    x 1.693760 -0.003730 -0.017200 
#    y -0.003730 1.687400 -0.001780 
#    z -0.017200 -0.001780 1.741400 
# 
# From -- ./inp_files/327981.got.cif
#   From: 2010.05.17/outbox.cif.g08.bks.cpg/sg2_164_cif.got.tgz:327981.got - 2010.06.03 11:33:40.
