data_PCOD9094407
_publ_section_title
;
Structure prediction by ZEFSAII (Michael W. Deem and Ramdas Pophale) SiO2 
 PCOD9094407
Probable space group: P -1
;
_chemical_formula_sum "Si O2"
_cell_formula_units_Z 16
_cell_length_a 9.086044
_cell_length_b 9.176373
_cell_length_c 13.048983
_cell_angle_alpha 127.966507
_cell_angle_beta 94.565028
_cell_angle_gamma 115.740020
_cell_volume 674.249955
_symmetry_space_group_name_H-M "P -1"
_symmetry_group_IT_number 2
_symmetry_cell_setting 'triclinic'
loop_
_space_group_symop_operation_xyz
x,y,z
-x,-y,-z
loop_
_atom_site_type_symbol
_atom_site_label
_atom_site_fract_x
_atom_site_fract_y
_atom_site_fract_z
Si Si1 0.893425 0.218831 0.461770
Si Si2 0.231935 0.431718 0.718105
Si Si3 0.197726 0.741358 0.979616
Si Si4 0.433630 0.212394 0.617492
Si Si5 0.219245 0.545272 0.108164
Si Si6 0.688720 0.814053 0.734118
Si Si7 0.064643 0.117362 0.775672
Si Si8 0.648852 0.371687 0.505925
O O1 0.814785 0.357877 0.489838
O O2 0.096179 0.363145 0.586054
O O3 0.750531 0.030694 0.458234
O O4 0.886170 0.060287 0.303782
O O5 0.383009 0.391800 0.682493
O O6 0.117212 0.247827 0.726306
O O7 0.287979 0.672280 0.873020
O O8 0.241412 0.698789 0.078479
O O9 0.263661 0.004145 0.095491
O O10 0.970166 0.553837 0.881835
O O11 0.597727 0.319143 0.755427
O O12 0.507518 0.188305 0.505151
O O13 0.177217 0.314870 0.953612
O O14 0.715912 0.616642 0.664604
O O15 0.482001 0.690057 0.625287
O O16 0.846731 0.976100 0.726547
#
# Coordination Sequence:
#
# PCOD9094407 Si02
#       8
#     2   2   2   2   2   2   2   2
#     4  11  21  34  56  82 106 138 175 220 265 307
#     4  10  20  34  57  82 107 136 173 219 267 311
#     4   9  18  35  55  77 107 141 175 213 260 313
#     4  11  21  35  54  81 112 135 171 224 264 307
#     4   9  18  32  56  83 106 136 174 216 264 312
#     4  10  21  39  55  75 107 142 175 216 259 313
#     4   9  19  36  56  80 109 138 171 215 266 311
#     4  11  23  35  55  79 105 141 180 213 259 315
#
# _framework density 23.730070999999999
#
# number of rings (size 3 to 8) (size 9 to 14) (size 15 to 20)
#    0.000    2.000    0.000    5.625    0.000    6.000 
#    0.000    6.250    0.000    0.000    0.000    0.000 
#    0.000    0.000    0.000    0.000    0.000    0.000 
#
# Total GULP energy -89548.204582 kJ/mol
# GULP energy per Si atom -5596.762786 kJ/mol
# Density = 2.367606 g / cm^3
# Si number density = 23.730071 Si / 1000 Ang^3
#
#
#
# Elastic Constant Matrix: (Units=GPa)
#
#
# Indices 1 2 3 4 5 6 
#
# 1 155.6003 16.2754 56.2611 4.6694 -20.3647 -23.3326
# 2 16.2754 39.3865 20.5068 5.9013 1.7859 0.4077
# 3 56.2611 20.5068 79.2591 20.0086 -13.2710 -24.0950
# 4 4.6694 5.9013 20.0086 24.9002 -14.8016 -7.5746
# 5 -20.3647 1.7859 -13.2710 -14.8016 53.4226 6.9839
# 6 -23.3326 0.4077 -24.0950 -7.5746 6.9839 40.4380
#
#
#
# Elastic Compliance Matrix: (Units=1/GPa)
#
#
# Indices 1 2 3 4 5 6 
#
# 1 0.009712 -0.001620 -0.006977 0.007011 0.003686 0.002139
# 2 -0.001620 0.031438 -0.008429 -0.004874 -0.004270 -0.006450
# 3 -0.006977 -0.008429 0.026254 -0.015917 -0.001439 0.008970
# 4 0.007011 -0.004874 -0.015917 0.063416 0.015964 0.003732
# 5 0.003686 -0.004270 -0.001439 0.015964 0.024319 0.000103
# 6 0.002139 -0.006450 0.008970 0.003732 0.000103 0.032055
#
#
# Mechanical properties :
#
#
# Convention : Reuss Voigt Hill
#
# Bulk Modulus (GPa) = 29.98354 51.14806 40.56580
# Shear Modulus (GPa) = 21.51800 35.83234 28.67517
#
# Velocity S-wave (km/s) = 3.01455 3.89008 3.47996
# Velocity P-wave (km/s) = 4.97789 6.46358 5.76876
#
# Compressibility (1/GPa) = 0.03335163
#
# Stress axis : x y z
#
# Youngs Moduli (GPa) = 102.96887 31.80831 38.08883
#
# Poissons Ratio (x) = 0.05154 0.26574
# Poissons Ratio (y) = 0.16684 0.32106
# Poissons Ratio (z) = 0.71839 0.26812
#
# Static dielectric constant tensor:
#      x y z
#    x 1.881300 0.002170 -0.032700 
#    y 0.002170 1.968030 0.065850 
#    z -0.032700 0.065850 1.889980 
# 
# From -- ./inp_files/205426.got.cif
#   From: 2010.05.17/outbox.cif.g08.bks.cpg/sg2_103_cif.got.tgz:205426.got - 2010.06.03 11:33:40.
