data_PCOD9094756
_publ_section_title
;
Structure prediction by ZEFSAII (Michael W. Deem and Ramdas Pophale) SiO2 
 PCOD9094756
Probable space group: P -1
;
_chemical_formula_sum "Si O2"
_cell_formula_units_Z 16
_cell_length_a 11.149512
_cell_length_b 6.936010
_cell_length_c 13.944109
_cell_angle_alpha 59.144893
_cell_angle_beta 113.068793
_cell_angle_gamma 130.608543
_cell_volume 699.993175
_symmetry_space_group_name_H-M "P -1"
_symmetry_group_IT_number 2
_symmetry_cell_setting 'triclinic'
loop_
_space_group_symop_operation_xyz
x,y,z
-x,-y,-z
loop_
_atom_site_type_symbol
_atom_site_label
_atom_site_fract_x
_atom_site_fract_y
_atom_site_fract_z
Si Si1 0.887546 0.209255 0.381406
Si Si2 0.082972 0.230742 0.599251
Si Si3 0.599243 0.073258 0.704474
Si Si4 0.354619 0.687648 0.143562
Si Si5 0.218470 0.111192 0.274283
Si Si6 0.267086 0.513711 0.758244
Si Si7 0.430605 0.223654 0.489722
Si Si8 0.599279 0.755100 0.042374
O O1 0.036168 0.341188 0.466810
O O2 0.853850 0.409729 0.267599
O O3 0.730214 0.012601 0.446071
O O4 0.902188 0.007944 0.371194
O O5 0.233806 0.448323 0.651757
O O6 0.937809 0.090721 0.663500
O O7 0.745093 0.046073 0.750696
O O8 0.443612 0.779051 0.758307
O O9 0.616965 0.270390 0.744137
O O10 0.560978 0.161415 0.570177
O O11 0.218415 0.365921 0.171242
O O12 0.491182 0.715543 0.111221
O O13 0.342206 0.941308 0.050762
O O14 0.370059 0.229862 0.363958
O O15 0.260855 0.271172 0.871330
O O16 0.500000 0.500000 0.500000
O O17 0.500000 0.500000 0.000000
#
# Coordination Sequence:
#
# PCOD9094756 Si02
#       8
#     2   2   2   2   2   2   2   2
#     4   9  22  40  59  88 128 167 211 244 306 372
#     4  10  23  41  59  89 128 171 204 247 306 379
#     4  11  22  37  62  94 122 160 208 259 308 369
#     4  11  22  39  65  90 127 156 203 263 320 360
#     4  11  22  40  58  91 128 167 201 256 311 367
#     4  11  22  37  65  89 119 160 206 256 305 367
#     4  10  20  34  60  93 124 161 205 256 308 366
#     4  11  23  40  64  99 121 156 207 270 319 360
#
# _framework density 22.857365999999999
#
# number of rings (size 3 to 8) (size 9 to 14) (size 15 to 20)
#    0.000    1.500    3.750    0.750    5.250    1.000 
#    2.250    0.625    0.000    3.750    0.000    0.000 
#    0.000    0.000    0.000    0.000    0.000    0.000 
#
# Total GULP energy -89316.325814 kJ/mol
# GULP energy per Si atom -5582.270363 kJ/mol
# Density = 2.280534 g / cm^3
# Si number density = 22.857366 Si / 1000 Ang^3
#
#
#
# Elastic Constant Matrix: (Units=GPa)
#
#
# Indices 1 2 3 4 5 6 
#
# 1 87.0557 39.7896 30.9309 -5.9188 13.0878 -35.8497
# 2 39.7896 95.1655 28.5414 -12.6257 12.7847 -38.1098
# 3 30.9309 28.5414 72.7425 -19.9359 20.4655 -25.4172
# 4 -5.9188 -12.6257 -19.9359 40.5225 -13.9953 6.3627
# 5 13.0878 12.7847 20.4655 -13.9953 35.0957 -5.2770
# 6 -35.8497 -38.1098 -25.4172 6.3627 -5.2770 40.1646
#
#
#
# Elastic Compliance Matrix: (Units=1/GPa)
#
#
# Indices 1 2 3 4 5 6 
#
# 1 0.019259 -0.001435 -0.002074 -0.002369 -0.004239 0.014334
# 2 -0.001435 0.017693 0.000320 0.002064 -0.003020 0.014985
# 3 -0.002074 0.000320 0.022158 0.006226 -0.008217 0.010409
# 4 -0.002369 0.002064 0.006226 0.031111 0.008911 0.000026
# 5 -0.004239 -0.003020 -0.008217 0.008911 0.038282 -0.008231
# 6 0.014334 0.014985 0.010409 0.000026 -0.008231 0.057412
#
#
# Mechanical properties :
#
#
# Convention : Reuss Voigt Hill
#
# Bulk Modulus (GPa) = 18.96417 50.38753 34.67585
# Shear Modulus (GPa) = 23.82421 33.53666 28.68044
#
# Velocity S-wave (km/s) = 3.23197 3.83458 3.54610
# Velocity P-wave (km/s) = 4.71617 6.45736 5.65419
#
# Compressibility (1/GPa) = 0.05273101
#
# Stress axis : x y z
#
# Youngs Moduli (GPa) = 51.92456 56.52080 45.12942
#
# Poissons Ratio (x) = 0.08110 0.09361
# Poissons Ratio (y) = 0.07450 -0.01442
# Poissons Ratio (z) = 0.10770 -0.01806
#
# Static dielectric constant tensor:
#      x y z
#    x 1.852730 -0.021260 0.039280 
#    y -0.021260 1.901640 -0.015160 
#    z 0.039280 -0.015160 1.926580 
# 
# From -- ./inp_files/94400.got.cif
#   From: 2010.05.17/outbox.cif.g08.bks.cpg/sg2_48_cif.got.tgz:94400.got - 2010.06.03 11:33:40.
