data_PCOD9094639
_publ_section_title
;
Structure prediction by ZEFSAII (Michael W. Deem and Ramdas Pophale) SiO2 
 PCOD9094639
Probable space group: P -1
;
_chemical_formula_sum "Si O2"
_cell_formula_units_Z 16
_cell_length_a 22.656975
_cell_length_b 6.765436
_cell_length_c 8.690870
_cell_angle_alpha 110.865960
_cell_angle_beta 35.911616
_cell_angle_gamma 126.875015
_cell_volume 600.648208
_symmetry_space_group_name_H-M "P -1"
_symmetry_group_IT_number 2
_symmetry_cell_setting 'triclinic'
loop_
_space_group_symop_operation_xyz
x,y,z
-x,-y,-z
loop_
_atom_site_type_symbol
_atom_site_label
_atom_site_fract_x
_atom_site_fract_y
_atom_site_fract_z
Si Si1 0.748022 0.929562 0.954322
Si Si2 0.962367 0.119238 0.788274
Si Si3 0.606100 0.516666 0.666043
Si Si4 0.179698 0.760214 0.646732
Si Si5 0.516666 0.258515 0.474548
Si Si6 0.559900 0.987798 0.718655
Si Si7 0.887169 0.406095 0.598045
Si Si8 0.826259 0.757693 0.462966
O O1 0.749357 0.769080 0.766278
O O2 0.844102 0.961471 0.885838
O O3 0.781368 0.199121 0.879675
O O4 0.618391 0.806841 0.267014
O O5 0.066482 0.320395 0.501706
O O6 0.031642 0.029555 0.725225
O O7 0.915034 0.240821 0.040189
O O8 0.583177 0.482921 0.521658
O O9 0.597010 0.253495 0.638533
O O10 0.747021 0.731962 0.475554
O O11 0.500000 0.500000 0.000000
O O12 0.317360 0.980864 0.472710
O O13 0.144305 0.753322 0.539788
O O14 0.175299 0.499611 0.606074
O O15 0.500000 0.000000 0.500000
O O16 0.541558 0.248708 0.238809
O O17 0.500000 0.000000 0.000000
O O18 0.000000 0.500000 0.500000
#
# Coordination Sequence:
#
# PCOD9094639 Si02
#       8
#     2   2   2   2   2   2   2   2
#     4  11  20  36  62  87 115 152 195 243 289 345
#     4  10  20  40  58  84 117 159 197 232 287 351
#     4  10  20  37  60  84 120 153 186 241 296 350
#     4  10  20  38  59  82 117 156 191 240 289 348
#     4  10  21  37  58  88 115 152 199 238 298 352
#     4  10  22  38  61  86 110 153 204 245 287 346
#     4   9  20  33  56  85 112 146 190 235 281 340
#     4  10  20  34  59  87 116 158 191 230 297 353
#
# _framework density 26.637886999999999
#
# number of rings (size 3 to 8) (size 9 to 14) (size 15 to 20)
#    0.000    2.000    2.500    1.875    3.500    0.000 
#    0.000    3.125    0.000    0.000    0.000    0.000 
#    0.000    0.000    0.000    0.000    0.000    0.000 
#
# Total GULP energy -89128.580655 kJ/mol
# GULP energy per Si atom -5570.536291 kJ/mol
# Density = 2.657726 g / cm^3
# Si number density = 26.637887 Si / 1000 Ang^3
#
#
#
# Elastic Constant Matrix: (Units=GPa)
#
#
# Indices 1 2 3 4 5 6 
#
# 1 233.3645 61.6867 54.7333 13.9031 -13.2616 42.9717
# 2 61.6867 75.6971 17.2989 12.6907 -9.7465 29.5218
# 3 54.7333 17.2989 90.6524 12.1180 -4.9963 16.6318
# 4 13.9031 12.6907 12.1180 35.3758 3.8080 5.2250
# 5 -13.2616 -9.7465 -4.9963 3.8080 40.5590 11.7233
# 6 42.9717 29.5218 16.6318 5.2250 11.7233 61.9150
#
#
#
# Elastic Compliance Matrix: (Units=1/GPa)
#
#
# Indices 1 2 3 4 5 6 
#
# 1 0.006341 -0.003400 -0.002629 -0.000198 0.001635 -0.002366
# 2 -0.003400 0.021158 0.000830 -0.006011 0.007184 -0.008805
# 3 -0.002629 0.000830 0.013488 -0.003768 0.002008 -0.002257
# 4 -0.000198 -0.006011 -0.003768 0.032051 -0.005672 0.002385
# 5 0.001635 0.007184 0.002008 -0.005672 0.030713 -0.010436
# 6 -0.002366 -0.008805 -0.002257 0.002385 -0.010436 0.024373
#
#
# Mechanical properties :
#
#
# Convention : Reuss Voigt Hill
#
# Bulk Modulus (GPa) = 32.69019 74.12798 53.40909
# Shear Modulus (GPa) = 33.62059 45.30297 39.46178
#
# Velocity S-wave (km/s) = 3.55651 4.12842 3.85309
# Velocity P-wave (km/s) = 5.40034 7.11433 6.31575
#
# Compressibility (1/GPa) = 0.03059022
#
# Stress axis : x y z
#
# Youngs Moduli (GPa) = 157.70597 47.26307 74.13828
#
# Poissons Ratio (x) = 0.16069 0.19490
# Poissons Ratio (y) = 0.53617 -0.06154
# Poissons Ratio (z) = 0.41459 -0.03923
#
# Static dielectric constant tensor:
#      x y z
#    x 2.116360 0.028290 0.057990 
#    y 0.028290 2.251440 -0.093800 
#    z 0.057990 -0.093800 2.102420 
# 
# From -- ./inp_files/342851.got.cif
#   From: 2010.05.17/outbox.cif.g08.bks.cpg/sg2_172_cif.got.tgz:342851.got - 2010.06.03 11:33:40.
