data_PCOD9094184
_publ_section_title
;
Structure prediction by ZEFSAII (Michael W. Deem and Ramdas Pophale) SiO2 
 PCOD9094184
Probable space group: P -1
;
_chemical_formula_sum "Si O2"
_cell_formula_units_Z 16
_cell_length_a 18.045239
_cell_length_b 7.359157
_cell_length_c 20.902931
_cell_angle_alpha 138.920377
_cell_angle_beta 157.419134
_cell_angle_gamma 33.844532
_cell_volume 592.528983
_symmetry_space_group_name_H-M "P -1"
_symmetry_group_IT_number 2
_symmetry_cell_setting 'triclinic'
loop_
_space_group_symop_operation_xyz
x,y,z
-x,-y,-z
loop_
_atom_site_type_symbol
_atom_site_label
_atom_site_fract_x
_atom_site_fract_y
_atom_site_fract_z
Si Si1 0.865240 0.880039 0.403994
Si Si2 0.775423 0.843863 0.452756
Si Si3 0.925217 0.516465 0.098621
Si Si4 0.605882 0.287000 0.896434
Si Si5 0.932276 0.286054 0.847546
Si Si6 0.233235 0.275233 0.838825
Si Si7 0.277262 0.089176 0.427067
Si Si8 0.319042 0.801990 0.219674
O O1 0.009780 0.505433 0.444959
O O2 0.797711 0.039099 0.463144
O O3 0.695962 0.917643 0.223175
O O4 0.000000 0.000000 0.500000
O O5 0.600077 0.750079 0.260758
O O6 0.684250 0.009295 0.492781
O O7 0.090971 0.580760 0.206424
O O8 0.823378 0.757741 0.141260
O O9 0.097510 0.138882 0.156280
O O10 0.739556 0.483369 0.899239
O O11 0.660856 0.192955 0.840877
O O12 0.576603 0.633039 0.974504
O O13 0.826258 0.054441 0.051741
O O14 0.742097 0.209326 0.696202
O O15 0.000000 0.500000 0.000000
O O16 0.973486 0.582052 0.695243
O O17 0.461359 0.183971 0.580353
#
# Coordination Sequence:
#
# PCOD9094184 Si02
#       8
#     2   2   2   2   2   2   2   2
#     4  10  21  39  62  87 114 138 195 244 291 347
#     4   9  20  41  62  82 112 157 181 242 298 344
#     4  10  20  34  55  80 118 150 189 242 285 323
#     4   9  18  39  58  77 116 150 191 224 293 341
#     4  11  21  36  54  84 118 154 193 239 272 334
#     4   9  20  37  56  81 111 150 183 238 288 349
#     4   9  20  37  58  80 112 156 193 224 295 346
#     4   9  18  36  55  78 112 155 190 233 280 345
#
# _framework density 27.002896
#
# number of rings (size 3 to 8) (size 9 to 14) (size 15 to 20)
#    0.000    2.500    1.250    0.000    3.500    1.500 
#    9.000    0.625    0.000    0.000    0.000    0.000 
#    0.000    0.000    0.000    0.000    0.000    0.000 
#
# Total GULP energy -89098.748814 kJ/mol
# GULP energy per Si atom -5568.671801 kJ/mol
# Density = 2.694144 g / cm^3
# Si number density = 27.002896 Si / 1000 Ang^3
#
#
#
# Elastic Constant Matrix: (Units=GPa)
#
#
# Indices 1 2 3 4 5 6 
#
# 1 147.3531 21.9062 41.5975 17.4577 -1.4304 15.3641
# 2 21.9062 36.3341 20.3487 -3.6593 1.5564 -4.8221
# 3 41.5975 20.3487 165.4657 11.1118 17.8488 7.4670
# 4 17.4577 -3.6593 11.1118 32.6027 1.5990 7.5795
# 5 -1.4304 1.5564 17.8488 1.5990 51.6633 4.1958
# 6 15.3641 -4.8221 7.4670 7.5795 4.1958 36.4383
#
#
#
# Elastic Compliance Matrix: (Units=1/GPa)
#
#
# Indices 1 2 3 4 5 6 
#
# 1 0.008834 -0.005574 -0.001232 -0.004188 0.001251 -0.003483
# 2 -0.005574 0.034363 -0.003476 0.006592 -0.000706 0.006320
# 3 -0.001232 -0.003476 0.007189 -0.001893 -0.002293 -0.000756
# 4 -0.004188 0.006592 -0.001893 0.035313 -0.000407 -0.004273
# 5 0.001251 -0.000706 -0.002293 -0.000407 0.020413 -0.002417
# 6 -0.003483 0.006320 -0.000756 -0.004273 -0.002417 0.031071
#
#
# Mechanical properties :
#
#
# Convention : Reuss Voigt Hill
#
# Bulk Modulus (GPa) = 33.53237 57.42863 45.48050
# Shear Modulus (GPa) = 29.81728 41.82756 35.82242
#
# Velocity S-wave (km/s) = 3.32659 3.94001 3.64622
# Velocity P-wave (km/s) = 5.21536 6.48166 5.88268
#
# Compressibility (1/GPa) = 0.02982193
#
# Stress axis : x y z
#
# Youngs Moduli (GPa) = 113.19522 29.10133 139.09452
#
# Poissons Ratio (x) = 0.16221 0.17135
# Poissons Ratio (y) = 0.63094 0.48354
# Poissons Ratio (z) = 0.13945 0.10117
#
# Static dielectric constant tensor:
#      x y z
#    x 2.257500 -0.024600 -0.014600 
#    y -0.024600 2.320140 0.035020 
#    z -0.014600 0.035020 2.112310 
# 
# From -- ./inp_files/351783.got.cif
#   From: 2010.05.17/outbox.cif.g08.bks.cpg/sg2_176_cif.got.tgz:351783.got - 2010.06.03 11:33:40.
