data_PCOD9094750
_publ_section_title
;
Structure prediction by ZEFSAII (Michael W. Deem and Ramdas Pophale) SiO2 
 PCOD9094750
Probable space group: P -1
;
_chemical_formula_sum "Si O2"
_cell_formula_units_Z 14
_cell_length_a 13.110256
_cell_length_b 7.906574
_cell_length_c 10.649794
_cell_angle_alpha 124.781013
_cell_angle_beta 138.836220
_cell_angle_gamma 74.928293
_cell_volume 566.738998
_symmetry_space_group_name_H-M "P -1"
_symmetry_group_IT_number 2
_symmetry_cell_setting 'triclinic'
loop_
_space_group_symop_operation_xyz
x,y,z
-x,-y,-z
loop_
_atom_site_type_symbol
_atom_site_label
_atom_site_fract_x
_atom_site_fract_y
_atom_site_fract_z
Si Si1 0.504866 0.925368 0.809413
Si Si2 0.753239 0.717731 0.089589
Si Si3 0.317038 0.626025 0.324025
Si Si4 0.774922 0.691706 0.664996
Si Si5 0.968182 0.869976 0.566322
Si Si6 0.266063 0.710643 0.704343
Si Si7 0.882927 0.090806 0.813200
O O1 0.469716 0.822602 0.597005
O O2 0.337103 0.853528 0.704061
O O3 0.620713 0.814966 0.946675
O O4 0.601651 0.177616 0.019544
O O5 0.795497 0.742645 0.286488
O O6 0.703638 0.484549 0.878258
O O7 0.929465 0.884230 0.280796
O O8 0.301767 0.440032 0.335998
O O9 0.177234 0.739748 0.248312
O O10 0.735566 0.521886 0.442970
O O11 0.747719 0.918042 0.698907
O O12 0.966870 0.767951 0.906704
O O13 0.094324 0.735324 0.599176
O O14 0.939956 0.931298 0.707027
#
# Coordination Sequence:
#
# PCOD9094750 Si02
#       7
#     2   2   2   2   2   2   2
#     4   9  20  34  61  88 117 160 205 237 294 365
#     4  10  20  34  60  92 120 155 202 246 297 355
#     4  11  21  38  65  85 121 165 194 245 302 354
#     4  10  22  39  59  90 124 155 200 248 299 353
#     4  10  21  33  59  93 122 150 205 249 292 360
#     4   9  19  37  58  83 122 159 191 250 297 343
#     4  11  23  37  61  95 120 156 200 249 298 359
#
# _framework density 24.702729999999999
#
# number of rings (size 3 to 8) (size 9 to 14) (size 15 to 20)
#    0.000    2.000    1.429    1.714   14.000    0.571 
#    0.000    0.714    0.000    4.286    0.000    0.000 
#    0.000    0.000    0.000    0.000    0.000    0.000 
#
# Total GULP energy -78040.554863 kJ/mol
# GULP energy per Si atom -5574.325347 kJ/mol
# Density = 2.464651 g / cm^3
# Si number density = 24.702730 Si / 1000 Ang^3
#
#
#
# Elastic Constant Matrix: (Units=GPa)
#
#
# Indices 1 2 3 4 5 6 
#
# 1 65.4005 11.8282 26.3127 -4.7111 -8.2325 -11.4095
# 2 11.8282 16.9456 14.2435 7.0015 0.6051 -3.3976
# 3 26.3127 14.2435 207.8855 15.1432 -36.2249 -6.3663
# 4 -4.7111 7.0015 15.1432 37.5834 -2.3214 3.8495
# 5 -8.2325 0.6051 -36.2249 -2.3214 22.3831 -0.4167
# 6 -11.4095 -3.3976 -6.3663 3.8495 -0.4167 26.0730
#
#
#
# Elastic Compliance Matrix: (Units=1/GPa)
#
#
# Indices 1 2 3 4 5 6 
#
# 1 0.020756 -0.015492 -0.000348 0.005488 0.008176 0.006299
# 2 -0.015492 0.083141 -0.005619 -0.016820 -0.018693 0.004868
# 3 -0.000348 -0.005619 0.007473 -0.001404 0.011998 0.001340
# 4 0.005488 -0.016820 -0.001404 0.031692 0.003399 -0.004758
# 5 0.008176 -0.018693 0.011998 0.003399 0.068046 0.004658
# 6 0.006299 0.004868 0.001340 -0.004758 0.004658 0.042849
#
#
# Mechanical properties :
#
#
# Convention : Reuss Voigt Hill
#
# Bulk Modulus (GPa) = 14.60828 43.88895 29.24861
# Shear Modulus (GPa) = 15.64009 33.06438 24.35224
#
# Velocity S-wave (km/s) = 2.51894 3.66251 3.14317
# Velocity P-wave (km/s) = 3.79296 5.97417 5.00386
#
# Compressibility (1/GPa) = 0.06845432
#
# Stress axis : x y z
#
# Youngs Moduli (GPa) = 48.17988 12.02773 133.80835
#
# Poissons Ratio (x) = 0.18633 0.04653
# Poissons Ratio (y) = 0.74638 0.75183
# Poissons Ratio (z) = 0.01675 0.06758
#
# Static dielectric constant tensor:
#      x y z
#    x 2.105350 0.071810 -0.039360 
#    y 0.071810 2.050690 -0.000970 
#    z -0.039360 -0.000970 1.993260 
# 
# From -- ./inp_files/327545.got.cif
#   From: 2010.05.17/outbox.cif.g08.bks.cpg/sg2_164_cif.got.tgz:327545.got - 2010.06.03 11:33:40.
