data_PCOD9094519
_publ_section_title
;
Structure prediction by ZEFSAII (Michael W. Deem and Ramdas Pophale) SiO2 
 PCOD9094519
Probable space group: P -1
;
_chemical_formula_sum "Si O2"
_cell_formula_units_Z 15
_cell_length_a 25.313912
_cell_length_b 9.254501
_cell_length_c 7.088411
_cell_angle_alpha 48.309772
_cell_angle_beta 138.522244
_cell_angle_gamma 145.167442
_cell_volume 622.674807
_symmetry_space_group_name_H-M "P -1"
_symmetry_group_IT_number 2
_symmetry_cell_setting 'triclinic'
loop_
_space_group_symop_operation_xyz
x,y,z
-x,-y,-z
loop_
_atom_site_type_symbol
_atom_site_label
_atom_site_fract_x
_atom_site_fract_y
_atom_site_fract_z
Si Si1 0.520411 0.752301 0.280862
Si Si2 0.250331 0.228396 0.719956
Si Si3 0.178526 0.083676 0.085337
Si Si4 0.946523 0.305725 0.357884
Si Si5 0.000000 0.500000 0.000000
Si Si6 0.662312 0.278183 0.338717
Si Si7 0.314085 0.044903 0.763865
Si Si8 0.833832 0.496950 0.297019
O O1 0.500000 0.500000 0.500000
O O2 0.582519 0.859816 0.152397
O O3 0.591533 0.975550 0.432992
O O4 0.414461 0.705125 0.006469
O O5 0.296426 0.515816 0.565020
O O6 0.323513 0.181466 0.861952
O O7 0.133465 0.985842 0.543553
O O8 0.230161 0.180425 0.931485
O O9 0.259945 0.108474 0.418148
O O10 0.155198 0.263756 0.936431
O O11 0.073532 0.793005 0.040853
O O12 0.000000 0.500000 0.500000
O O13 0.049127 0.396056 0.428787
O O14 0.904758 0.375801 0.022612
O O15 0.759764 0.373374 0.387063
O O16 0.227305 0.735572 0.813323
#
# Coordination Sequence:
#
# PCOD9094519 Si02
#       8
#     2   2   2   2   1   2   2   2
#     4  10  20  39  66  84 117 158 196 252 309 354
#     4  10  21  37  63  89 125 157 200 249 287 362
#     4  10  21  38  57  87 120 159 206 239 294 354
#     4  11  20  38  61  88 126 161 199 240 297 352
#     4  10  20  34  58  82 118 160 202 242 284 352
#     4   9  21  38  57  93 117 151 205 245 300 358
#     4  11  21  41  63  87 124 159 197 252 301 349
#     4  10  20  38  63  84 123 163 194 245 297 351
#
# _framework density 24.08962
#
# number of rings (size 3 to 8) (size 9 to 14) (size 15 to 20)
#    0.000    1.867    2.667    1.600    0.000    5.333 
#    0.000   11.333    0.000    0.000    0.000    0.000 
#    0.000    0.000    0.000    0.000    0.000    0.000 
#
# Total GULP energy -83572.320110 kJ/mol
# GULP energy per Si atom -5571.488007 kJ/mol
# Density = 2.403479 g / cm^3
# Si number density = 24.089620 Si / 1000 Ang^3
#
#
#
# Elastic Constant Matrix: (Units=GPa)
#
#
# Indices 1 2 3 4 5 6 
#
# 1 88.6314 27.8520 11.4764 4.0201 13.5955 -11.3563
# 2 27.8520 194.5184 30.1647 -14.6224 8.8951 -28.6987
# 3 11.4764 30.1647 77.7487 -9.7320 14.8004 2.2183
# 4 4.0201 -14.6224 -9.7320 34.6361 4.5035 15.4088
# 5 13.5955 8.8951 14.8004 4.5035 29.1144 5.6725
# 6 -11.3563 -28.6987 2.2183 15.4088 5.6725 43.5679
#
#
#
# Elastic Compliance Matrix: (Units=1/GPa)
#
#
# Indices 1 2 3 4 5 6 
#
# 1 0.013445 -0.001043 -0.001090 -0.003759 -0.005790 0.004957
# 2 -0.001043 0.006296 -0.002091 0.000604 -0.001233 0.003929
# 3 -0.001090 -0.002091 0.016137 0.006420 -0.007308 -0.003802
# 4 -0.003759 0.000604 0.006420 0.038123 -0.004910 -0.013753
# 5 -0.005790 -0.001233 -0.007308 -0.004910 0.043035 -0.005816
# 6 0.004957 0.003929 -0.003802 -0.013753 -0.005816 0.032647
#
#
# Mechanical properties :
#
#
# Convention : Reuss Voigt Hill
#
# Bulk Modulus (GPa) = 36.45376 55.54275 45.99825
# Shear Modulus (GPa) = 29.89104 40.89072 35.39088
#
# Velocity S-wave (km/s) = 3.52636 4.12447 3.83709
# Velocity P-wave (km/s) = 5.63433 6.76672 6.22632
#
# Compressibility (1/GPa) = 0.02743201
#
# Stress axis : x y z
#
# Youngs Moduli (GPa) = 74.37580 158.83660 61.96904
#
# Poissons Ratio (x) = 0.16561 0.06754
# Poissons Ratio (y) = 0.07755 0.12955
# Poissons Ratio (z) = 0.08106 0.33205
#
# Static dielectric constant tensor:
#      x y z
#    x 1.583130 -0.138390 0.978910 
#    y -0.138390 1.971470 0.272670 
#    z 0.978910 0.272670 -0.317930 
# 
# From -- ./inp_files/197080.got.cif
#   From: 2010.05.17/outbox.cif.g08.bks.cpg/sg2_99_cif.got.tgz:197080.got - 2010.06.03 11:33:40.
