data_PCOD9094515
_publ_section_title
;
Structure prediction by ZEFSAII (Michael W. Deem and Ramdas Pophale) SiO2 
 PCOD9094515
Probable space group: P -1
;
_chemical_formula_sum "Si O2"
_cell_formula_units_Z 12
_cell_length_a 8.052199
_cell_length_b 13.480992
_cell_length_c 6.906469
_cell_angle_alpha 99.840522
_cell_angle_beta 42.386363
_cell_angle_gamma 109.251647
_cell_volume 474.019250
_symmetry_space_group_name_H-M "P -1"
_symmetry_group_IT_number 2
_symmetry_cell_setting 'triclinic'
loop_
_space_group_symop_operation_xyz
x,y,z
-x,-y,-z
loop_
_atom_site_type_symbol
_atom_site_label
_atom_site_fract_x
_atom_site_fract_y
_atom_site_fract_z
Si Si1 0.532098 0.775449 0.405917
Si Si2 0.658295 0.460676 0.553967
Si Si3 0.477425 0.952361 0.717122
Si Si4 0.955062 0.749127 0.748290
Si Si5 0.108025 0.902084 0.338642
Si Si6 0.790269 0.497145 0.887032
O O1 0.464187 0.652467 0.473710
O O2 0.604344 0.857654 0.548323
O O3 0.049375 0.478656 0.737868
O O4 0.760940 0.794990 0.056952
O O5 0.748773 0.218842 0.421355
O O6 0.703443 0.438330 0.738821
O O7 0.447631 0.521735 0.769116
O O8 0.500000 0.000000 0.500000
O O9 0.623598 0.051941 0.755595
O O10 0.200757 0.899967 0.038505
O O11 0.960234 0.794753 0.542098
O O12 0.860053 0.622254 0.814696
O O13 0.000000 0.000000 0.500000
#
# Coordination Sequence:
#
# PCOD9094515 Si02
#       6
#     2   2   2   2   2   2
#     4  10  20  34  58  82 111 149 186 232 278 333
#     4   8  14  26  46  78 106 137 181 220 271 325
#     4  11  23  40  58  81 113 151 190 237 285 335
#     4  10  20  35  56  83 112 147 188 229 282 331
#     4  11  25  38  58  83 113 152 192 234 286 341
#     4   8  14  26  47  75 109 138 175 227 267 326
#
# _framework density 25.315429999999999
#
# number of rings (size 3 to 8) (size 9 to 14) (size 15 to 20)
#    0.000    2.333    1.667    1.000    4.667    1.333 
#    0.000    0.000    0.000    1.000    0.000    1.167 
#    0.000    0.000    0.000    0.000    0.000    0.000 
#
# Total GULP energy -66973.319054 kJ/mol
# GULP energy per Si atom -5581.109921 kJ/mol
# Density = 2.525781 g / cm^3
# Si number density = 25.315430 Si / 1000 Ang^3
#
#
#
# Elastic Constant Matrix: (Units=GPa)
#
#
# Indices 1 2 3 4 5 6 
#
# 1 71.1789 16.6834 49.3244 -21.8648 -25.5966 -5.7823
# 2 16.6834 84.1493 44.8924 3.2587 17.0740 3.8855
# 3 49.3244 44.8924 197.1624 -4.0455 -31.1430 -24.5874
# 4 -21.8648 3.2587 -4.0455 41.6594 -5.7390 6.1311
# 5 -25.5966 17.0740 -31.1430 -5.7390 56.2061 -1.7521
# 6 -5.7823 3.8855 -24.5874 6.1311 -1.7521 30.2899
#
#
#
# Elastic Compliance Matrix: (Units=1/GPa)
#
#
# Indices 1 2 3 4 5 6 
#
# 1 0.029244 -0.009017 -0.001909 0.017820 0.016899 0.002560
# 2 -0.009017 0.020513 -0.005949 -0.007690 -0.014683 -0.008474
# 3 -0.001909 -0.005949 0.008857 -0.000006 0.006092 0.007941
# 4 0.017820 -0.007690 -0.000006 0.036211 0.014079 -0.002132
# 5 0.016899 -0.014683 0.006092 0.014079 0.035049 0.009232
# 6 0.002560 -0.008474 0.007941 -0.002132 0.009232 0.042002
#
#
# Mechanical properties :
#
#
# Convention : Reuss Voigt Hill
#
# Bulk Modulus (GPa) = 40.21707 63.81009 52.01358
# Shear Modulus (GPa) = 23.37407 41.73712 32.55559
#
# Velocity S-wave (km/s) = 3.04190 4.06480 3.58997
# Velocity P-wave (km/s) = 5.31587 6.87684 6.14611
#
# Compressibility (1/GPa) = 0.02486507
#
# Stress axis : x y z
#
# Youngs Moduli (GPa) = 34.19515 48.74899 112.91097
#
# Poissons Ratio (x) = 0.43955 0.21553
# Poissons Ratio (y) = 0.30832 0.67170
# Poissons Ratio (z) = 0.06527 0.29000
#
# Static dielectric constant tensor:
#      x y z
#    x 2.173300 0.079240 -0.026830 
#    y 0.079240 2.011250 0.016240 
#    z -0.026830 0.016240 2.048710 
# 
# From -- ./inp_files/36010.got.cif
#   From: 2010.05.17/outbox.cif.g08.bks.cpg/sg2_19_cif.got.tgz:36010.got - 2010.06.03 11:33:40.
