data_PCOD9094853
_publ_section_title
;
Structure prediction by ZEFSAII (Michael W. Deem and Ramdas Pophale) SiO2 
 PCOD9094853
Probable space group: P -1
;
_chemical_formula_sum "Si O2"
_cell_formula_units_Z 16
_cell_length_a 8.566249
_cell_length_b 17.335700
_cell_length_c 8.205679
_cell_angle_alpha 127.417465
_cell_angle_beta 103.096395
_cell_angle_gamma 116.634962
_cell_volume 615.384443
_symmetry_space_group_name_H-M "P -1"
_symmetry_group_IT_number 2
_symmetry_cell_setting 'triclinic'
loop_
_space_group_symop_operation_xyz
x,y,z
-x,-y,-z
loop_
_atom_site_type_symbol
_atom_site_label
_atom_site_fract_x
_atom_site_fract_y
_atom_site_fract_z
Si Si1 0.233700 0.561443 0.731567
Si Si2 0.736513 0.091747 0.783211
Si Si3 0.972245 0.203313 0.668251
Si Si4 0.795558 0.673308 0.438170
Si Si5 0.510482 0.914609 0.021791
Si Si6 0.560481 0.423904 0.498616
Si Si7 0.796654 0.987034 0.933290
Si Si8 0.078316 0.614157 0.034758
O O1 0.196489 0.436013 0.642126
O O2 0.444322 0.647248 0.755014
O O3 0.268276 0.651389 0.004564
O O4 0.000000 0.500000 0.500000
O O5 0.972101 0.192082 0.849801
O O6 0.703441 0.164969 0.000383
O O7 0.712980 0.980055 0.727479
O O8 0.500000 0.000000 0.500000
O O9 0.206212 0.314845 0.745575
O O10 0.764619 0.034496 0.338441
O O11 0.852725 0.255697 0.689669
O O12 0.601301 0.643727 0.462325
O O13 0.044961 0.844979 0.760318
O O14 0.500000 0.000000 0.000000
O O15 0.566947 0.857521 0.829654
O O16 0.500000 0.500000 0.500000
O O17 0.834874 0.533291 0.772328
O O18 0.000000 0.000000 0.000000
O O19 0.000000 0.500000 0.000000
#
# Coordination Sequence:
#
# PCOD9094853 Si02
#       8
#     2   2   2   2   2   2   2   2
#     4   9  19  37  60  84 117 160 205 246 285 353
#     4   9  19  38  61  87 113 150 195 251 301 349
#     4  10  20  34  62  88 122 153 193 241 319 341
#     4  10  20  40  57  85 123 169 192 237 313 361
#     4   8  17  39  61  84 114 156 196 244 290 360
#     4   9  21  39  59  80 121 164 204 236 288 369
#     4  10  21  38  62  86 117 156 203 247 295 361
#     4  11  21  38  58  92 122 153 198 255 292 349
#
# _framework density 26.000007
#
# number of rings (size 3 to 8) (size 9 to 14) (size 15 to 20)
#    0.000    2.500    1.250    0.000    5.250    0.500 
#    9.000    5.625    0.000    0.000    0.000    0.000 
#    0.000    0.000    0.000    0.000    0.000    0.000 
#
# Total GULP energy -89108.398616 kJ/mol
# GULP energy per Si atom -5569.274913 kJ/mol
# Density = 2.594083 g / cm^3
# Si number density = 26.000007 Si / 1000 Ang^3
#
#
#
# Elastic Constant Matrix: (Units=GPa)
#
#
# Indices 1 2 3 4 5 6 
#
# 1 149.5421 67.1735 12.6926 -26.8896 -19.3298 37.6774
# 2 67.1735 190.7783 14.3214 -27.5606 -20.7323 35.5834
# 3 12.6926 14.3214 45.5509 -8.1162 -3.8833 4.7027
# 4 -26.8896 -27.5606 -8.1162 32.7562 5.1479 -17.3543
# 5 -19.3298 -20.7323 -3.8833 5.1479 33.0155 -19.1320
# 6 37.6774 35.5834 4.7027 -17.3543 -19.1320 71.1136
#
#
#
# Elastic Compliance Matrix: (Units=1/GPa)
#
#
# Indices 1 2 3 4 5 6 
#
# 1 0.009224 -0.001924 -0.000798 0.004219 0.002125 -0.002270
# 2 -0.001924 0.006840 -0.000782 0.003109 0.001977 -0.001061
# 3 -0.000798 -0.000782 0.023297 0.004653 0.001532 0.000822
# 4 0.004219 0.003109 0.004653 0.040834 0.002372 0.006505
# 5 0.002125 0.001977 0.001532 0.002372 0.037479 0.008445
# 6 -0.002270 -0.001061 0.000822 0.006505 0.008445 0.019601
#
#
# Mechanical properties :
#
#
# Convention : Reuss Voigt Hill
#
# Bulk Modulus (GPa) = 30.91024 63.80514 47.35769
# Shear Modulus (GPa) = 32.24399 46.82264 39.53332
#
# Velocity S-wave (km/s) = 3.52540 4.24827 3.90360
# Velocity P-wave (km/s) = 5.33719 6.97549 6.21060
#
# Compressibility (1/GPa) = 0.03235174
#
# Stress axis : x y z
#
# Youngs Moduli (GPa) = 108.40728 146.20504 42.92441
#
# Poissons Ratio (x) = 0.28132 0.03426
# Poissons Ratio (y) = 0.20859 0.03358
# Poissons Ratio (z) = 0.08652 0.11438
#
# Static dielectric constant tensor:
#      x y z
#    x 2.097540 0.087000 -0.081470 
#    y 0.087000 2.217020 -0.058850 
#    z -0.081470 -0.058850 2.266270 
# 
# From -- ./inp_files/218642.got.cif
#   From: 2010.05.17/outbox.cif.g08.bks.cpg/sg2_110_cif.got.tgz:218642.got - 2010.06.03 11:33:40.
