data_PCOD9094004
_publ_section_title
;
Structure prediction by ZEFSAII (Michael W. Deem and Ramdas Pophale) SiO2 
 PCOD9094004
Probable space group: P -1
;
_chemical_formula_sum "Si O2"
_cell_formula_units_Z 16
_cell_length_a 24.993345
_cell_length_b 7.682842
_cell_length_c 25.140964
_cell_angle_alpha 41.038345
_cell_angle_beta 11.342780
_cell_angle_gamma 42.216857
_cell_volume 623.371225
_symmetry_space_group_name_H-M "P -1"
_symmetry_group_IT_number 2
_symmetry_cell_setting 'triclinic'
loop_
_space_group_symop_operation_xyz
x,y,z
-x,-y,-z
loop_
_atom_site_type_symbol
_atom_site_label
_atom_site_fract_x
_atom_site_fract_y
_atom_site_fract_z
Si Si1 0.442398 0.506979 0.897554
Si Si2 0.377034 0.028325 0.773958
Si Si3 0.345039 0.234688 0.227077
Si Si4 0.867158 0.167431 0.786237
Si Si5 0.138096 0.779881 0.817088
Si Si6 0.925772 0.232260 0.445777
Si Si7 0.380607 0.518432 0.739208
Si Si8 0.068787 0.614441 0.718242
O O1 0.748896 0.402752 0.620314
O O2 0.429509 0.739658 0.812852
O O3 0.297349 0.646013 0.056706
O O4 0.243597 0.262233 0.137669
O O5 0.618785 0.142885 0.476500
O O6 0.349178 0.241754 0.800330
O O7 0.106822 0.022245 0.002845
O O8 0.099205 0.294270 0.494028
O O9 0.191162 0.062469 0.372809
O O10 0.500000 0.500000 0.000000
O O11 0.602304 0.056922 0.038162
O O12 0.038472 0.919081 0.699221
O O13 0.262124 0.739471 0.763874
O O14 0.000000 0.500000 0.000000
O O15 0.884370 0.348133 0.398976
O O16 0.690867 0.534254 0.451039
O O17 0.209112 0.507871 0.962499
#
# Coordination Sequence:
#
# PCOD9094004 Si02
#       8
#     2   2   2   2   2   2   2   2
#     4  12  24  41  64  96 133 167 209 270 319 372
#     4  11  21  34  58  86 129 163 208 264 339 364
#     4  11  24  47  72  97 131 171 206 251 310 382
#     4  11  23  41  69  99 127 165 219 258 305 374
#     4  10  20  34  51  90 126 162 209 276 323 375
#     4  11  25  41  63  94 132 165 209 259 322 381
#     4  11  19  33  60  87 119 157 220 268 313 363
#     4  11  21  37  62  89 122 162 216 266 311 361
#
# _framework density 25.666889000000001
#
# number of rings (size 3 to 8) (size 9 to 14) (size 15 to 20)
#    0.000    1.000    1.250    9.375    1.750    0.000 
#    0.000    3.750    0.000   15.000    0.000    0.000 
#    0.000    0.000    0.000    0.000    0.000    0.000 
#
# Total GULP energy -89529.268576 kJ/mol
# GULP energy per Si atom -5595.579286 kJ/mol
# Density = 2.560847 g / cm^3
# Si number density = 25.666889 Si / 1000 Ang^3
#
#
#
# Elastic Constant Matrix: (Units=GPa)
#
#
# Indices 1 2 3 4 5 6 
#
# 1 48.2953 16.1181 35.4347 6.2295 17.2434 6.9041
# 2 16.1181 -77.8156 -106.1168 108.3649 46.7330 41.7653
# 3 35.4347 -106.1168 66.0502 103.9933 52.9425 27.9998
# 4 6.2295 108.3649 103.9933 -42.7011 -19.9498 -21.7654
# 5 17.2434 46.7330 52.9425 -19.9498 43.8314 2.9353
# 6 6.9041 41.7653 27.9998 -21.7654 2.9353 29.9748
#
#
#
# Elastic Compliance Matrix: (Units=1/GPa)
#
#
# Indices 1 2 3 4 5 6 
#
# 1 0.027340 -0.001943 -0.003537 -0.004911 -0.006431 -0.003222
# 2 -0.001943 0.008576 -0.003939 0.011145 0.001443 0.000130
# 3 -0.003537 -0.003939 0.005862 0.002588 -0.000495 0.002756
# 4 -0.004911 0.011145 0.002588 0.015604 -0.005645 -0.004933
# 5 -0.006431 0.001443 -0.000495 -0.005645 0.022259 -0.006346
# 6 -0.003222 0.000130 0.002756 -0.004933 -0.006346 0.028388
#
#
# Mechanical properties :
#
#
# Convention : Reuss Voigt Hill
#
# Bulk Modulus (GPa) = 43.59666 -8.06647 17.76510
# Shear Modulus (GPa) = 37.17122 12.29394 24.73258
#
# Velocity S-wave (km/s) = 3.80967 2.19094 3.10756
# Velocity P-wave (km/s) = 6.03108 1.80297 4.45110
#
# Compressibility (1/GPa) = 0.02293754
#
# Stress axis : x y z
#
# Youngs Moduli (GPa) = 36.57678 116.61007 170.60285
#
# Poissons Ratio (x) = 0.22660 0.60346
# Poissons Ratio (y) = 0.07108 0.67206
# Poissons Ratio (z) = 0.12938 0.45936
#
# Static dielectric constant tensor:
#      x y z
#    x 2.132210 0.004210 -0.034350 
#    y 0.004210 2.068980 0.021280 
#    z -0.034350 0.021280 1.889120 
# 
# From -- ./inp_files/621131.got.cif
#   From: 2010.05.17/outbox.cif.g08.bks.cpg/sg2_311_cif.got.tgz:621131.got - 2010.06.03 11:33:40.
