data_PCOD9094938
_publ_section_title
;
Structure prediction by ZEFSAII (Michael W. Deem and Ramdas Pophale) SiO2 
 PCOD9094938
Probable space group: P -1
;
_chemical_formula_sum "Si O2"
_cell_formula_units_Z 16
_cell_length_a 9.391218
_cell_length_b 22.957375
_cell_length_c 11.879405
_cell_angle_alpha 52.124104
_cell_angle_beta 154.337175
_cell_angle_gamma 117.147577
_cell_volume 839.452882
_symmetry_space_group_name_H-M "P -1"
_symmetry_group_IT_number 2
_symmetry_cell_setting 'triclinic'
loop_
_space_group_symop_operation_xyz
x,y,z
-x,-y,-z
loop_
_atom_site_type_symbol
_atom_site_label
_atom_site_fract_x
_atom_site_fract_y
_atom_site_fract_z
Si Si1 0.401394 0.453004 0.830961
Si Si2 0.472710 0.152310 0.194150
Si Si3 0.597276 0.592892 0.712482
Si Si4 0.915940 0.084150 0.788577
Si Si5 0.709306 0.781936 0.788215
Si Si6 0.533260 0.697612 0.095251
Si Si7 0.297612 0.658999 0.638252
Si Si8 0.207052 0.664076 0.132524
O O1 0.606430 0.506265 0.853910
O O2 0.462775 0.374874 0.894912
O O3 0.000000 0.500000 0.500000
O O4 0.533809 0.421570 0.085227
O O5 0.768893 0.091905 0.547247
O O6 0.209067 0.193649 0.057806
O O7 0.620672 0.217698 0.167582
O O8 0.249374 0.114802 0.999736
O O9 0.303134 0.642863 0.528300
O O10 0.475144 0.614302 0.473172
O O11 0.934379 0.617799 0.957064
O O12 0.593210 0.142994 0.553950
O O13 0.000000 0.000000 0.000000
O O14 0.525961 0.715359 0.755276
O O15 0.007694 0.743284 0.960640
O O16 0.380242 0.684354 0.120583
O O17 0.931946 0.693382 0.391435
#
# Coordination Sequence:
#
# PCOD9094938 Si02
#       8
#     2   2   2   2   2   2   2   2
#     4  12  23  38  63  88 113 159 213 262 309 352
#     4  10  20  38  62  89 117 157 198 242 282 356
#     4  11  25  42  58  84 121 159 204 256 310 358
#     4  10  20  34  64  98 120 146 194 244 292 344
#     4   9  20  37  63  85 120 154 200 237 297 349
#     4  12  24  39  62  88 119 158 210 249 302 355
#     4  11  21  40  63  86 113 159 214 251 297 359
#     4  11  27  40  59  87 124 161 200 252 307 357
#
# _framework density 19.060034999999999
#
# number of rings (size 3 to 8) (size 9 to 14) (size 15 to 20)
#    0.750    0.500    3.750    3.000    5.250    1.000 
#    0.000    0.000    0.000    1.500    0.000    0.000 
#    0.000    0.000    0.000    0.000    0.000    0.000 
#
# Total GULP energy -89238.525318 kJ/mol
# GULP energy per Si atom -5577.407832 kJ/mol
# Density = 1.901665 g / cm^3
# Si number density = 19.060035 Si / 1000 Ang^3
#
#
#
# Elastic Constant Matrix: (Units=GPa)
#
#
# Indices 1 2 3 4 5 6 
#
# 1 93.2896 17.5434 10.1558 -1.5703 -13.9276 18.9954
# 2 17.5434 56.3261 20.2617 -10.3580 -12.0911 6.2173
# 3 10.1558 20.2617 76.0619 -14.3158 -26.7366 6.3687
# 4 -1.5703 -10.3580 -14.3158 40.3718 3.8818 -5.8969
# 5 -13.9276 -12.0911 -26.7366 3.8818 20.4707 -1.2816
# 6 18.9954 6.2173 6.3687 -5.8969 -1.2816 19.8464
#
#
#
# Elastic Compliance Matrix: (Units=1/GPa)
#
#
# Indices 1 2 3 4 5 6 
#
# 1 0.016066 -0.002041 0.004718 -0.002012 0.015275 -0.015863
# 2 -0.002041 0.021775 -0.001620 0.003724 0.008483 -0.002694
# 3 0.004718 -0.001620 0.027487 0.004660 0.036701 -0.009074
# 4 -0.002012 0.003724 0.004660 0.028240 0.002050 0.007786
# 5 0.015275 0.008483 0.036701 0.002050 0.110466 -0.021313
# 6 -0.015863 -0.002694 -0.009074 0.007786 -0.021313 0.070263
#
#
# Mechanical properties :
#
#
# Convention : Reuss Voigt Hill
#
# Bulk Modulus (GPa) = 14.82763 35.73325 25.28044
# Shear Modulus (GPa) = 16.96853 27.98557 22.47705
#
# Velocity S-wave (km/s) = 2.98697 3.83598 3.43779
# Velocity P-wave (km/s) = 4.43760 6.19742 5.38982
#
# Compressibility (1/GPa) = 0.06744164
#
# Stress axis : x y z
#
# Youngs Moduli (GPa) = 62.24243 45.92386 36.38136
#
# Poissons Ratio (x) = 0.09373 -0.17163
# Poissons Ratio (y) = 0.12703 0.05893
# Poissons Ratio (z) = -0.29364 0.07439
#
# Static dielectric constant tensor:
#      x y z
#    x 1.660370 -0.033820 -0.005700 
#    y -0.033820 1.690120 0.006730 
#    z -0.005700 0.006730 1.733980 
# 
# From -- ./inp_files/406630.got.cif
#   From: 2010.05.17/outbox.cif.g08.bks.cpg/sg2_204_cif.got.tgz:406630.got - 2010.06.03 11:33:40.
