data_PCOD9094536
_publ_section_title
;
Structure prediction by ZEFSAII (Michael W. Deem and Ramdas Pophale) SiO2 
 PCOD9094536
Probable space group: P -1
;
_chemical_formula_sum "Si O2"
_cell_formula_units_Z 12
_cell_length_a 11.471245
_cell_length_b 8.419961
_cell_length_c 8.036075
_cell_angle_alpha 132.853835
_cell_angle_beta 124.177368
_cell_angle_gamma 83.221117
_cell_volume 423.796509
_symmetry_space_group_name_H-M "P -1"
_symmetry_group_IT_number 2
_symmetry_cell_setting 'triclinic'
loop_
_space_group_symop_operation_xyz
x,y,z
-x,-y,-z
loop_
_atom_site_type_symbol
_atom_site_label
_atom_site_fract_x
_atom_site_fract_y
_atom_site_fract_z
Si Si1 0.988557 0.049278 0.768639
Si Si2 0.242605 0.655179 0.661220
Si Si3 0.338240 0.155486 0.031977
Si Si4 0.932140 0.589742 0.203677
Si Si5 0.461380 0.388803 0.630694
Si Si6 0.267316 0.892003 0.212654
O O1 0.991290 0.251423 0.784158
O O2 0.882469 0.050991 0.837678
O O3 0.907896 0.780905 0.438736
O O4 0.171142 0.109151 0.945074
O O5 0.065356 0.539159 0.370685
O O6 0.324983 0.480061 0.598378
O O7 0.259559 0.772340 0.941149
O O8 0.324943 0.897123 0.788022
O O9 0.455683 0.273316 0.362475
O O10 0.389641 0.352504 0.068215
O O11 0.776194 0.343701 0.876145
O O12 0.414348 0.152965 0.540697
#
# Coordination Sequence:
#
# PCOD9094536 Si02
#       6
#     2   2   2   2   2   2
#     4  10  21  38  57  80 111 144 184 224 269 326
#     4  10  20  34  58  85 109 140 183 228 271 318
#     4   9  20  36  56  80 110 149 181 220 272 324
#     4  10  21  35  55  83 111 144 180 224 275 321
#     4  10  20  35  55  83 114 141 181 227 271 323
#     4  11  21  34  57  87 111 138 180 232 276 315
#
# _framework density 28.315473999999998
#
# number of rings (size 3 to 8) (size 9 to 14) (size 15 to 20)
#    0.000    2.000    0.000    3.500    0.000    9.333 
#    0.000    0.833    0.000   18.000    0.000    2.333 
#    0.000    0.000    0.000    0.000    0.000    0.000 
#
# Total GULP energy -67077.117833 kJ/mol
# GULP energy per Si atom -5589.759819 kJ/mol
# Density = 2.825103 g / cm^3
# Si number density = 28.315474 Si / 1000 Ang^3
#
#
#
# Elastic Constant Matrix: (Units=GPa)
#
#
# Indices 1 2 3 4 5 6 
#
# 1 125.9556 52.7685 45.5779 17.6273 -16.2935 2.3618
# 2 52.7685 120.7510 40.1507 58.3771 3.7427 -18.6455
# 3 45.5779 40.1507 119.5193 47.5204 4.4591 12.9061
# 4 17.6273 58.3771 47.5204 80.4894 4.3742 8.1931
# 5 -16.2935 3.7427 4.4591 4.3742 41.7571 8.5229
# 6 2.3618 -18.6455 12.9061 8.1931 8.5229 28.8812
#
#
#
# Elastic Compliance Matrix: (Units=1/GPa)
#
#
# Indices 1 2 3 4 5 6 
#
# 1 0.013788 -0.010014 -0.003941 0.007176 0.008037 -0.010239
# 2 -0.010014 0.025961 0.000169 -0.018830 -0.009516 0.025653
# 3 -0.003941 0.000169 0.012733 -0.006387 -0.001639 -0.002963
# 4 0.007176 -0.018830 -0.006387 0.030003 0.006153 -0.020216
# 5 0.008037 -0.009516 -0.001639 0.006153 0.030925 -0.016940
# 6 -0.010239 0.025653 -0.002963 -0.020216 -0.016940 0.064082
#
#
# Mechanical properties :
#
#
# Convention : Reuss Voigt Hill
#
# Bulk Modulus (GPa) = 40.14445 71.46890 55.80668
# Shear Modulus (GPa) = 23.43371 45.40748 34.42059
#
# Velocity S-wave (km/s) = 2.87991 4.00888 3.49034
# Velocity P-wave (km/s) = 5.02662 6.83543 5.99958
#
# Compressibility (1/GPa) = 0.02491004
#
# Stress axis : x y z
#
# Youngs Moduli (GPa) = 72.52556 38.51953 78.53388
#
# Poissons Ratio (x) = 0.38574 0.30952
# Poissons Ratio (y) = 0.72629 -0.01329
# Poissons Ratio (z) = 0.28584 -0.00652
#
# Static dielectric constant tensor:
#      x y z
#    x 2.242260 0.021560 0.065760 
#    y 0.021560 2.351600 0.008580 
#    z 0.065760 0.008580 2.181560 
# 
# From -- ./inp_files/241636.got.cif
#   From: 2010.05.17/outbox.cif.g08.bks.cpg/sg2_121_cif.got.tgz:241636.got - 2010.06.03 11:33:40.
