data_PCOD9094511
_publ_section_title
;
Structure prediction by ZEFSAII (Michael W. Deem and Ramdas Pophale) SiO2 
 PCOD9094511
Probable space group: P -1
;
_chemical_formula_sum "Si O2"
_cell_formula_units_Z 16
_cell_length_a 18.187697
_cell_length_b 11.869465
_cell_length_c 21.253171
_cell_angle_alpha 33.465753
_cell_angle_beta 19.174781
_cell_angle_gamma 41.693322
_cell_volume 809.193449
_symmetry_space_group_name_H-M "P -1"
_symmetry_group_IT_number 2
_symmetry_cell_setting 'triclinic'
loop_
_space_group_symop_operation_xyz
x,y,z
-x,-y,-z
loop_
_atom_site_type_symbol
_atom_site_label
_atom_site_fract_x
_atom_site_fract_y
_atom_site_fract_z
Si Si1 0.776135 0.575226 0.894743
Si Si2 0.148689 0.794154 0.405032
Si Si3 0.789648 0.443888 0.148206
Si Si4 0.120826 0.480044 0.346084
Si Si5 0.652659 0.787691 0.016309
Si Si6 0.511973 0.258768 0.153496
Si Si7 0.897528 0.218287 0.040807
Si Si8 0.372542 0.097306 0.690618
O O1 0.949701 0.763704 0.631844
O O2 0.641808 0.655610 0.021898
O O3 0.608173 0.441254 0.041967
O O4 0.917390 0.416876 0.885211
O O5 0.397249 0.811186 0.226891
O O6 0.069157 0.585681 0.523910
O O7 0.185995 0.990050 0.236320
O O8 0.748143 0.657438 0.052280
O O9 0.840529 0.298466 0.117341
O O10 0.558328 0.310164 0.428929
O O11 0.000000 0.500000 0.000000
O O12 0.265418 0.297768 0.316298
O O13 0.000000 0.500000 0.500000
O O14 0.309691 0.684279 0.075200
O O15 0.525652 0.044776 0.276045
O O16 0.700500 0.037782 0.251618
O O17 0.132907 0.141081 0.888036
#
# Coordination Sequence:
#
# PCOD9094511 Si02
#       8
#     2   2   2   2   2   2   2   2
#     4   9  17  35  58  79 108 140 182 235 277 324
#     4  10  20  34  58  79 108 143 186 229 272 332
#     4  11  24  38  58  84 125 156 188 239 293 347
#     4  10  20  35  55  81 114 143 177 234 286 331
#     4  10  21  36  53  82 107 148 189 220 273 337
#     4   9  20  34  54  84 108 142 185 230 285 332
#     4   9  20  38  62  87 109 151 201 239 290 335
#     4  10  20  38  61  84 115 149 202 243 276 346
#
# _framework density 19.772776
#
# number of rings (size 3 to 8) (size 9 to 14) (size 15 to 20)
#    0.000    2.250    0.000    2.250    1.750    2.500 
#    0.000    0.000    0.000    0.000    0.000    0.000 
#    0.000    0.000    0.000    0.000    0.000    0.000 
#
# Total GULP energy -89283.235259 kJ/mol
# GULP energy per Si atom -5580.202204 kJ/mol
# Density = 1.972777 g / cm^3
# Si number density = 19.772776 Si / 1000 Ang^3
#
#
#
# Elastic Constant Matrix: (Units=GPa)
#
#
# Indices 1 2 3 4 5 6 
#
# 1 60.6970 3.9095 22.7361 7.5354 5.4035 -15.7726
# 2 3.9095 40.5364 14.2685 -3.6222 1.9144 -19.4119
# 3 22.7361 14.2685 87.3337 0.0470 -0.8005 -20.2775
# 4 7.5354 -3.6222 0.0470 17.5322 0.5595 1.0243
# 5 5.4035 1.9144 -0.8005 0.5595 21.2365 1.5439
# 6 -15.7726 -19.4119 -20.2775 1.0243 1.5439 27.6367
#
#
#
# Elastic Compliance Matrix: (Units=1/GPa)
#
#
# Indices 1 2 3 4 5 6 
#
# 1 0.023325 0.006037 -0.003457 -0.009451 -0.007508 0.015785
# 2 0.006037 0.040068 -0.000955 0.004107 -0.007557 0.031158
# 3 -0.003457 -0.000955 0.014322 0.000766 0.000919 0.007785
# 4 -0.009451 0.004107 0.000766 0.062174 0.000738 -0.004293
# 5 -0.007508 -0.007557 0.000919 0.000738 0.050551 -0.011770
# 6 0.015785 0.031158 0.007785 -0.004293 -0.011770 0.073606
#
#
# Mechanical properties :
#
#
# Convention : Reuss Voigt Hill
#
# Bulk Modulus (GPa) = 12.35124 30.04391 21.19757
# Shear Modulus (GPa) = 17.37405 23.12461 20.24933
#
# Velocity S-wave (km/s) = 2.96748 3.42353 3.20363
# Velocity P-wave (km/s) = 4.24280 5.55473 4.94249
#
# Compressibility (1/GPa) = 0.08096355
#
# Stress axis : x y z
#
# Youngs Moduli (GPa) = 42.87208 24.95767 69.82327
#
# Poissons Ratio (x) = -0.15066 0.24140
# Poissons Ratio (y) = -0.25880 0.06667
# Poissons Ratio (z) = 0.14822 0.02383
#
# Static dielectric constant tensor:
#      x y z
#    x 1.687400 0.001290 0.003040 
#    y 0.001290 1.699580 -0.007380 
#    z 0.003040 -0.007380 1.685810 
# 
# From -- ./inp_files/308135.got.cif
#   From: 2010.05.17/outbox.cif.g08.bks.cpg/sg2_155_cif.got.tgz:308135.got - 2010.06.03 11:33:40.
