data_PCOD9094326
_publ_section_title
;
Structure prediction by ZEFSAII (Michael W. Deem and Ramdas Pophale) SiO2 
 PCOD9094326
Probable space group: P -1
;
_chemical_formula_sum "Si O2"
_cell_formula_units_Z 16
_cell_length_a 8.378090
_cell_length_b 9.013308
_cell_length_c 12.073129
_cell_angle_alpha 122.624601
_cell_angle_beta 104.613436
_cell_angle_gamma 82.962609
_cell_volume 742.905924
_symmetry_space_group_name_H-M "P -1"
_symmetry_group_IT_number 2
_symmetry_cell_setting 'triclinic'
loop_
_space_group_symop_operation_xyz
x,y,z
-x,-y,-z
loop_
_atom_site_type_symbol
_atom_site_label
_atom_site_fract_x
_atom_site_fract_y
_atom_site_fract_z
Si Si1 0.150748 0.797086 0.620033
Si Si2 0.232285 0.275919 0.014952
Si Si3 0.195626 0.985526 0.054245
Si Si4 0.656234 0.883692 0.259364
Si Si5 0.016414 0.307560 0.677554
Si Si6 0.922261 0.117276 0.789638
Si Si7 0.771764 0.373563 0.209572
Si Si8 0.465067 0.567872 0.146542
O O1 0.184768 0.662709 0.670316
O O2 0.062538 0.717009 0.465785
O O3 0.314837 0.907853 0.656218
O O4 0.029705 0.945621 0.709097
O O5 0.293114 0.476134 0.110764
O O6 0.268360 0.163801 0.085877
O O7 0.327074 0.181683 0.891552
O O8 0.043609 0.249574 0.933491
O O9 0.211134 0.951639 0.173470
O O10 0.252456 0.814248 0.929544
O O11 0.000000 0.000000 0.000000
O O12 0.816952 0.806313 0.320349
O O13 0.502111 0.775694 0.238704
O O14 0.894969 0.220544 0.712615
O O15 0.084682 0.508453 0.777438
O O16 0.604308 0.478761 0.209543
O O17 0.500000 0.500000 0.000000
#
# Coordination Sequence:
#
# PCOD9094326 Si02
#       8
#     2   2   2   2   2   2   2   2
#     4  10  16  30  47  71  97 126 155 197 235 279
#     4   8  14  28  45  65  95 126 151 188 232 280
#     4  10  17  31  46  69 104 127 151 191 236 289
#     4   8  14  28  43  65  93 125 149 186 234 277
#     4   9  18  28  45  71  99 121 160 195 236 276
#     4   9  17  31  49  68 101 131 152 186 237 289
#     4  11  19  29  48  75  98 124 155 196 240 280
#     4   9  18  30  45  68 102 124 155 194 237 287
#
# _framework density 21.537047999999999
#
# number of rings (size 3 to 8) (size 9 to 14) (size 15 to 20)
#    0.000    3.000    3.750    2.625    0.000    1.000 
#    0.000    0.000    0.000    0.000    0.000    8.750 
#    0.000    0.000    0.000    0.000    0.000    0.000 
#
# Total GULP energy -89173.376314 kJ/mol
# GULP energy per Si atom -5573.336020 kJ/mol
# Density = 2.148803 g / cm^3
# Si number density = 21.537048 Si / 1000 Ang^3
#
#
#
# Elastic Constant Matrix: (Units=GPa)
#
#
# Indices 1 2 3 4 5 6 
#
# 1 18.8547 19.2705 14.0972 -5.5043 3.7322 -10.0258
# 2 19.2705 108.0387 27.9829 -32.3333 7.2410 11.7663
# 3 14.0972 27.9829 66.9749 -27.5085 4.8365 -0.0543
# 4 -5.5043 -32.3333 -27.5085 41.7756 3.6144 6.1101
# 5 3.7322 7.2410 4.8365 3.6144 8.1027 0.4538
# 6 -10.0258 11.7663 -0.0543 6.1101 0.4538 31.7616
#
#
#
# Elastic Compliance Matrix: (Units=1/GPa)
#
#
# Indices 1 2 3 4 5 6 
#
# 1 0.128962 -0.032796 -0.027839 -0.035353 -0.001046 0.059626
# 2 -0.032796 0.024839 0.008973 0.026339 -0.022836 -0.024279
# 3 -0.027839 0.008973 0.030238 0.027819 -0.024698 -0.017059
# 4 -0.035353 0.026339 0.027819 0.067324 -0.052038 -0.033077
# 5 -0.001046 -0.022836 -0.024698 -0.052038 0.181391 0.015507
# 6 0.059626 -0.024279 -0.017059 -0.033077 0.015507 0.065413
#
#
# Mechanical properties :
#
#
# Convention : Reuss Voigt Hill
#
# Bulk Modulus (GPa) = 12.38939 35.17439 23.78189
# Shear Modulus (GPa) = 7.95678 25.16249 16.55964
#
# Velocity S-wave (km/s) = 1.92418 3.42180 2.77590
# Velocity P-wave (km/s) = 3.27135 5.65501 4.61957
#
# Compressibility (1/GPa) = 0.08071422
#
# Stress axis : x y z
#
# Youngs Moduli (GPa) = 7.75422 40.25925 33.07129
#
# Poissons Ratio (x) = 1.32035 0.92066
# Poissons Ratio (y) = 0.25431 -0.29673
# Poissons Ratio (z) = 0.21587 -0.36123
#
# Static dielectric constant tensor:
#      x y z
#    x 1.899080 0.018000 0.002120 
#    y 0.018000 1.853720 0.005820 
#    z 0.002120 0.005820 1.763130 
# 
# From -- ./inp_files/415448.got.cif
#   From: 2010.05.17/outbox.cif.g08.bks.cpg/sg2_208_cif.got.tgz:415448.got - 2010.06.03 11:33:40.
