data_PCOD9094125
_publ_section_title
;
Structure prediction by ZEFSAII (Michael W. Deem and Ramdas Pophale) SiO2 
 PCOD9094125
Probable space group: P -1
;
_chemical_formula_sum "Si O2"
_cell_formula_units_Z 16
_cell_length_a 20.081894
_cell_length_b 6.134038
_cell_length_c 6.869912
_cell_angle_alpha 108.657309
_cell_angle_beta 74.160003
_cell_angle_gamma 124.057108
_cell_volume 659.503255
_symmetry_space_group_name_H-M "P -1"
_symmetry_group_IT_number 2
_symmetry_cell_setting 'triclinic'
loop_
_space_group_symop_operation_xyz
x,y,z
-x,-y,-z
loop_
_atom_site_type_symbol
_atom_site_label
_atom_site_fract_x
_atom_site_fract_y
_atom_site_fract_z
Si Si1 0.349247 0.141318 0.529174
Si Si2 0.747115 0.460118 0.613237
Si Si3 0.604921 0.533034 0.801900
Si Si4 0.292668 0.512716 0.804057
Si Si5 0.566391 0.913481 0.193337
Si Si6 0.879632 0.718438 0.025657
Si Si7 0.025379 0.670763 0.832817
Si Si8 0.922331 0.707107 0.443753
O O1 0.392944 0.356760 0.385297
O O2 0.303272 0.256700 0.724771
O O3 0.409054 0.101309 0.608222
O O4 0.285419 0.851682 0.407765
O O5 0.688729 0.548352 0.779923
O O6 0.729251 0.464379 0.396706
O O7 0.843121 0.648873 0.608929
O O8 0.529604 0.228921 0.790818
O O9 0.589888 0.722498 0.005786
O O10 0.216473 0.474518 0.976861
O O11 0.378149 0.786097 0.846322
O O12 0.898150 0.696491 0.232450
O O13 0.945190 0.679159 0.844959
O O14 0.905469 0.028574 0.080594
O O15 0.056934 0.527816 0.623805
O O16 0.000000 0.500000 0.000000
O O17 0.000000 0.000000 0.500000
#
# Coordination Sequence:
#
# PCOD9094125 Si02
#       8
#     2   2   2   2   2   2   2   2
#     4  10  20  37  61  83 112 155 189 229 287 333
#     4   9  20  37  56  79 111 148 188 236 283 337
#     4  10  22  39  57  84 119 148 188 237 282 336
#     4   9  19  35  57  82 110 147 193 234 279 337
#     4  10  22  38  58  86 115 149 192 235 278 338
#     4   9  18  35  55  78 109 147 185 228 276 328
#     4   9  18  33  53  75 103 141 183 224 270 326
#     4  10  20  34  54  81 110 143 183 228 280 334
#
# _framework density 24.260684999999999
#
# number of rings (size 3 to 8) (size 9 to 14) (size 15 to 20)
#    0.000    2.500    0.000    1.125    0.000    9.000 
#    0.000   10.000    0.000    0.000    0.000    0.000 
#    0.000    0.000    0.000    0.000    0.000    0.000 
#
# Total GULP energy -89507.775124 kJ/mol
# GULP energy per Si atom -5594.235945 kJ/mol
# Density = 2.420547 g / cm^3
# Si number density = 24.260685 Si / 1000 Ang^3
#
#
#
# Elastic Constant Matrix: (Units=GPa)
#
#
# Indices 1 2 3 4 5 6 
#
# 1 107.1930 45.2405 37.7007 3.7733 -13.8125 24.4720
# 2 45.2405 91.0473 27.6708 8.4326 -22.2622 10.4398
# 3 37.7007 27.6708 88.1938 6.5771 -30.6842 14.4440
# 4 3.7733 8.4326 6.5771 36.8535 -6.0689 -6.3861
# 5 -13.8125 -22.2622 -30.6842 -6.0689 43.9465 -3.0930
# 6 24.4720 10.4398 14.4440 -6.3861 -3.0930 36.0403
#
#
#
# Elastic Compliance Matrix: (Units=1/GPa)
#
#
# Indices 1 2 3 4 5 6 
#
# 1 0.014399 -0.005490 -0.003730 -0.001011 -0.001492 -0.006999
# 2 -0.005490 0.015413 -0.000328 -0.002082 0.005531 -0.000500
# 3 -0.003730 -0.000328 0.017344 -0.001589 0.010290 -0.003722
# 4 -0.001011 -0.002082 -0.001589 0.029623 0.002127 0.007358
# 5 -0.001492 0.005531 0.010290 0.002127 0.032457 -0.001551
# 6 -0.006999 -0.000500 -0.003722 0.007358 -0.001551 0.035306
#
#
# Mechanical properties :
#
#
# Convention : Reuss Voigt Hill
#
# Bulk Modulus (GPa) = 35.63626 56.40644 46.02135
# Shear Modulus (GPa) = 28.90296 35.08952 31.99624
#
# Velocity S-wave (km/s) = 3.45534 3.80722 3.63554
# Velocity P-wave (km/s) = 5.53533 6.52895 6.05257
#
# Compressibility (1/GPa) = 0.02806131
#
# Stress axis : x y z
#
# Youngs Moduli (GPa) = 69.44881 64.87925 57.65590
#
# Poissons Ratio (x) = 0.35617 0.21507
# Poissons Ratio (y) = 0.38125 0.01889
# Poissons Ratio (z) = 0.25906 0.02126
#
# Static dielectric constant tensor:
#      x y z
#    x 1.943970 -0.005100 0.030420 
#    y -0.005100 1.882860 -0.044080 
#    z 0.030420 -0.044080 1.996810 
# 
# From -- ./inp_files/52286.got.cif
#   From: 2010.05.17/outbox.cif.g08.bks.cpg/sg2_27_cif.got.tgz:52286.got - 2010.06.03 11:33:40.
