data_PCOD9094854
_publ_section_title
;
Structure prediction by ZEFSAII (Michael W. Deem and Ramdas Pophale) SiO2 
 PCOD9094854
Probable space group: P -1
;
_chemical_formula_sum "Si O2"
_cell_formula_units_Z 10
_cell_length_a 8.944707
_cell_length_b 9.281547
_cell_length_c 7.199312
_cell_angle_alpha 71.315420
_cell_angle_beta 111.104818
_cell_angle_gamma 132.240855
_cell_volume 410.144843
_symmetry_space_group_name_H-M "P -1"
_symmetry_group_IT_number 2
_symmetry_cell_setting 'triclinic'
loop_
_space_group_symop_operation_xyz
x,y,z
-x,-y,-z
loop_
_atom_site_type_symbol
_atom_site_label
_atom_site_fract_x
_atom_site_fract_y
_atom_site_fract_z
Si Si1 0.681628 0.890440 0.428925
Si Si2 0.548589 0.396153 0.272072
Si Si3 0.392378 0.838856 0.858771
Si Si4 0.801847 0.571039 0.994866
Si Si5 0.961617 0.026545 0.181252
O O1 0.476992 0.685556 0.499624
O O2 0.862531 0.942494 0.624674
O O3 0.676278 0.069356 0.349773
O O4 0.750484 0.878865 0.259228
O O5 0.483122 0.211874 0.187897
O O6 0.770695 0.566874 0.209007
O O7 0.392743 0.442724 0.155941
O O8 0.231608 0.626245 0.968518
O O9 0.500000 0.000000 0.000000
O O10 0.992968 0.765727 0.904016
O O11 0.000000 0.000000 0.000000
#
# Coordination Sequence:
#
# PCOD9094854 Si02
#       5
#     2   2   2   2   2
#     4  10  21  36  61  85 115 147 198 232 276 345
#     4   8  17  37  58  79 119 144 185 238 278 329
#     4  10  20  34  62  90 113 146 185 243 291 323
#     4   8  18  36  59  81 117 149 188 231 279 345
#     4  10  22  40  59  79 117 162 186 228 287 337
#
# _framework density 24.381633000000001
#
# number of rings (size 3 to 8) (size 9 to 14) (size 15 to 20)
#    1.200    1.600    0.000    0.600    5.600    0.800 
#    0.000   12.000    0.000    0.000    0.000    0.000 
#    0.000    0.000    0.000    0.000    0.000    0.000 
#
# Total GULP energy -55692.436741 kJ/mol
# GULP energy per Si atom -5569.243674 kJ/mol
# Density = 2.432614 g / cm^3
# Si number density = 24.381633 Si / 1000 Ang^3
#
#
#
# Elastic Constant Matrix: (Units=GPa)
#
#
# Indices 1 2 3 4 5 6 
#
# 1 66.0626 29.6396 45.1238 -9.1597 -5.4898 -22.3021
# 2 29.6396 100.4662 62.5202 -31.1447 4.2253 -28.5541
# 3 45.1238 62.5202 155.4521 -36.6589 -22.4278 -4.8432
# 4 -9.1597 -31.1447 -36.6589 51.7035 -9.7656 -2.2480
# 5 -5.4898 4.2253 -22.4278 -9.7656 32.5148 -16.8877
# 6 -22.3021 -28.5541 -4.8432 -2.2480 -16.8877 41.5533
#
#
#
# Elastic Compliance Matrix: (Units=1/GPa)
#
#
# Indices 1 2 3 4 5 6 
#
# 1 0.026405 0.002576 -0.004330 0.006831 0.014448 0.021679
# 2 0.002576 0.020916 -0.004439 0.012333 0.008391 0.019316
# 3 -0.004330 -0.004439 0.013302 0.008409 0.012418 0.001678
# 4 0.006831 0.012333 0.008409 0.041351 0.032636 0.028622
# 5 0.014448 0.008391 0.012418 0.032636 0.074993 0.047211
# 6 0.021679 0.019316 0.001678 0.028622 0.047211 0.069905
#
#
# Mechanical properties :
#
#
# Convention : Reuss Voigt Hill
#
# Bulk Modulus (GPa) = 20.73085 66.28313 43.50699
# Shear Modulus (GPa) = 18.15954 37.46746 27.81350
#
# Velocity S-wave (km/s) = 2.73207 3.92434 3.38117
# Velocity P-wave (km/s) = 4.29807 6.91221 5.75552
#
# Compressibility (1/GPa) = 0.04823729
#
# Stress axis : x y z
#
# Youngs Moduli (GPa) = 37.87104 47.80969 75.17776
#
# Poissons Ratio (x) = -0.12315 0.32552
# Poissons Ratio (y) = -0.09755 0.33372
# Poissons Ratio (z) = 0.16398 0.21223
#
# Static dielectric constant tensor:
#      x y z
#    x 1.984950 0.018740 -0.049170 
#    y 0.018740 2.043720 -0.032660 
#    z -0.049170 -0.032660 2.027380 
# 
# From -- ./inp_files/59916.got.cif
#   From: 2010.05.17/outbox.cif.g08.bks.cpg/sg2_30_cif.got.tgz:59916.got - 2010.06.03 11:33:40.
