data_PCOD9094137
_publ_section_title
;
Structure prediction by ZEFSAII (Michael W. Deem and Ramdas Pophale) SiO2 
 PCOD9094137
Probable space group: P -1
;
_chemical_formula_sum "Si O2"
_cell_formula_units_Z 14
_cell_length_a 11.388249
_cell_length_b 9.579666
_cell_length_c 13.019363
_cell_angle_alpha 59.656680
_cell_angle_beta 144.620848
_cell_angle_gamma 130.842179
_cell_volume 620.854182
_symmetry_space_group_name_H-M "P -1"
_symmetry_group_IT_number 2
_symmetry_cell_setting 'triclinic'
loop_
_space_group_symop_operation_xyz
x,y,z
-x,-y,-z
loop_
_atom_site_type_symbol
_atom_site_label
_atom_site_fract_x
_atom_site_fract_y
_atom_site_fract_z
Si Si1 0.246344 0.453441 0.168837
Si Si2 0.283022 0.572439 0.529909
Si Si3 0.145848 0.087715 0.310364
Si Si4 0.739170 0.573057 0.036634
Si Si5 0.807936 0.676452 0.263931
Si Si6 0.653975 0.251158 0.703037
Si Si7 0.341951 0.104045 0.219700
O O1 0.494946 0.459498 0.327269
O O2 0.100948 0.261092 0.197514
O O3 0.165285 0.450336 0.995847
O O4 0.279595 0.624744 0.195214
O O5 0.136683 0.404774 0.564397
O O6 0.232233 0.624468 0.363472
O O7 0.392206 0.759279 0.607846
O O8 0.376574 0.160839 0.517003
O O9 0.212443 0.052086 0.256185
O O10 0.943309 0.896555 0.277801
O O11 0.471788 0.408872 0.910389
O O12 0.729136 0.764553 0.942465
O O13 0.855549 0.595266 0.222356
O O14 0.699210 0.077642 0.799512
#
# Coordination Sequence:
#
# PCOD9094137 Si02
#       7
#     2   2   2   2   2   2   2
#     4   8  16  28  46  66  90 120 148 182 222 264
#     4   8  15  28  44  66  88 115 146 184 223 257
#     4   9  16  27  47  71  86 115 155 188 216 259
#     4   8  17  33  48  67  88 117 153 187 226 260
#     4   9  16  29  51  68  87 113 156 194 216 255
#     4  10  16  30  46  68  97 118 144 179 231 276
#     4   8  16  28  46  66  90 120 148 182 222 264
#
# _framework density 22.549576999999999
#
# number of rings (size 3 to 8) (size 9 to 14) (size 15 to 20)
#    0.000    4.286    0.000    3.429    0.000    2.286 
#    0.000   12.857    0.000   17.143    0.000    0.000 
#    0.000    0.000    0.000    0.000    0.000    0.000 
#
# Total GULP energy -78158.120568 kJ/mol
# GULP energy per Si atom -5582.722898 kJ/mol
# Density = 2.249825 g / cm^3
# Si number density = 22.549577 Si / 1000 Ang^3
#
#
#
# Elastic Constant Matrix: (Units=GPa)
#
#
# Indices 1 2 3 4 5 6 
#
# 1 79.6929 76.9464 32.8237 1.4312 -20.5974 -4.5570
# 2 76.9464 188.6110 57.5090 11.9023 -24.1577 -0.2812
# 3 32.8237 57.5090 102.0105 12.0482 -17.6884 2.6248
# 4 1.4312 11.9023 12.0482 19.8670 0.9301 -8.5504
# 5 -20.5974 -24.1577 -17.6884 0.9301 30.9681 2.4090
# 6 -4.5570 -0.2812 2.6248 -8.5504 2.4090 51.4674
#
#
#
# Elastic Compliance Matrix: (Units=1/GPa)
#
#
# Indices 1 2 3 4 5 6 
#
# 1 0.023450 -0.008245 -0.002319 0.005473 0.007466 0.002709
# 2 -0.008245 0.009732 -0.002041 -0.004658 0.001192 -0.001402
# 3 -0.002319 -0.002041 0.013612 -0.008182 0.005081 -0.002508
# 4 0.005473 -0.004658 -0.008182 0.063081 -0.007472 0.011706
# 5 0.007466 0.001192 0.005081 -0.007472 0.041529 -0.002777
# 6 0.002709 -0.001402 -0.002508 0.011706 -0.002777 0.021865
#
#
# Mechanical properties :
#
#
# Convention : Reuss Voigt Hill
#
# Bulk Modulus (GPa) = 46.32914 78.31918 62.32416
# Shear Modulus (GPa) = 24.31040 33.99618 29.15329
#
# Velocity S-wave (km/s) = 3.28699 3.88702 3.59953
# Velocity P-wave (km/s) = 5.91572 7.41300 6.70628
#
# Compressibility (1/GPa) = 0.02158469
#
# Stress axis : x y z
#
# Youngs Moduli (GPa) = 42.64337 102.75090 73.46699
#
# Poissons Ratio (x) = 0.84717 0.17037
# Poissons Ratio (y) = 0.35159 0.14993
# Poissons Ratio (z) = 0.09889 0.20969
#
# Static dielectric constant tensor:
#      x y z
#    x 1.895090 0.019610 0.084380 
#    y 0.019610 1.814730 -0.001930 
#    z 0.084380 -0.001930 1.940480 
# 
# From -- ./inp_files/276550.got.cif
#   From: 2010.05.17/outbox.cif.g08.bks.cpg/sg2_139_cif.got.tgz:276550.got - 2010.06.03 11:33:40.
