data_PCOD9094648
_publ_section_title
;
Structure prediction by ZEFSAII (Michael W. Deem and Ramdas Pophale) SiO2 
 PCOD9094648
Probable space group: P -1
;
_chemical_formula_sum "Si O2"
_cell_formula_units_Z 16
_cell_length_a 21.712723
_cell_length_b 5.512614
_cell_length_c 9.255558
_cell_angle_alpha 100.637527
_cell_angle_beta 137.666148
_cell_angle_gamma 85.684065
_cell_volume 730.106777
_symmetry_space_group_name_H-M "P -1"
_symmetry_group_IT_number 2
_symmetry_cell_setting 'triclinic'
loop_
_space_group_symop_operation_xyz
x,y,z
-x,-y,-z
loop_
_atom_site_type_symbol
_atom_site_label
_atom_site_fract_x
_atom_site_fract_y
_atom_site_fract_z
Si Si1 0.577865 0.302343 0.220213
Si Si2 0.416258 0.178438 0.701274
Si Si3 0.891897 0.704622 0.354314
Si Si4 0.284526 0.549115 0.863813
Si Si5 0.228178 0.001910 0.646129
Si Si6 0.519027 0.414916 0.681483
Si Si7 0.079130 0.825754 0.162374
Si Si8 0.021426 0.479524 0.785732
O O1 0.632132 0.571367 0.330703
O O2 0.628318 0.074512 0.339774
O O3 0.513779 0.230045 0.963779
O O4 0.623901 0.369731 0.881405
O O5 0.449090 0.186924 0.593445
O O6 0.493414 0.634760 0.769640
O O7 0.807689 0.489444 0.203745
O O8 0.847159 0.949756 0.353459
O O9 0.965056 0.642861 0.596887
O O10 0.932058 0.700848 0.263551
O O11 0.289673 0.264173 0.788537
O O12 0.272982 0.755774 0.744436
O O13 0.170566 0.975373 0.396226
O O14 0.500000 0.500000 0.500000
O O15 0.043613 0.659501 0.221150
O O16 0.090846 0.653863 0.024758
O O17 0.000000 0.000000 0.000000
#
# Coordination Sequence:
#
# PCOD9094648 Si02
#       8
#     2   2   2   2   2   2   2   2
#     4   8  16  32  51  80 104 133 177 219 281 337
#     4   8  16  31  54  76 106 135 173 225 274 347
#     4   9  20  37  57  84 117 161 190 231 288 348
#     4  10  22  38  57  81 116 154 194 238 290 355
#     4  10  21  39  57  80 120 158 190 233 292 341
#     4  10  21  35  61  87 110 142 194 246 295 334
#     4  11  19  33  57  89 118 147 196 248 275 330
#     4  10  20  34  59  89 116 153 199 236 278 342
#
# _framework density 21.914605000000002
#
# number of rings (size 3 to 8) (size 9 to 14) (size 15 to 20)
#    1.500    1.000    2.500    0.000    3.500    2.000 
#    0.000    0.000    5.500    0.000    0.000    0.000 
#    0.000    0.000    0.000    0.000    0.000    0.000 
#
# Total GULP energy -89126.470896 kJ/mol
# GULP energy per Si atom -5570.404431 kJ/mol
# Density = 2.186473 g / cm^3
# Si number density = 21.914605 Si / 1000 Ang^3
#
#
#
# Elastic Constant Matrix: (Units=GPa)
#
#
# Indices 1 2 3 4 5 6 
#
# 1 72.9316 3.3480 34.1070 -1.2785 -21.7870 2.6241
# 2 3.3480 118.9647 22.3414 -24.9486 -0.2807 2.7601
# 3 34.1070 22.3414 100.3968 -14.7697 -15.2994 -2.2022
# 4 -1.2785 -24.9486 -14.7697 26.5750 2.5122 -4.1417
# 5 -21.7870 -0.2807 -15.2994 2.5122 35.6821 -4.3965
# 6 2.6241 2.7601 -2.2022 -4.1417 -4.3965 28.3017
#
#
#
# Elastic Compliance Matrix: (Units=1/GPa)
#
#
# Indices 1 2 3 4 5 6 
#
# 1 0.019098 -0.000155 -0.005552 -0.003389 0.009366 -0.001228
# 2 -0.000155 0.010592 -0.001083 0.009458 -0.001128 0.000106
# 3 -0.005552 -0.001083 0.013447 0.006436 0.002279 0.002963
# 4 -0.003389 0.009458 0.006436 0.051212 -0.001968 0.007081
# 5 0.009366 -0.001128 0.002279 -0.001968 0.035422 0.004633
# 6 -0.001228 0.000106 0.002963 0.007081 0.004633 0.037424
#
#
# Mechanical properties :
#
#
# Convention : Reuss Voigt Hill
#
# Bulk Modulus (GPa) = 33.83234 45.76509 39.79872
# Shear Modulus (GPa) = 26.22960 33.61156 29.92058
#
# Velocity S-wave (km/s) = 3.46338 3.92056 3.69904
# Velocity P-wave (km/s) = 5.60938 6.43608 6.03690
#
# Compressibility (1/GPa) = 0.02955752
#
# Stress axis : x y z
#
# Youngs Moduli (GPa) = 52.36241 94.41264 74.36871
#
# Poissons Ratio (x) = 0.01463 0.41287
# Poissons Ratio (y) = 0.00812 0.08051
# Poissons Ratio (z) = 0.29070 0.10221
#
# Static dielectric constant tensor:
#      x y z
#    x 1.911980 0.001870 0.012100 
#    y 0.001870 1.901510 0.014750 
#    z 0.012100 0.014750 1.748630 
# 
# From -- ./inp_files/355815.got.cif
#   From: 2010.05.17/outbox.cif.g08.bks.cpg/sg2_178_cif.got.tgz:355815.got - 2010.06.03 11:33:40.
