data_PCOD9094820
_publ_section_title
;
Structure prediction by ZEFSAII (Michael W. Deem and Ramdas Pophale) SiO2 
 PCOD9094820
Probable space group: P -1
;
_chemical_formula_sum "Si O2"
_cell_formula_units_Z 14
_cell_length_a 11.337156
_cell_length_b 7.990085
_cell_length_c 17.766920
_cell_angle_alpha 119.453109
_cell_angle_beta 146.937868
_cell_angle_gamma 83.718403
_cell_volume 589.251371
_symmetry_space_group_name_H-M "P -1"
_symmetry_group_IT_number 2
_symmetry_cell_setting 'triclinic'
loop_
_space_group_symop_operation_xyz
x,y,z
-x,-y,-z
loop_
_atom_site_type_symbol
_atom_site_label
_atom_site_fract_x
_atom_site_fract_y
_atom_site_fract_z
Si Si1 0.008962 0.124109 0.273386
Si Si2 0.058526 0.505366 0.619705
Si Si3 0.354225 0.474215 0.236630
Si Si4 0.755303 0.778478 0.729170
Si Si5 0.269957 0.026069 0.619994
Si Si6 0.566827 0.086465 0.641718
Si Si7 0.392424 0.429858 0.071986
O O1 0.327462 0.315755 0.516240
O O2 0.003808 0.133695 0.182154
O O3 0.885673 0.252260 0.265131
O O4 0.862339 0.841312 0.155608
O O5 0.329968 0.533777 0.789505
O O6 0.000000 0.500000 0.500000
O O7 0.794421 0.227681 0.444835
O O8 0.211468 0.262302 0.175890
O O9 0.230465 0.617675 0.198331
O O10 0.365306 0.408703 0.143357
O O11 0.500000 0.500000 0.500000
O O12 0.684142 0.960351 0.714828
O O13 0.337955 0.034988 0.569217
O O14 0.534376 0.307202 0.851376
O O15 0.000000 0.000000 0.500000
O O16 0.500000 0.000000 0.500000
#
# Coordination Sequence:
#
# PCOD9094820 Si02
#       7
#     2   2   2   2   2   2   2
#     4  11  21  37  64  92 123 162 213 261 310 380
#     4  11  21  38  68  86 123 169 207 257 323 374
#     4  10  21  39  62  88 127 167 206 257 323 369
#     4  10  20  34  61  91 122 166 213 251 311 387
#     4   9  21  38  61  89 122 166 206 258 315 378
#     4  11  19  34  64  90 121 163 215 252 311 377
#     4  10  22  40  62  90 126 162 208 265 314 374
#
# _framework density 23.758959000000001
#
# number of rings (size 3 to 8) (size 9 to 14) (size 15 to 20)
#    0.000    1.714    4.286    2.143    0.000    0.571 
#    0.000    3.571   15.714    0.000    0.000    0.000 
#    0.000    0.000    0.000    0.000    0.000    0.000 
#
# Total GULP energy -78041.189884 kJ/mol
# GULP energy per Si atom -5574.370706 kJ/mol
# Density = 2.370488 g / cm^3
# Si number density = 23.758959 Si / 1000 Ang^3
#
#
#
# Elastic Constant Matrix: (Units=GPa)
#
#
# Indices 1 2 3 4 5 6 
#
# 1 121.7778 41.9330 11.5571 13.8856 -12.5436 -4.9954
# 2 41.9330 122.0224 41.2139 33.3291 -13.4119 19.2301
# 3 11.5571 41.2139 134.0376 41.6661 -4.8969 -2.3781
# 4 13.8856 33.3291 41.6661 44.3661 0.2168 2.0949
# 5 -12.5436 -13.4119 -4.8969 0.2168 13.9908 14.9275
# 6 -4.9954 19.2301 -2.3781 2.0949 14.9275 40.2926
#
#
#
# Elastic Compliance Matrix: (Units=1/GPa)
#
#
# Indices 1 2 3 4 5 6 
#
# 1 0.009895 -0.002209 0.000768 -0.002181 0.007363 -0.000288
# 2 -0.002209 0.024782 -0.001090 -0.015662 0.055807 -0.032027
# 3 0.000768 -0.001090 0.010847 -0.009656 0.002835 0.000708
# 4 -0.002181 -0.015662 -0.009656 0.043313 -0.042492 0.020125
# 5 0.007363 0.055807 0.002835 -0.042492 0.261500 -0.120225
# 6 -0.000288 -0.032027 0.000708 0.020125 -0.120225 0.083604
#
#
# Mechanical properties :
#
#
# Convention : Reuss Voigt Hill
#
# Bulk Modulus (GPa) = 24.71539 63.02730 43.87134
# Shear Modulus (GPa) = 11.04995 38.60549 24.82772
#
# Velocity S-wave (km/s) = 2.15892 4.03535 3.23613
# Velocity P-wave (km/s) = 4.07918 6.94964 5.69812
#
# Compressibility (1/GPa) = 0.04046062
#
# Stress axis : x y z
#
# Youngs Moduli (GPa) = 101.06247 40.35223 92.18940
#
# Poissons Ratio (x) = 0.08915 -0.07080
# Poissons Ratio (y) = 0.22329 0.10050
# Poissons Ratio (z) = -0.07761 0.04399
#
# Static dielectric constant tensor:
#      x y z
#    x 1.942190 -0.041100 0.059790 
#    y -0.041100 1.981680 0.023020 
#    z 0.059790 0.023020 2.007880 
# 
# From -- ./inp_files/593749.got.cif
#   From: 2010.05.17/outbox.cif.g08.bks.cpg/sg2_297_cif.got.tgz:593749.got - 2010.06.03 11:33:40.
