data_PCOD9094382
_publ_section_title
;
Structure prediction by ZEFSAII (Michael W. Deem and Ramdas Pophale) SiO2 
 PCOD9094382
Probable space group: P -1
;
_chemical_formula_sum "Si O2"
_cell_formula_units_Z 11
_cell_length_a 12.755994
_cell_length_b 9.537492
_cell_length_c 6.628421
_cell_angle_alpha 116.679721
_cell_angle_beta 129.497326
_cell_angle_gamma 41.145407
_cell_volume 408.725092
_symmetry_space_group_name_H-M "P -1"
_symmetry_group_IT_number 2
_symmetry_cell_setting 'triclinic'
loop_
_space_group_symop_operation_xyz
x,y,z
-x,-y,-z
loop_
_atom_site_type_symbol
_atom_site_label
_atom_site_fract_x
_atom_site_fract_y
_atom_site_fract_z
Si Si1 0.869562 0.749265 0.463709
Si Si2 0.171331 0.700870 0.611468
Si Si3 0.183831 0.939050 0.092728
Si Si4 0.571079 0.732223 0.081765
Si Si5 0.438558 0.359103 0.432790
Si Si6 0.500000 0.000000 0.500000
O O1 0.683597 0.805416 0.218001
O O2 0.000000 0.500000 0.500000
O O3 0.970055 0.783128 0.452156
O O4 0.831366 0.873206 0.705347
O O5 0.300606 0.494083 0.787858
O O6 0.262989 0.599095 0.441721
O O7 0.178428 0.870164 0.816389
O O8 0.372372 0.729351 0.292081
O O9 0.000000 0.000000 0.000000
O O10 0.436335 0.910222 0.197975
O O11 0.520163 0.696299 0.786702
O O12 0.400789 0.215969 0.386023
#
# Coordination Sequence:
#
# PCOD9094382 Si02
#       6
#     2   2   2   2   2   1
#     4   9  18  36  60  84 117 155 192 239 292 342
#     4   9  21  37  59  85 120 161 187 239 299 344
#     4  10  20  37  61  82 121 162 191 238 299 346
#     4  10  20  36  61  89 119 150 201 240 292 345
#     4  11  21  36  63  89 118 151 203 241 288 354
#     4  10  20  34  56  92 112 154 182 250 292 332
#
# _framework density 26.912956000000001
#
# number of rings (size 3 to 8) (size 9 to 14) (size 15 to 20)
#    0.000    2.182    1.818    1.091    0.000    1.455 
#    0.000    0.000    0.000   10.909    0.000    0.000 
#    0.000    0.000    0.000    0.000    0.000    0.000 
#
# Total GULP energy -61249.595130 kJ/mol
# GULP energy per Si atom -5568.145012 kJ/mol
# Density = 2.685170 g / cm^3
# Si number density = 26.912956 Si / 1000 Ang^3
#
#
#
# Elastic Constant Matrix: (Units=GPa)
#
#
# Indices 1 2 3 4 5 6 
#
# 1 96.3154 48.3881 64.6466 18.8599 1.2673 -0.7973
# 2 48.3881 107.2693 39.8648 48.6086 -9.5905 -3.6944
# 3 64.6466 39.8648 130.7294 52.0561 -2.9695 4.7217
# 4 18.8599 48.6086 52.0561 50.6193 -7.0613 -8.1623
# 5 1.2673 -9.5905 -2.9695 -7.0613 52.1927 9.6054
# 6 -0.7973 -3.6944 4.7217 -8.1623 9.6054 50.1014
#
#
#
# Elastic Compliance Matrix: (Units=1/GPa)
#
#
# Indices 1 2 3 4 5 6 
#
# 1 0.025983 -0.016505 -0.018203 0.025458 -0.002266 0.005494
# 2 -0.016505 0.027633 0.014149 -0.035521 0.002551 -0.005834
# 3 -0.018203 0.014149 0.026731 -0.035378 0.001204 -0.007760
# 4 0.025458 -0.035521 -0.035378 0.083055 -0.000640 0.014774
# 5 -0.002266 0.002551 0.001204 -0.000640 0.020397 -0.003976
# 6 0.005494 -0.005834 -0.007760 0.014774 -0.003976 0.023517
#
#
# Mechanical properties :
#
#
# Convention : Reuss Voigt Hill
#
# Bulk Modulus (GPa) = 25.49227 71.12369 48.30798
# Shear Modulus (GPa) = 19.11968 42.67699 30.89833
#
# Velocity S-wave (km/s) = 2.66827 3.98646 3.39201
# Velocity P-wave (km/s) = 4.35725 6.90462 5.77319
#
# Compressibility (1/GPa) = 0.03922758
#
# Stress axis : x y z
#
# Youngs Moduli (GPa) = 38.48744 36.18880 37.40942
#
# Poissons Ratio (x) = 0.59731 0.68095
# Poissons Ratio (y) = 0.63525 -0.52929
# Poissons Ratio (z) = 0.70057 -0.51202
#
# Static dielectric constant tensor:
#      x y z
#    x 2.866210 -0.078830 -0.105880 
#    y -0.078830 2.138110 0.013630 
#    z -0.105880 0.013630 2.032500 
# 
# From -- ./inp_files/25747.got.cif
#   From: 2010.05.17/outbox.cif.g08.bks.cpg/sg2_13_cif.got.tgz:25747.got - 2010.06.03 11:33:40.
