data_PCOD9094057
_publ_section_title
;
Structure prediction by ZEFSAII (Michael W. Deem and Ramdas Pophale) SiO2 
 PCOD9094057
Probable space group: P -1
;
_chemical_formula_sum "Si O2"
_cell_formula_units_Z 14
_cell_length_a 7.118662
_cell_length_b 6.961633
_cell_length_c 15.199349
_cell_angle_alpha 120.503227
_cell_angle_beta 88.351750
_cell_angle_gamma 121.282089
_cell_volume 525.689309
_symmetry_space_group_name_H-M "P -1"
_symmetry_group_IT_number 2
_symmetry_cell_setting 'triclinic'
loop_
_space_group_symop_operation_xyz
x,y,z
-x,-y,-z
loop_
_atom_site_type_symbol
_atom_site_label
_atom_site_fract_x
_atom_site_fract_y
_atom_site_fract_z
Si Si1 0.756370 0.588966 0.491499
Si Si2 0.222644 0.191465 0.629931
Si Si3 0.805978 0.559117 0.992281
Si Si4 0.691365 0.348487 0.607808
Si Si5 0.619062 0.387357 0.133974
Si Si6 0.816335 0.921054 0.816631
Si Si7 0.874961 0.362503 0.785892
O O1 0.500000 0.500000 0.500000
O O2 0.758468 0.580037 0.383094
O O3 0.778767 0.407189 0.520220
O O4 0.972710 0.907289 0.573915
O O5 0.412540 0.158279 0.576603
O O6 0.308261 0.327551 0.755408
O O7 0.609781 0.394318 0.030458
O O8 0.756528 0.476051 0.872047
O O9 0.943521 0.879245 0.088097
O O10 0.000000 0.500000 0.000000
O O11 0.772147 0.649936 0.712849
O O12 0.790455 0.271219 0.667136
O O13 0.387730 0.155638 0.131320
O O14 0.848778 0.405016 0.159344
O O15 0.818012 0.098753 0.778626
#
# Coordination Sequence:
#
# PCOD9094057 Si02
#       7
#     2   2   2   2   2   2   2
#     4   9  17  32  55  77 101 133 166 206 257 304
#     4   9  18  33  55  78  99 132 173 207 250 309
#     4   8  17  31  49  74 103 135 173 209 247 298
#     4  10  20  34  53  77 104 135 167 208 258 300
#     4   9  17  33  54  72 100 139 171 207 254 296
#     4   9  18  34  52  71 104 140 170 209 252 293
#     4  10  21  33  50  78 105 133 174 211 247 302
#
# _framework density 26.631701
#
# number of rings (size 3 to 8) (size 9 to 14) (size 15 to 20)
#    0.000    3.143    0.000    1.714    0.000    6.857 
#    0.000    3.571    0.000   35.143    0.000    1.000 
#    0.000    0.000    0.000    0.000    0.000    0.000 
#
# Total GULP energy -78266.788707 kJ/mol
# GULP energy per Si atom -5590.484908 kJ/mol
# Density = 2.657109 g / cm^3
# Si number density = 26.631701 Si / 1000 Ang^3
#
#
#
# Elastic Constant Matrix: (Units=GPa)
#
#
# Indices 1 2 3 4 5 6 
#
# 1 59.9925 53.2308 48.2229 -23.0742 0.2567 18.7428
# 2 53.2308 164.4892 40.9247 -19.5514 -1.0833 19.6110
# 3 48.2229 40.9247 99.4773 -27.5678 20.4161 8.6831
# 4 -23.0742 -19.5514 -27.5678 58.6304 1.5522 -6.2718
# 5 0.2567 -1.0833 20.4161 1.5522 34.6301 -9.8513
# 6 18.7428 19.6110 8.6831 -6.2718 -9.8513 48.0939
#
#
#
# Elastic Compliance Matrix: (Units=1/GPa)
#
#
# Indices 1 2 3 4 5 6 
#
# 1 0.040309 -0.007585 -0.015628 0.004979 0.006215 -0.007872
# 2 -0.007585 0.008547 0.000160 -0.000121 0.000076 -0.000558
# 3 -0.015628 0.000160 0.021320 0.004277 -0.012596 0.000154
# 4 0.004979 -0.000121 0.004277 0.021011 -0.003698 -0.000681
# 5 0.006215 0.000076 -0.012596 -0.003698 0.038479 0.007221
# 6 -0.007872 -0.000558 0.000154 -0.000681 0.007221 0.025451
#
#
# Mechanical properties :
#
#
# Convention : Reuss Voigt Hill
#
# Bulk Modulus (GPa) = 41.54610 67.63510 54.59060
# Shear Modulus (GPa) = 23.89535 40.37624 32.13580
#
# Velocity S-wave (km/s) = 2.99867 3.89793 3.47749
# Velocity P-wave (km/s) = 5.25580 6.76093 6.05531
#
# Compressibility (1/GPa) = 0.02406965
#
# Stress axis : x y z
#
# Youngs Moduli (GPa) = 24.80829 117.00358 46.90492
#
# Poissons Ratio (x) = 0.88746 0.73305
# Poissons Ratio (y) = 0.18817 -0.00752
# Poissons Ratio (z) = 0.38772 -0.01876
#
# Static dielectric constant tensor:
#      x y z
#    x 2.233950 -0.047150 0.014710 
#    y -0.047150 2.030460 0.005770 
#    z 0.014710 0.005770 2.138720 
# 
# From -- ./inp_files/203442.got.cif
#   From: 2010.05.17/outbox.cif.g08.bks.cpg/sg2_102_cif.got.tgz:203442.got - 2010.06.03 11:33:40.
