data_PCOD9094105
_publ_section_title
;
Structure prediction by ZEFSAII (Michael W. Deem and Ramdas Pophale) SiO2 
 PCOD9094105
Probable space group: P -1
;
_chemical_formula_sum "Si O2"
_cell_formula_units_Z 13
_cell_length_a 17.447498
_cell_length_b 4.963324
_cell_length_c 9.580231
_cell_angle_alpha 126.604616
_cell_angle_beta 138.540434
_cell_angle_gamma 59.843484
_cell_volume 438.541427
_symmetry_space_group_name_H-M "P -1"
_symmetry_group_IT_number 2
_symmetry_cell_setting 'triclinic'
loop_
_space_group_symop_operation_xyz
x,y,z
-x,-y,-z
loop_
_atom_site_type_symbol
_atom_site_label
_atom_site_fract_x
_atom_site_fract_y
_atom_site_fract_z
Si Si1 0.334860 0.655715 0.462099
Si Si2 0.082470 0.080598 0.934277
Si Si3 0.442589 0.068031 0.291100
Si Si4 0.132245 0.266807 0.340117
Si Si5 0.389407 0.865330 0.879484
Si Si6 0.818283 0.557353 0.252479
Si Si7 0.000000 0.000000 0.500000
O O1 0.330366 0.327867 0.258450
O O2 0.457734 0.769956 0.610084
O O3 0.237597 0.966214 0.405021
O O4 0.349084 0.594808 0.630377
O O5 0.180959 0.773349 0.940488
O O6 0.043187 0.196868 0.763780
O O7 0.121778 0.338841 0.182703
O O8 0.978851 0.906447 0.812276
O O9 0.500000 0.000000 0.500000
O O10 0.408886 0.788059 0.046661
O O11 0.154076 0.546836 0.576966
O O12 0.293869 0.185883 0.840744
O O13 0.500000 0.000000 0.000000
O O14 0.922435 0.770358 0.419300
#
# Coordination Sequence:
#
# PCOD9094105 Si02
#       7
#     2   2   2   2   2   2   1
#     4   9  19  36  53  74 108 138 172 223 261 310
#     4  10  20  36  55  77 108 141 176 219 264 314
#     4  10  20  34  54  79 104 137 178 216 266 316
#     4   9  18  35  55  76 104 141 178 213 264 317
#     4   9  19  37  57  78 107 144 178 216 268 315
#     4  10  20  38  57  76 110 143 176 221 264 314
#     4  10  20  34  54  82 106 136 178 216 264 314
#
# _framework density 29.643720999999999
#
# number of rings (size 3 to 8) (size 9 to 14) (size 15 to 20)
#    0.000    2.462    0.000    2.769    0.000    1.846 
#    0.000   30.769    0.000    0.000    0.000    0.000 
#    0.000    0.000    0.000    0.000    0.000    0.000 
#
# Total GULP energy -72707.388969 kJ/mol
# GULP energy per Si atom -5592.876075 kJ/mol
# Density = 2.957625 g / cm^3
# Si number density = 29.643721 Si / 1000 Ang^3
#
#
#
# Elastic Constant Matrix: (Units=GPa)
#
#
# Indices 1 2 3 4 5 6 
#
# 1 143.5451 57.7260 76.0146 8.7179 -35.2383 -22.1234
# 2 57.7260 93.2380 39.8521 5.0239 -6.7892 -4.6025
# 3 76.0146 39.8521 227.2068 5.0034 -83.9806 1.6128
# 4 8.7179 5.0239 5.0034 56.4760 3.7221 -10.2491
# 5 -35.2383 -6.7892 -83.9806 3.7221 91.0005 0.3559
# 6 -22.1234 -4.6025 1.6128 -10.2491 0.3559 60.0017
#
#
#
# Elastic Compliance Matrix: (Units=1/GPa)
#
#
# Indices 1 2 3 4 5 6 
#
# 1 0.011575 -0.005917 -0.002054 -0.000537 0.002152 0.003765
# 2 -0.005917 0.014837 -0.001580 -0.000281 -0.002627 -0.001033
# 3 -0.002054 -0.001580 0.007696 -0.000865 0.006230 -0.001270
# 4 -0.000537 -0.000281 -0.000865 0.018551 -0.001798 0.002983
# 5 0.002152 -0.002627 0.006230 -0.001798 0.017449 0.000014
# 6 0.003765 -0.001033 -0.001270 0.002983 0.000014 0.018519
#
#
# Mechanical properties :
#
#
# Convention : Reuss Voigt Hill
#
# Bulk Modulus (GPa) = 66.64189 90.13061 78.38625
# Shear Modulus (GPa) = 44.35340 60.85547 52.60443
#
# Velocity S-wave (km/s) = 3.87229 4.53580 4.21712
# Velocity P-wave (km/s) = 6.52094 7.60934 7.08606
#
# Compressibility (1/GPa) = 0.01500558
#
# Stress axis : x y z
#
# Youngs Moduli (GPa) = 86.39484 67.39999 129.93100
#
# Poissons Ratio (x) = 0.39879 0.26688
# Poissons Ratio (y) = 0.51118 0.20534
# Poissons Ratio (z) = 0.17745 0.10652
#
# Static dielectric constant tensor:
#      x y z
#    x 2.163440 -0.009090 0.006150 
#    y -0.009090 2.013310 -0.140430 
#    z 0.006150 -0.140430 2.289950 
# 
# From -- ./inp_files/35074.got.cif
#   From: 2010.05.17/outbox.cif.g08.bks.cpg/sg2_18_cif.got.tgz:35074.got - 2010.06.03 11:33:40.
