data_PCOD9094095
_publ_section_title
;
Structure prediction by ZEFSAII (Michael W. Deem and Ramdas Pophale) SiO2 
 PCOD9094095
Probable space group: P -1
;
_chemical_formula_sum "Si O2"
_cell_formula_units_Z 16
_cell_length_a 13.893643
_cell_length_b 10.385356
_cell_length_c 11.310884
_cell_angle_alpha 26.727276
_cell_angle_beta 97.201668
_cell_angle_gamma 84.601571
_cell_volume 645.919294
_symmetry_space_group_name_H-M "P -1"
_symmetry_group_IT_number 2
_symmetry_cell_setting 'triclinic'
loop_
_space_group_symop_operation_xyz
x,y,z
-x,-y,-z
loop_
_atom_site_type_symbol
_atom_site_label
_atom_site_fract_x
_atom_site_fract_y
_atom_site_fract_z
Si Si1 0.785648 0.112114 0.516438
Si Si2 0.361295 0.326123 0.789561
Si Si3 0.090164 0.508653 0.812284
Si Si4 0.558320 0.224333 0.330114
Si Si5 0.742437 0.458544 0.730717
Si Si6 0.140258 0.135148 0.616974
Si Si7 0.171420 0.181828 0.836589
Si Si8 0.510148 0.328156 0.508104
O O1 0.725178 0.346922 0.426769
O O2 0.840687 0.302593 0.302839
O O3 0.689534 0.076201 0.463193
O O4 0.877849 0.777363 0.855451
O O5 0.284986 0.199752 0.813568
O O6 0.444203 0.417970 0.650831
O O7 0.421500 0.035530 0.132670
O O8 0.128602 0.343707 0.823002
O O9 0.962808 0.746882 0.580255
O O10 0.534595 0.352565 0.353900
O O11 0.500000 0.000000 0.500000
O O12 0.500000 0.500000 0.000000
O O13 0.777161 0.734478 0.515917
O O14 0.615975 0.579353 0.593911
O O15 0.792062 0.239170 0.034771
O O16 0.800131 0.194798 0.850984
O O17 0.102054 0.295099 0.612068
#
# Coordination Sequence:
#
# PCOD9094095 Si02
#       8
#     2   2   2   2   2   2   2   2
#     4  10  21  35  55  86 108 136 175 213 281 329
#     4  10  20  34  54  74 114 148 177 220 260 316
#     4  11  20  35  57  75 114 149 176 234 264 289
#     4  11  21  37  62  87 108 128 165 219 274 341
#     4  10  23  35  50  75 112 143 200 216 250 319
#     4  10  22  35  50  78 105 153 195 225 253 291
#     4   9  22  32  52  77 112 141 199 221 260 295
#     4  11  22  38  54  79 110 147 172 214 280 321
#
# _framework density 24.770897000000001
#
# number of rings (size 3 to 8) (size 9 to 14) (size 15 to 20)
#    0.750    1.000    0.000    7.125    5.250    1.500 
#    0.000    0.000    0.000    0.000    0.000   17.500 
#    0.000    0.000    0.000    0.000    0.000    0.000 
#
# Total GULP energy -89403.158602 kJ/mol
# GULP energy per Si atom -5587.697413 kJ/mol
# Density = 2.471452 g / cm^3
# Si number density = 24.770897 Si / 1000 Ang^3
#
#
#
# Elastic Constant Matrix: (Units=GPa)
#
#
# Indices 1 2 3 4 5 6 
#
# 1 -37.3023 3.9447 -20.5026 29.5976 12.8189 -28.5862
# 2 3.9447 27.8824 -1.0981 2.9416 16.6936 -2.4572
# 3 -20.5026 -1.0981 156.8424 28.5186 5.9274 -11.1309
# 4 29.5976 2.9416 28.5186 8.3359 16.1655 18.4290
# 5 12.8189 16.6936 5.9274 16.1655 45.8968 5.4637
# 6 -28.5862 -2.4572 -11.1309 18.4290 5.4637 7.2523
#
#
#
# Elastic Compliance Matrix: (Units=1/GPa)
#
#
# Indices 1 2 3 4 5 6 
#
# 1 0.016589 -0.000038 -0.005330 0.035372 -0.013730 -0.022345
# 2 -0.000038 0.048671 -0.000131 0.010013 -0.022074 0.007328
# 3 -0.005330 -0.000131 0.006340 -0.004683 0.002525 -0.001326
# 4 0.035372 0.010013 -0.004683 0.061357 -0.035277 0.006292
# 5 -0.013730 -0.022074 0.002525 -0.035277 0.046084 -0.002800
# 6 -0.022345 0.007328 -0.001326 0.006292 -0.002800 0.036379
#
#
# Mechanical properties :
#
#
# Convention : Reuss Voigt Hill
#
# Bulk Modulus (GPa) = 16.50073 12.45673 14.47873
# Shear Modulus (GPa) = 20.27424 23.30223 21.78823
#
# Velocity S-wave (km/s) = 2.86400 3.07043 2.96901
# Velocity P-wave (km/s) = 4.19672 4.19639 4.19655
#
# Compressibility (1/GPa) = 0.06060338
#
# Stress axis : x y z
#
# Youngs Moduli (GPa) = 60.27919 20.54623 157.72659
#
# Poissons Ratio (x) = 0.00077 0.84073
# Poissons Ratio (y) = 0.00226 0.02060
# Poissons Ratio (z) = 0.32131 0.00268
#
# Static dielectric constant tensor:
#      x y z
#    x 1.993950 0.009940 -0.013500 
#    y 0.009940 2.224280 0.034040 
#    z -0.013500 0.034040 1.922940 
# 
# From -- ./inp_files/533129.got.cif
#   From: 2010.05.17/outbox.cif.g08.bks.cpg/sg2_267_cif.got.tgz:533129.got - 2010.06.03 11:33:40.
