data_PCOD9094130
_publ_section_title
;
Structure prediction by ZEFSAII (Michael W. Deem and Ramdas Pophale) SiO2 
 PCOD9094130
Probable space group: P -1
;
_chemical_formula_sum "Si O2"
_cell_formula_units_Z 16
_cell_length_a 8.891301
_cell_length_b 11.296558
_cell_length_c 8.563565
_cell_angle_alpha 103.257779
_cell_angle_beta 79.081945
_cell_angle_gamma 76.915330
_cell_volume 788.612974
_symmetry_space_group_name_H-M "P -1"
_symmetry_group_IT_number 2
_symmetry_cell_setting 'triclinic'
loop_
_space_group_symop_operation_xyz
x,y,z
-x,-y,-z
loop_
_atom_site_type_symbol
_atom_site_label
_atom_site_fract_x
_atom_site_fract_y
_atom_site_fract_z
Si Si1 0.533106 0.748416 0.472027
Si Si2 0.262392 0.931706 0.321748
Si Si3 0.287545 0.662510 0.701187
Si Si4 0.180518 0.923662 0.980579
Si Si5 0.175220 0.691320 0.406382
Si Si6 0.164017 0.193329 0.586833
Si Si7 0.505945 0.550761 0.189347
Si Si8 0.608043 0.977580 0.264123
O O1 0.442756 0.674346 0.577999
O O2 0.713198 0.735532 0.483275
O O3 0.536906 0.684020 0.279961
O O4 0.444760 0.897086 0.574863
O O5 0.227240 0.821518 0.403981
O O6 0.444718 0.939195 0.263442
O O7 0.166318 0.069785 0.446578
O O8 0.200957 0.911783 0.157211
O O9 0.218713 0.786393 0.854405
O O10 0.162961 0.667284 0.586414
O O11 0.357564 0.547235 0.768292
O O12 0.309563 0.986234 0.895033
O O13 0.000000 0.000000 0.000000
O O14 0.321995 0.576379 0.286380
O O15 0.012380 0.714959 0.350908
O O16 0.254663 0.129608 0.706833
O O17 0.500000 0.500000 0.000000
#
# Coordination Sequence:
#
# PCOD9094130 Si02
#       8
#     2   2   2   2   2   2   2   2
#     4   9  19  37  57  80 111 147 185 222 270 330
#     4  11  20  34  56  83 115 150 184 221 271 333
#     4  10  21  38  57  78 108 147 184 221 270 333
#     4  11  21  34  54  86 117 143 180 232 276 317
#     4  11  21  36  57  83 107 143 188 230 272 322
#     4  11  20  34  57  84 112 144 182 230 275 320
#     4  11  22  39  60  79 103 144 189 227 271 331
#     4  10  20  34  54  81 116 152 183 219 274 332
#
# _framework density 20.288788
#
# number of rings (size 3 to 8) (size 9 to 14) (size 15 to 20)
#    0.000    1.500    0.000    9.750    0.000    0.000 
#    0.000    3.125    0.000    1.500    0.000    0.000 
#    0.000    0.000    0.000    0.000    0.000    0.000 
#
# Total GULP energy -89139.037773 kJ/mol
# GULP energy per Si atom -5571.189861 kJ/mol
# Density = 2.024261 g / cm^3
# Si number density = 20.288788 Si / 1000 Ang^3
#
#
#
# Elastic Constant Matrix: (Units=GPa)
#
#
# Indices 1 2 3 4 5 6 
#
# 1 83.6912 23.9382 -6.5655 2.2074 5.4418 -25.3889
# 2 23.9382 76.4214 27.9057 -1.8136 4.4429 -21.3814
# 3 -6.5655 27.9057 97.2577 2.0200 21.7248 -12.0459
# 4 2.2074 -1.8136 2.0200 26.9262 -5.7966 2.1935
# 5 5.4418 4.4429 21.7248 -5.7966 25.3892 -3.0867
# 6 -25.3889 -21.3814 -12.0459 2.1935 -3.0867 33.4039
#
#
#
# Elastic Compliance Matrix: (Units=1/GPa)
#
#
# Indices 1 2 3 4 5 6 
#
# 1 0.018034 -0.003780 0.005711 -0.004859 -0.007624 0.012961
# 2 -0.003780 0.018021 -0.005427 0.002150 0.003630 0.006899
# 3 0.005711 -0.005427 0.016389 -0.005743 -0.014907 0.005777
# 4 -0.004859 0.002150 -0.005743 0.041683 0.014391 -0.005795
# 5 -0.007624 0.003630 -0.014907 0.014391 0.055864 -0.004630
# 6 0.012961 0.006899 0.005777 -0.005795 -0.004630 0.046240
#
#
# Mechanical properties :
#
#
# Convention : Reuss Voigt Hill
#
# Bulk Modulus (GPa) = 22.00071 38.65857 30.32964
# Shear Modulus (GPa) = 22.89643 31.28330 27.08986
#
# Velocity S-wave (km/s) = 3.36300 3.93096 3.65802
# Velocity P-wave (km/s) = 5.09382 6.30070 5.72913
#
# Compressibility (1/GPa) = 0.04545309
#
# Stress axis : x y z
#
# Youngs Moduli (GPa) = 55.45116 55.48945 61.01517
#
# Poissons Ratio (x) = 0.20976 -0.34848
# Poissons Ratio (y) = 0.20962 0.33113
# Poissons Ratio (z) = -0.31670 0.30114
#
# Static dielectric constant tensor:
#      x y z
#    x 1.773770 -0.000970 0.006080 
#    y -0.000970 1.794520 -0.034030 
#    z 0.006080 -0.034030 1.729660 
# 
# From -- ./inp_files/189287.got.cif
#   From: 2010.05.17/outbox.cif.g08.bks.cpg/sg2_95_cif.got.tgz:189287.got - 2010.06.03 11:33:40.
