data_PCOD9094585
_publ_section_title
;
Structure prediction by ZEFSAII (Michael W. Deem and Ramdas Pophale) SiO2 
 PCOD9094585
Probable space group: P -1
;
_chemical_formula_sum "Si O2"
_cell_formula_units_Z 16
_cell_length_a 10.604657
_cell_length_b 9.015234
_cell_length_c 11.495741
_cell_angle_alpha 125.711364
_cell_angle_beta 90.537496
_cell_angle_gamma 61.605173
_cell_volume 727.580104
_symmetry_space_group_name_H-M "P -1"
_symmetry_group_IT_number 2
_symmetry_cell_setting 'triclinic'
loop_
_space_group_symop_operation_xyz
x,y,z
-x,-y,-z
loop_
_atom_site_type_symbol
_atom_site_label
_atom_site_fract_x
_atom_site_fract_y
_atom_site_fract_z
Si Si1 0.781374 0.668566 0.234157
Si Si2 0.479271 0.409337 0.836613
Si Si3 0.250785 0.863435 0.948596
Si Si4 0.012294 0.801327 0.054681
Si Si5 0.362537 0.064282 0.440481
Si Si6 0.037664 0.723624 0.495472
Si Si7 0.109835 0.048609 0.647440
Si Si8 0.791065 0.788634 0.713482
O O1 0.649290 0.644491 0.174453
O O2 0.771870 0.886398 0.293623
O O3 0.768326 0.703518 0.389532
O O4 0.941555 0.439293 0.096563
O O5 0.623638 0.169152 0.679864
O O6 0.500000 0.500000 0.000000
O O7 0.407005 0.613858 0.838023
O O8 0.130563 0.834380 0.004556
O O9 0.263799 0.032847 0.104118
O O10 0.159272 0.994307 0.891716
O O11 0.027665 0.805533 0.194260
O O12 0.500000 0.000000 0.500000
O O13 0.349912 0.135231 0.340317
O O14 0.132056 0.460597 0.356906
O O15 0.946501 0.860898 0.441626
O O16 0.919173 0.783945 0.629261
O O17 0.148564 0.804958 0.554402
#
# Coordination Sequence:
#
# PCOD9094585 Si02
#       8
#     2   2   2   2   2   2   2   2
#     4  10  21  35  57  86 118 151 196 238 293 356
#     4  10  20  37  59  87 112 155 203 249 284 338
#     4  10  20  34  58  91 116 151 199 244 289 348
#     4  10  21  34  57  89 124 152 187 240 304 359
#     4  10  21  36  59  85 115 157 204 245 285 336
#     4  10  23  32  60  89 124 154 195 234 310 352
#     4  11  20  38  53  92 125 161 182 235 311 374
#     4  11  19  37  58  87 119 153 197 253 281 347
#
# _framework density 21.990704999999998
#
# number of rings (size 3 to 8) (size 9 to 14) (size 15 to 20)
#    0.000    1.750    3.750    1.125    1.750    2.000 
#    0.000    0.000    0.000    7.500    0.000    0.000 
#    0.000    0.000    0.000    0.000    0.000    0.000 
#
# Total GULP energy -89076.123179 kJ/mol
# GULP energy per Si atom -5567.257699 kJ/mol
# Density = 2.194065 g / cm^3
# Si number density = 21.990705 Si / 1000 Ang^3
#
#
#
# Elastic Constant Matrix: (Units=GPa)
#
#
# Indices 1 2 3 4 5 6 
#
# 1 47.2711 32.2288 17.2350 9.3109 30.4841 8.8325
# 2 32.2288 90.0884 37.2363 26.3310 5.0486 3.1371
# 3 17.2350 37.2363 111.3627 20.8939 19.5500 6.8737
# 4 9.3109 26.3310 20.8939 39.3530 0.7173 1.2941
# 5 30.4841 5.0486 19.5500 0.7173 35.4015 7.9151
# 6 8.8325 3.1371 6.8737 1.2941 7.9151 32.2374
#
#
#
# Elastic Compliance Matrix: (Units=1/GPa)
#
#
# Indices 1 2 3 4 5 6 
#
# 1 0.091619 -0.031413 0.011572 -0.005195 -0.079636 -0.004751
# 2 -0.031413 0.025684 -0.007407 -0.006359 0.027331 0.001231
# 3 0.011572 -0.007407 0.013395 -0.004563 -0.015943 -0.001208
# 4 -0.005195 -0.006359 -0.004563 0.033189 0.007250 -0.000097
# 5 -0.079636 0.027331 -0.015943 0.007250 0.102214 -0.002828
# 6 -0.004751 0.001231 -0.001208 -0.000097 -0.002828 0.033158
#
#
# Mechanical properties :
#
#
# Convention : Reuss Voigt Hill
#
# Bulk Modulus (GPa) = 13.12300 46.90248 30.01274
# Shear Modulus (GPa) = 13.18728 32.19986 22.69357
#
# Velocity S-wave (km/s) = 2.45148 3.83070 3.21590
# Velocity P-wave (km/s) = 3.74079 6.39846 5.24089
#
# Compressibility (1/GPa) = 0.07620211
#
# Stress axis : x y z
#
# Youngs Moduli (GPa) = 10.91481 38.93537 74.65438
#
# Poissons Ratio (x) = 1.22307 -0.86393
# Poissons Ratio (y) = 0.34286 0.55298
# Poissons Ratio (z) = -0.12631 0.28840
#
# Static dielectric constant tensor:
#      x y z
#    x 1.993880 -0.039370 -0.026680 
#    y -0.039370 1.828060 0.018980 
#    z -0.026680 0.018980 1.848630 
# 
# From -- ./inp_files/215546.got.cif
#   From: 2010.05.17/outbox.cif.g08.bks.cpg/sg2_108_cif.got.tgz:215546.got - 2010.06.03 11:33:40.
