data_PCOD9094973
_publ_section_title
;
Structure prediction by ZEFSAII (Michael W. Deem and Ramdas Pophale) SiO2 
 PCOD9094973
Probable space group: P -1
;
_chemical_formula_sum "Si O2"
_cell_formula_units_Z 14
_cell_length_a 12.096328
_cell_length_b 10.040661
_cell_length_c 7.684233
_cell_angle_alpha 124.955206
_cell_angle_beta 115.887601
_cell_angle_gamma 65.436098
_cell_volume 670.594710
_symmetry_space_group_name_H-M "P -1"
_symmetry_group_IT_number 2
_symmetry_cell_setting 'triclinic'
loop_
_space_group_symop_operation_xyz
x,y,z
-x,-y,-z
loop_
_atom_site_type_symbol
_atom_site_label
_atom_site_fract_x
_atom_site_fract_y
_atom_site_fract_z
Si Si1 0.527783 0.210155 0.289240
Si Si2 0.250839 0.572345 0.025308
Si Si3 0.185722 0.525734 0.595984
Si Si4 0.129914 0.872182 0.955570
Si Si5 0.288377 0.059922 0.970789
Si Si6 0.132068 0.413681 0.110306
Si Si7 0.515950 0.500381 0.246522
O O1 0.407523 0.129687 0.172963
O O2 0.507445 0.320486 0.182378
O O3 0.534061 0.343205 0.540707
O O4 0.652297 0.066787 0.236446
O O5 0.186461 0.763892 0.082725
O O6 0.227630 0.510198 0.153454
O O7 0.399165 0.540074 0.060413
O O8 0.185384 0.474226 0.760946
O O9 0.133860 0.434764 0.335877
O O10 0.334733 0.509154 0.656482
O O11 0.118480 0.721836 0.703050
O O12 0.229216 0.964922 0.007637
O O13 0.000000 0.000000 0.000000
O O14 0.181995 0.219131 0.959541
O O15 0.000000 0.500000 0.000000
#
# Coordination Sequence:
#
# PCOD9094973 Si02
#       7
#     2   2   2   2   2   2   2
#     4  10  20  34  68  97 133 162 207 279 330 380
#     4  10  23  40  69  94 122 175 219 250 332 400
#     4  10  23  42  67  89 130 175 209 263 333 382
#     4  10  23  44  62  88 135 174 215 269 316 381
#     4  11  21  39  63 100 131 161 216 283 321 360
#     4  12  24  44  66  92 127 176 224 260 313 396
#     4  11  17  41  67  96 127 171 212 254 343 402
#
# _framework density 20.876991
#
# number of rings (size 3 to 8) (size 9 to 14) (size 15 to 20)
#    0.857    0.571    4.286    2.143    0.000    0.571 
#    2.571    2.143    0.000    0.000    0.000    0.000 
#    0.000    0.000    0.000    0.000    0.000    0.000 
#
# Total GULP energy -77960.755324 kJ/mol
# GULP energy per Si atom -5568.625380 kJ/mol
# Density = 2.082947 g / cm^3
# Si number density = 20.876991 Si / 1000 Ang^3
#
#
#
# Elastic Constant Matrix: (Units=GPa)
#
#
# Indices 1 2 3 4 5 6 
#
# 1 51.6659 0.6844 6.7212 15.6776 -2.6157 -19.9119
# 2 0.6844 74.9232 12.3474 20.6635 -22.5342 -30.0798
# 3 6.7212 12.3474 53.2774 9.5317 -13.3116 -26.0209
# 4 15.6776 20.6635 9.5317 38.4128 -8.7827 -2.8164
# 5 -2.6157 -22.5342 -13.3116 -8.7827 10.8228 6.9639
# 6 -19.9119 -30.0798 -26.0209 -2.8164 6.9639 47.1967
#
#
#
# Elastic Compliance Matrix: (Units=1/GPa)
#
#
# Indices 1 2 3 4 5 6 
#
# 1 -0.179465 -0.467131 -0.364315 0.135130 -1.093947 -0.404811
# 2 -0.467131 -1.051881 -0.828598 0.334171 -2.443702 -0.943791
# 3 -0.364315 -0.828598 -0.618644 0.261623 -1.893532 -0.727862
# 4 0.135130 0.334171 0.261623 -0.067710 0.808061 0.290957
# 5 -1.093947 -2.443702 -1.893532 0.808061 -5.517261 -2.200630
# 6 -0.404811 -0.943791 -0.727862 0.290957 -2.200630 -0.810328
#
#
# Mechanical properties :
#
#
# Convention : Reuss Voigt Hill
#
# Bulk Modulus (GPa) = -0.19342 24.37473 12.09066
# Shear Modulus (GPa) = -0.75204 29.96070 14.60433
#
# Velocity S-wave (km/s) = -0.60084 3.79239 2.64775
# Velocity P-wave (km/s) = 0.75775 5.55671 3.89248
#
# Compressibility (1/GPa) = -5.17007626
#
# Stress axis : x y z
#
# Youngs Moduli (GPa) = -5.57211 -0.95068 -1.61644
#
# Poissons Ratio (x) = -0.44409 -0.58889
# Poissons Ratio (y) = -2.60290 -1.33938
# Poissons Ratio (z) = -2.03000 -0.78773
#
# Static dielectric constant tensor:
#      x y z
#    x 1.891840 -0.008640 -0.066880 
#    y -0.008640 1.740460 -0.029730 
#    z -0.066880 -0.029730 1.806400 
# 
# From -- ./inp_files/260704.got.cif
#   From: 2010.05.17/outbox.cif.g08.bks.cpg/sg2_131_cif.got.tgz:260704.got - 2010.06.03 11:33:40.
