data_PCOD9094764
_publ_section_title
;
Structure prediction by ZEFSAII (Michael W. Deem and Ramdas Pophale) SiO2 
 PCOD9094764
Probable space group: P -1
;
_chemical_formula_sum "Si O2"
_cell_formula_units_Z 15
_cell_length_a 11.669928
_cell_length_b 9.496637
_cell_length_c 13.431064
_cell_angle_alpha 27.269302
_cell_angle_beta 85.187717
_cell_angle_gamma 101.251212
_cell_volume 548.363078
_symmetry_space_group_name_H-M "P -1"
_symmetry_group_IT_number 2
_symmetry_cell_setting 'triclinic'
loop_
_space_group_symop_operation_xyz
x,y,z
-x,-y,-z
loop_
_atom_site_type_symbol
_atom_site_label
_atom_site_fract_x
_atom_site_fract_y
_atom_site_fract_z
Si Si1 0.742690 0.461082 0.678579
Si Si2 0.452476 0.253875 0.476732
Si Si3 0.112149 0.438290 0.581978
Si Si4 0.500000 0.500000 0.000000
Si Si5 0.320962 0.479134 0.857441
Si Si6 0.664866 0.317357 0.990517
Si Si7 0.015814 0.238216 0.237014
Si Si8 0.059765 0.398995 0.840868
O O1 0.642911 0.602000 0.589820
O O2 0.757422 0.334871 0.648545
O O3 0.684721 0.230792 0.931222
O O4 0.906520 0.814980 0.469470
O O5 0.606005 0.528775 0.243558
O O6 0.380567 0.903438 0.624400
O O7 0.450360 0.059504 0.701348
O O8 0.108589 0.511779 0.653064
O O9 0.000000 0.500000 0.500000
O O10 0.083971 0.021911 0.861341
O O11 0.363709 0.345541 0.033029
O O12 0.597928 0.548893 0.863999
O O13 0.163417 0.325813 0.936379
O O14 0.817770 0.543446 0.891763
O O15 0.948127 0.275504 0.318144
O O16 0.000000 0.500000 0.000000
#
# Coordination Sequence:
#
# PCOD9094764 Si02
#       8
#     2   2   2   1   2   2   2   2
#     4  12  22  40  63  96 132 164 224 272 326 387
#     4  10  20  38  62  96 132 163 211 271 336 384
#     4  11  26  44  64  96 133 182 217 269 327 396
#     4  10  20  34  60  94 136 162 206 262 334 386
#     4  10  20  40  64 100 133 169 213 274 334 388
#     4  11  22  34  57  93 134 165 202 268 331 389
#     4  12  20  38  66 100 122 165 216 280 333 378
#     4  11  23  46  69  94 136 173 221 269 333 392
#
# _framework density 27.354140000000001
#
# number of rings (size 3 to 8) (size 9 to 14) (size 15 to 20)
#    0.000    1.067    5.333    2.000    0.000    1.067 
#    7.200    0.667    0.000    1.600    0.000    0.000 
#    0.000    0.000    0.000    0.000    0.000    0.000 
#
# Total GULP energy -83631.575265 kJ/mol
# GULP energy per Si atom -5575.438351 kJ/mol
# Density = 2.729188 g / cm^3
# Si number density = 27.354140 Si / 1000 Ang^3
#
#
#
# Elastic Constant Matrix: (Units=GPa)
#
#
# Indices 1 2 3 4 5 6 
#
# 1 86.1507 63.0025 11.2849 23.9931 -14.9689 -19.1058
# 2 63.0025 116.8346 34.4637 34.1984 0.0410 -21.6214
# 3 11.2849 34.4637 123.1416 38.8337 -0.1209 -7.2381
# 4 23.9931 34.1984 38.8337 53.1837 -6.3226 -6.0798
# 5 -14.9689 0.0410 -0.1209 -6.3226 33.4656 23.6346
# 6 -19.1058 -21.6214 -7.2381 -6.0798 23.6346 43.9686
#
#
#
# Elastic Compliance Matrix: (Units=1/GPa)
#
#
# Indices 1 2 3 4 5 6 
#
# 1 0.022670 -0.012537 0.002134 -0.002649 0.011397 -0.002455
# 2 -0.012537 0.019664 -0.001787 -0.006163 -0.014467 0.010852
# 3 0.002134 -0.001787 0.010998 -0.007851 -0.001665 0.001668
# 4 -0.002649 -0.006163 -0.007851 0.030042 0.008708 -0.006001
# 5 0.011397 -0.014467 -0.001665 0.008708 0.060457 -0.033729
# 6 -0.002455 0.010852 0.001668 -0.006001 -0.033729 0.044588
#
#
# Mechanical properties :
#
#
# Convention : Reuss Voigt Hill
#
# Bulk Modulus (GPa) = 34.54210 60.40326 47.47268
# Shear Modulus (GPa) = 22.47693 40.61531 31.54612
#
# Velocity S-wave (km/s) = 2.86964 3.85748 3.39964
# Velocity P-wave (km/s) = 4.86158 6.47844 5.72735
#
# Compressibility (1/GPa) = 0.02895018
#
# Stress axis : x y z
#
# Youngs Moduli (GPa) = 44.11132 50.85433 90.92875
#
# Poissons Ratio (x) = 0.63756 -0.19400
# Poissons Ratio (y) = 0.55302 0.16252
# Poissons Ratio (z) = -0.09411 0.09089
#
# Static dielectric constant tensor:
#      x y z
#    x 2.139930 -0.026380 0.044450 
#    y -0.026380 2.220730 -0.082220 
#    z 0.044450 -0.082220 2.412240 
# 
# From -- ./inp_files/416097.got.cif
#   From: 2010.05.17/outbox.cif.g08.bks.cpg/sg2_209_cif.got.tgz:416097.got - 2010.06.03 11:33:40.
