data_PCOD9094843
_publ_section_title
;
Structure prediction by ZEFSAII (Michael W. Deem and Ramdas Pophale) SiO2 
 PCOD9094843
Probable space group: P -1
;
_chemical_formula_sum "Si O2"
_cell_formula_units_Z 11
_cell_length_a 10.268498
_cell_length_b 12.217994
_cell_length_c 7.774698
_cell_angle_alpha 75.596353
_cell_angle_beta 48.948441
_cell_angle_gamma 115.829243
_cell_volume 407.625084
_symmetry_space_group_name_H-M "P -1"
_symmetry_group_IT_number 2
_symmetry_cell_setting 'triclinic'
loop_
_space_group_symop_operation_xyz
x,y,z
-x,-y,-z
loop_
_atom_site_type_symbol
_atom_site_label
_atom_site_fract_x
_atom_site_fract_y
_atom_site_fract_z
Si Si1 0.796948 0.765469 0.479747
Si Si2 0.379238 0.559714 0.373394
Si Si3 0.856045 0.181783 0.577378
Si Si4 0.796985 0.211941 0.244823
Si Si5 0.000000 0.500000 0.500000
Si Si6 0.375378 0.175656 0.652927
O O1 0.969780 0.829400 0.479523
O O2 0.592794 0.547865 0.695529
O O3 0.894651 0.198151 0.333661
O O4 0.083690 0.942476 0.033535
O O5 0.322195 0.631650 0.264772
O O6 0.610821 0.716274 0.261888
O O7 0.053192 0.370793 0.822929
O O8 0.981695 0.364267 0.480621
O O9 0.500000 0.000000 0.000000
O O10 0.673760 0.265658 0.396491
O O11 0.500000 0.000000 0.500000
O O12 0.609715 0.773884 0.576742
#
# Coordination Sequence:
#
# PCOD9094843 Si02
#       6
#     2   2   2   2   1   2
#     4  10  22  39  62  84 119 155 201 235 297 353
#     4  11  21  38  62  90 115 155 199 245 290 350
#     4  11  20  39  58  88 116 156 197 242 286 355
#     4  12  22  38  63  89 120 153 200 247 292 343
#     4  10  20  34  62  86 110 152 198 238 286 340
#     4  11  21  38  61  86 118 158 192 245 293 350
#
# _framework density 26.985579999999999
#
# number of rings (size 3 to 8) (size 9 to 14) (size 15 to 20)
#    0.000    1.091    5.455    2.182    0.000    0.000 
#    0.000    1.818    4.000    0.000    0.000    0.000 
#    0.000    0.000    0.000    0.000    0.000    0.000 
#
# Total GULP energy -61332.015821 kJ/mol
# GULP energy per Si atom -5575.637802 kJ/mol
# Density = 2.692416 g / cm^3
# Si number density = 26.985580 Si / 1000 Ang^3
#
#
#
# Elastic Constant Matrix: (Units=GPa)
#
#
# Indices 1 2 3 4 5 6 
#
# 1 211.5539 13.3961 1.0572 -4.0456 -7.9114 0.8782
# 2 13.3961 86.5008 13.0926 -26.6313 -2.8562 16.4225
# 3 1.0572 13.0926 92.6262 -14.6745 -0.8106 14.9251
# 4 -4.0456 -26.6313 -14.6745 27.8717 15.6844 -5.8876
# 5 -7.9114 -2.8562 -0.8106 15.6844 28.4044 -9.6277
# 6 0.8782 16.4225 14.9251 -5.8876 -9.6277 44.6144
#
#
#
# Elastic Compliance Matrix: (Units=1/GPa)
#
#
# Indices 1 2 3 4 5 6 
#
# 1 0.004875 -0.001446 -0.000305 -0.002169 0.002683 0.000831
# 2 -0.001446 0.021775 0.003024 0.030398 -0.017913 -0.008853
# 3 -0.000305 0.003024 0.013381 0.013689 -0.008888 -0.005695
# 4 -0.002169 0.030398 0.013689 0.101428 -0.058215 -0.014904
# 5 0.002683 -0.017913 -0.008888 -0.058215 0.071926 0.017353
# 6 0.000831 -0.008853 -0.005695 -0.014904 0.017353 0.029340
#
#
# Mechanical properties :
#
#
# Convention : Reuss Voigt Hill
#
# Bulk Modulus (GPa) = 23.48668 49.53029 36.50849
# Shear Modulus (GPa) = 19.65635 44.38713 32.02174
#
# Velocity S-wave (km/s) = 2.70182 4.06007 3.44848
# Velocity P-wave (km/s) = 4.29598 6.35398 5.42349
#
# Compressibility (1/GPa) = 0.04257732
#
# Stress axis : x y z
#
# Youngs Moduli (GPa) = 205.11066 45.92462 74.73441
#
# Poissons Ratio (x) = 0.06640 0.02282
# Poissons Ratio (y) = 0.29654 -0.22602
# Poissons Ratio (z) = 0.06263 -0.13889
#
# Static dielectric constant tensor:
#      x y z
#    x 2.205560 -0.057670 -0.000790 
#    y -0.057670 2.171670 0.098830 
#    z -0.000790 0.098830 2.126280 
# 
# From -- ./inp_files/52124.got.cif
#   From: 2010.05.17/outbox.cif.g08.bks.cpg/sg2_27_cif.got.tgz:52124.got - 2010.06.03 11:33:40.
