data_PCOD9094473
_publ_section_title
;
Structure prediction by ZEFSAII (Michael W. Deem and Ramdas Pophale) SiO2 
 PCOD9094473
Probable space group: P -1
;
_chemical_formula_sum "Si O2"
_cell_formula_units_Z 16
_cell_length_a 10.540140
_cell_length_b 17.972528
_cell_length_c 22.186744
_cell_angle_alpha 162.228988
_cell_angle_beta 148.358830
_cell_angle_gamma 27.752408
_cell_volume 596.232774
_symmetry_space_group_name_H-M "P -1"
_symmetry_group_IT_number 2
_symmetry_cell_setting 'triclinic'
loop_
_space_group_symop_operation_xyz
x,y,z
-x,-y,-z
loop_
_atom_site_type_symbol
_atom_site_label
_atom_site_fract_x
_atom_site_fract_y
_atom_site_fract_z
Si Si1 0.559080 0.580965 0.924497
Si Si2 0.117070 0.098789 0.831225
Si Si3 0.735302 0.040300 0.342442
Si Si4 0.840544 0.127655 0.099501
Si Si5 0.051385 0.553085 0.743813
Si Si6 0.139072 0.607292 0.257340
Si Si7 0.060546 0.190086 0.362286
Si Si8 0.355213 0.294161 0.777156
O O1 0.837291 0.327434 0.862146
O O2 0.331039 0.577888 0.872403
O O3 0.568727 0.870057 0.152895
O O4 0.427788 0.603772 0.823112
O O5 0.058132 0.973320 0.769968
O O6 0.260537 0.899818 0.680039
O O7 0.262486 0.284581 0.048331
O O8 0.025691 0.811661 0.311987
O O9 0.670631 0.307307 0.560639
O O10 0.828036 0.852678 0.904308
O O11 0.971117 0.208939 0.271294
O O12 0.000000 0.000000 0.000000
O O13 0.154566 0.333513 0.669500
O O14 0.989905 0.455634 0.580286
O O15 0.855868 0.669117 0.226470
O O16 0.387550 0.003824 0.351707
O O17 0.500000 0.500000 0.000000
#
# Coordination Sequence:
#
# PCOD9094473 Si02
#       8
#     2   2   2   2   2   2   2   2
#     4  10  21  40  61  86 127 160 203 248 303 364
#     4  11  21  40  63  92 124 153 204 265 298 363
#     4  10  22  38  58  89 121 168 201 252 301 359
#     4  10  24  42  59  87 131 168 199 252 308 377
#     4  11  22  39  62  95 127 161 202 257 313 367
#     4  10  20  34  57  88 125 153 200 244 312 361
#     4  12  24  38  66  95 125 159 206 253 322 366
#     4  12  19  36  65  97 124 156 198 267 316 352
#
# _framework density 26.835156999999999
#
# number of rings (size 3 to 8) (size 9 to 14) (size 15 to 20)
#    0.000    1.250    3.750    3.375    5.250    2.000 
#    0.000    5.625    0.000    5.250    0.000    0.000 
#    0.000    0.000    0.000    0.000    0.000    0.000 
#
# Total GULP energy -89355.081440 kJ/mol
# GULP energy per Si atom -5584.692590 kJ/mol
# Density = 2.677408 g / cm^3
# Si number density = 26.835157 Si / 1000 Ang^3
#
#
#
# Elastic Constant Matrix: (Units=GPa)
#
#
# Indices 1 2 3 4 5 6 
#
# 1 101.4854 7.9227 21.0597 -18.2122 -6.1921 25.3959
# 2 7.9227 104.2298 44.4691 -28.6209 -20.5444 19.4152
# 3 21.0597 44.4691 141.1487 -15.7717 -8.6681 14.4186
# 4 -18.2122 -28.6209 -15.7717 35.3212 9.1146 -19.7120
# 5 -6.1921 -20.5444 -8.6681 9.1146 43.5636 -8.0721
# 6 25.3959 19.4152 14.4186 -19.7120 -8.0721 39.8124
#
#
#
# Elastic Compliance Matrix: (Units=1/GPa)
#
#
# Indices 1 2 3 4 5 6 
#
# 1 0.012254 0.001904 -0.001348 0.003576 0.000438 -0.006398
# 2 0.001904 0.014593 -0.003418 0.009271 0.004228 -0.001646
# 3 -0.001348 -0.003418 0.008409 0.000049 -0.000241 -0.000543
# 4 0.003576 0.009271 0.000049 0.047221 -0.001996 0.016155
# 5 0.000438 0.004228 -0.000241 -0.001996 0.025747 0.001978
# 6 -0.006398 -0.001646 -0.000543 0.016155 0.001978 0.038598
#
#
# Mechanical properties :
#
#
# Convention : Reuss Voigt Hill
#
# Bulk Modulus (GPa) = 33.86242 54.86297 44.36270
# Shear Modulus (GPa) = 30.78982 41.96693 36.37838
#
# Velocity S-wave (km/s) = 3.39096 3.95888 3.68587
# Velocity P-wave (km/s) = 5.28938 6.43318 5.88911
#
# Compressibility (1/GPa) = 0.02953126
#
# Stress axis : x y z
#
# Youngs Moduli (GPa) = 81.60516 68.52395 118.92195
#
# Poissons Ratio (x) = -0.13044 0.16032
# Poissons Ratio (y) = -0.15534 0.40648
# Poissons Ratio (z) = 0.11001 0.23422
#
# Static dielectric constant tensor:
#      x y z
#    x 2.216670 0.014840 -0.007160 
#    y 0.014840 2.258910 0.000330 
#    z -0.007160 0.000330 2.175200 
# 
# From -- ./inp_files/595879.got.cif
#   From: 2010.05.17/outbox.cif.g08.bks.cpg/sg2_298_cif.got.tgz:595879.got - 2010.06.03 11:33:40.
