data_PCOD9094404
_publ_section_title
;
Structure prediction by ZEFSAII (Michael W. Deem and Ramdas Pophale) SiO2 
 PCOD9094404
Probable space group: P -1
;
_chemical_formula_sum "Si O2"
_cell_formula_units_Z 12
_cell_length_a 10.855195
_cell_length_b 4.643863
_cell_length_c 14.852646
_cell_angle_alpha 89.271831
_cell_angle_beta 50.406076
_cell_angle_gamma 78.222533
_cell_volume 557.925585
_symmetry_space_group_name_H-M "P -1"
_symmetry_group_IT_number 2
_symmetry_cell_setting 'triclinic'
loop_
_space_group_symop_operation_xyz
x,y,z
-x,-y,-z
loop_
_atom_site_type_symbol
_atom_site_label
_atom_site_fract_x
_atom_site_fract_y
_atom_site_fract_z
Si Si1 0.335089 0.095395 0.362461
Si Si2 0.343774 0.750083 0.737323
Si Si3 0.287066 0.746357 0.565926
Si Si4 0.863290 0.278114 0.611152
Si Si5 0.945124 0.656468 0.305616
Si Si6 0.109199 0.359247 0.866234
O O1 0.505178 0.190528 0.278523
O O2 0.286311 0.882882 0.310535
O O3 0.923506 0.392679 0.675663
O O4 0.341717 0.881832 0.449001
O O5 0.392069 0.742271 0.608121
O O6 0.281285 0.458197 0.783439
O O7 0.178398 0.005087 0.835252
O O8 0.198610 0.416906 0.418454
O O9 0.116364 0.987630 0.667982
O O10 0.779264 0.548080 0.406294
O O11 0.000000 0.000000 0.500000
O O12 0.985154 0.552721 0.185237
O O13 0.000000 0.500000 0.000000
#
# Coordination Sequence:
#
# PCOD9094404 Si02
#       6
#     2   2   2   2   2   2
#     4  12  23  35  58  82 126 166 182 230 287 343
#     4  10  22  39  58  91 117 145 196 240 298 349
#     4  10  20  34  57  81 120 156 189 232 279 344
#     4  12  24  36  55  81 124 166 200 223 266 347
#     4  10  21  36  55  87 115 149 203 237 272 338
#     4  10  21  41  68  84 108 148 194 257 300 333
#
# _framework density 21.508244000000001
#
# number of rings (size 3 to 8) (size 9 to 14) (size 15 to 20)
#    0.000    1.333    1.667    4.500    0.000    0.000 
#    0.000    6.667    0.000    6.000    0.000    0.000 
#    0.000    0.000    0.000    0.000    0.000    0.000 
#
# Total GULP energy -66876.037470 kJ/mol
# GULP energy per Si atom -5573.003122 kJ/mol
# Density = 2.145929 g / cm^3
# Si number density = 21.508244 Si / 1000 Ang^3
#
#
#
# Elastic Constant Matrix: (Units=GPa)
#
#
# Indices 1 2 3 4 5 6 
#
# 1 129.0349 15.3564 44.4612 0.1253 20.2414 28.4653
# 2 15.3564 90.3100 4.1837 -0.4192 1.8586 2.1037
# 3 44.4612 4.1837 99.7469 12.2223 18.0249 3.7205
# 4 0.1253 -0.4192 12.2223 21.9585 2.9674 1.7197
# 5 20.2414 1.8586 18.0249 2.9674 19.6110 7.8944
# 6 28.4653 2.1037 3.7205 1.7197 7.8944 37.6114
#
#
#
# Elastic Compliance Matrix: (Units=1/GPa)
#
#
# Indices 1 2 3 4 5 6 
#
# 1 0.012016 -0.001527 -0.004437 0.003734 -0.005709 -0.007542
# 2 -0.001527 0.011312 0.000149 0.000083 0.000166 0.000470
# 3 -0.004437 0.000149 0.014380 -0.007051 -0.009274 0.004196
# 4 0.003734 0.000083 -0.007051 0.050207 -0.003490 -0.003696
# 5 -0.005709 0.000166 -0.009274 -0.003490 0.069635 -0.009228
# 6 -0.007542 0.000470 0.004196 -0.003696 -0.009228 0.033960
#
#
# Mechanical properties :
#
#
# Convention : Reuss Voigt Hill
#
# Bulk Modulus (GPa) = 38.34707 49.67716 44.01211
# Shear Modulus (GPa) = 23.60356 32.84221 28.22289
#
# Velocity S-wave (km/s) = 3.31633 3.91187 3.62635
# Velocity P-wave (km/s) = 5.70366 6.59929 6.16775
#
# Compressibility (1/GPa) = 0.02607761
#
# Stress axis : x y z
#
# Youngs Moduli (GPa) = 83.22241 88.40331 69.54050
#
# Poissons Ratio (x) = 0.13501 0.30852
# Poissons Ratio (y) = 0.12709 -0.01033
# Poissons Ratio (z) = 0.36922 -0.01314
#
# Static dielectric constant tensor:
#      x y z
#    x 1.898470 -0.039950 0.020170 
#    y -0.039950 1.801760 0.000760 
#    z 0.020170 0.000760 1.791620 
# 
# From -- ./inp_files/325210.got.cif
#   From: 2010.05.17/outbox.cif.g08.bks.cpg/sg2_163_cif.got.tgz:325210.got - 2010.06.03 11:33:40.
