data_PCOD9094067
_publ_section_title
;
Structure prediction by ZEFSAII (Michael W. Deem and Ramdas Pophale) SiO2 
 PCOD9094067
Probable space group: P -1
;
_chemical_formula_sum "Si O2"
_cell_formula_units_Z 16
_cell_length_a 7.053986
_cell_length_b 24.416796
_cell_length_c 8.643044
_cell_angle_alpha 43.510094
_cell_angle_beta 98.097183
_cell_angle_gamma 124.117716
_cell_volume 750.488261
_symmetry_space_group_name_H-M "P -1"
_symmetry_group_IT_number 2
_symmetry_cell_setting 'triclinic'
loop_
_space_group_symop_operation_xyz
x,y,z
-x,-y,-z
loop_
_atom_site_type_symbol
_atom_site_label
_atom_site_fract_x
_atom_site_fract_y
_atom_site_fract_z
Si Si1 0.893976 0.656163 0.724210
Si Si2 0.821470 0.023181 0.883362
Si Si3 0.839639 0.546961 0.647852
Si Si4 0.279961 0.670989 0.934467
Si Si5 0.748106 0.380779 0.647529
Si Si6 0.786178 0.689085 0.190605
Si Si7 0.239471 0.854187 0.140308
Si Si8 0.217003 0.234482 0.306025
O O1 0.022194 0.634202 0.908842
O O2 0.134411 0.765061 0.441765
O O3 0.764991 0.569322 0.751678
O O4 0.738317 0.683197 0.731637
O O5 0.781237 0.065549 0.945819
O O6 0.968663 0.117736 0.578714
O O7 0.536922 0.920465 0.001254
O O8 0.000000 0.000000 0.000000
O O9 0.771614 0.589597 0.415697
O O10 0.148340 0.620184 0.503039
O O11 0.725443 0.427144 0.876816
O O12 0.546611 0.761613 0.691696
O O13 0.293928 0.696343 0.065057
O O14 0.479257 0.352421 0.676618
O O15 0.000000 0.500000 0.500000
O O16 0.034680 0.786881 0.116601
O O17 0.812808 0.730689 0.935532
#
# Coordination Sequence:
#
# PCOD9094067 Si02
#       8
#     2   2   2   2   2   2   2   2
#     4  10  20  35  53  80 112 143 186 231 272 327
#     4  10  20  39  61  82 110 142 180 228 284 338
#     4  10  21  34  55  80 110 153 188 227 274 321
#     4  10  20  34  53  80 111 148 190 226 270 323
#     4   9  20  35  53  76 108 151 190 226 270 317
#     4  10  21  38  56  83 116 145 189 229 269 333
#     4   9  21  37  58  84 109 145 182 225 282 333
#     4  10  22  36  56  81 110 147 180 228 282 324
#
# _framework density 21.319451999999998
#
# number of rings (size 3 to 8) (size 9 to 14) (size 15 to 20)
#    0.000    2.250    0.000    1.875    0.000   12.500 
#    0.000    0.625    0.000    0.000    0.000    0.000 
#    0.000    0.000    0.000    0.000    0.000    0.000 
#
# Total GULP energy -89196.573916 kJ/mol
# GULP energy per Si atom -5574.785870 kJ/mol
# Density = 2.127093 g / cm^3
# Si number density = 21.319452 Si / 1000 Ang^3
#
#
#
# Elastic Constant Matrix: (Units=GPa)
#
#
# Indices 1 2 3 4 5 6 
#
# 1 77.3924 17.5223 18.7518 -1.2153 -13.5374 12.5661
# 2 17.5223 65.2738 2.7325 -6.7226 -8.6091 6.0792
# 3 18.7518 2.7325 54.3020 -1.5421 -11.5343 5.5413
# 4 -1.2153 -6.7226 -1.5421 27.1460 3.9881 -5.9836
# 5 -13.5374 -8.6091 -11.5343 3.9881 46.0287 0.5360
# 6 12.5661 6.0792 5.5413 -5.9836 0.5360 24.5015
#
#
#
# Elastic Compliance Matrix: (Units=1/GPa)
#
#
# Indices 1 2 3 4 5 6 
#
# 1 0.016433 -0.003350 -0.004087 -0.002457 0.003481 -0.007349
# 2 -0.003350 0.016993 0.001063 0.003364 0.002191 -0.001965
# 3 -0.004087 0.001063 0.020992 -0.000023 0.004294 -0.003015
# 4 -0.002457 0.003364 -0.000023 0.040393 -0.003720 0.010377
# 5 0.003481 0.002191 0.004294 -0.003720 0.024613 -0.004747
# 6 -0.007349 -0.001965 -0.003015 0.010377 -0.004747 0.048390
#
#
# Mechanical properties :
#
#
# Convention : Reuss Voigt Hill
#
# Bulk Modulus (GPa) = 23.99683 30.55348 27.27516
# Shear Modulus (GPa) = 25.71309 30.06601 27.88955
#
# Velocity S-wave (km/s) = 3.47664 3.75942 3.62079
# Velocity P-wave (km/s) = 5.23415 5.76252 5.50468
#
# Compressibility (1/GPa) = 0.04167216
#
# Stress axis : x y z
#
# Youngs Moduli (GPa) = 60.85185 58.84691 47.63616
#
# Poissons Ratio (x) = 0.19713 0.19467
# Poissons Ratio (y) = 0.20384 -0.05064
# Poissons Ratio (z) = 0.24868 -0.06256
#
# Static dielectric constant tensor:
#      x y z
#    x 1.829060 -0.026910 -0.036330 
#    y -0.026910 1.826030 0.003550 
#    z -0.036330 0.003550 1.822980 
# 
# From -- ./inp_files/38989.got.cif
#   From: 2010.05.17/outbox.cif.g08.bks.cpg/sg2_20_cif.got.tgz:38989.got - 2010.06.03 11:33:40.
