data_PCOD9094026
_publ_section_title
;
Structure prediction by ZEFSAII (Michael W. Deem and Ramdas Pophale) SiO2 
 PCOD9094026
Probable space group: P -1
;
_chemical_formula_sum "Si O2"
_cell_formula_units_Z 16
_cell_length_a 12.474538
_cell_length_b 12.248841
_cell_length_c 12.756206
_cell_angle_alpha 141.774349
_cell_angle_beta 60.340177
_cell_angle_gamma 137.777905
_cell_volume 792.569108
_symmetry_space_group_name_H-M "P -1"
_symmetry_group_IT_number 2
_symmetry_cell_setting 'triclinic'
loop_
_space_group_symop_operation_xyz
x,y,z
-x,-y,-z
loop_
_atom_site_type_symbol
_atom_site_label
_atom_site_fract_x
_atom_site_fract_y
_atom_site_fract_z
Si Si1 0.046114 0.911021 0.500858
Si Si2 0.752070 0.038702 0.242834
Si Si3 0.366321 0.234089 0.704084
Si Si4 0.033692 0.845057 0.972723
Si Si5 0.704020 0.498756 0.747556
Si Si6 0.087219 0.567289 0.121305
Si Si7 0.590864 0.113194 0.685106
Si Si8 0.079679 0.276868 0.367228
O O1 0.078057 0.752425 0.314867
O O2 0.914890 0.738643 0.523334
O O3 0.202604 0.145496 0.660574
O O4 0.000000 0.000000 0.500000
O O5 0.828313 0.073075 0.118118
O O6 0.916121 0.232289 0.379443
O O7 0.677636 0.820410 0.192939
O O8 0.594684 0.016133 0.293566
O O9 0.548371 0.481402 0.795550
O O10 0.388982 0.065276 0.505852
O O11 0.866266 0.714414 0.890284
O O12 0.001807 0.661265 0.934397
O O13 0.067540 0.062784 0.173972
O O14 0.643393 0.285865 0.692033
O O15 0.770680 0.507399 0.607795
O O16 0.282848 0.718623 0.155577
O O17 0.000000 0.500000 0.000000
#
# Coordination Sequence:
#
# PCOD9094026 Si02
#       8
#     2   2   2   2   2   2   2   2
#     4  10  21  38  57  76 100 137 179 219 262 309
#     4   9  16  30  52  78 106 138 168 204 256 307
#     4   9  18  32  52  79 111 139 170 216 263 309
#     4  10  20  34  52  79 112 140 170 213 257 307
#     4   9  16  30  52  78 106 138 168 204 256 307
#     4  10  21  38  57  76 100 137 179 219 262 309
#     4   9  18  32  52  79 111 139 170 216 263 309
#     4  10  20  34  52  79 112 140 170 213 257 307
#
# _framework density 20.187514
#
# number of rings (size 3 to 8) (size 9 to 14) (size 15 to 20)
#    0.000    2.500    0.000    3.750    0.000    3.000 
#    0.000   36.250    0.000    0.000    0.000    0.000 
#    0.000    0.000    0.000    0.000    0.000    0.000 
#
# Total GULP energy -89095.558185 kJ/mol
# GULP energy per Si atom -5568.472387 kJ/mol
# Density = 2.014157 g / cm^3
# Si number density = 20.187514 Si / 1000 Ang^3
#
#
#
# Elastic Constant Matrix: (Units=GPa)
#
#
# Indices 1 2 3 4 5 6 
#
# 1 113.4860 64.3603 39.7503 -10.2152 20.4923 -8.7244
# 2 64.3603 133.7634 41.7761 -18.4383 4.8770 17.9379
# 3 39.7503 41.7761 70.9577 -8.4308 15.8012 1.4686
# 4 -10.2152 -18.4383 -8.4308 32.0640 -3.9132 -4.0107
# 5 20.4923 4.8770 15.8012 -3.9132 34.2266 -2.8742
# 6 -8.7244 17.9379 1.4686 -4.0107 -2.8742 30.1155
#
#
#
# Elastic Compliance Matrix: (Units=1/GPa)
#
#
# Indices 1 2 3 4 5 6 
#
# 1 0.016146 -0.007668 -0.003287 0.000207 -0.006291 0.008832
# 2 -0.007668 0.014180 -0.004331 0.003894 0.004215 -0.009536
# 3 -0.003287 -0.004331 0.020053 0.000954 -0.006551 0.000151
# 4 0.000207 0.003894 0.000954 0.034435 0.003034 0.002569
# 5 -0.006291 0.004215 -0.006551 0.003034 0.035738 -0.000199
# 6 0.008832 -0.009536 0.000151 0.002569 -0.000199 0.041760
#
#
# Mechanical properties :
#
#
# Convention : Reuss Voigt Hill
#
# Bulk Modulus (GPa) = 50.49136 67.77561 59.13349
# Shear Modulus (GPa) = 25.06431 30.76926 27.91678
#
# Velocity S-wave (km/s) = 3.52742 3.90830 3.72274
# Velocity P-wave (km/s) = 6.45413 7.34931 6.91622
#
# Compressibility (1/GPa) = 0.01980537
#
# Stress axis : x y z
#
# Youngs Moduli (GPa) = 61.93659 70.52187 49.86681
#
# Poissons Ratio (x) = 0.54078 0.16393
# Poissons Ratio (y) = 0.47495 0.21598
# Poissons Ratio (z) = 0.20360 0.30544
#
# Static dielectric constant tensor:
#      x y z
#    x 1.789290 0.034230 -0.006260 
#    y 0.034230 1.786370 0.045640 
#    z -0.006260 0.045640 1.823210 
# 
# From -- ./inp_files/331808.got.cif
#   From: 2010.05.17/outbox.cif.g08.bks.cpg/sg2_166_cif.got.tgz:331808.got - 2010.06.03 11:33:40.
