data_PCOD9094594
_publ_section_title
;
Structure prediction by ZEFSAII (Michael W. Deem and Ramdas Pophale) SiO2 
 PCOD9094594
Probable space group: P -1
;
_chemical_formula_sum "Si O2"
_cell_formula_units_Z 16
_cell_length_a 15.153834
_cell_length_b 12.657218
_cell_length_c 9.080098
_cell_angle_alpha 45.336353
_cell_angle_beta 36.756262
_cell_angle_gamma 41.941894
_cell_volume 671.193059
_symmetry_space_group_name_H-M "P -1"
_symmetry_group_IT_number 2
_symmetry_cell_setting 'triclinic'
loop_
_space_group_symop_operation_xyz
x,y,z
-x,-y,-z
loop_
_atom_site_type_symbol
_atom_site_label
_atom_site_fract_x
_atom_site_fract_y
_atom_site_fract_z
Si Si1 0.277944 0.251715 0.069537
Si Si2 0.821186 0.030280 0.158264
Si Si3 0.460817 0.854047 0.770860
Si Si4 0.235239 0.873068 0.279700
Si Si5 0.378656 0.871544 0.378454
Si Si6 0.230391 0.436133 0.267378
Si Si7 0.998370 0.329981 0.834959
Si Si8 0.000079 0.254487 0.238648
O O1 0.247723 0.338373 0.184226
O O2 0.116973 0.306100 0.130957
O O3 0.334996 0.059539 0.211854
O O4 0.432365 0.250955 0.774152
O O5 0.864000 0.846177 0.225719
O O6 0.710583 0.137881 0.068406
O O7 0.694899 0.105621 0.384615
O O8 0.000000 0.000000 0.000000
O O9 0.606758 0.673567 0.752923
O O10 0.500000 0.000000 0.500000
O O11 0.403562 0.877127 0.994629
O O12 0.271808 0.826794 0.448627
O O13 0.153186 0.751076 0.464825
O O14 0.107604 0.061231 0.247510
O O15 0.159439 0.617995 0.112437
O O16 0.088851 0.442949 0.559517
O O17 0.961320 0.336824 0.049566
#
# Coordination Sequence:
#
# PCOD9094594 Si02
#       8
#     2   2   2   2   2   2   2   2
#     4  10  20  35  61  89 121 160 211 260 303 367
#     4  12  25  39  67  98 126 159 214 270 314 372
#     4  12  22  40  66  94 120 166 220 260 311 372
#     4  10  20  36  60  91 125 158 205 262 323 364
#     4  10  20  34  58  92 123 154 205 269 308 355
#     4  11  23  41  63  92 130 172 208 260 320 380
#     4  11  23  41  63  92 133 169 207 257 329 378
#     4  10  21  35  60  91 125 161 206 263 313 372
#
# _framework density 23.838146999999999
#
# number of rings (size 3 to 8) (size 9 to 14) (size 15 to 20)
#    0.000    1.250    5.000    0.750    8.750    0.500 
#    0.000    1.250    0.000    0.000    0.000    0.000 
#    0.000    0.000    0.000    0.000    0.000    0.000 
#
# Total GULP energy -89069.014179 kJ/mol
# GULP energy per Si atom -5566.813386 kJ/mol
# Density = 2.378389 g / cm^3
# Si number density = 23.838147 Si / 1000 Ang^3
#
#
#
# Elastic Constant Matrix: (Units=GPa)
#
#
# Indices 1 2 3 4 5 6 
#
# 1 75.8502 26.1455 25.6225 -7.4213 -13.7899 -27.3147
# 2 26.1455 83.3257 34.5604 13.3933 -7.2318 -31.4359
# 3 25.6225 34.5604 125.5632 9.0106 9.4281 -2.3870
# 4 -7.4213 13.3933 9.0106 26.6208 -9.1746 6.9402
# 5 -13.7899 -7.2318 9.4281 -9.1746 28.2276 6.2024
# 6 -27.3147 -31.4359 -2.3870 6.9402 6.2024 37.9242
#
#
#
# Elastic Compliance Matrix: (Units=1/GPa)
#
#
# Indices 1 2 3 4 5 6 
#
# 1 0.023348 -0.001187 -0.006115 0.011254 0.014377 0.011037
# 2 -0.001187 0.027001 -0.004914 -0.020422 -0.004296 0.025657
# 3 -0.006115 -0.004914 0.011403 -0.004494 -0.008289 -0.005581
# 4 0.011254 -0.020422 -0.004494 0.069993 0.030425 -0.026890
# 5 0.014377 -0.004296 -0.008289 0.030425 0.055859 -0.008431
# 6 0.011037 0.025657 -0.005581 -0.026890 -0.008431 0.061533
#
#
# Mechanical properties :
#
#
# Convention : Reuss Voigt Hill
#
# Bulk Modulus (GPa) = 26.79495 50.82177 38.80836
# Shear Modulus (GPa) = 17.48197 31.78189 24.63193
#
# Velocity S-wave (km/s) = 2.71100 3.65531 3.21798
# Velocity P-wave (km/s) = 4.58957 6.25946 5.48840
#
# Compressibility (1/GPa) = 0.03732046
#
# Stress axis : x y z
#
# Youngs Moduli (GPa) = 42.83003 37.03628 87.69486
#
# Poissons Ratio (x) = 0.04396 0.53625
# Poissons Ratio (y) = 0.05084 0.43090
# Poissons Ratio (z) = 0.26190 0.18198
#
# Static dielectric constant tensor:
#      x y z
#    x 2.025170 0.006400 0.010370 
#    y 0.006400 2.088510 0.135720 
#    z 0.010370 0.135720 2.089810 
# 
# From -- ./inp_files/312476.got.cif
#   From: 2010.05.17/outbox.cif.g08.bks.cpg/sg2_157_cif.got.tgz:312476.got - 2010.06.03 11:33:40.
