data_PCOD9094341
_publ_section_title
;
Structure prediction by ZEFSAII (Michael W. Deem and Ramdas Pophale) SiO2 
 PCOD9094341
Probable space group: P -1
;
_chemical_formula_sum "Si O2"
_cell_formula_units_Z 16
_cell_length_a 11.311023
_cell_length_b 15.633693
_cell_length_c 15.117394
_cell_angle_alpha 19.036032
_cell_angle_beta 73.346327
_cell_angle_gamma 73.521849
_cell_volume 834.649046
_symmetry_space_group_name_H-M "P -1"
_symmetry_group_IT_number 2
_symmetry_cell_setting 'triclinic'
loop_
_space_group_symop_operation_xyz
x,y,z
-x,-y,-z
loop_
_atom_site_type_symbol
_atom_site_label
_atom_site_fract_x
_atom_site_fract_y
_atom_site_fract_z
Si Si1 0.730712 0.302189 0.814719
Si Si2 0.924809 0.131064 0.806775
Si Si3 0.211073 0.187607 0.999025
Si Si4 0.863584 0.918359 0.475260
Si Si5 0.516519 0.735839 0.198443
Si Si6 0.824791 0.800910 0.397772
Si Si7 0.143868 0.543035 0.950960
Si Si8 0.853149 0.286016 0.405372
O O1 0.818280 0.313115 0.697471
O O2 0.591620 0.274673 0.839923
O O3 0.750900 0.555879 0.620839
O O4 0.777624 0.051015 0.106514
O O5 0.030221 0.256561 0.601959
O O6 0.859076 0.918619 0.968102
O O7 0.000000 0.000000 0.000000
O O8 0.216246 0.938368 0.307995
O O9 0.347550 0.270999 0.864673
O O10 0.142152 0.442825 0.806485
O O11 0.813493 0.863359 0.442434
O O12 0.010031 0.842909 0.512475
O O13 0.848337 0.217299 0.217029
O O14 0.810207 0.724384 0.750132
O O15 0.500000 0.500000 0.500000
O O16 0.500000 0.000000 0.000000
O O17 0.201092 0.629522 0.761160
O O18 0.000000 0.500000 0.000000
#
# Coordination Sequence:
#
# PCOD9094341 Si02
#       8
#     2   2   2   2   2   2   2   2
#     4  11  24  41  56  82 117 160 201 246 284 336
#     4  10  23  36  58  83 123 154 198 231 299 340
#     4  12  24  38  60  88 113 165 197 246 289 340
#     4  11  20  35  58  88 123 157 186 229 300 367
#     4  12  25  43  62  81 114 159 214 250 288 332
#     4  11  23  36  60  87 119 154 194 238 292 358
#     4  10  20  34  56  85 124 160 181 229 298 365
#     4  11  22  36  57  88 124 148 197 236 295 356
#
# _framework density 19.169733999999998
#
# number of rings (size 3 to 8) (size 9 to 14) (size 15 to 20)
#    0.000    1.000    2.500    6.375    5.250    0.000 
#    0.000    0.000    0.000    0.000    0.000   17.500 
#    0.000    0.000    0.000    0.000    0.000    0.000 
#
# Total GULP energy -89436.054193 kJ/mol
# GULP energy per Si atom -5589.753387 kJ/mol
# Density = 1.912610 g / cm^3
# Si number density = 19.169734 Si / 1000 Ang^3
#
#
#
# Elastic Constant Matrix: (Units=GPa)
#
#
# Indices 1 2 3 4 5 6 
#
# 1 91.2299 22.6573 17.5835 8.1163 -17.3091 17.1495
# 2 22.6573 76.4801 30.5204 3.6399 -13.0893 25.4963
# 3 17.5835 30.5204 128.4896 8.1327 -12.9803 16.8163
# 4 8.1163 3.6399 8.1327 45.0695 8.1689 -4.1815
# 5 -17.3091 -13.0893 -12.9803 8.1689 23.2723 -5.7930
# 6 17.1495 25.4963 16.8163 -4.1815 -5.7930 24.7281
#
#
#
# Elastic Compliance Matrix: (Units=1/GPa)
#
#
# Indices 1 2 3 4 5 6 
#
# 1 0.015321 0.000959 0.000597 -0.006042 0.011832 -0.010271
# 2 0.000959 0.022316 -0.001361 -0.005364 0.009026 -0.021541
# 3 0.000597 -0.001361 0.009311 -0.002976 0.004738 -0.004736
# 4 -0.006042 -0.005364 -0.002976 0.028320 -0.015924 0.012803
# 5 0.011832 0.009026 0.004738 -0.015924 0.062916 -0.008688
# 6 -0.010271 -0.021541 -0.004736 0.012803 -0.008688 0.073123
#
#
# Mechanical properties :
#
#
# Convention : Reuss Voigt Hill
#
# Bulk Modulus (GPa) = 21.12456 48.63578 34.88017
# Shear Modulus (GPa) = 22.05595 33.64322 27.84958
#
# Velocity S-wave (km/s) = 3.39567 4.19384 3.81568
# Velocity P-wave (km/s) = 5.13982 6.99123 6.13576
#
# Compressibility (1/GPa) = 0.04733826
#
# Stress axis : x y z
#
# Youngs Moduli (GPa) = 65.26954 44.81182 107.39813
#
# Poissons Ratio (x) = -0.04299 -0.06416
# Poissons Ratio (y) = -0.06261 0.14621
# Poissons Ratio (z) = -0.03899 0.06101
#
# Static dielectric constant tensor:
#      x y z
#    x 1.646010 -0.010950 0.011810 
#    y -0.010950 1.704200 0.030680 
#    z 0.011810 0.030680 1.686070 
# 
# From -- ./inp_files/455699.got.cif
#   From: 2010.05.17/outbox.cif.g08.bks.cpg/sg2_228_cif.got.tgz:455699.got - 2010.06.03 11:33:40.
