data_PCOD9094612
_publ_section_title
;
Structure prediction by ZEFSAII (Michael W. Deem and Ramdas Pophale) SiO2 
 PCOD9094612
Probable space group: P -1
;
_chemical_formula_sum "Si O2"
_cell_formula_units_Z 16
_cell_length_a 12.427894
_cell_length_b 5.211862
_cell_length_c 10.684890
_cell_angle_alpha 88.434362
_cell_angle_beta 84.820306
_cell_angle_gamma 84.089306
_cell_volume 685.482652
_symmetry_space_group_name_H-M "P -1"
_symmetry_group_IT_number 2
_symmetry_cell_setting 'triclinic'
loop_
_space_group_symop_operation_xyz
x,y,z
-x,-y,-z
loop_
_atom_site_type_symbol
_atom_site_label
_atom_site_fract_x
_atom_site_fract_y
_atom_site_fract_z
Si Si1 0.254913 0.742152 0.761396
Si Si2 0.404835 0.060537 0.609951
Si Si3 0.089972 0.175218 0.038330
Si Si4 0.891410 0.503509 0.748499
Si Si5 0.115396 0.300943 0.770200
Si Si6 0.722966 0.250523 0.954887
Si Si7 0.303386 0.299960 0.387656
Si Si8 0.415294 0.775404 0.257720
O O1 0.186328 0.524667 0.718346
O O2 0.356600 0.806738 0.667433
O O3 0.180598 0.018544 0.766317
O O4 0.291078 0.667464 0.900865
O O5 0.318493 0.227141 0.531277
O O6 0.461158 0.192598 0.717803
O O7 0.500000 0.000000 0.500000
O O8 0.064076 0.269302 0.178895
O O9 0.210565 0.030152 0.038232
O O10 0.093205 0.368904 0.919618
O O11 0.000000 0.000000 0.000000
O O12 0.806612 0.396308 0.858188
O O13 0.819216 0.604118 0.638923
O O14 0.998407 0.311912 0.716434
O O15 0.614532 0.254706 0.884051
O O16 0.374692 0.530656 0.337767
O O17 0.344682 0.039812 0.308629
#
# Coordination Sequence:
#
# PCOD9094612 Si02
#       8
#     2   2   2   2   2   2   2   2
#     4  11  25  39  60  92 130 160 209 258 305 369
#     4  10  24  48  69  86 114 167 220 266 317 358
#     4  11  18  31  56  89 134 167 198 227 294 376
#     4  11  19  35  59  91 132 165 200 234 308 375
#     4  11  23  36  58  95 131 167 196 244 308 374
#     4  10  20  34  58  96 132 158 197 251 309 371
#     4  10  22  38  65  92 117 159 216 258 292 373
#     4  10  21  38  65  92 118 155 209 265 313 363
#
# _framework density 23.341218000000001
#
# number of rings (size 3 to 8) (size 9 to 14) (size 15 to 20)
#    0.000    1.500    3.750    2.250    0.000    4.500 
#    0.000    1.250    0.000    9.000    0.000    0.000 
#    0.000    0.000    0.000    0.000    0.000    0.000 
#
# Total GULP energy -89384.521494 kJ/mol
# GULP energy per Si atom -5586.532593 kJ/mol
# Density = 2.328809 g / cm^3
# Si number density = 23.341218 Si / 1000 Ang^3
#
#
#
# Elastic Constant Matrix: (Units=GPa)
#
#
# Indices 1 2 3 4 5 6 
#
# 1 96.5051 29.9212 84.2175 -12.9044 29.1557 19.4875
# 2 29.9212 98.1821 26.5129 -14.8718 -1.0557 15.6315
# 3 84.2175 26.5129 86.5895 -27.5458 20.2545 -5.3032
# 4 -12.9044 -14.8718 -27.5458 27.5604 -7.2155 -11.6213
# 5 29.1557 -1.0557 20.2545 -7.2155 54.6670 -7.0072
# 6 19.4875 15.6315 -5.3032 -11.6213 -7.0072 31.2554
#
#
#
# Elastic Compliance Matrix: (Units=1/GPa)
#
#
# Indices 1 2 3 4 5 6 
#
# 1 -0.016503 -0.002035 0.027329 0.032757 0.006760 0.029639
# 2 -0.002035 0.012239 -0.001341 0.003342 0.001820 -0.003429
# 3 0.027329 -0.001341 -0.022342 -0.028336 -0.014412 -0.033926
# 4 0.032757 0.003342 -0.028336 0.012814 -0.008292 -0.023997
# 5 0.006760 0.001820 -0.014412 -0.008292 0.018123 -0.006590
# 6 0.029639 -0.003429 -0.033926 -0.023997 -0.006590 -0.000927
#
#
# Mechanical properties :
#
#
# Convention : Reuss Voigt Hill
#
# Bulk Modulus (GPa) = 46.94876 62.50889 54.72882
# Shear Modulus (GPa) = -133.68640 32.07157 -50.80741
#
# Velocity S-wave (km/s) = -7.57622 3.71081 -4.67060
# Velocity P-wave (km/s) = 7.50829 6.72301 2.36386
#
# Compressibility (1/GPa) = 0.02129982
#
# Stress axis : x y z
#
# Youngs Moduli (GPa) = -60.59418 81.70496 -44.75942
#
# Poissons Ratio (x) = 0.16626 1.22322
# Poissons Ratio (y) = -0.12330 -0.06003
# Poissons Ratio (z) = 1.65596 0.10958
#
# Static dielectric constant tensor:
#      x y z
#    x 1.947270 -0.015980 -0.021490 
#    y -0.015980 1.945010 0.021230 
#    z -0.021490 0.021230 1.880520 
# 
# From -- ./inp_files/409186.got.cif
#   From: 2010.05.17/outbox.cif.g08.bks.cpg/sg2_205_cif.got.tgz:409186.got - 2010.06.03 11:33:40.
