data_PCOD9094425
_publ_section_title
;
Structure prediction by ZEFSAII (Michael W. Deem and Ramdas Pophale) SiO2 
 PCOD9094425
Probable space group: P -1
;
_chemical_formula_sum "Si O2"
_cell_formula_units_Z 16
_cell_length_a 5.191444
_cell_length_b 27.387315
_cell_length_c 5.998763
_cell_angle_alpha 54.270482
_cell_angle_beta 89.607144
_cell_angle_gamma 107.535462
_cell_volume 641.523355
_symmetry_space_group_name_H-M "P -1"
_symmetry_group_IT_number 2
_symmetry_cell_setting 'triclinic'
loop_
_space_group_symop_operation_xyz
x,y,z
-x,-y,-z
loop_
_atom_site_type_symbol
_atom_site_label
_atom_site_fract_x
_atom_site_fract_y
_atom_site_fract_z
Si Si1 0.486757 0.632307 0.840296
Si Si2 0.189979 0.990456 0.327971
Si Si3 0.112336 0.429576 0.768444
Si Si4 0.085956 0.782179 0.879735
Si Si5 0.074050 0.123986 0.678877
Si Si6 0.497022 0.448944 0.325841
Si Si7 0.315501 0.895031 0.885245
Si Si8 0.531390 0.749659 0.794519
O O1 0.724716 0.609621 0.997194
O O2 0.200491 0.597566 0.070414
O O3 0.450843 0.608672 0.648481
O O4 0.562015 0.706865 0.704229
O O5 0.004956 0.944305 0.260498
O O6 0.339607 0.943882 0.550191
O O7 0.421943 0.061235 0.084345
O O8 0.000000 0.000000 0.500000
O O9 0.209123 0.426446 0.522770
O O10 0.259554 0.505513 0.636194
O O11 0.089591 0.834469 0.549853
O O12 0.261733 0.824842 0.970385
O O13 0.224861 0.732824 0.933430
O O14 0.751330 0.748689 0.986555
O O15 0.377456 0.176080 0.488491
O O16 0.963381 0.114004 0.955010
O O17 0.500000 0.500000 0.000000
#
# Coordination Sequence:
#
# PCOD9094425 Si02
#       8
#     2   2   2   2   2   2   2   2
#     4  11  22  40  61  90 128 159 207 249 299 355
#     4  10  20  34  57  84 115 146 189 246 300 349
#     4  10  22  39  65  94 119 167 198 247 309 358
#     4   9  21  40  58  80 116 153 195 236 298 337
#     4   9  21  37  57  85 115 151 197 236 296 351
#     4   9  21  40  65  92 129 156 204 251 304 354
#     4  10  20  36  58  83 111 152 194 243 297 354
#     4  10  21  42  58  82 122 158 191 251 283 350
#
# _framework density 24.940632999999998
#
# number of rings (size 3 to 8) (size 9 to 14) (size 15 to 20)
#    0.750    1.500    0.000    2.250    0.000    8.000 
#    4.500    0.000    0.000    0.000    0.000    0.000 
#    0.000    0.000    0.000    0.000    0.000    0.000 
#
# Total GULP energy -89286.865274 kJ/mol
# GULP energy per Si atom -5580.429080 kJ/mol
# Density = 2.488387 g / cm^3
# Si number density = 24.940633 Si / 1000 Ang^3
#
#
#
# Elastic Constant Matrix: (Units=GPa)
#
#
# Indices 1 2 3 4 5 6 
#
# 1 91.9021 18.2981 0.7660 -8.5269 -2.0793 -0.8026
# 2 18.2981 145.8588 8.2458 15.3977 2.0310 -15.1153
# 3 0.7660 8.2458 45.8373 1.2007 -7.0539 3.2883
# 4 -8.5269 15.3977 1.2007 23.9373 -4.3933 -8.3703
# 5 -2.0793 2.0310 -7.0539 -4.3933 24.8336 -2.3498
# 6 -0.8026 -15.1153 3.2883 -8.3703 -2.3498 35.9412
#
#
#
# Elastic Compliance Matrix: (Units=1/GPa)
#
#
# Indices 1 2 3 4 5 6 
#
# 1 0.011963 -0.002128 0.000328 0.006423 0.002500 0.001001
# 2 -0.002128 0.008047 -0.001741 -0.005509 -0.002109 0.002075
# 3 0.000328 -0.001741 0.023301 0.000482 0.006655 -0.002310
# 4 0.006423 -0.005509 0.000482 0.053574 0.011646 0.011021
# 5 0.002500 -0.002109 0.006655 0.011646 0.044999 0.004214
# 6 0.001001 0.002075 -0.002310 0.011021 0.004214 0.031772
#
#
# Mechanical properties :
#
#
# Convention : Reuss Voigt Hill
#
# Bulk Modulus (GPa) = 27.60306 37.57979 32.59142
# Shear Modulus (GPa) = 25.93120 34.02829 29.97975
#
# Velocity S-wave (km/s) = 3.22796 3.69775 3.47081
# Velocity P-wave (km/s) = 4.99845 5.77335 5.39982
#
# Compressibility (1/GPa) = 0.03622786
#
# Stress axis : x y z
#
# Youngs Moduli (GPa) = 83.58778 124.26422 42.91611
#
# Poissons Ratio (x) = 0.26449 -0.01406
# Poissons Ratio (y) = 0.17791 0.07473
# Poissons Ratio (z) = -0.02738 0.21637
#
# Static dielectric constant tensor:
#      x y z
#    x 2.061530 0.077720 0.054770 
#    y 0.077720 2.035200 0.007730 
#    z 0.054770 0.007730 2.006980 
# 
# From -- ./inp_files/14443.got.cif
#   From: 2010.05.17/outbox.cif.g08.bks.cpg/sg2_8_cif.got.tgz:14443.got - 2010.06.03 11:33:40.
