data_PCOD9094483
_publ_section_title
;
Structure prediction by ZEFSAII (Michael W. Deem and Ramdas Pophale) SiO2 
 PCOD9094483
Probable space group: P -1
;
_chemical_formula_sum "Si O2"
_cell_formula_units_Z 14
_cell_length_a 13.826065
_cell_length_b 7.413919
_cell_length_c 10.936991
_cell_angle_alpha 102.533193
_cell_angle_beta 122.935394
_cell_angle_gamma 37.076749
_cell_volume 512.574948
_symmetry_space_group_name_H-M "P -1"
_symmetry_group_IT_number 2
_symmetry_cell_setting 'triclinic'
loop_
_space_group_symop_operation_xyz
x,y,z
-x,-y,-z
loop_
_atom_site_type_symbol
_atom_site_label
_atom_site_fract_x
_atom_site_fract_y
_atom_site_fract_z
Si Si1 0.796573 0.889888 0.929385
Si Si2 0.986569 0.057164 0.854434
Si Si3 0.811926 0.455681 0.387318
Si Si4 0.814236 0.897984 0.663907
Si Si5 0.603088 0.666427 0.536498
Si Si6 0.493985 0.205250 0.961631
Si Si7 0.825474 0.825218 0.313301
O O1 0.737744 0.996493 0.765937
O O2 0.637269 0.989101 0.911401
O O3 0.000000 0.500000 0.000000
O O4 0.829566 0.039843 0.043489
O O5 0.789130 0.429669 0.725312
O O6 0.936923 0.925287 0.741438
O O7 0.000000 0.000000 0.000000
O O8 0.710400 0.509912 0.450590
O O9 0.719647 0.469430 0.208112
O O10 0.057017 0.159783 0.540026
O O11 0.987623 0.513447 0.692524
O O12 0.581213 0.200015 0.497184
O O13 0.500000 0.000000 0.500000
O O14 0.229043 0.272302 0.645463
O O15 0.500000 0.000000 0.000000
O O16 0.624177 0.146938 0.143444
#
# Coordination Sequence:
#
# PCOD9094483 Si02
#       7
#     2   2   2   2   2   2   2
#     4  11  19  35  61  87 116 157 212 256 301 370
#     4  10  25  39  58  92 130 164 197 259 327 374
#     4  10  21  34  57  92 120 159 214 258 301 359
#     4  11  21  37  58  86 126 161 203 254 320 368
#     4  12  21  37  64  93 118 160 216 261 301 368
#     4  10  20  34  57  90 124 155 206 266 308 355
#     4  10  20  36  56  87 128 161 201 260 311 367
#
# _framework density 27.313077
#
# number of rings (size 3 to 8) (size 9 to 14) (size 15 to 20)
#    0.000    1.429    4.286    2.143    0.000    0.000 
#    0.000    0.714    0.000    5.143    0.000    0.000 
#    0.000    0.000    0.000    0.000    0.000    0.000 
#
# Total GULP energy -78012.111806 kJ/mol
# GULP energy per Si atom -5572.293700 kJ/mol
# Density = 2.725091 g / cm^3
# Si number density = 27.313077 Si / 1000 Ang^3
#
#
#
# Elastic Constant Matrix: (Units=GPa)
#
#
# Indices 1 2 3 4 5 6 
#
# 1 157.2827 46.6215 28.1520 -4.7059 14.6044 -33.3593
# 2 46.6215 80.7684 30.5354 16.5239 5.2571 4.6419
# 3 28.1520 30.5354 215.4359 8.5284 -17.5815 -13.1025
# 4 -4.7059 16.5239 8.5284 34.7213 8.2286 4.9197
# 5 14.6044 5.2571 -17.5815 8.2286 45.0713 -6.7333
# 6 -33.3593 4.6419 -13.1025 4.9197 -6.7333 27.5211
#
#
#
# Elastic Compliance Matrix: (Units=1/GPa)
#
#
# Indices 1 2 3 4 5 6 
#
# 1 0.012592 -0.009047 0.000350 0.003958 -0.001229 0.015948
# 2 -0.009047 0.021150 -0.002457 -0.008368 -0.001130 -0.014484
# 3 0.000350 -0.002457 0.005556 -0.001581 0.003313 0.004577
# 4 0.003958 -0.008368 -0.001581 0.036002 -0.007932 -0.002921
# 5 -0.001229 -0.001130 0.003313 -0.007932 0.026686 0.008226
# 6 0.015948 -0.014484 0.004577 -0.002921 0.008226 0.062823
#
#
# Mechanical properties :
#
#
# Convention : Reuss Voigt Hill
#
# Bulk Modulus (GPa) = 58.86264 73.78943 66.32603
# Shear Modulus (GPa) = 25.93621 44.67462 35.30541
#
# Velocity S-wave (km/s) = 3.08488 4.04870 3.59920
# Velocity P-wave (km/s) = 5.85547 6.99506 6.45048
#
# Compressibility (1/GPa) = 0.01698870
#
# Stress axis : x y z
#
# Youngs Moduli (GPa) = 79.41566 47.28096 179.99650
#
# Poissons Ratio (x) = 0.42775 -0.06297
# Poissons Ratio (y) = 0.71847 0.44233
# Poissons Ratio (z) = -0.02778 0.11619
#
# Static dielectric constant tensor:
#      x y z
#    x 1.753260 0.491530 0.159560 
#    y 0.491530 1.536620 0.018380 
#    z 0.159560 0.018380 2.273670 
# 
# From -- ./inp_files/527563.got.cif
#   From: 2010.05.17/outbox.cif.g08.bks.cpg/sg2_264_cif.got.tgz:527563.got - 2010.06.03 11:33:40.
