data_PCOD9094321
_publ_section_title
;
Structure prediction by ZEFSAII (Michael W. Deem and Ramdas Pophale) SiO2 
 PCOD9094321
Probable space group: P -1
;
_chemical_formula_sum "Si O2"
_cell_formula_units_Z 16
_cell_length_a 11.609343
_cell_length_b 13.296430
_cell_length_c 11.826875
_cell_angle_alpha 123.914256
_cell_angle_beta 45.769517
_cell_angle_gamma 86.526252
_cell_volume 710.082785
_symmetry_space_group_name_H-M "P -1"
_symmetry_group_IT_number 2
_symmetry_cell_setting 'triclinic'
loop_
_space_group_symop_operation_xyz
x,y,z
-x,-y,-z
loop_
_atom_site_type_symbol
_atom_site_label
_atom_site_fract_x
_atom_site_fract_y
_atom_site_fract_z
Si Si1 0.657133 0.231979 0.964482
Si Si2 0.911823 0.940854 0.169150
Si Si3 0.378698 0.106420 0.270151
Si Si4 0.847908 0.161374 0.538717
Si Si5 0.930412 0.384742 0.605109
Si Si6 0.382301 0.833881 0.697804
Si Si7 0.675005 0.735357 0.898680
Si Si8 0.306542 0.568156 0.770818
O O1 0.724150 0.210707 0.774608
O O2 0.398389 0.311521 0.185409
O O3 0.658571 0.358299 0.104639
O O4 0.863199 0.030110 0.753841
O O5 0.149406 0.885824 0.931474
O O6 0.035957 0.751139 0.020698
O O7 0.783176 0.100861 0.449887
O O8 0.731137 0.026170 0.241038
O O9 0.096585 0.284435 0.540963
O O10 0.508814 0.144828 0.264561
O O11 0.500000 0.000000 0.000000
O O12 0.442302 0.955375 0.211412
O O13 0.810470 0.322011 0.631397
O O14 0.103780 0.309707 0.329363
O O15 0.757812 0.600315 0.856592
O O16 0.602505 0.617291 0.376784
O O17 0.500000 0.500000 0.500000
#
# Coordination Sequence:
#
# PCOD9094321 Si02
#       8
#     2   2   2   2   2   2   2   2
#     4  10  21  37  62  93 122 152 202 242 300 353
#     4   9  19  35  53  85 116 151 191 245 291 343
#     4  10  20  35  55  80 117 151 191 245 292 339
#     4  10  20  38  62  90 123 158 192 249 299 353
#     4  10  21  34  56  87 117 154 192 242 299 340
#     4  10  20  34  56  84 114 153 197 238 295 349
#     4  10  21  35  55  90 115 152 199 248 285 351
#     4   9  20  34  54  85 116 153 184 246 291 343
#
# _framework density 22.532585000000001
#
# number of rings (size 3 to 8) (size 9 to 14) (size 15 to 20)
#    0.000    2.250    1.250    1.500   10.500    1.500 
#    6.750    0.000    0.000    1.500    0.000    0.000 
#    0.000    0.000    0.000    0.000    0.000    0.000 
#
# Total GULP energy -89304.921823 kJ/mol
# GULP energy per Si atom -5581.557614 kJ/mol
# Density = 2.248130 g / cm^3
# Si number density = 22.532585 Si / 1000 Ang^3
#
#
#
# Elastic Constant Matrix: (Units=GPa)
#
#
# Indices 1 2 3 4 5 6 
#
# 1 83.2628 13.7792 32.5458 16.8402 3.8051 -15.9689
# 2 13.7792 83.5339 42.6131 37.6857 -1.5364 -6.7994
# 3 32.5458 42.6131 68.1276 24.7187 6.2641 -9.9394
# 4 16.8402 37.6857 24.7187 44.5283 -8.5299 -2.1963
# 5 3.8051 -1.5364 6.2641 -8.5299 24.7599 6.2968
# 6 -15.9689 -6.7994 -9.9394 -2.1963 6.2968 28.3720
#
#
#
# Elastic Compliance Matrix: (Units=1/GPa)
#
#
# Indices 1 2 3 4 5 6 
#
# 1 0.017324 0.004399 -0.006541 -0.007257 -0.005571 0.009188
# 2 0.004399 0.024507 -0.010253 -0.017186 -0.003554 0.004216
# 3 -0.006541 -0.010253 0.028240 -0.006231 -0.010338 0.005566
# 4 -0.007257 -0.017186 -0.006231 0.046585 0.020559 -0.011343
# 5 -0.005571 -0.003554 -0.010338 0.020559 0.055377 -0.018308
# 6 0.009188 0.004216 0.005566 -0.011343 -0.018308 0.046563
#
#
# Mechanical properties :
#
#
# Convention : Reuss Voigt Hill
#
# Bulk Modulus (GPa) = 22.08509 45.86671 33.97590
# Shear Modulus (GPa) = 19.34390 29.26444 24.30417
#
# Velocity S-wave (km/s) = 2.93317 3.60774 3.28780
# Velocity P-wave (km/s) = 4.61454 6.14445 5.43361
#
# Compressibility (1/GPa) = 0.04527941
#
# Stress axis : x y z
#
# Youngs Moduli (GPa) = 57.72468 40.80473 35.41109
#
# Poissons Ratio (x) = -0.17949 0.23164
# Poissons Ratio (y) = -0.25392 0.36307
# Poissons Ratio (z) = 0.37760 0.41837
#
# Static dielectric constant tensor:
#      x y z
#    x 1.851020 0.004290 -0.059070 
#    y 0.004290 1.913970 0.032750 
#    z -0.059070 0.032750 1.882680 
# 
# From -- ./inp_files/431740.got.cif
#   From: 2010.05.17/outbox.cif.g08.bks.cpg/sg2_216_cif.got.tgz:431740.got - 2010.06.03 11:33:40.
