data_PCOD9094811
_publ_section_title
;
Structure prediction by ZEFSAII (Michael W. Deem and Ramdas Pophale) SiO2 
 PCOD9094811
Probable space group: P -1
;
_chemical_formula_sum "Si O2"
_cell_formula_units_Z 16
_cell_length_a 8.363526
_cell_length_b 6.508488
_cell_length_c 18.299437
_cell_angle_alpha 132.146851
_cell_angle_beta 80.907853
_cell_angle_gamma 102.799652
_cell_volume 720.130503
_symmetry_space_group_name_H-M "P -1"
_symmetry_group_IT_number 2
_symmetry_cell_setting 'triclinic'
loop_
_space_group_symop_operation_xyz
x,y,z
-x,-y,-z
loop_
_atom_site_type_symbol
_atom_site_label
_atom_site_fract_x
_atom_site_fract_y
_atom_site_fract_z
Si Si1 0.900469 0.090002 0.689805
Si Si2 0.268813 0.386646 0.149316
Si Si3 0.191362 0.327458 0.633949
Si Si4 0.402152 0.881322 0.051998
Si Si5 0.611776 0.796636 0.549918
Si Si6 0.887537 0.074918 0.240214
Si Si7 0.412012 0.252040 0.724141
Si Si8 0.722734 0.737835 0.051537
O O1 0.853672 0.402771 0.768921
O O2 0.048850 0.099064 0.623698
O O3 0.965382 0.012635 0.744877
O O4 0.744638 0.875946 0.623385
O O5 0.448606 0.562605 0.194809
O O6 0.277796 0.101526 0.125185
O O7 0.243195 0.316746 0.048996
O O8 0.288739 0.212015 0.533965
O O9 0.315957 0.420235 0.714311
O O10 0.115665 0.596043 0.677671
O O11 0.548752 0.857162 0.092647
O O12 0.305815 0.565689 0.979557
O O13 0.500000 0.000000 0.000000
O O14 0.500000 0.500000 0.500000
O O15 0.499419 0.037867 0.619118
O O16 0.722192 0.923710 0.256404
O O17 0.863656 0.950750 0.131015
#
# Coordination Sequence:
#
# PCOD9094811 Si02
#       8
#     2   2   2   2   2   2   2   2
#     4  10  26  43  61  93 136 161 208 260 312 385
#     4  10  21  39  60  92 128 170 214 260 299 367
#     4  11  23  43  66  93 126 173 199 258 330 373
#     4   9  17  32  56  91 120 162 213 264 303 349
#     4  11  22  46  70  96 120 161 210 266 318 377
#     4  11  22  40  60  93 130 171 208 253 316 372
#     4  10  21  39  64  96 126 156 219 264 301 377
#     4  10  20  34  61  89 128 170 212 257 308 360
#
# _framework density 22.218192999999999
#
# number of rings (size 3 to 8) (size 9 to 14) (size 15 to 20)
#    0.000    1.750    1.250    3.750    0.000    5.000 
#    6.750    1.250    0.000    0.000    0.000    0.000 
#    0.000    0.000    0.000    0.000    0.000    0.000 
#
# Total GULP energy -89442.822765 kJ/mol
# GULP energy per Si atom -5590.176423 kJ/mol
# Density = 2.216762 g / cm^3
# Si number density = 22.218193 Si / 1000 Ang^3
#
#
#
# Elastic Constant Matrix: (Units=GPa)
#
#
# Indices 1 2 3 4 5 6 
#
# 1 89.1038 30.7499 37.8785 -5.9708 4.3465 -10.1960
# 2 30.7499 78.2704 31.6592 10.4841 -9.5705 -19.0088
# 3 37.8785 31.6592 100.1558 0.8645 -0.8266 -3.7966
# 4 -5.9708 10.4841 0.8645 27.1538 1.0712 -1.4774
# 5 4.3465 -9.5705 -0.8266 1.0712 28.7856 -6.9071
# 6 -10.1960 -19.0088 -3.7966 -1.4774 -6.9071 28.6956
#
#
#
# Elastic Compliance Matrix: (Units=1/GPa)
#
#
# Indices 1 2 3 4 5 6 
#
# 1 0.015636 -0.005683 -0.004188 0.005968 -0.004481 0.000466
# 2 -0.005683 0.023419 -0.004480 -0.009806 0.012582 0.015425
# 3 -0.004188 -0.004480 0.012857 0.000283 -0.001227 -0.003036
# 4 0.005968 -0.009806 0.000283 0.041973 -0.006620 -0.003771
# 5 -0.004481 0.012582 -0.001227 -0.006620 0.043840 0.016792
# 6 0.000466 0.015425 -0.003036 -0.003771 0.016792 0.048678
#
#
# Mechanical properties :
#
#
# Convention : Reuss Voigt Hill
#
# Bulk Modulus (GPa) = 43.08563 52.01169 47.54866
# Shear Modulus (GPa) = 22.43734 28.07648 25.25691
#
# Velocity S-wave (km/s) = 3.18128 3.55867 3.37526
# Velocity P-wave (km/s) = 5.73831 6.35184 6.05285
#
# Compressibility (1/GPa) = 0.02320959
#
# Stress axis : x y z
#
# Youngs Moduli (GPa) = 63.95383 42.69962 77.77942
#
# Poissons Ratio (x) = 0.24267 0.32574
# Poissons Ratio (y) = 0.36347 0.34847
# Poissons Ratio (z) = 0.26784 0.19131
#
# Static dielectric constant tensor:
#      x y z
#    x 1.842380 -0.000130 -0.024370 
#    y -0.000130 1.805460 -0.020980 
#    z -0.024370 -0.020980 1.823500 
# 
# From -- ./inp_files/525959.got.cif
#   From: 2010.05.17/outbox.cif.g08.bks.cpg/sg2_263_cif.got.tgz:525959.got - 2010.06.03 11:33:40.
