data_PCOD9094813
_publ_section_title
;
Structure prediction by ZEFSAII (Michael W. Deem and Ramdas Pophale) SiO2 
 PCOD9094813
Probable space group: P -1
;
_chemical_formula_sum "Si O2"
_cell_formula_units_Z 14
_cell_length_a 10.620278
_cell_length_b 9.839443
_cell_length_c 9.320880
_cell_angle_alpha 47.723798
_cell_angle_beta 106.279152
_cell_angle_gamma 127.009207
_cell_volume 562.546194
_symmetry_space_group_name_H-M "P -1"
_symmetry_group_IT_number 2
_symmetry_cell_setting 'triclinic'
loop_
_space_group_symop_operation_xyz
x,y,z
-x,-y,-z
loop_
_atom_site_type_symbol
_atom_site_label
_atom_site_fract_x
_atom_site_fract_y
_atom_site_fract_z
Si Si1 0.233222 0.409917 0.965212
Si Si2 0.693151 0.297382 0.965538
Si Si3 0.310407 0.833207 0.514025
Si Si4 0.967847 0.257149 0.644777
Si Si5 0.462249 0.792982 0.327020
Si Si6 0.310936 0.346777 0.731901
Si Si7 0.120782 0.862785 0.973975
O O1 0.308150 0.526880 0.057837
O O2 0.233235 0.608258 0.743228
O O3 0.312557 0.355015 0.901662
O O4 0.050712 0.202533 0.088402
O O5 0.854267 0.322335 0.946689
O O6 0.605240 0.057846 0.189458
O O7 0.603423 0.270501 0.809349
O O8 0.173679 0.879466 0.423607
O O9 0.331514 0.791131 0.385759
O O10 0.500000 0.000000 0.500000
O O11 0.000000 0.500000 0.500000
O O12 0.142266 0.303265 0.654433
O O13 0.903810 0.143459 0.859497
O O14 0.457082 0.589426 0.546419
O O15 0.279245 0.118485 0.821296
#
# Coordination Sequence:
#
# PCOD9094813 Si02
#       7
#     2   2   2   2   2   2   2
#     4  10  20  34  61  90 110 149 203 249 278 342
#     4  11  21  36  62  85 122 152 200 245 293 347
#     4  11  19  34  60  90 112 143 204 252 280 331
#     4  11  17  34  63  88 107 151 205 243 280 339
#     4  10  21  37  59  87 116 161 198 241 293 351
#     4  10  22  38  62  85 123 154 198 239 299 358
#     4  11  21  37  59  91 123 157 186 244 309 354
#
# _framework density 24.886845999999998
#
# number of rings (size 3 to 8) (size 9 to 14) (size 15 to 20)
#    0.000    1.429    7.143    2.143    0.000    0.571 
#    0.000    0.714    3.143   18.000    0.000    0.000 
#    0.000    0.000    0.000    0.000    0.000    0.000 
#
# Total GULP energy -77990.932818 kJ/mol
# GULP energy per Si atom -5570.780916 kJ/mol
# Density = 2.483020 g / cm^3
# Si number density = 24.886846 Si / 1000 Ang^3
#
#
#
# Elastic Constant Matrix: (Units=GPa)
#
#
# Indices 1 2 3 4 5 6 
#
# 1 69.5380 18.2264 -0.4172 6.2659 3.9414 4.6863
# 2 18.2264 145.3343 19.8085 2.4292 -5.5448 2.3810
# 3 -0.4172 19.8085 43.9450 -12.1396 -19.0121 4.1984
# 4 6.2659 2.4292 -12.1396 37.2906 7.4686 -3.1980
# 5 3.9414 -5.5448 -19.0121 7.4686 29.6200 -6.0218
# 6 4.6863 2.3810 4.1984 -3.1980 -6.0218 34.6091
#
#
#
# Elastic Compliance Matrix: (Units=1/GPa)
#
#
# Indices 1 2 3 4 5 6 
#
# 1 0.015406 -0.001875 -0.000578 -0.002333 -0.002707 -0.002574
# 2 -0.001875 0.007679 -0.004132 -0.001409 -0.000612 -0.000010
# 3 -0.000578 -0.004132 0.035485 0.007909 0.020146 0.000294
# 4 -0.002333 -0.001409 0.007909 0.030473 -0.002176 0.001891
# 5 -0.002707 -0.000612 0.020146 -0.002176 0.048756 0.006247
# 6 -0.002574 -0.000010 0.000294 0.001891 0.006247 0.030469
#
#
# Mechanical properties :
#
#
# Convention : Reuss Voigt Hill
#
# Bulk Modulus (GPa) = 22.02713 37.11699 29.57206
# Shear Modulus (GPa) = 25.43571 35.05059 30.24315
#
# Velocity S-wave (km/s) = 3.20043 3.75693 3.48979
# Velocity P-wave (km/s) = 4.74627 5.81086 5.30534
#
# Compressibility (1/GPa) = 0.04539856
#
# Stress axis : x y z
#
# Youngs Moduli (GPa) = 64.91056 130.21757 28.18063
#
# Poissons Ratio (x) = 0.24420 0.01630
# Poissons Ratio (y) = 0.12173 0.11645
# Poissons Ratio (z) = 0.03754 0.53811
#
# Static dielectric constant tensor:
#      x y z
#    x 2.074930 0.034050 0.018690 
#    y 0.034050 2.086490 -0.031300 
#    z 0.018690 -0.031300 2.007140 
# 
# From -- ./inp_files/242191.got.cif
#   From: 2010.05.17/outbox.cif.g08.bks.cpg/sg2_122_cif.got.tgz:242191.got - 2010.06.03 11:33:40.
