data_PCOD9094752
_publ_section_title
;
Structure prediction by ZEFSAII (Michael W. Deem and Ramdas Pophale) SiO2 
 PCOD9094752
Probable space group: P -1
;
_chemical_formula_sum "Si O2"
_cell_formula_units_Z 16
_cell_length_a 8.755162
_cell_length_b 8.736741
_cell_length_c 14.793448
_cell_angle_alpha 131.386312
_cell_angle_beta 50.671112
_cell_angle_gamma 130.737296
_cell_volume 601.165894
_symmetry_space_group_name_H-M "P -1"
_symmetry_group_IT_number 2
_symmetry_cell_setting 'triclinic'
loop_
_space_group_symop_operation_xyz
x,y,z
-x,-y,-z
loop_
_atom_site_type_symbol
_atom_site_label
_atom_site_fract_x
_atom_site_fract_y
_atom_site_fract_z
Si Si1 0.251594 0.389639 0.424702
Si Si2 0.125597 0.740400 0.711155
Si Si3 0.109591 0.785147 0.052376
Si Si4 0.253933 0.085094 0.454744
Si Si5 0.544988 0.781806 0.851751
Si Si6 0.485241 0.054872 0.814724
Si Si7 0.160722 0.260417 0.036438
Si Si8 0.138252 0.052631 0.674751
O O1 0.175733 0.574422 0.561770
O O2 0.339914 0.299952 0.442182
O O3 0.406955 0.412659 0.289880
O O4 0.041815 0.179748 0.385804
O O5 0.293302 0.827378 0.763809
O O6 0.190066 0.968798 0.717911
O O7 0.898379 0.641361 0.811444
O O8 0.940757 0.680531 0.993048
O O9 0.260629 0.056759 0.093676
O O10 0.301965 0.700681 0.946245
O O11 0.973311 0.781054 0.191560
O O12 0.335718 0.906476 0.313889
O O13 0.301383 0.132336 0.561128
O O14 0.000000 0.000000 0.500000
O O15 0.563354 0.967466 0.840039
O O16 0.393762 0.245684 0.934203
O O17 0.000000 0.000000 0.000000
#
# Coordination Sequence:
#
# PCOD9094752 Si02
#       8
#     2   2   2   2   2   2   2   2
#     4   9  20  33  51  79 108 139 166 212 273 311
#     4  11  19  31  54  82 111 129 166 224 270 306
#     4  10  16  30  49  74 101 133 178 217 248 298
#     4   9  20  36  52  73 105 142 177 210 251 317
#     4   9  17  28  49  74 102 135 173 212 256 307
#     4  10  18  33  53  80 102 136 178 216 258 304
#     4  10  17  31  49  79 104 132 170 222 261 298
#     4  10  18  33  54  74 103 139 177 213 251 309
#
# _framework density 26.614951999999999
#
# number of rings (size 3 to 8) (size 9 to 14) (size 15 to 20)
#    0.000    2.250    5.000    1.125    0.000    2.500 
#    0.000    0.000    0.000    5.250    0.000    0.000 
#    0.000    0.000    0.000    0.000    0.000    0.000 
#
# Total GULP energy -89212.331653 kJ/mol
# GULP energy per Si atom -5575.770728 kJ/mol
# Density = 2.655437 g / cm^3
# Si number density = 26.614952 Si / 1000 Ang^3
#
#
#
# Elastic Constant Matrix: (Units=GPa)
#
#
# Indices 1 2 3 4 5 6 
#
# 1 110.2293 12.1940 43.1343 -6.2328 -2.2638 -3.8549
# 2 12.1940 43.1994 30.5085 16.8721 -1.2093 -2.2029
# 3 43.1343 30.5085 249.5273 -6.0545 -31.1092 -8.5439
# 4 -6.2328 16.8721 -6.0545 37.9157 -2.1475 11.8379
# 5 -2.2638 -1.2093 -31.1092 -2.1475 47.5648 -8.3094
# 6 -3.8549 -2.2029 -8.5439 11.8379 -8.3094 9.2739
#
#
#
# Elastic Compliance Matrix: (Units=1/GPa)
#
#
# Indices 1 2 3 4 5 6 
#
# 1 0.010161 -0.004042 -0.001504 0.004897 -0.001359 -0.005591
# 2 -0.004042 0.047313 -0.002382 -0.044358 0.010229 0.073151
# 3 -0.001504 -0.002382 0.005516 -0.001118 0.005162 0.009943
# 4 0.004897 -0.044358 -0.001118 0.091241 -0.023140 -0.146732
# 5 -0.001359 0.010229 0.005162 -0.023140 0.035410 0.067885
# 6 -0.005591 0.073151 0.009943 -0.146732 0.067885 0.380165
#
#
# Mechanical properties :
#
#
# Convention : Reuss Voigt Hill
#
# Bulk Modulus (GPa) = 21.21645 63.84773 42.53209
# Shear Modulus (GPa) = 8.31429 40.09217 24.20323
#
# Velocity S-wave (km/s) = 1.76938 3.88542 3.01887
# Velocity P-wave (km/s) = 3.48758 6.64606 5.30723
#
# Compressibility (1/GPa) = 0.04713324
#
# Stress axis : x y z
#
# Youngs Moduli (GPa) = 98.41298 21.13582 181.29885
#
# Poissons Ratio (x) = 0.08542 0.27274
# Poissons Ratio (y) = 0.39775 0.43193
# Poissons Ratio (z) = 0.14805 0.05035
#
# Static dielectric constant tensor:
#      x y z
#    x 2.230600 -0.026580 -0.008060 
#    y -0.026580 2.147290 -0.102070 
#    z -0.008060 -0.102070 2.278850 
# 
# From -- ./inp_files/499377.got.cif
#   From: 2010.05.17/outbox.cif.g08.bks.cpg/sg2_250_cif.got.tgz:499377.got - 2010.06.03 11:33:40.
