data_PCOD9094169
_publ_section_title
;
Structure prediction by ZEFSAII (Michael W. Deem and Ramdas Pophale) SiO2 
 PCOD9094169
Probable space group: P -1
;
_chemical_formula_sum "Si O2"
_cell_formula_units_Z 16
_cell_length_a 10.847407
_cell_length_b 13.407189
_cell_length_c 13.287572
_cell_angle_alpha 32.480661
_cell_angle_beta 36.104643
_cell_angle_gamma 48.072694
_cell_volume 610.964423
_symmetry_space_group_name_H-M "P -1"
_symmetry_group_IT_number 2
_symmetry_cell_setting 'triclinic'
loop_
_space_group_symop_operation_xyz
x,y,z
-x,-y,-z
loop_
_atom_site_type_symbol
_atom_site_label
_atom_site_fract_x
_atom_site_fract_y
_atom_site_fract_z
Si Si1 0.366723 0.747826 0.606188
Si Si2 0.772833 0.609073 0.344112
Si Si3 0.060519 0.011441 0.128508
Si Si4 0.494212 0.134172 0.106487
Si Si5 0.835310 0.988919 0.710584
Si Si6 0.068628 0.382770 0.459291
Si Si7 0.864631 0.384154 0.308054
Si Si8 0.318235 0.468785 0.034975
O O1 0.565256 0.662813 0.491122
O O2 0.169540 0.653160 0.755825
O O3 0.391302 0.967811 0.385575
O O4 0.362226 0.672121 0.786495
O O5 0.869582 0.427614 0.482252
O O6 0.756026 0.559061 0.280004
O O7 0.940893 0.784487 0.092999
O O8 0.067227 0.040171 0.220136
O O9 0.907147 0.836520 0.351163
O O10 0.281630 0.934419 0.012818
O O11 0.353880 0.143658 0.090221
O O12 0.485280 0.325995 0.007440
O O13 0.750865 0.196618 0.587303
O O14 0.000000 0.000000 0.500000
O O15 0.000000 0.500000 0.500000
O O16 0.262997 0.451916 0.202855
O O17 0.102149 0.393827 0.184246
#
# Coordination Sequence:
#
# PCOD9094169 Si02
#       8
#     2   2   2   2   2   2   2   2
#     4  10  22  35  57  90 128 158 195 239 292 369
#     4  10  22  40  60  88 119 158 200 248 305 358
#     4  11  22  40  61  86 124 159 201 252 297 363
#     4  10  22  36  58  90 128 166 192 233 300 361
#     4  11  19  34  55  89 130 165 200 234 284 357
#     4  11  25  46  65  85 113 155 211 263 308 353
#     4  10  20  34  54  88 128 168 195 232 289 355
#     4  11  21  37  60  87 120 160 203 249 293 351
#
# _framework density 26.188103999999999
#
# number of rings (size 3 to 8) (size 9 to 14) (size 15 to 20)
#    0.000    1.500    3.750    1.875    1.750    6.500 
#    0.000    2.500    0.000    3.000    0.000    0.000 
#    0.000    0.000    0.000    0.000    0.000    0.000 
#
# Total GULP energy -89475.930607 kJ/mol
# GULP energy per Si atom -5592.245663 kJ/mol
# Density = 2.612850 g / cm^3
# Si number density = 26.188104 Si / 1000 Ang^3
#
#
#
# Elastic Constant Matrix: (Units=GPa)
#
#
# Indices 1 2 3 4 5 6 
#
# 1 37.5422 11.9278 14.4617 0.5065 2.8607 23.7866
# 2 11.9278 93.3508 31.4903 15.3354 4.1090 17.5481
# 3 14.4617 31.4903 113.0055 -7.3212 13.7732 19.2757
# 4 0.5065 15.3354 -7.3212 50.1811 -0.5091 -1.9702
# 5 2.8607 4.1090 13.7732 -0.5091 24.9539 7.9389
# 6 23.7866 17.5481 19.2757 -1.9702 7.9389 41.7222
#
#
#
# Elastic Compliance Matrix: (Units=1/GPa)
#
#
# Indices 1 2 3 4 5 6 
#
# 1 0.042349 -0.000193 -0.001832 -0.001540 0.003796 -0.024011
# 2 -0.000193 0.013450 -0.003404 -0.004767 0.000984 -0.004386
# 3 -0.001832 -0.003404 0.011052 0.002560 -0.004768 -0.001602
# 4 -0.001540 -0.004767 0.002560 0.021878 -0.000931 0.002911
# 5 0.003796 0.000984 -0.004768 -0.000931 0.044943 -0.008971
# 6 -0.024011 -0.004386 -0.001602 0.002911 -0.008971 0.042087
#
#
# Mechanical properties :
#
#
# Convention : Reuss Voigt Hill
#
# Bulk Modulus (GPa) = 17.85987 39.96202 28.91095
# Shear Modulus (GPa) = 24.35673 35.77270 30.06472
#
# Velocity S-wave (km/s) = 3.05301 3.69994 3.39193
# Velocity P-wave (km/s) = 4.38890 5.79185 5.13848
#
# Compressibility (1/GPa) = 0.05599144
#
# Stress axis : x y z
#
# Youngs Moduli (GPa) = 23.61341 74.35199 90.47889
#
# Poissons Ratio (x) = 0.01439 0.16579
# Poissons Ratio (y) = 0.00457 0.30797
# Poissons Ratio (z) = 0.04327 0.25307
#
# Static dielectric constant tensor:
#      x y z
#    x 2.152030 -0.006630 0.014090 
#    y -0.006630 2.036800 0.017110 
#    z 0.014090 0.017110 2.136660 
# 
# From -- ./inp_files/344951.got.cif
#   From: 2010.05.17/outbox.cif.g08.bks.cpg/sg2_173_cif.got.tgz:344951.got - 2010.06.03 11:33:40.
