data_PCOD9094426
_publ_section_title
;
Structure prediction by ZEFSAII (Michael W. Deem and Ramdas Pophale) SiO2 
 PCOD9094426
Probable space group: P -1
;
_chemical_formula_sum "Si O2"
_cell_formula_units_Z 16
_cell_length_a 14.345461
_cell_length_b 19.742261
_cell_length_c 11.861661
_cell_angle_alpha 150.475218
_cell_angle_beta 137.214026
_cell_angle_gamma 31.172602
_cell_volume 856.171964
_symmetry_space_group_name_H-M "P -1"
_symmetry_group_IT_number 2
_symmetry_cell_setting 'triclinic'
loop_
_space_group_symop_operation_xyz
x,y,z
-x,-y,-z
loop_
_atom_site_type_symbol
_atom_site_label
_atom_site_fract_x
_atom_site_fract_y
_atom_site_fract_z
Si Si1 0.477709 0.883280 0.395306
Si Si2 0.525774 0.002892 0.193473
Si Si3 0.837180 0.505037 0.097960
Si Si4 0.155958 0.010734 0.152666
Si Si5 0.963608 0.378508 0.629786
Si Si6 0.224045 0.278192 0.162376
Si Si7 0.399713 0.787227 0.833193
Si Si8 0.255711 0.607357 0.345900
O O1 0.442143 0.962483 0.603220
O O2 0.660914 0.676718 0.250743
O O3 0.310284 0.903397 0.229919
O O4 0.500000 0.000000 0.500000
O O5 0.364164 0.188555 0.258003
O O6 0.699703 0.881441 0.091497
O O7 0.461846 0.886079 0.972995
O O8 0.899291 0.583191 0.174878
O O9 0.015778 0.378406 0.149698
O O10 0.800901 0.393979 0.832228
O O11 0.261034 0.926261 0.007238
O O12 0.060342 0.217233 0.392790
O O13 0.000000 0.000000 0.000000
O O14 0.795548 0.562383 0.686782
O O15 0.897123 0.339559 0.622809
O O16 0.308892 0.730098 0.592412
O O17 0.569560 0.600648 0.772098
#
# Coordination Sequence:
#
# PCOD9094426 Si02
#       8
#     2   2   2   2   2   2   2   2
#     4  12  21  35  61  86 115 150 189 247 287 340
#     4  11  21  40  59  86 117 149 204 232 286 343
#     4  10  20  35  55  87 113 148 198 230 291 335
#     4  12  23  36  54  92 122 146 186 238 309 342
#     4  10  20  34  57  84 115 150 185 243 282 341
#     4   9  23  37  59  86 112 158 192 244 275 337
#     4  11  21  34  56  86 118 153 183 244 294 342
#     4  11  20  33  57  87 117 149 187 240 298 340
#
# _framework density 18.687835
#
# number of rings (size 3 to 8) (size 9 to 14) (size 15 to 20)
#    0.750    0.500    6.250    0.375    1.750    0.500 
#    0.000    0.625    0.000    0.750    0.000    0.000 
#    0.000    0.000    0.000    0.000    0.000    0.000 
#
# Total GULP energy -89193.814545 kJ/mol
# GULP energy per Si atom -5574.613409 kJ/mol
# Density = 1.864530 g / cm^3
# Si number density = 18.687835 Si / 1000 Ang^3
#
#
#
# Elastic Constant Matrix: (Units=GPa)
#
#
# Indices 1 2 3 4 5 6 
#
# 1 30.0023 13.0143 11.7053 -1.7230 -6.4802 -15.3689
# 2 13.0143 93.5516 23.3108 8.6850 -9.6519 -18.1955
# 3 11.7053 23.3108 85.8649 -1.3177 -8.1655 -11.3799
# 4 -1.7230 8.6850 -1.3177 27.1765 -9.6905 -2.4703
# 5 -6.4802 -9.6519 -8.1655 -9.6905 27.0087 -0.2782
# 6 -15.3689 -18.1955 -11.3799 -2.4703 -0.2782 27.4105
#
#
#
# Elastic Compliance Matrix: (Units=1/GPa)
#
#
# Indices 1 2 3 4 5 6 
#
# 1 0.054339 -0.000622 -0.001325 0.012522 0.017225 0.030807
# 2 -0.000622 0.013341 -0.002317 -0.002666 0.003037 0.007335
# 3 -0.001325 -0.002317 0.013361 0.003067 0.004031 0.003583
# 4 0.012522 -0.002666 0.003067 0.046656 0.019832 0.010931
# 5 0.017225 0.003037 0.004031 0.019832 0.050738 0.015649
# 6 0.030807 0.007335 0.003583 0.010931 0.015649 0.061257
#
#
# Mechanical properties :
#
#
# Convention : Reuss Voigt Hill
#
# Bulk Modulus (GPa) = 13.79098 33.94217 23.86658
# Shear Modulus (GPa) = 18.35592 27.07836 22.71714
#
# Velocity S-wave (km/s) = 3.13747 3.81068 3.49034
# Velocity P-wave (km/s) = 4.52997 6.12894 5.38909
#
# Compressibility (1/GPa) = 0.07251114
#
# Stress axis : x y z
#
# Youngs Moduli (GPa) = 18.40308 74.95878 74.84375
#
# Poissons Ratio (x) = 0.04666 0.09920
# Poissons Ratio (y) = 0.01146 0.17340
# Poissons Ratio (z) = 0.02439 0.17367
#
# Static dielectric constant tensor:
#      x y z
#    x 1.668660 -0.027170 0.006790 
#    y -0.027170 1.671470 -0.001550 
#    z 0.006790 -0.001550 1.648500 
# 
# From -- ./inp_files/435934.got.cif
#   From: 2010.05.17/outbox.cif.g08.bks.cpg/sg2_218_cif.got.tgz:435934.got - 2010.06.03 11:33:40.
