data_PCOD9094143
_publ_section_title
;
Structure prediction by ZEFSAII (Michael W. Deem and Ramdas Pophale) SiO2 
 PCOD9094143
Probable space group: P -1
;
_chemical_formula_sum "Si O2"
_cell_formula_units_Z 16
_cell_length_a 9.873932
_cell_length_b 11.813093
_cell_length_c 7.528294
_cell_angle_alpha 95.117263
_cell_angle_beta 54.567290
_cell_angle_gamma 116.603702
_cell_volume 621.981544
_symmetry_space_group_name_H-M "P -1"
_symmetry_group_IT_number 2
_symmetry_cell_setting 'triclinic'
loop_
_space_group_symop_operation_xyz
x,y,z
-x,-y,-z
loop_
_atom_site_type_symbol
_atom_site_label
_atom_site_fract_x
_atom_site_fract_y
_atom_site_fract_z
Si Si1 0.172837 0.046297 0.141619
Si Si2 0.427127 0.901654 0.252793
Si Si3 0.227871 0.457630 0.877819
Si Si4 0.302208 0.654144 0.130815
Si Si5 0.362435 0.082477 0.559473
Si Si6 0.650232 0.494617 0.600439
Si Si7 0.990248 0.841440 0.986765
Si Si8 0.706058 0.764111 0.637877
O O1 0.167415 0.139732 0.000566
O O2 0.147830 0.112049 0.344010
O O3 0.370877 0.046276 0.989252
O O4 0.023914 0.903454 0.166271
O O5 0.280693 0.776609 0.233597
O O6 0.398424 0.021553 0.345142
O O7 0.473215 0.865333 0.410329
O O8 0.425501 0.455156 0.777167
O O9 0.281859 0.517499 0.648497
O O10 0.184015 0.548170 0.055108
O O11 0.063572 0.307380 0.990238
O O12 0.298566 0.577651 0.299494
O O13 0.513537 0.712826 0.894460
O O14 0.183095 0.950163 0.756713
O O15 0.343102 0.201498 0.512138
O O16 0.755145 0.649211 0.578651
#
# Coordination Sequence:
#
# PCOD9094143 Si02
#       8
#     2   2   2   2   2   2   2   2
#     4   9  19  33  56  83 116 157 187 249 290 344
#     4   9  20  39  61  84 117 156 204 239 291 352
#     4  10  20  34  54  83 114 156 192 237 297 343
#     4  10  20  36  58  85 114 152 203 252 276 344
#     4  10  22  37  60  90 119 160 189 244 302 358
#     4  10  21  33  58  87 115 155 197 250 288 340
#     4  10  20  36  55  84 128 151 192 245 302 348
#     4  10  20  35  58  90 121 149 203 242 296 354
#
# _framework density 25.724236000000001
#
# number of rings (size 3 to 8) (size 9 to 14) (size 15 to 20)
#    0.000    2.250    0.000    3.750   10.500    2.500 
#    2.250    0.625    0.000    0.750    0.000    0.000 
#    0.000    0.000    0.000    0.000    0.000    0.000 
#
# Total GULP energy -89381.753136 kJ/mol
# GULP energy per Si atom -5586.359571 kJ/mol
# Density = 2.566569 g / cm^3
# Si number density = 25.724236 Si / 1000 Ang^3
#
#
#
# Elastic Constant Matrix: (Units=GPa)
#
#
# Indices 1 2 3 4 5 6 
#
# 1 29.1565 12.4761 20.3004 -4.3828 17.6300 6.2593
# 2 12.4761 170.1824 30.7680 3.1769 15.1279 31.0359
# 3 20.3004 30.7680 64.5725 2.1654 24.1017 8.9046
# 4 -4.3828 3.1769 2.1654 44.1223 2.9772 13.7974
# 5 17.6300 15.1279 24.1017 2.9772 33.8334 7.4066
# 6 6.2593 31.0359 8.9046 13.7974 7.4066 33.5740
#
#
#
# Elastic Compliance Matrix: (Units=1/GPa)
#
#
# Indices 1 2 3 4 5 6 
#
# 1 0.057426 0.000762 -0.009087 0.010184 -0.022907 -0.008132
# 2 0.000762 0.007632 -0.002797 0.001929 -0.000420 -0.007156
# 3 -0.009087 -0.002797 0.023683 -0.001439 -0.010980 0.001012
# 4 0.010184 0.001929 -0.001439 0.028265 -0.004588 -0.013904
# 5 -0.022907 -0.000420 -0.010980 -0.004588 0.050264 -0.001632
# 6 -0.008132 -0.007156 0.001012 -0.013904 -0.001632 0.043721
#
#
# Mechanical properties :
#
#
# Convention : Reuss Voigt Hill
#
# Bulk Modulus (GPa) = 15.03808 43.44448 29.24128
# Shear Modulus (GPa) = 19.57699 35.66374 27.62037
#
# Velocity S-wave (km/s) = 2.76168 3.72746 3.28031
# Velocity P-wave (km/s) = 4.00346 5.95403 5.07337
#
# Compressibility (1/GPa) = 0.06649785
#
# Stress axis : x y z
#
# Youngs Moduli (GPa) = 17.41359 131.02357 42.22418
#
# Poissons Ratio (x) = -0.09987 0.38368
# Poissons Ratio (y) = -0.01327 0.11811
# Poissons Ratio (z) = 0.15823 0.36651
#
# Static dielectric constant tensor:
#      x y z
#    x 2.089770 0.055290 -0.059040 
#    y 0.055290 2.058230 0.032440 
#    z -0.059040 0.032440 2.162330 
# 
# From -- ./inp_files/262659.got.cif
#   From: 2010.05.17/outbox.cif.g08.bks.cpg/sg2_132_cif.got.tgz:262659.got - 2010.06.03 11:33:40.
