data_PCOD9094034
_publ_section_title
;
Structure prediction by ZEFSAII (Michael W. Deem and Ramdas Pophale) SiO2 
 PCOD9094034
Probable space group: P -1
;
_chemical_formula_sum "Si O2"
_cell_formula_units_Z 15
_cell_length_a 13.473526
_cell_length_b 10.595488
_cell_length_c 6.274968
_cell_angle_alpha 99.063131
_cell_angle_beta 59.049472
_cell_angle_gamma 62.910111
_cell_volume 587.091852
_symmetry_space_group_name_H-M "P -1"
_symmetry_group_IT_number 2
_symmetry_cell_setting 'triclinic'
loop_
_space_group_symop_operation_xyz
x,y,z
-x,-y,-z
loop_
_atom_site_type_symbol
_atom_site_label
_atom_site_fract_x
_atom_site_fract_y
_atom_site_fract_z
Si Si1 0.500000 0.000000 0.500000
Si Si2 0.475220 0.267662 0.903681
Si Si3 0.232419 0.606578 0.117389
Si Si4 0.763422 0.013690 0.746715
Si Si5 0.026942 0.230012 0.231095
Si Si6 0.653724 0.822588 0.638563
Si Si7 0.966363 0.125877 0.888090
Si Si8 0.124171 0.408397 0.019642
O O1 0.516902 0.137863 0.633499
O O2 0.510818 0.045091 0.249011
O O3 0.619294 0.190078 0.872033
O O4 0.399651 0.449616 0.949716
O O5 0.356812 0.281038 0.203171
O O6 0.169169 0.515365 0.074811
O O7 0.123684 0.704074 0.464431
O O8 0.190623 0.742254 0.023979
O O9 0.831417 0.949093 0.889212
O O10 0.734747 0.889869 0.656936
O O11 0.905350 0.971045 0.453622
O O12 0.069999 0.347839 0.241384
O O13 0.998241 0.231183 0.016016
O O14 0.729518 0.754148 0.300783
O O15 0.000000 0.000000 0.000000
O O16 0.000000 0.500000 0.000000
#
# Coordination Sequence:
#
# PCOD9094034 Si02
#       8
#     1   2   2   2   2   2   2   2
#     4  10  20  34  52  80 136 174 198 222 288 370
#     4  11  23  36  59  94 133 169 203 244 310 382
#     4  11  23  39  61  96 124 165 208 253 315 373
#     4  10  22  38  60  92 122 164 209 244 307 378
#     4  11  22  40  64  87 127 162 205 260 312 371
#     4  11  21  33  54  89 133 165 197 234 297 375
#     4  11  25  46  67  87 115 162 220 269 314 362
#     4  12  19  34  57  92 130 160 196 247 304 368
#
# _framework density 25.549662999999999
#
# number of rings (size 3 to 8) (size 9 to 14) (size 15 to 20)
#    0.000    1.067    4.000    4.400    1.867    2.133 
#    0.000    0.667    0.000    1.600    0.000    0.000 
#    0.000    0.000    0.000    0.000    0.000    0.000 
#
# Total GULP energy -83530.897211 kJ/mol
# GULP energy per Si atom -5568.726481 kJ/mol
# Density = 2.549151 g / cm^3
# Si number density = 25.549663 Si / 1000 Ang^3
#
#
#
# Elastic Constant Matrix: (Units=GPa)
#
#
# Indices 1 2 3 4 5 6 
#
# 1 69.7782 24.4117 9.0305 5.4218 19.6021 -33.1533
# 2 24.4117 186.2961 10.6865 -9.6664 1.2489 -30.9800
# 3 9.0305 10.6865 57.0370 2.8173 1.2132 5.3029
# 4 5.4218 -9.6664 2.8173 35.1070 -4.1702 1.8544
# 5 19.6021 1.2489 1.2132 -4.1702 23.2652 4.8039
# 6 -33.1533 -30.9800 5.3029 1.8544 4.8039 52.6166
#
#
#
# Elastic Compliance Matrix: (Units=1/GPa)
#
#
# Indices 1 2 3 4 5 6 
#
# 1 0.047790 -0.000175 -0.009103 -0.014516 -0.049814 0.035986
# 2 -0.000175 0.006177 -0.001538 0.001588 -0.000579 0.003678
# 3 -0.009103 -0.001538 0.019910 0.000936 0.008841 -0.009488
# 4 -0.014516 0.001588 0.000936 0.034133 0.020566 -0.011386
# 5 -0.049814 -0.000579 0.008841 0.020566 0.096922 -0.042193
# 6 0.035986 0.003678 -0.009488 -0.011386 -0.042193 0.049055
#
#
# Mechanical properties :
#
#
# Convention : Reuss Voigt Hill
#
# Bulk Modulus (GPa) = 19.14050 44.59651 31.86850
# Shear Modulus (GPa) = 17.06296 40.12994 28.59645
#
# Velocity S-wave (km/s) = 2.58705 3.96746 3.34915
# Velocity P-wave (km/s) = 4.05358 6.20326 5.23984
#
# Compressibility (1/GPa) = 0.05224524
#
# Stress axis : x y z
#
# Youngs Moduli (GPa) = 20.92499 161.89257 50.22703
#
# Poissons Ratio (x) = 0.02834 0.45720
# Poissons Ratio (y) = 0.00366 0.07724
# Poissons Ratio (z) = 0.19047 0.24895
#
# Static dielectric constant tensor:
#      x y z
#    x 1.981030 0.112050 0.085970 
#    y 0.112050 2.113990 0.020220 
#    z 0.085970 0.020220 1.944820 
# 
# From -- ./inp_files/109720.got.cif
#   From: 2010.05.17/outbox.cif.g08.bks.cpg/sg2_55_cif.got.tgz:109720.got - 2010.06.03 11:33:40.
