data_PCOD9094567
_publ_section_title
;
Structure prediction by ZEFSAII (Michael W. Deem and Ramdas Pophale) SiO2 
 PCOD9094567
Probable space group: P -1
;
_chemical_formula_sum "Si O2"
_cell_formula_units_Z 14
_cell_length_a 16.034944
_cell_length_b 5.653625
_cell_length_c 7.046135
_cell_angle_alpha 102.561206
_cell_angle_beta 93.369571
_cell_angle_gamma 60.847603
_cell_volume 543.669393
_symmetry_space_group_name_H-M "P -1"
_symmetry_group_IT_number 2
_symmetry_cell_setting 'triclinic'
loop_
_space_group_symop_operation_xyz
x,y,z
-x,-y,-z
loop_
_atom_site_type_symbol
_atom_site_label
_atom_site_fract_x
_atom_site_fract_y
_atom_site_fract_z
Si Si1 0.450440 0.415917 0.226882
Si Si2 0.892400 0.245276 0.024477
Si Si3 0.563311 0.688605 0.383410
Si Si4 0.172597 0.161370 0.964115
Si Si5 0.639882 0.820570 0.096031
Si Si6 0.115443 0.096937 0.517851
Si Si7 0.885031 0.404925 0.486470
O O1 0.494420 0.619446 0.230828
O O2 0.412462 0.485784 0.451040
O O3 0.543803 0.112195 0.163957
O O4 0.374224 0.379613 0.086862
O O5 0.883250 0.504816 0.943734
O O6 0.869848 0.367980 0.255597
O O7 0.836074 0.071927 0.955221
O O8 0.000000 0.000000 0.000000
O O9 0.650973 0.668807 0.272911
O O10 0.500000 0.000000 0.500000
O O11 0.279377 0.109724 0.943961
O O12 0.135064 0.129145 0.746336
O O13 0.154326 0.269521 0.434098
O O14 0.000486 0.251477 0.501343
O O15 0.152158 0.773569 0.434640
#
# Coordination Sequence:
#
# PCOD9094567 Si02
#       7
#     2   2   2   2   2   2   2
#     4   9  19  36  59  85 120 163 199 238 302 372
#     4  10  20  36  54  76 110 151 191 241 304 359
#     4   9  18  35  58  85 114 159 200 242 297 367
#     4  10  21  34  55  83 109 147 197 250 293 354
#     4  10  20  34  58  88 119 159 203 247 302 360
#     4   8  14  27  45  70  92 122 169 220 271 318
#     4   8  14  26  48  66  89 126 170 215 267 338
#
# _framework density 25.750941000000001
#
# number of rings (size 3 to 8) (size 9 to 14) (size 15 to 20)
#    0.000    2.857    0.000    0.857    2.000    0.000 
#    0.000    1.429    6.286    1.714    0.000    0.000 
#    0.000    0.000    0.000    0.000    0.000    0.000 
#
# Total GULP energy -78169.017475 kJ/mol
# GULP energy per Si atom -5583.501248 kJ/mol
# Density = 2.569233 g / cm^3
# Si number density = 25.750941 Si / 1000 Ang^3
#
#
#
# Elastic Constant Matrix: (Units=GPa)
#
#
# Indices 1 2 3 4 5 6 
#
# 1 138.6668 1.3490 33.0683 0.9872 22.6560 19.4344
# 2 1.3490 201.0875 16.1318 24.3876 -21.8883 75.2602
# 3 33.0683 16.1318 94.8738 19.9223 29.6655 14.1351
# 4 0.9872 24.3876 19.9223 38.6250 11.1070 11.2278
# 5 22.6560 -21.8883 29.6655 11.1070 46.1896 -5.2336
# 6 19.4344 75.2602 14.1351 11.2278 -5.2336 63.1480
#
#
#
# Elastic Compliance Matrix: (Units=1/GPa)
#
#
# Indices 1 2 3 4 5 6 
#
# 1 0.008842 0.000961 -0.001997 0.002460 -0.003662 -0.004161
# 2 0.000961 0.010232 -0.001052 -0.004078 0.004772 -0.011135
# 3 -0.001997 -0.001052 0.015152 -0.004262 -0.008391 -0.001461
# 4 0.002460 -0.004078 -0.004262 0.033563 -0.008657 -0.001628
# 5 -0.003662 0.004772 -0.008391 -0.008657 0.033362 0.001622
# 6 -0.004161 -0.011135 -0.001461 -0.001628 0.001622 0.031138
#
#
# Mechanical properties :
#
#
# Convention : Reuss Voigt Hill
#
# Bulk Modulus (GPa) = 33.27658 59.52516 46.40087
# Shear Modulus (GPa) = 34.13434 55.19778 44.66606
#
# Velocity S-wave (km/s) = 3.64477 4.63484 4.16930
# Velocity P-wave (km/s) = 5.53742 7.19780 6.42150
#
# Compressibility (1/GPa) = 0.03005117
#
# Stress axis : x y z
#
# Youngs Moduli (GPa) = 113.09223 97.73081 65.99996
#
# Poissons Ratio (x) = -0.09394 0.13180
# Poissons Ratio (y) = -0.10870 0.06941
# Poissons Ratio (z) = 0.22584 0.10278
#
# Static dielectric constant tensor:
#      x y z
#    x 1.989250 0.033250 0.020620 
#    y 0.033250 2.109420 -0.065420 
#    z 0.020620 -0.065420 2.048020 
# 
# From -- ./inp_files/42763.got.cif
#   From: 2010.05.17/outbox.cif.g08.bks.cpg/sg2_22_cif.got.tgz:42763.got - 2010.06.03 11:33:40.
