data_PCOD9094578
_publ_section_title
;
Structure prediction by ZEFSAII (Michael W. Deem and Ramdas Pophale) SiO2 
 PCOD9094578
Probable space group: P -1
;
_chemical_formula_sum "Si O2"
_cell_formula_units_Z 16
_cell_length_a 12.139457
_cell_length_b 8.902896
_cell_length_c 11.248030
_cell_angle_alpha 77.923019
_cell_angle_beta 126.487408
_cell_angle_gamma 64.407023
_cell_volume 675.235579
_symmetry_space_group_name_H-M "P -1"
_symmetry_group_IT_number 2
_symmetry_cell_setting 'triclinic'
loop_
_space_group_symop_operation_xyz
x,y,z
-x,-y,-z
loop_
_atom_site_type_symbol
_atom_site_label
_atom_site_fract_x
_atom_site_fract_y
_atom_site_fract_z
Si Si1 0.750993 0.517038 0.334272
Si Si2 0.981283 0.136953 0.862367
Si Si3 0.447458 0.958264 0.351125
Si Si4 0.002491 0.318337 0.039774
Si Si5 0.137225 0.033327 0.748336
Si Si6 0.315301 0.087621 0.677019
Si Si7 0.390031 0.497858 0.534130
Si Si8 0.933423 0.269762 0.265977
O O1 0.729453 0.712078 0.323606
O O2 0.595666 0.538477 0.306783
O O3 0.772972 0.472251 0.215739
O O4 0.961253 0.288203 0.555626
O O5 0.808537 0.245165 0.642946
O O6 0.158333 0.024134 0.906463
O O7 0.900645 0.343410 0.850569
O O8 0.000000 0.000000 0.000000
O O9 0.495080 0.036694 0.260914
O O10 0.575182 0.706814 0.448684
O O11 0.500000 0.000000 0.500000
O O12 0.223690 0.089508 0.197783
O O13 0.920829 0.319561 0.110086
O O14 0.000000 0.500000 0.000000
O O15 0.316263 0.958922 0.801647
O O16 0.089492 0.895677 0.707020
O O17 0.141255 0.171757 0.461639
O O18 0.500000 0.500000 0.500000
#
# Coordination Sequence:
#
# PCOD9094578 Si02
#       8
#     2   2   2   2   2   2   2   2
#     4   9  20  33  59  91 120 153 206 253 296 348
#     4  11  22  40  59  92 130 159 203 242 308 372
#     4  11  22  40  62  92 119 156 209 254 302 356
#     4  12  26  39  63  90 125 163 200 252 312 371
#     4  10  20  34  58  89 121 161 198 250 299 359
#     4  10  20  36  62  89 119 154 206 258 296 347
#     4  10  22  38  66  91 120 162 203 255 299 350
#     4  11  20  36  60  90 120 157 206 250 299 359
#
# _framework density 23.695433000000001
#
# number of rings (size 3 to 8) (size 9 to 14) (size 15 to 20)
#    0.000    1.500    2.500    4.500    7.000    1.000 
#    0.000    0.625    2.750    1.500    0.000    0.000 
#    0.000    0.000    0.000    0.000    0.000    0.000 
#
# Total GULP energy -89157.440139 kJ/mol
# GULP energy per Si atom -5572.340009 kJ/mol
# Density = 2.364150 g / cm^3
# Si number density = 23.695433 Si / 1000 Ang^3
#
#
#
# Elastic Constant Matrix: (Units=GPa)
#
#
# Indices 1 2 3 4 5 6 
#
# 1 205.8570 44.0785 26.9943 12.5220 -47.0813 -21.3862
# 2 44.0785 113.8468 7.4283 10.0622 -17.6073 -4.1884
# 3 26.9943 7.4283 40.3321 -10.0142 -10.0664 -12.8672
# 4 12.5220 10.0622 -10.0142 28.0018 -8.2924 -11.3310
# 5 -47.0813 -17.6073 -10.0664 -8.2924 27.7099 4.2380
# 6 -21.3862 -4.1884 -12.8672 -11.3310 4.2380 48.6573
#
#
#
# Elastic Compliance Matrix: (Units=1/GPa)
#
#
# Indices 1 2 3 4 5 6 
#
# 1 0.008452 -0.001173 -0.001081 0.001153 0.013194 0.002447
# 2 -0.001173 0.010044 -0.001351 -0.003038 0.003140 -0.000989
# 3 -0.001081 -0.001351 0.042258 0.027848 0.018628 0.015446
# 4 0.001153 -0.003038 0.027848 0.061840 0.025626 0.019778
# 5 0.013194 0.003140 0.018628 0.025626 0.073318 0.010577
# 6 0.002447 -0.000989 0.015446 0.019778 0.010577 0.029312
#
#
# Mechanical properties :
#
#
# Convention : Reuss Voigt Hill
#
# Bulk Modulus (GPa) = 18.67629 57.44867 38.06248
# Shear Modulus (GPa) = 19.97742 39.64280 29.81011
#
# Velocity S-wave (km/s) = 2.90675 4.09469 3.55075
# Velocity P-wave (km/s) = 4.37773 6.83027 5.73660
#
# Compressibility (1/GPa) = 0.05354382
#
# Stress axis : x y z
#
# Youngs Moduli (GPa) = 118.30981 99.56311 23.66409
#
# Poissons Ratio (x) = 0.11682 0.02558
# Poissons Ratio (y) = 0.13882 0.03197
# Poissons Ratio (z) = 0.12790 0.13449
#
# Static dielectric constant tensor:
#      x y z
#    x 2.085790 0.027260 -0.090990 
#    y 0.027260 2.130770 -0.103450 
#    z -0.090990 -0.103450 2.291470 
# 
# From -- ./inp_files/260720.got.cif
#   From: 2010.05.17/outbox.cif.g08.bks.cpg/sg2_131_cif.got.tgz:260720.got - 2010.06.03 11:33:40.
