data_PCOD9094417
_publ_section_title
;
Structure prediction by ZEFSAII (Michael W. Deem and Ramdas Pophale) SiO2 
 PCOD9094417
Probable space group: P -1
;
_chemical_formula_sum "Si O2"
_cell_formula_units_Z 16
_cell_length_a 18.836135
_cell_length_b 7.308605
_cell_length_c 7.439405
_cell_angle_alpha 59.312345
_cell_angle_beta 68.176301
_cell_angle_gamma 101.661389
_cell_volume 712.343572
_symmetry_space_group_name_H-M "P -1"
_symmetry_group_IT_number 2
_symmetry_cell_setting 'triclinic'
loop_
_space_group_symop_operation_xyz
x,y,z
-x,-y,-z
loop_
_atom_site_type_symbol
_atom_site_label
_atom_site_fract_x
_atom_site_fract_y
_atom_site_fract_z
Si Si1 0.333437 0.234989 0.328155
Si Si2 0.898686 0.137578 0.535901
Si Si3 0.281025 0.531182 0.480259
Si Si4 0.910085 0.661804 0.634673
Si Si5 0.161035 0.779259 0.813379
Si Si6 0.105143 0.165001 0.802671
Si Si7 0.293092 0.027308 0.099585
Si Si8 0.588416 0.616534 0.468933
O O1 0.286876 0.387574 0.367711
O O2 0.340525 0.231203 0.109961
O O3 0.414696 0.332710 0.340571
O O4 0.262586 0.953798 0.580932
O O5 0.902741 0.897759 0.585782
O O6 0.809034 0.047971 0.772258
O O7 0.891962 0.281783 0.295353
O O8 0.989915 0.284949 0.477037
O O9 0.186647 0.359088 0.750989
O O10 0.361737 0.542841 0.509925
O O11 0.297330 0.791144 0.276962
O O12 0.883515 0.645132 0.462096
O O13 0.856949 0.439273 0.929420
O O14 0.131032 0.956762 0.846843
O O15 0.000000 0.000000 0.000000
O O16 0.342432 0.131012 0.816039
O O17 0.500000 0.500000 0.500000
#
# Coordination Sequence:
#
# PCOD9094417 Si02
#       8
#     2   2   2   2   2   2   2   2
#     4   8  21  44  60  97 133 154 215 269 306 394
#     4   9  21  35  52  94 122 161 228 260 295 394
#     4   9  23  43  62  95 132 166 220 270 312 390
#     4  10  20  34  57  82 127 178 213 261 320 356
#     4   9  18  36  55  78 123 172 205 260 318 359
#     4  10  22  34  53  86 127 167 214 266 307 370
#     4  11  22  42  71  92 128 181 208 257 349 374
#     4  10  24  46  70  99 130 160 215 278 326 397
#
# _framework density 22.461071
#
# number of rings (size 3 to 8) (size 9 to 14) (size 15 to 20)
#    0.750    1.750    0.000    1.125    5.250    3.500 
#    4.500    0.625    0.000    0.000    0.000    0.000 
#    0.000    0.000    0.000    0.000    0.000    0.000 
#
# Total GULP energy -89201.897317 kJ/mol
# GULP energy per Si atom -5575.118582 kJ/mol
# Density = 2.240995 g / cm^3
# Si number density = 22.461071 Si / 1000 Ang^3
#
#
#
# Elastic Constant Matrix: (Units=GPa)
#
#
# Indices 1 2 3 4 5 6 
#
# 1 103.5712 8.2279 4.4811 -0.4936 9.0693 -5.5759
# 2 8.2279 58.5459 9.0295 -2.7925 11.2994 -3.6735
# 3 4.4811 9.0295 66.0227 -4.2802 23.9335 -14.9912
# 4 -0.4936 -2.7925 -4.2802 18.1281 -3.8758 12.7543
# 5 9.0693 11.2994 23.9335 -3.8758 30.8865 -0.5363
# 6 -5.5759 -3.6735 -14.9912 12.7543 -0.5363 24.5699
#
#
#
# Elastic Compliance Matrix: (Units=1/GPa)
#
#
# Indices 1 2 3 4 5 6 
#
# 1 0.010339 -0.000686 0.002217 -0.004434 -0.004958 0.005790
# 2 -0.000686 0.018637 0.000921 -0.001015 -0.007396 0.003558
# 3 0.002217 0.000921 0.028864 -0.016999 -0.025026 0.026530
# 4 -0.004434 -0.001015 -0.016999 0.101188 0.026441 -0.063480
# 5 -0.004958 -0.007396 -0.025026 0.026441 0.058729 -0.029944
# 6 0.005790 0.003558 0.026530 -0.063480 -0.029944 0.091032
#
#
# Mechanical properties :
#
#
# Convention : Reuss Voigt Hill
#
# Bulk Modulus (GPa) = 15.93817 30.17964 23.05891
# Shear Modulus (GPa) = 15.39410 28.47699 21.93555
#
# Velocity S-wave (km/s) = 2.62079 3.56453 3.12845
# Velocity P-wave (km/s) = 4.03353 5.51424 4.83095
#
# Compressibility (1/GPa) = 0.06274247
#
# Stress axis : x y z
#
# Youngs Moduli (GPa) = 96.72544 53.65597 34.64529
#
# Poissons Ratio (x) = 0.03681 -0.07680
# Poissons Ratio (y) = 0.06636 -0.03190
# Poissons Ratio (z) = -0.21442 -0.04940
#
# Static dielectric constant tensor:
#      x y z
#    x 1.955450 0.087160 0.023620 
#    y 0.087160 1.902210 0.059260 
#    z 0.023620 0.059260 1.854780 
# 
# From -- ./inp_files/328324.got.cif
#   From: 2010.05.17/outbox.cif.g08.bks.cpg/sg2_165_cif.got.tgz:328324.got - 2010.06.03 11:33:40.
