data_PCOD9094154
_publ_section_title
;
Structure prediction by ZEFSAII (Michael W. Deem and Ramdas Pophale) SiO2 
 PCOD9094154
Probable space group: P -1
;
_chemical_formula_sum "Si O2"
_cell_formula_units_Z 16
_cell_length_a 17.522876
_cell_length_b 16.476388
_cell_length_c 14.762974
_cell_angle_alpha 41.314594
_cell_angle_beta 18.944771
_cell_angle_gamma 50.091315
_cell_volume 865.150420
_symmetry_space_group_name_H-M "P -1"
_symmetry_group_IT_number 2
_symmetry_cell_setting 'triclinic'
loop_
_space_group_symop_operation_xyz
x,y,z
-x,-y,-z
loop_
_atom_site_type_symbol
_atom_site_label
_atom_site_fract_x
_atom_site_fract_y
_atom_site_fract_z
Si Si1 0.217946 0.437174 0.404273
Si Si2 0.301989 0.071916 0.123157
Si Si3 0.849221 0.848087 0.595784
Si Si4 0.017124 0.676539 0.422117
Si Si5 0.750180 0.758907 0.324554
Si Si6 0.496176 0.133239 0.350722
Si Si7 0.659353 0.898161 0.150037
Si Si8 0.235664 0.999582 0.598980
O O1 0.090093 0.548096 0.465987
O O2 0.196417 0.361335 0.587121
O O3 0.098381 0.344801 0.531035
O O4 0.500000 0.500000 0.000000
O O5 0.285141 0.166763 0.144400
O O6 0.399994 0.127452 0.867813
O O7 0.000000 0.000000 0.500000
O O8 0.500000 0.000000 0.000000
O O9 0.870641 0.719756 0.630904
O O10 0.715516 0.912086 0.618925
O O11 0.111318 0.966354 0.214025
O O12 0.263504 0.798952 0.034185
O O13 0.522059 0.769616 0.632018
O O14 0.712474 0.779765 0.243264
O O15 0.969968 0.891758 0.988416
O O16 0.500000 0.000000 0.500000
O O17 0.271365 0.093009 0.566138
O O18 0.435265 0.924644 0.432637
#
# Coordination Sequence:
#
# PCOD9094154 Si02
#       8
#     2   2   2   2   2   2   2   2
#     4  11  24  41  55  74 112 159 208 242 283 339
#     4  10  20  36  59  88 127 158 189 238 307 371
#     4  10  20  35  56  85 115 149 190 240 297 359
#     4  11  23  37  56  81 112 153 201 243 288 348
#     4  11  22  34  53  79 113 158 192 237 290 351
#     4  12  19  32  52  81 117 143 180 234 296 358
#     4  10  20  34  54  86 119 148 186 236 299 361
#     4  11  19  32  54  81 118 146 184 229 301 358
#
# _framework density 18.493893
#
# number of rings (size 3 to 8) (size 9 to 14) (size 15 to 20)
#    0.000    1.250    5.000    2.625    0.000    0.000 
#    0.000    0.000    0.000    0.750    0.000    1.750 
#    0.000    0.000    0.000    0.000    0.000    0.000 
#
# Total GULP energy -89072.594150 kJ/mol
# GULP energy per Si atom -5567.037134 kJ/mol
# Density = 1.845180 g / cm^3
# Si number density = 18.493893 Si / 1000 Ang^3
#
#
#
# Elastic Constant Matrix: (Units=GPa)
#
#
# Indices 1 2 3 4 5 6 
#
# 1 148.6141 50.1262 20.7709 -6.1669 25.0822 -4.3339
# 2 50.1262 103.8924 8.9942 -0.5665 16.2540 -1.9333
# 3 20.7709 8.9942 26.1790 2.2673 3.2304 -0.6526
# 4 -6.1669 -0.5665 2.2673 22.4094 -2.0881 6.7150
# 5 25.0822 16.2540 3.2304 -2.0881 26.6332 4.9418
# 6 -4.3339 -1.9333 -0.6526 6.7150 4.9418 30.6818
#
#
#
# Elastic Compliance Matrix: (Units=1/GPa)
#
#
# Indices 1 2 3 4 5 6 
#
# 1 0.009938 -0.003152 -0.006098 0.002120 -0.006848 0.001714
# 2 -0.003152 0.011955 -0.000899 -0.001291 -0.004562 0.001306
# 3 -0.006098 -0.000899 0.043926 -0.006553 0.000186 0.001421
# 4 0.002120 -0.001291 -0.006553 0.049889 0.005678 -0.011754
# 5 -0.006848 -0.004562 0.000186 0.005678 0.049134 -0.010407
# 6 0.001714 0.001306 0.001421 -0.011754 -0.010407 0.037196
#
#
# Mechanical properties :
#
#
# Convention : Reuss Voigt Hill
#
# Bulk Modulus (GPa) = 21.96820 48.71865 35.34343
# Shear Modulus (GPa) = 21.05177 29.19784 25.12481
#
# Velocity S-wave (km/s) = 3.37754 3.97770 3.68984
# Velocity P-wave (km/s) = 5.20719 6.89177 6.10783
#
# Compressibility (1/GPa) = 0.04552035
#
# Stress axis : x y z
#
# Youngs Moduli (GPa) = 100.62372 83.64673 22.76573
#
# Poissons Ratio (x) = 0.26367 0.13882
# Poissons Ratio (y) = 0.31719 0.02047
# Poissons Ratio (z) = 0.61360 0.07520
#
# Static dielectric constant tensor:
#      x y z
#    x 1.795680 -0.036340 0.103280 
#    y -0.036340 1.657830 0.023160 
#    z 0.103280 0.023160 1.953120 
# 
# From -- ./inp_files/77352.got.cif
#   From: 2010.05.17/outbox.cif.g08.bks.cpg/sg2_39_cif.got.tgz:77352.got - 2010.06.03 11:33:40.
