data_PCOD9094845
_publ_section_title
;
Structure prediction by ZEFSAII (Michael W. Deem and Ramdas Pophale) SiO2 
 PCOD9094845
Probable space group: P -1
;
_chemical_formula_sum "Si O2"
_cell_formula_units_Z 11
_cell_length_a 11.660088
_cell_length_b 11.672848
_cell_length_c 5.080931
_cell_angle_alpha 98.547432
_cell_angle_beta 68.204067
_cell_angle_gamma 135.529898
_cell_volume 442.568579
_symmetry_space_group_name_H-M "P -1"
_symmetry_group_IT_number 2
_symmetry_cell_setting 'triclinic'
loop_
_space_group_symop_operation_xyz
x,y,z
-x,-y,-z
loop_
_atom_site_type_symbol
_atom_site_label
_atom_site_fract_x
_atom_site_fract_y
_atom_site_fract_z
Si Si1 0.068787 0.249817 0.718549
Si Si2 0.513091 0.194613 0.948420
Si Si3 0.585322 0.494300 0.177452
Si Si4 0.213652 0.016758 0.778115
Si Si5 0.775501 0.172429 0.660714
Si Si6 0.000000 0.000000 0.500000
O O1 0.206587 0.361530 0.866146
O O2 0.955926 0.279288 0.709315
O O3 0.126407 0.206008 0.417798
O O4 0.917607 0.051812 0.881182
O O5 0.688763 0.239409 0.751565
O O6 0.410653 0.164729 0.762357
O O7 0.548726 0.333320 0.125836
O O8 0.374488 0.013252 0.145237
O O9 0.500000 0.500000 0.500000
O O10 0.500000 0.500000 0.000000
O O11 0.193559 0.868309 0.660558
O O12 0.151123 0.049515 0.602255
#
# Coordination Sequence:
#
# PCOD9094845 Si02
#       6
#     2   2   2   2   2   1
#     4  10  23  39  61  94 126 172 222 268 335 394
#     4  10  22  43  64  99 130 172 222 276 333 395
#     4  12  30  45  66  98 143 180 219 274 344 402
#     4  10  20  36  64  96 124 169 224 271 328 390
#     4   9  21  41  72  93 126 169 228 280 326 391
#     4  10  20  34  62  86 132 166 216 272 310 398
#
# _framework density 24.854901999999999
#
# number of rings (size 3 to 8) (size 9 to 14) (size 15 to 20)
#    0.000    1.818    0.000    2.182   15.273    0.727 
#    0.000    0.909    0.000    0.000    0.000    0.000 
#    0.000    0.000    0.000    0.000    0.000    0.000 
#
# Total GULP energy -61315.512702 kJ/mol
# GULP energy per Si atom -5574.137518 kJ/mol
# Density = 2.479833 g / cm^3
# Si number density = 24.854902 Si / 1000 Ang^3
#
#
#
# Elastic Constant Matrix: (Units=GPa)
#
#
# Indices 1 2 3 4 5 6 
#
# 1 211.0221 86.4959 84.1555 39.4218 -10.3083 25.1399
# 2 86.4959 87.0853 40.8672 33.8848 12.2676 18.5883
# 3 84.1555 40.8672 124.4544 28.4592 6.8959 7.2877
# 4 39.4218 33.8848 28.4592 33.6610 5.4621 0.0818
# 5 -10.3083 12.2676 6.8959 5.4621 51.1013 19.7418
# 6 25.1399 18.5883 7.2877 0.0818 19.7418 39.3129
#
#
#
# Elastic Compliance Matrix: (Units=1/GPa)
#
#
# Indices 1 2 3 4 5 6 
#
# 1 0.011456 -0.007720 -0.004554 -0.003026 0.007685 -0.006684
# 2 -0.007720 0.028278 0.001033 -0.019664 -0.003805 -0.006673
# 3 -0.004554 0.001033 0.012089 -0.005470 -0.002839 0.001620
# 4 -0.003026 -0.019664 -0.005470 0.058867 -0.007603 0.015942
# 5 0.007685 -0.003805 -0.002839 -0.007603 0.030053 -0.017664
# 6 -0.006684 -0.006673 0.001620 0.015942 -0.017664 0.041404
#
#
# Mechanical properties :
#
#
# Convention : Reuss Voigt Hill
#
# Bulk Modulus (GPa) = 34.08274 93.95542 64.01908
# Shear Modulus (GPa) = 23.31992 38.88458 31.10225
#
# Velocity S-wave (km/s) = 3.06640 3.95962 3.54128
# Velocity P-wave (km/s) = 5.12635 7.66736 6.52181
#
# Compressibility (1/GPa) = 0.02934037
#
# Stress axis : x y z
#
# Youngs Moduli (GPa) = 87.28679 35.36339 82.72207
#
# Poissons Ratio (x) = 0.27301 0.37673
# Poissons Ratio (y) = 0.67386 -0.08544
# Poissons Ratio (z) = 0.39752 -0.03653
#
# Static dielectric constant tensor:
#      x y z
#    x 2.279600 -0.115450 -1.332990 
#    y -0.115450 2.142470 0.434800 
#    z -1.332990 0.434800 6.746780 
# 
# From -- ./inp_files/20227.got.cif
#   From: 2010.05.17/outbox.cif.g08.bks.cpg/sg2_11_cif.got.tgz:20227.got - 2010.06.03 11:33:40.
