data_PCOD9094661
_publ_section_title
;
Structure prediction by ZEFSAII (Michael W. Deem and Ramdas Pophale) SiO2 
 PCOD9094661
Probable space group: P -1
;
_chemical_formula_sum "Si O2"
_cell_formula_units_Z 16
_cell_length_a 16.427683
_cell_length_b 9.141570
_cell_length_c 17.504796
_cell_angle_alpha 137.048996
_cell_angle_beta 149.125809
_cell_angle_gamma 29.624534
_cell_volume 665.774552
_symmetry_space_group_name_H-M "P -1"
_symmetry_group_IT_number 2
_symmetry_cell_setting 'triclinic'
loop_
_space_group_symop_operation_xyz
x,y,z
-x,-y,-z
loop_
_atom_site_type_symbol
_atom_site_label
_atom_site_fract_x
_atom_site_fract_y
_atom_site_fract_z
Si Si1 0.724818 0.993225 0.482797
Si Si2 0.509654 0.709336 0.980314
Si Si3 0.879873 0.883809 0.862429
Si Si4 0.410380 0.343446 0.742973
Si Si5 0.668553 0.659165 0.918405
Si Si6 0.889047 0.325731 0.517556
Si Si7 0.975900 0.362685 0.273344
Si Si8 0.438167 0.526350 0.575055
O O1 0.555695 0.268233 0.508998
O O2 0.734061 0.152838 0.482830
O O3 0.639645 0.839262 0.328720
O O4 0.932735 0.764994 0.617956
O O5 0.751243 0.457696 0.112454
O O6 0.402972 0.032900 0.043729
O O7 0.394279 0.593285 0.862990
O O8 0.543440 0.704932 0.913684
O O9 0.852897 0.853525 0.739319
O O10 0.652977 0.099023 0.807111
O O11 0.072601 0.569203 0.939131
O O12 0.000000 0.000000 0.000000
O O13 0.232484 0.527823 0.603518
O O14 0.600706 0.538372 0.756288
O O15 0.693590 0.512249 0.492354
O O16 0.064202 0.351107 0.669637
O O17 0.000000 0.000000 0.500000
#
# Coordination Sequence:
#
# PCOD9094661 Si02
#       8
#     2   2   2   2   2   2   2   2
#     4  10  24  39  62  89 125 169 201 248 304 371
#     4  10  20  36  62  88 127 152 199 259 307 358
#     4  11  18  31  59  90 116 151 203 259 299 340
#     4  11  21  39  59  94 120 158 206 256 300 364
#     4  10  20  34  60  91 116 161 200 251 311 350
#     4  11  22  36  62  92 121 155 203 257 303 354
#     4  10  20  34  59  90 118 156 205 247 304 358
#     4  11  21  42  62  87 129 162 206 249 308 365
#
# _framework density 24.032160999999999
#
# number of rings (size 3 to 8) (size 9 to 14) (size 15 to 20)
#    0.000    1.500    3.750    3.000    3.500    2.000 
#    0.000    6.875    5.500    0.000    0.000    0.000 
#    0.000    0.000    0.000    0.000    0.000    0.000 
#
# Total GULP energy -89452.844820 kJ/mol
# GULP energy per Si atom -5590.802801 kJ/mol
# Density = 2.397746 g / cm^3
# Si number density = 24.032161 Si / 1000 Ang^3
#
#
#
# Elastic Constant Matrix: (Units=GPa)
#
#
# Indices 1 2 3 4 5 6 
#
# 1 57.5725 22.4214 29.2009 8.9004 -1.1149 15.3427
# 2 22.4214 113.8469 20.9842 8.5576 1.6454 10.9602
# 3 29.2009 20.9842 79.9867 9.6890 4.6275 21.4810
# 4 8.9004 8.5576 9.6890 46.4897 7.1453 2.8136
# 5 -1.1149 1.6454 4.6275 7.1453 27.6281 1.2651
# 6 15.3427 10.9602 21.4810 2.8136 1.2651 41.0187
#
#
#
# Elastic Compliance Matrix: (Units=1/GPa)
#
#
# Indices 1 2 3 4 5 6 
#
# 1 0.023444 -0.002826 -0.006434 -0.002833 0.003133 -0.004547
# 2 -0.002826 0.009709 -0.001161 -0.000918 -0.000221 -0.000860
# 3 -0.006434 -0.001161 0.017091 -0.001378 -0.002419 -0.006064
# 4 -0.002833 -0.000918 -0.001378 0.023379 -0.005903 0.000605
# 5 0.003133 -0.000221 -0.002419 -0.005903 0.038295 -0.000622
# 6 -0.004547 -0.000860 -0.006064 0.000605 -0.000622 0.029463
#
#
# Mechanical properties :
#
#
# Convention : Reuss Voigt Hill
#
# Bulk Modulus (GPa) = 34.01069 44.06880 39.03975
# Shear Modulus (GPa) = 29.06576 34.94727 32.00651
#
# Velocity S-wave (km/s) = 3.48149 3.81752 3.65337
# Velocity P-wave (km/s) = 5.50853 6.14886 5.83748
#
# Compressibility (1/GPa) = 0.02940252
#
# Stress axis : x y z
#
# Youngs Moduli (GPa) = 42.65524 102.99561 58.51021
#
# Poissons Ratio (x) = 0.29104 0.37648
# Poissons Ratio (y) = 0.12053 0.06791
# Poissons Ratio (z) = 0.27446 0.11954
#
# Static dielectric constant tensor:
#      x y z
#    x 1.920700 -0.046300 -0.046550 
#    y -0.046300 1.988660 0.028030 
#    z -0.046550 0.028030 1.934370 
# 
# From -- ./inp_files/274637.got.cif
#   From: 2010.05.17/outbox.cif.g08.bks.cpg/sg2_138_cif.got.tgz:274637.got - 2010.06.03 11:33:40.
