data_PCOD9094746
_publ_section_title
;
Structure prediction by ZEFSAII (Michael W. Deem and Ramdas Pophale) SiO2 
 PCOD9094746
Probable space group: P -1
;
_chemical_formula_sum "Si O2"
_cell_formula_units_Z 16
_cell_length_a 9.089422
_cell_length_b 15.834946
_cell_length_c 11.420932
_cell_angle_alpha 110.479471
_cell_angle_beta 126.475748
_cell_angle_gamma 37.953499
_cell_volume 789.103477
_symmetry_space_group_name_H-M "P -1"
_symmetry_group_IT_number 2
_symmetry_cell_setting 'triclinic'
loop_
_space_group_symop_operation_xyz
x,y,z
-x,-y,-z
loop_
_atom_site_type_symbol
_atom_site_label
_atom_site_fract_x
_atom_site_fract_y
_atom_site_fract_z
Si Si1 0.036920 0.076358 0.478233
Si Si2 0.508079 0.390601 0.468570
Si Si3 0.473835 0.665317 0.094475
Si Si4 0.167464 0.793490 0.790318
Si Si5 0.315895 0.165813 0.336844
Si Si6 0.326446 0.346152 0.574652
Si Si7 0.913779 0.358212 0.037621
Si Si8 0.787898 0.507913 0.847649
O O1 0.806961 0.235463 0.492028
O O2 0.954718 0.093720 0.311102
O O3 0.359267 0.991586 0.595719
O O4 0.000000 0.000000 0.500000
O O5 0.500000 0.500000 0.500000
O O6 0.467358 0.367136 0.566713
O O7 0.248534 0.461008 0.292037
O O8 0.553400 0.694612 0.257286
O O9 0.741160 0.507735 0.088634
O O10 0.298693 0.783055 0.966952
O O11 0.267729 0.662457 0.035889
O O12 0.455539 0.637985 0.797021
O O13 0.919978 0.814379 0.714034
O O14 0.340275 0.244141 0.469406
O O15 0.203957 0.238478 0.190862
O O16 0.000000 0.500000 0.500000
O O17 0.918905 0.370413 0.906084
O O18 0.000000 0.500000 0.000000
#
# Coordination Sequence:
#
# PCOD9094746 Si02
#       8
#     2   2   2   2   2   2   2   2
#     4  11  23  43  66  92 126 170 213 256 314 388
#     4  11  25  42  64  95 128 164 211 267 314 365
#     4   9  18  34  56  86 124 158 204 258 302 364
#     4   9  22  39  62  89 120 170 214 253 306 375
#     4  11  21  39  64  94 125 168 211 257 313 382
#     4  12  23  34  61  96 131 159 204 262 321 361
#     4   9  17  33  57  86 119 162 205 253 308 360
#     4  10  20  34  60  91 126 160 212 260 310 371
#
# _framework density 20.276174999999999
#
# number of rings (size 3 to 8) (size 9 to 14) (size 15 to 20)
#    0.000    1.750    2.500    2.625    7.000    0.000 
#    0.000    0.625    0.000   12.750    0.000    0.000 
#    0.000    0.000    0.000    0.000    0.000    0.000 
#
# Total GULP energy -89182.836690 kJ/mol
# GULP energy per Si atom -5573.927293 kJ/mol
# Density = 2.023003 g / cm^3
# Si number density = 20.276175 Si / 1000 Ang^3
#
#
#
# Elastic Constant Matrix: (Units=GPa)
#
#
# Indices 1 2 3 4 5 6 
#
# 1 83.5004 21.5867 35.0507 -13.5569 -7.1092 5.2729
# 2 21.5867 68.9725 33.7470 -14.4335 4.3049 0.2451
# 3 35.0507 33.7470 142.5803 -28.9663 -13.0045 6.0973
# 4 -13.5569 -14.4335 -28.9663 30.0859 9.5693 -0.6544
# 5 -7.1092 4.3049 -13.0045 9.5693 37.6808 -9.2995
# 6 5.2729 0.2451 6.0973 -0.6544 -9.2995 22.4769
#
#
#
# Elastic Compliance Matrix: (Units=1/GPa)
#
#
# Indices 1 2 3 4 5 6 
#
# 1 0.014274 -0.002964 -0.002082 0.002605 0.001104 -0.002219
# 2 -0.002964 0.018517 -0.002779 0.006610 -0.005521 -0.000844
# 3 -0.002082 -0.002779 0.009707 0.006650 0.001238 -0.001409
# 4 0.002605 0.006610 0.006650 0.047510 -0.011478 -0.005853
# 5 0.001104 -0.005521 0.001238 -0.011478 0.033975 0.013188
# 6 -0.002219 -0.000844 -0.001409 -0.005853 0.013188 0.050688
#
#
# Mechanical properties :
#
#
# Convention : Reuss Voigt Hill
#
# Bulk Modulus (GPa) = 37.24768 52.86910 45.05839
# Shear Modulus (GPa) = 25.09174 31.69333 28.39253
#
# Velocity S-wave (km/s) = 3.52163 3.95787 3.74611
# Velocity P-wave (km/s) = 5.91150 6.85693 6.40169
#
# Compressibility (1/GPa) = 0.02684731
#
# Stress axis : x y z
#
# Youngs Moduli (GPa) = 70.05987 54.00586 103.01422
#
# Poissons Ratio (x) = 0.16008 0.21452
# Poissons Ratio (y) = 0.20767 0.28623
# Poissons Ratio (z) = 0.14589 0.15006
#
# Static dielectric constant tensor:
#      x y z
#    x 1.830620 -0.016260 -0.059740 
#    y -0.016260 1.707320 0.019640 
#    z -0.059740 0.019640 1.793030 
# 
# From -- ./inp_files/399329.got.cif
#   From: 2010.05.17/outbox.cif.g08.bks.cpg/sg2_200_cif.got.tgz:399329.got - 2010.06.03 11:33:40.
