data_PCOD9094597
_publ_section_title
;
Structure prediction by ZEFSAII (Michael W. Deem and Ramdas Pophale) SiO2 
 PCOD9094597
Probable space group: P -1
;
_chemical_formula_sum "Si O2"
_cell_formula_units_Z 15
_cell_length_a 8.563596
_cell_length_b 10.926139
_cell_length_c 13.601766
_cell_angle_alpha 134.303227
_cell_angle_beta 50.487818
_cell_angle_gamma 139.008050
_cell_volume 581.096573
_symmetry_space_group_name_H-M "P -1"
_symmetry_group_IT_number 2
_symmetry_cell_setting 'triclinic'
loop_
_space_group_symop_operation_xyz
x,y,z
-x,-y,-z
loop_
_atom_site_type_symbol
_atom_site_label
_atom_site_fract_x
_atom_site_fract_y
_atom_site_fract_z
Si Si1 0.429578 0.504348 0.417433
Si Si2 0.570186 0.174157 0.648133
Si Si3 0.790915 0.399131 0.160131
Si Si4 0.648344 0.742316 0.047443
Si Si5 0.284383 0.814809 0.117002
Si Si6 0.260573 0.039582 0.412597
Si Si7 0.000000 0.500000 0.500000
Si Si8 0.985033 0.645920 0.759152
O O1 0.500000 0.500000 0.500000
O O2 0.559339 0.414007 0.256553
O O3 0.577473 0.748330 0.475707
O O4 0.153580 0.416191 0.452658
O O5 0.358672 0.165696 0.792345
O O6 0.765699 0.415855 0.670021
O O7 0.500000 0.000000 0.500000
O O8 0.726775 0.138556 0.642634
O O9 0.023434 0.615843 0.147372
O O10 0.874526 0.376273 0.220910
O O11 0.739084 0.214621 0.006604
O O12 0.494767 0.789310 0.061477
O O13 0.500000 0.500000 0.000000
O O14 0.878763 0.769831 0.914037
O O15 0.324155 0.020170 0.263545
O O16 0.000000 0.000000 0.500000
O O17 0.864767 0.287568 0.362451
#
# Coordination Sequence:
#
# PCOD9094597 Si02
#       8
#     2   2   2   2   2   2   1   2
#     4  12  25  44  69  95 136 179 224 270 328 411
#     4  10  20  34  58  92 129 160 214 280 329 381
#     4  11  20  38  63  94 128 169 218 271 326 398
#     4   9  17  33  55  86 124 164 205 274 318 388
#     4  10  20  35  64  95 130 165 217 275 340 385
#     4  11  21  40  63  98 130 167 217 284 333 379
#     4  12  26  40  68  90 132 186 224 264 328 398
#     4  11  20  39  60  92 129 174 224 264 322 401
#
# _framework density 25.813268000000001
#
# number of rings (size 3 to 8) (size 9 to 14) (size 15 to 20)
#    0.000    1.333    6.667    1.600    0.000    2.133 
#    0.000    0.667    0.000    8.000    0.000    0.000 
#    0.000    0.000    0.000    0.000    0.000    0.000 
#
# Total GULP energy -83674.504956 kJ/mol
# GULP energy per Si atom -5578.300330 kJ/mol
# Density = 2.575452 g / cm^3
# Si number density = 25.813268 Si / 1000 Ang^3
#
#
#
# Elastic Constant Matrix: (Units=GPa)
#
#
# Indices 1 2 3 4 5 6 
#
# 1 129.0650 4.7342 67.1568 -23.4856 -6.3380 0.4789
# 2 4.7342 62.4197 23.6182 10.1026 -0.4037 2.3037
# 3 67.1568 23.6182 237.3822 1.0186 2.6483 12.2051
# 4 -23.4856 10.1026 1.0186 36.9401 10.0538 -6.0733
# 5 -6.3380 -0.4037 2.6483 10.0538 68.6085 -7.8433
# 6 0.4789 2.3037 12.2051 -6.0733 -7.8433 26.6894
#
#
#
# Elastic Compliance Matrix: (Units=1/GPa)
#
#
# Indices 1 2 3 4 5 6 
#
# 1 0.010834 -0.000980 -0.003168 0.007670 0.000358 0.003190
# 2 -0.000980 0.017649 -0.001357 -0.005937 0.000704 -0.002030
# 3 -0.003168 -0.001357 0.005410 -0.002131 -0.000534 -0.002942
# 4 0.007670 -0.005937 -0.002131 0.035992 -0.003547 0.008497
# 5 0.000358 0.000704 -0.000534 -0.003547 0.015605 0.003956
# 6 0.003190 -0.002030 -0.002942 0.008497 0.003956 0.042027
#
#
# Mechanical properties :
#
#
# Convention : Reuss Voigt Hill
#
# Bulk Modulus (GPa) = 43.70016 68.87615 56.28815
# Shear Modulus (GPa) = 34.21004 48.67144 41.44074
#
# Velocity S-wave (km/s) = 3.64440 4.34697 4.01110
# Velocity P-wave (km/s) = 5.88855 7.20661 6.58066
#
# Compressibility (1/GPa) = 0.02288321
#
# Stress axis : x y z
#
# Youngs Moduli (GPa) = 92.30081 56.66151 184.83091
#
# Poissons Ratio (x) = 0.05551 0.58563
# Poissons Ratio (y) = 0.09043 0.25078
# Poissons Ratio (z) = 0.29245 0.07688
#
# Static dielectric constant tensor:
#      x y z
#    x -7.333270 -3.608210 9.183710 
#    y -3.608210 0.513370 3.842840 
#    z 9.183710 3.842840 -7.237700 
# 
# From -- ./inp_files/263490.got.cif
#   From: 2010.05.17/outbox.cif.g08.bks.cpg/sg2_132_cif.got.tgz:263490.got - 2010.06.03 11:33:40.
