data_PCOD9094119
_publ_section_title
;
Structure prediction by ZEFSAII (Michael W. Deem and Ramdas Pophale) SiO2 
 PCOD9094119
Probable space group: P -1
;
_chemical_formula_sum "Si O2"
_cell_formula_units_Z 16
_cell_length_a 24.910649
_cell_length_b 12.824354
_cell_length_c 15.412944
_cell_angle_alpha 41.126315
_cell_angle_beta 28.286327
_cell_angle_gamma 21.547188
_cell_volume 793.363892
_symmetry_space_group_name_H-M "P -1"
_symmetry_group_IT_number 2
_symmetry_cell_setting 'triclinic'
loop_
_space_group_symop_operation_xyz
x,y,z
-x,-y,-z
loop_
_atom_site_type_symbol
_atom_site_label
_atom_site_fract_x
_atom_site_fract_y
_atom_site_fract_z
Si Si1 0.265730 0.478976 0.043281
Si Si2 0.212352 0.045666 0.932826
Si Si3 0.579552 0.572281 0.303620
Si Si4 0.952879 0.653006 0.837479
Si Si5 0.266170 0.142737 0.160894
Si Si6 0.142592 0.089567 0.520957
Si Si7 0.634302 0.675603 0.506317
Si Si8 0.819343 0.317262 0.293893
O O1 0.271701 0.318181 0.072823
O O2 0.057029 0.706498 0.258551
O O3 0.277876 0.605905 0.875770
O O4 0.488087 0.216135 0.947474
O O5 0.080550 0.341370 0.882518
O O6 0.465411 0.745940 0.734785
O O7 0.187135 0.121413 0.022147
O O8 0.075996 0.052086 0.100771
O O9 0.500000 0.500000 0.500000
O O10 0.716238 0.482462 0.243933
O O11 0.346833 0.925788 0.384230
O O12 0.141579 0.559976 0.613603
O O13 0.816033 0.783684 0.864973
O O14 0.107324 0.241713 0.392803
O O15 0.214665 0.828504 0.550337
O O16 0.704063 0.555631 0.383942
O O17 0.500000 0.000000 0.500000
#
# Coordination Sequence:
#
# PCOD9094119 Si02
#       8
#     2   2   2   2   2   2   2   2
#     4  10  21  37  56  80 109 147 187 223 266 318
#     4   9  18  33  54  82 107 132 174 224 275 327
#     4   9  20  35  54  84 115 140 177 224 271 329
#     4   9  18  34  55  80 107 135 176 227 271 317
#     4  10  21  37  56  79 109 145 188 228 261 315
#     4  10  22  37  53  78 113 147 184 223 265 322
#     4   9  19  34  54  81 108 134 171 220 273 324
#     4  10  20  34  54  80 110 141 173 221 274 322
#
# _framework density 20.167290000000001
#
# number of rings (size 3 to 8) (size 9 to 14) (size 15 to 20)
#    0.000    2.500    0.000    1.875    0.000    9.000 
#    0.000    2.500    0.000    4.500    0.000    0.000 
#    0.000    0.000    0.000    0.000    0.000    0.000 
#
# Total GULP energy -89202.402265 kJ/mol
# GULP energy per Si atom -5575.150142 kJ/mol
# Density = 2.012139 g / cm^3
# Si number density = 20.167290 Si / 1000 Ang^3
#
#
#
# Elastic Constant Matrix: (Units=GPa)
#
#
# Indices 1 2 3 4 5 6 
#
# 1 151.3941 26.8443 44.1511 1.0635 1.0576 -33.8435
# 2 26.8443 20.6976 12.6938 -4.3647 7.4568 -7.6168
# 3 44.1511 12.6938 133.8316 3.9089 -3.6965 -18.3752
# 4 1.0635 -4.3647 3.9089 29.6035 0.2061 0.1058
# 5 1.0576 7.4568 -3.6965 0.2061 25.3556 -7.5470
# 6 -33.8435 -7.6168 -18.3752 0.1058 -7.5470 26.2007
#
#
#
# Elastic Compliance Matrix: (Units=1/GPa)
#
#
# Indices 1 2 3 4 5 6 
#
# 1 0.012192 -0.013694 -0.000588 -0.002480 0.007477 0.013519
# 2 -0.013694 0.078739 -0.004758 0.012922 -0.024986 -0.005384
# 3 -0.000588 -0.004758 0.009046 -0.001925 0.004387 0.005473
# 4 -0.002480 0.012922 -0.001925 0.036071 -0.004978 -0.002376
# 5 0.007477 -0.024986 0.004387 -0.004978 0.053365 0.020863
# 6 0.013519 -0.005384 0.005473 -0.002376 0.020863 0.063922
#
#
# Mechanical properties :
#
#
# Convention : Reuss Voigt Hill
#
# Bulk Modulus (GPa) = 16.15565 52.58907 34.37236
# Shear Modulus (GPa) = 16.02321 31.04758 23.53540
#
# Velocity S-wave (km/s) = 2.82177 3.92791 3.41986
# Velocity P-wave (km/s) = 4.31796 6.83405 5.71616
#
# Compressibility (1/GPa) = 0.06189787
#
# Stress axis : x y z
#
# Youngs Moduli (GPa) = 82.01931 12.70023 110.54335
#
# Poissons Ratio (x) = 0.17392 0.06503
# Poissons Ratio (y) = 1.12316 0.52591
# Poissons Ratio (z) = 0.04825 0.06042
#
# Static dielectric constant tensor:
#      x y z
#    x 1.714110 0.003900 -0.043260 
#    y 0.003900 1.737050 -0.025650 
#    z -0.043260 -0.025650 1.778620 
# 
# From -- ./inp_files/470970.got.cif
#   From: 2010.05.17/outbox.cif.g08.bks.cpg/sg2_236_cif.got.tgz:470970.got - 2010.06.03 11:33:40.
