data_PCOD9094876
_publ_section_title
;
Structure prediction by ZEFSAII (Michael W. Deem and Ramdas Pophale) SiO2 
 PCOD9094876
Probable space group: P -1
;
_chemical_formula_sum "Si O2"
_cell_formula_units_Z 14
_cell_length_a 6.829957
_cell_length_b 9.820119
_cell_length_c 12.182693
_cell_angle_alpha 112.824673
_cell_angle_beta 126.075934
_cell_angle_gamma 66.474612
_cell_volume 592.500218
_symmetry_space_group_name_H-M "P -1"
_symmetry_group_IT_number 2
_symmetry_cell_setting 'triclinic'
loop_
_space_group_symop_operation_xyz
x,y,z
-x,-y,-z
loop_
_atom_site_type_symbol
_atom_site_label
_atom_site_fract_x
_atom_site_fract_y
_atom_site_fract_z
Si Si1 0.418160 0.725635 0.989900
Si Si2 0.579906 0.021039 0.409524
Si Si3 0.860690 0.830852 0.085150
Si Si4 0.655380 0.406193 0.858713
Si Si5 0.985975 0.193421 0.636374
Si Si6 0.678779 0.501423 0.662469
Si Si7 0.153448 0.182157 0.165772
O O1 0.561531 0.564369 0.937853
O O2 0.131185 0.765431 0.872776
O O3 0.582509 0.832164 0.029119
O O4 0.425288 0.710802 0.119936
O O5 0.336097 0.069095 0.270000
O O6 0.735438 0.152418 0.497051
O O7 0.500000 0.000000 0.500000
O O8 0.784338 0.878902 0.386777
O O9 0.971760 0.880391 0.250148
O O10 0.048367 0.664629 0.075637
O O11 0.853042 0.893651 0.979837
O O12 0.568091 0.436386 0.714256
O O13 0.933507 0.374771 0.684560
O O14 0.500000 0.500000 0.500000
O O15 0.738265 0.664522 0.757790
#
# Coordination Sequence:
#
# PCOD9094876 Si02
#       7
#     2   2   2   2   2   2   2
#     4  10  20  34  62  98 132 169 201 264 331 379
#     4  11  26  50  65  89 135 177 218 266 322 392
#     4  10  21  41  67  95 131 168 219 269 317 386
#     4   9  20  32  57  93 134 166 199 251 328 378
#     4  10  25  44  71  93 126 179 217 260 334 378
#     4  11  21  41  66  99 134 167 212 271 320 387
#     4  11  24  41  67 101 132 168 215 271 323 383
#
# _framework density 23.628682999999999
#
# number of rings (size 3 to 8) (size 9 to 14) (size 15 to 20)
#    0.000    1.714    2.857    0.429   10.000    7.429 
#    0.000    2.857    0.000    0.000    0.000    0.000 
#    0.000    0.000    0.000    0.000    0.000    0.000 
#
# Total GULP energy -78218.174237 kJ/mol
# GULP energy per Si atom -5587.012446 kJ/mol
# Density = 2.357490 g / cm^3
# Si number density = 23.628683 Si / 1000 Ang^3
#
#
#
# Elastic Constant Matrix: (Units=GPa)
#
#
# Indices 1 2 3 4 5 6 
#
# 1 154.9067 43.3371 61.2550 -21.1866 -12.1071 -26.8400
# 2 43.3371 92.2636 20.4729 -4.9772 -15.9931 -19.5391
# 3 61.2550 20.4729 149.7974 -33.2786 -17.5935 -5.9087
# 4 -21.1866 -4.9772 -33.2786 36.3360 5.6360 -3.0855
# 5 -12.1071 -15.9931 -17.5935 5.6360 46.5589 3.5652
# 6 -26.8400 -19.5391 -5.9087 -3.0855 3.5652 30.4127
#
#
#
# Elastic Compliance Matrix: (Units=1/GPa)
#
#
# Indices 1 2 3 4 5 6 
#
# 1 0.009878 -0.002402 -0.002653 0.003637 -0.000239 0.007056
# 2 -0.002402 0.014016 -0.000180 0.000347 0.003585 0.006465
# 3 -0.002653 -0.000180 0.009537 0.006834 0.002036 -0.000149
# 4 0.003637 0.000347 0.006834 0.036916 -0.001486 0.008680
# 5 -0.000239 0.003585 0.002036 -0.001486 0.023630 -0.000433
# 6 0.007056 0.006465 -0.000149 0.008680 -0.000433 0.044164
#
#
# Mechanical properties :
#
#
# Convention : Reuss Voigt Hill
#
# Bulk Modulus (GPa) = 43.55319 71.89973 57.72646
# Shear Modulus (GPa) = 31.99730 40.78837 36.39284
#
# Velocity S-wave (km/s) = 3.68390 4.15929 3.92879
# Velocity P-wave (km/s) = 6.04708 7.31856 6.71299
#
# Compressibility (1/GPa) = 0.02296043
#
# Stress axis : x y z
#
# Youngs Moduli (GPa) = 101.23754 71.34712 104.85960
#
# Poissons Ratio (x) = 0.17139 0.27816
# Poissons Ratio (y) = 0.24319 0.01889
# Poissons Ratio (z) = 0.26855 0.01285
#
# Static dielectric constant tensor:
#      x y z
#    x 1.877420 0.051120 -0.008760 
#    y 0.051120 1.961940 0.010980 
#    z -0.008760 0.010980 1.901830 
# 
# From -- ./inp_files/82992.got.cif
#   From: 2010.05.17/outbox.cif.g08.bks.cpg/sg2_42_cif.got.tgz:82992.got - 2010.06.03 11:33:40.
