data_PCOD9094731
_publ_section_title
;
Structure prediction by ZEFSAII (Michael W. Deem and Ramdas Pophale) SiO2 
 PCOD9094731
Probable space group: P -1
;
_chemical_formula_sum "Si O2"
_cell_formula_units_Z 16
_cell_length_a 14.009238
_cell_length_b 14.874911
_cell_length_c 7.439335
_cell_angle_alpha 111.779786
_cell_angle_beta 93.641223
_cell_angle_gamma 142.077755
_cell_volume 691.283944
_symmetry_space_group_name_H-M "P -1"
_symmetry_group_IT_number 2
_symmetry_cell_setting 'triclinic'
loop_
_space_group_symop_operation_xyz
x,y,z
-x,-y,-z
loop_
_atom_site_type_symbol
_atom_site_label
_atom_site_fract_x
_atom_site_fract_y
_atom_site_fract_z
Si Si1 0.540583 0.991916 0.696245
Si Si2 0.448114 0.373762 0.099980
Si Si3 0.550915 0.307811 0.598778
Si Si4 0.221318 0.692960 0.749995
Si Si5 0.150498 0.049876 0.269230
Si Si6 0.060663 0.934718 0.757383
Si Si7 0.754455 0.634875 0.043267
Si Si8 0.748795 0.501778 0.408688
O O1 0.543297 0.880209 0.573767
O O2 0.363161 0.849828 0.715960
O O3 0.500000 0.000000 0.500000
O O4 0.728462 0.198542 0.986828
O O5 0.327107 0.365050 0.125625
O O6 0.560267 0.402452 0.270149
O O7 0.636144 0.572498 0.150006
O O8 0.263871 0.144417 0.835371
O O9 0.665717 0.448526 0.890763
O O10 0.729482 0.473600 0.599357
O O11 0.370445 0.220917 0.481489
O O12 0.266615 0.621171 0.754027
O O13 0.000000 0.500000 0.500000
O O14 0.119847 0.986560 0.013914
O O15 0.088904 0.107462 0.310707
O O16 0.987456 0.851241 0.225633
O O17 0.947087 0.735185 0.551115
#
# Coordination Sequence:
#
# PCOD9094731 Si02
#       8
#     2   2   2   2   2   2   2   2
#     4  10  25  47  70  98 131 170 219 280 339 393
#     4  10  22  38  57  87 131 163 201 259 312 373
#     4  11  22  37  65  89 123 161 211 263 319 383
#     4  10  25  46  70  98 132 169 219 281 335 394
#     4  10  20  35  58  91 123 158 210 255 301 382
#     4  10  20  34  60  89 121 165 207 249 309 378
#     4  10  22  38  56  89 129 163 202 257 316 372
#     4  11  22  37  64  90 121 164 213 256 322 384
#
# _framework density 23.145336
#
# number of rings (size 3 to 8) (size 9 to 14) (size 15 to 20)
#    0.000    1.750    2.500    0.750    3.500    3.500 
#    2.250    3.750    0.000    0.000    0.000    0.000 
#    0.000    0.000    0.000    0.000    0.000    0.000 
#
# Total GULP energy -89204.951017 kJ/mol
# GULP energy per Si atom -5575.309439 kJ/mol
# Density = 2.309266 g / cm^3
# Si number density = 23.145336 Si / 1000 Ang^3
#
#
#
# Elastic Constant Matrix: (Units=GPa)
#
#
# Indices 1 2 3 4 5 6 
#
# 1 29.5757 21.6786 25.0027 7.5129 -8.3792 -11.2028
# 2 21.6786 111.6930 43.5706 21.5166 0.7162 -3.7284
# 3 25.0027 43.5706 135.3305 23.4088 -13.1544 -9.7299
# 4 7.5129 21.5166 23.4088 39.5743 -3.4572 2.6902
# 5 -8.3792 0.7162 -13.1544 -3.4572 29.5574 7.7247
# 6 -11.2028 -3.7284 -9.7299 2.6902 7.7247 24.4004
#
#
#
# Elastic Compliance Matrix: (Units=1/GPa)
#
#
# Indices 1 2 3 4 5 6 
#
# 1 0.053790 -0.007176 -0.004740 -0.004179 0.007665 0.019744
# 2 -0.007176 0.012006 -0.002234 -0.004107 -0.003602 -0.000758
# 3 -0.004740 -0.002234 0.009922 -0.003616 0.002424 0.001070
# 4 -0.004179 -0.004107 -0.003616 0.031285 0.003171 -0.008441
# 5 0.007665 -0.003602 0.002424 0.003171 0.039907 -0.009048
# 6 0.019744 -0.000758 0.001070 -0.008441 -0.009048 0.054154
#
#
# Mechanical properties :
#
#
# Convention : Reuss Voigt Hill
#
# Bulk Modulus (GPa) = 21.08872 50.78922 35.93897
# Shear Modulus (GPa) = 20.39387 31.12957 25.76172
#
# Velocity S-wave (km/s) = 2.97159 3.67135 3.33985
# Velocity P-wave (km/s) = 4.57220 6.32163 5.51670
#
# Compressibility (1/GPa) = 0.04741872
#
# Stress axis : x y z
#
# Youngs Moduli (GPa) = 18.59065 83.28892 100.78380
#
# Poissons Ratio (x) = 0.59770 0.47773
# Poissons Ratio (y) = 0.13341 0.22514
# Poissons Ratio (z) = 0.08812 0.18605
#
# Static dielectric constant tensor:
#      x y z
#    x 1.877020 -0.047630 -0.035510 
#    y -0.047630 1.951480 -0.071780 
#    z -0.035510 -0.071780 1.954570 
# 
# From -- ./inp_files/313721.got.cif
#   From: 2010.05.17/outbox.cif.g08.bks.cpg/sg2_157_cif.got.tgz:313721.got - 2010.06.03 11:33:40.
