data_PCOD9094772
_publ_section_title
;
Structure prediction by ZEFSAII (Michael W. Deem and Ramdas Pophale) SiO2 
 PCOD9094772
Probable space group: P -1
;
_chemical_formula_sum "Si O2"
_cell_formula_units_Z 16
_cell_length_a 11.537930
_cell_length_b 12.799649
_cell_length_c 8.458022
_cell_angle_alpha 36.923579
_cell_angle_beta 126.569118
_cell_angle_gamma 112.200679
_cell_volume 589.989882
_symmetry_space_group_name_H-M "P -1"
_symmetry_group_IT_number 2
_symmetry_cell_setting 'triclinic'
loop_
_space_group_symop_operation_xyz
x,y,z
-x,-y,-z
loop_
_atom_site_type_symbol
_atom_site_label
_atom_site_fract_x
_atom_site_fract_y
_atom_site_fract_z
Si Si1 0.484457 0.601461 0.032101
Si Si2 0.439168 0.028130 0.741235
Si Si3 0.719302 0.300144 0.007764
Si Si4 0.291062 0.923697 0.314669
Si Si5 0.871240 0.139546 0.027080
Si Si6 0.805697 0.674007 0.218661
Si Si7 0.149103 0.301184 0.112768
Si Si8 0.950408 0.719887 0.609634
O O1 0.398591 0.546520 0.183138
O O2 0.373939 0.781859 0.673415
O O3 0.645479 0.631123 0.170480
O O4 0.500000 0.500000 0.000000
O O5 0.579363 0.032761 0.742564
O O6 0.317064 0.201556 0.392004
O O7 0.358887 0.866564 0.848190
O O8 0.500000 0.000000 0.000000
O O9 0.767627 0.282734 0.882608
O O10 0.877254 0.274150 0.253966
O O11 0.213396 0.114052 0.086174
O O12 0.181387 0.836879 0.223996
O O13 0.032744 0.173069 0.148177
O O14 0.870956 0.931038 0.308851
O O15 0.858798 0.591929 0.188982
O O16 0.896243 0.649452 0.486075
O O17 0.100527 0.372770 0.162972
#
# Coordination Sequence:
#
# PCOD9094772 Si02
#       8
#     2   2   2   2   2   2   2   2
#     4  12  27  43  59  87 129 167 211 258 308 372
#     4  12  18  32  61  96 129 159 195 260 316 372
#     4  11  20  37  61  88 132 164 196 257 318 361
#     4  11  22  36  63  97 118 160 213 250 316 373
#     4  10  20  34  60  96 127 153 198 261 319 364
#     4  11  23  39  67  95 121 163 204 263 320 363
#     4  11  20  34  56  92 135 154 198 255 309 374
#     4  10  21  35  60 100 127 158 200 257 319 377
#
# _framework density 27.119109000000002
#
# number of rings (size 3 to 8) (size 9 to 14) (size 15 to 20)
#    0.000    1.000    6.250    2.625    1.750    1.000 
#    0.000    1.250    0.000    1.500    0.000    0.000 
#    0.000    0.000    0.000    0.000    0.000    0.000 
#
# Total GULP energy -89581.766473 kJ/mol
# GULP energy per Si atom -5598.860405 kJ/mol
# Density = 2.705738 g / cm^3
# Si number density = 27.119109 Si / 1000 Ang^3
#
#
#
# Elastic Constant Matrix: (Units=GPa)
#
#
# Indices 1 2 3 4 5 6 
#
# 1 111.9771 66.4827 34.5412 17.2346 8.7521 -43.4161
# 2 66.4827 159.1037 73.4168 33.5125 11.9561 -21.0183
# 3 34.5412 73.4168 121.1936 43.2426 -5.4295 -5.3506
# 4 17.2346 33.5125 43.2426 49.3447 2.0406 -1.2112
# 5 8.7521 11.9561 -5.4295 2.0406 31.2856 -0.9355
# 6 -43.4161 -21.0183 -5.3506 -1.2112 -0.9355 57.0377
#
#
#
# Elastic Compliance Matrix: (Units=1/GPa)
#
#
# Indices 1 2 3 4 5 6 
#
# 1 0.016528 -0.004454 -0.001183 -0.001334 -0.002718 0.010755
# 2 -0.004454 0.011103 -0.005155 -0.001307 -0.003803 0.000127
# 3 -0.001183 -0.005155 0.015414 -0.009861 0.005575 -0.001472
# 4 -0.001334 -0.001307 -0.009861 0.030335 -0.002872 -0.001825
# 5 -0.002718 -0.003803 0.005575 -0.002872 0.035259 -0.002430
# 6 0.010755 0.000127 -0.001472 -0.001825 -0.002430 0.025549
#
#
# Mechanical properties :
#
#
# Convention : Reuss Voigt Hill
#
# Bulk Modulus (GPa) = 46.59656 82.35064 64.47360
# Shear Modulus (GPa) = 30.68872 42.05585 36.37228
#
# Velocity S-wave (km/s) = 3.36762 3.94227 3.66622
# Velocity P-wave (km/s) = 5.68688 7.15222 6.46122
#
# Compressibility (1/GPa) = 0.02146081
#
# Stress axis : x y z
#
# Youngs Moduli (GPa) = 60.50398 90.06609 64.87491
#
# Poissons Ratio (x) = 0.40117 0.07676
# Poissons Ratio (y) = 0.26949 0.33442
# Poissons Ratio (z) = 0.07158 0.46428
#
# Static dielectric constant tensor:
#      x y z
#    x 2.313320 -0.206930 -0.205440 
#    y -0.206930 2.234850 0.034710 
#    z -0.205440 0.034710 2.226090 
# 
# From -- ./inp_files/262158.got.cif
#   From: 2010.05.17/outbox.cif.g08.bks.cpg/sg2_132_cif.got.tgz:262158.got - 2010.06.03 11:33:40.
