data_PCOD9094312
_publ_section_title
;
Structure prediction by ZEFSAII (Michael W. Deem and Ramdas Pophale) SiO2 
 PCOD9094312
Probable space group: P -1
;
_chemical_formula_sum "Si O2"
_cell_formula_units_Z 16
_cell_length_a 6.589437
_cell_length_b 9.310270
_cell_length_c 17.116155
_cell_angle_alpha 117.393729
_cell_angle_beta 85.622708
_cell_angle_gamma 128.017865
_cell_volume 701.579605
_symmetry_space_group_name_H-M "P -1"
_symmetry_group_IT_number 2
_symmetry_cell_setting 'triclinic'
loop_
_space_group_symop_operation_xyz
x,y,z
-x,-y,-z
loop_
_atom_site_type_symbol
_atom_site_label
_atom_site_fract_x
_atom_site_fract_y
_atom_site_fract_z
Si Si1 0.501738 0.735974 0.899454
Si Si2 0.709606 0.967829 0.500336
Si Si3 0.389300 0.034510 0.813109
Si Si4 0.813271 0.164543 0.708340
Si Si5 0.799037 0.400717 0.277215
Si Si6 0.825724 0.201797 0.979305
Si Si7 0.705656 0.627435 0.454862
Si Si8 0.235393 0.321404 0.874153
O O1 0.447114 0.690621 0.798178
O O2 0.492130 0.560350 0.898770
O O3 0.747538 0.987599 0.965308
O O4 0.234934 0.692684 0.929110
O O5 0.768657 0.011750 0.603080
O O6 0.979266 0.154403 0.490922
O O7 0.500000 0.000000 0.500000
O O8 0.611835 0.733020 0.431028
O O9 0.548299 0.080544 0.740252
O O10 0.598683 0.118436 0.899089
O O11 0.287939 0.163116 0.850764
O O12 0.176412 0.778126 0.760734
O O13 0.941479 0.382517 0.713918
O O14 0.025028 0.220177 0.782554
O O15 0.727169 0.465304 0.371811
O O16 0.100321 0.335851 0.957131
O O17 0.500000 0.500000 0.500000
#
# Coordination Sequence:
#
# PCOD9094312 Si02
#       8
#     2   2   2   2   2   2   2   2
#     4   9  18  35  55  75 111 148 176 224 279 325
#     4  10  22  39  60  87 116 149 192 238 286 343
#     4  10  20  34  56  83 109 142 188 228 268 330
#     4   9  20  38  55  78 113 145 179 227 279 331
#     4   9  19  37  56  79 111 148 185 226 280 335
#     4   9  19  36  53  78 112 143 180 226 274 327
#     4  10  21  39  61  85 116 152 191 237 287 342
#     4  10  20  34  57  81 106 145 184 225 273 323
#
# _framework density 22.805679999999999
#
# number of rings (size 3 to 8) (size 9 to 14) (size 15 to 20)
#    0.000    2.500    0.000    1.125    0.000    6.000 
#    0.000   14.375    0.000    0.000    0.000    0.000 
#    0.000    0.000    0.000    0.000    0.000    0.000 
#
# Total GULP energy -89338.921724 kJ/mol
# GULP energy per Si atom -5583.682608 kJ/mol
# Density = 2.275377 g / cm^3
# Si number density = 22.805680 Si / 1000 Ang^3
#
#
#
# Elastic Constant Matrix: (Units=GPa)
#
#
# Indices 1 2 3 4 5 6 
#
# 1 63.0226 33.7111 -0.7177 -2.6162 -5.3017 -18.9783
# 2 33.7111 130.3440 10.0711 -3.3142 -14.1155 -18.2536
# 3 -0.7177 10.0711 69.3259 -5.0694 -7.7330 0.8717
# 4 -2.6162 -3.3142 -5.0694 33.7870 -2.2405 -20.5877
# 5 -5.3017 -14.1155 -7.7330 -2.2405 18.5663 2.4534
# 6 -18.9783 -18.2536 0.8717 -20.5877 2.4534 31.4664
#
#
#
# Elastic Compliance Matrix: (Units=1/GPa)
#
#
# Indices 1 2 3 4 5 6 
#
# 1 0.026124 -0.002236 0.002217 0.018313 0.005464 0.025953
# 2 -0.002236 0.010311 -0.000424 0.006204 0.006692 0.008182
# 3 0.002217 -0.000424 0.015609 0.004997 0.006968 0.003385
# 4 0.018313 0.006204 0.004997 0.068930 0.012599 0.058622
# 5 0.005464 0.006692 0.006968 0.012599 0.063574 0.010271
# 6 0.025953 0.008182 0.003385 0.058622 0.010271 0.089640
#
#
# Mechanical properties :
#
#
# Convention : Reuss Voigt Hill
#
# Bulk Modulus (GPa) = 19.54664 38.75796 29.15230
# Shear Modulus (GPa) = 17.11591 31.40581 24.26086
#
# Velocity S-wave (km/s) = 2.74252 3.71496 3.26515
# Velocity P-wave (km/s) = 4.31487 5.95256 5.19861
#
# Compressibility (1/GPa) = 0.05115969
#
# Stress axis : x y z
#
# Youngs Moduli (GPa) = 38.27929 96.98053 64.06471
#
# Poissons Ratio (x) = 0.21684 -0.14206
# Poissons Ratio (y) = 0.08559 0.02715
# Poissons Ratio (z) = -0.08488 0.04111
#
# Static dielectric constant tensor:
#      x y z
#    x 1.867770 -0.006470 0.008010 
#    y -0.006470 1.884090 0.015720 
#    z 0.008010 0.015720 1.886110 
# 
# From -- ./inp_files/548302.got.cif
#   From: 2010.05.17/outbox.cif.g08.bks.cpg/sg2_275_cif.got.tgz:548302.got - 2010.06.03 11:33:40.
