data_PCOD9094779
_publ_section_title
;
Structure prediction by ZEFSAII (Michael W. Deem and Ramdas Pophale) SiO2 
 PCOD9094779
Probable space group: P -1
;
_chemical_formula_sum "Si O2"
_cell_formula_units_Z 16
_cell_length_a 8.866727
_cell_length_b 18.107401
_cell_length_c 4.965355
_cell_angle_alpha 106.858536
_cell_angle_beta 84.589341
_cell_angle_gamma 103.536555
_cell_volume 741.450749
_symmetry_space_group_name_H-M "P -1"
_symmetry_group_IT_number 2
_symmetry_cell_setting 'triclinic'
loop_
_space_group_symop_operation_xyz
x,y,z
-x,-y,-z
loop_
_atom_site_type_symbol
_atom_site_label
_atom_site_fract_x
_atom_site_fract_y
_atom_site_fract_z
Si Si1 0.340858 0.521978 0.154837
Si Si2 0.186111 0.015056 0.480259
Si Si3 0.690879 0.886152 0.932952
Si Si4 0.239166 0.348156 0.061318
Si Si5 0.135435 0.246453 0.450069
Si Si6 0.651608 0.205741 0.209835
Si Si7 0.404430 0.626622 0.779766
Si Si8 0.803450 0.160469 0.639242
O O1 0.223245 0.437604 0.103619
O O2 0.372830 0.562469 0.480403
O O3 0.500000 0.500000 0.000000
O O4 0.310735 0.586215 0.013331
O O5 0.229419 0.933887 0.476992
O O6 0.743346 0.914865 0.252483
O O7 0.249373 0.041060 0.201765
O O8 0.000000 0.000000 0.500000
O O9 0.771226 0.816349 0.746027
O O10 0.508335 0.853478 0.905295
O O11 0.124280 0.304241 0.263477
O O12 0.412817 0.353427 0.154368
O O13 0.221296 0.298805 0.736893
O O14 0.973618 0.198736 0.543201
O O15 0.639252 0.293899 0.231396
O O16 0.686837 0.194826 0.504262
O O17 0.782688 0.182490 0.974773
#
# Coordination Sequence:
#
# PCOD9094779 Si02
#       8
#     2   2   2   2   2   2   2   2
#     4  10  20  34  61 101 135 165 212 272 332 371
#     4  12  26  45  72  97 133 168 221 277 331 381
#     4  12  26  43  73  98 127 176 219 272 327 387
#     4  11  21  37  67 100 130 165 222 277 315 382
#     4  12  24  41  69  96 133 170 224 268 326 385
#     4  12  27  44  67  98 137 173 220 264 329 394
#     4  11  21  38  64  95 138 171 208 271 332 381
#     4  12  28  45  66  95 133 179 216 266 333 399
#
# _framework density 21.579314
#
# number of rings (size 3 to 8) (size 9 to 14) (size 15 to 20)
#    0.000    0.500    2.500    7.875    3.500    3.000 
#    0.000    0.000    0.000   15.000    0.000    0.000 
#    0.000    0.000    0.000    0.000    0.000    0.000 
#
# Total GULP energy -89590.712321 kJ/mol
# GULP energy per Si atom -5599.419520 kJ/mol
# Density = 2.153020 g / cm^3
# Si number density = 21.579314 Si / 1000 Ang^3
#
#
#
# Elastic Constant Matrix: (Units=GPa)
#
#
# Indices 1 2 3 4 5 6 
#
# 1 25.7779 3.9030 -12.1940 2.4985 -1.8788 1.9747
# 2 3.9030 111.5185 -17.5342 -7.9558 0.5246 -7.7255
# 3 -12.1940 -17.5342 70.6739 10.6166 8.2388 -2.0219
# 4 2.4985 -7.9558 10.6166 43.5363 4.7772 -2.9277
# 5 -1.8788 0.5246 8.2388 4.7772 27.4281 -10.9888
# 6 1.9747 -7.7255 -2.0219 -2.9277 -10.9888 28.2144
#
#
#
# Elastic Compliance Matrix: (Units=1/GPa)
#
#
# Indices 1 2 3 4 5 6 
#
# 1 0.043367 -0.000838 0.007882 -0.004796 0.000205 -0.003117
# 2 -0.000838 0.009643 0.002101 0.001493 0.000084 0.003037
# 3 0.007882 0.002101 0.017081 -0.003818 -0.004295 -0.000821
# 4 -0.004796 0.001493 -0.003818 0.024883 -0.002750 0.001982
# 5 0.000205 0.000084 -0.004295 -0.002750 0.045033 0.016955
# 6 -0.003117 0.003037 -0.000821 0.001982 0.016955 0.043243
#
#
# Mechanical properties :
#
#
# Convention : Reuss Voigt Hill
#
# Bulk Modulus (GPa) = 11.31453 17.36890 14.34171
# Shear Modulus (GPa) = 25.71728 35.42211 30.56970
#
# Velocity S-wave (km/s) = 3.45593 4.05592 3.76789
# Velocity P-wave (km/s) = 4.60209 5.47725 5.05863
#
# Compressibility (1/GPa) = 0.08838193
#
# Stress axis : x y z
#
# Youngs Moduli (GPa) = 23.05908 103.69926 58.54331
#
# Poissons Ratio (x) = 0.08686 -0.46144
# Poissons Ratio (y) = 0.01931 -0.12299
# Poissons Ratio (z) = -0.18175 -0.21785
#
# Static dielectric constant tensor:
#      x y z
#    x 1.783120 -0.008750 0.012890 
#    y -0.008750 1.813310 -0.012490 
#    z 0.012890 -0.012490 1.740230 
# 
# From -- ./inp_files/48622.got.cif
#   From: 2010.05.17/outbox.cif.g08.bks.cpg/sg2_25_cif.got.tgz:48622.got - 2010.06.03 11:33:40.
