data_PCOD9094197
_publ_section_title
;
Structure prediction by ZEFSAII (Michael W. Deem and Ramdas Pophale) SiO2 
 PCOD9094197
Probable space group: P -1
;
_chemical_formula_sum "Si O2"
_cell_formula_units_Z 16
_cell_length_a 5.145037
_cell_length_b 15.034683
_cell_length_c 12.177073
_cell_angle_alpha 127.302419
_cell_angle_beta 73.412081
_cell_angle_gamma 115.547475
_cell_volume 675.628795
_symmetry_space_group_name_H-M "P -1"
_symmetry_group_IT_number 2
_symmetry_cell_setting 'triclinic'
loop_
_space_group_symop_operation_xyz
x,y,z
-x,-y,-z
loop_
_atom_site_type_symbol
_atom_site_label
_atom_site_fract_x
_atom_site_fract_y
_atom_site_fract_z
Si Si1 0.529719 0.162644 0.194289
Si Si2 0.801252 0.178662 0.747697
Si Si3 0.140763 0.881741 0.532641
Si Si4 0.040029 0.805827 0.021635
Si Si5 0.483846 0.634406 0.035987
Si Si6 0.860562 0.017897 0.166971
Si Si7 0.527703 0.264151 0.494690
Si Si8 0.346131 0.409156 0.786637
O O1 0.184901 0.112984 0.188587
O O2 0.614324 0.260893 0.355033
O O3 0.641587 0.058265 0.149708
O O4 0.703889 0.203621 0.091904
O O5 0.865640 0.136019 0.826097
O O6 0.755342 0.091351 0.584904
O O7 0.072922 0.292926 0.759489
O O8 0.575567 0.243268 0.851196
O O9 0.231075 0.976044 0.690616
O O10 0.793186 0.834081 0.534511
O O11 0.261271 0.779070 0.485822
O O12 0.896876 0.892735 0.045405
O O13 0.806042 0.678472 0.981197
O O14 0.292655 0.533400 0.901179
O O15 0.453606 0.586537 0.128191
O O16 0.488668 0.381495 0.638859
#
# Coordination Sequence:
#
# PCOD9094197 Si02
#       8
#     2   2   2   2   2   2   2   2
#     4  10  22  39  61  81 110 152 193 227 274 331
#     4  10  20  34  56  81 119 144 181 233 282 335
#     4   9  18  35  57  83 108 143 188 227 277 327
#     4  11  24  35  53  85 115 148 184 234 278 328
#     4  10  20  34  55  82 114 144 184 231 280 336
#     4  10  22  39  61  81 109 153 193 229 272 330
#     4   9  17  35  59  82 105 143 192 231 264 331
#     4   9  18  35  57  82 107 148 188 223 285 333
#
# _framework density 23.681643999999999
#
# number of rings (size 3 to 8) (size 9 to 14) (size 15 to 20)
#    0.000    2.250    1.250    1.125    3.500    0.500 
#    0.000    1.250    0.000    0.750    0.000    0.000 
#    0.000    0.000    0.000    0.000    0.000    0.000 
#
# Total GULP energy -89363.419502 kJ/mol
# GULP energy per Si atom -5585.213719 kJ/mol
# Density = 2.362774 g / cm^3
# Si number density = 23.681644 Si / 1000 Ang^3
#
#
#
# Elastic Constant Matrix: (Units=GPa)
#
#
# Indices 1 2 3 4 5 6 
#
# 1 80.6674 12.2205 20.3426 -11.1207 -1.0665 -3.1041
# 2 12.2205 40.9466 44.4159 -10.1847 2.6007 11.7486
# 3 20.3426 44.4159 186.1678 -31.1748 -0.6702 12.8229
# 4 -11.1207 -10.1847 -31.1748 38.8512 1.1103 -2.3947
# 5 -1.0665 2.6007 -0.6702 1.1103 35.4752 -7.0880
# 6 -3.1041 11.7486 12.8229 -2.3947 -7.0880 24.7804
#
#
#
# Elastic Compliance Matrix: (Units=1/GPa)
#
#
# Indices 1 2 3 4 5 6 
#
# 1 0.013746 -0.004598 -0.000265 0.002765 0.001611 0.004767
# 2 -0.004598 0.039840 -0.007454 0.002272 -0.006730 -0.017312
# 3 -0.000265 -0.007454 0.007901 0.004293 0.000550 -0.000015
# 4 0.002765 0.002272 0.004293 0.030582 -0.001017 -0.000288
# 5 0.001611 -0.006730 0.000550 -0.001017 0.031155 0.011921
# 6 0.004767 -0.017312 -0.000015 -0.000288 0.011921 0.052549
#
#
# Mechanical properties :
#
#
# Convention : Reuss Voigt Hill
#
# Bulk Modulus (GPa) = 27.13434 51.30442 39.21938
# Shear Modulus (GPa) = 23.50853 35.20822 29.35837
#
# Velocity S-wave (km/s) = 3.15412 3.86000 3.52477
# Velocity P-wave (km/s) = 4.97468 6.44805 5.75868
#
# Compressibility (1/GPa) = 0.03685366
#
# Stress axis : x y z
#
# Youngs Moduli (GPa) = 72.75018 25.10070 126.57097
#
# Poissons Ratio (x) = 0.11540 0.03350
# Poissons Ratio (y) = 0.33448 0.94344
# Poissons Ratio (z) = 0.01925 0.18710
#
# Static dielectric constant tensor:
#      x y z
#    x 1.965680 -0.008380 -0.007880 
#    y -0.008380 1.959820 0.032220 
#    z -0.007880 0.032220 1.954290 
# 
# From -- ./inp_files/70364.got.cif
#   From: 2010.05.17/outbox.cif.g08.bks.cpg/sg2_36_cif.got.tgz:70364.got - 2010.06.03 11:33:40.
