data_PCOD9094497
_publ_section_title
;
Structure prediction by ZEFSAII (Michael W. Deem and Ramdas Pophale) SiO2 
 PCOD9094497
Probable space group: P -1
;
_chemical_formula_sum "Si O2"
_cell_formula_units_Z 16
_cell_length_a 10.495979
_cell_length_b 17.544160
_cell_length_c 9.574533
_cell_angle_alpha 116.908713
_cell_angle_beta 72.425877
_cell_angle_gamma 152.410967
_cell_volume 706.819506
_symmetry_space_group_name_H-M "P -1"
_symmetry_group_IT_number 2
_symmetry_cell_setting 'triclinic'
loop_
_space_group_symop_operation_xyz
x,y,z
-x,-y,-z
loop_
_atom_site_type_symbol
_atom_site_label
_atom_site_fract_x
_atom_site_fract_y
_atom_site_fract_z
Si Si1 0.228000 0.354940 0.292371
Si Si2 0.936587 0.156214 0.948855
Si Si3 0.882382 0.006094 0.388986
Si Si4 0.708380 0.728293 0.302486
Si Si5 0.989091 0.359673 0.939962
Si Si6 0.766951 0.545350 0.357919
Si Si7 0.467158 0.761475 0.095018
Si Si8 0.370552 0.180992 0.206090
O O1 0.413667 0.529099 0.290960
O O2 0.467881 0.421964 0.313183
O O3 0.111491 0.332421 0.452358
O O4 0.004744 0.195447 0.122916
O O5 0.201293 0.263158 0.865914
O O6 0.913024 0.237975 0.963606
O O7 0.679905 0.945185 0.835074
O O8 0.726289 0.840327 0.382360
O O9 0.654328 0.910389 0.275679
O O10 0.044910 0.156001 0.570382
O O11 0.127024 0.097550 0.293799
O O12 0.052448 0.361285 0.763934
O O13 0.740511 0.288040 0.949243
O O14 0.272264 0.573782 0.062417
O O15 0.668639 0.395357 0.315454
O O16 0.652023 0.828477 0.962510
#
# Coordination Sequence:
#
# PCOD9094497 Si02
#       8
#     2   2   2   2   2   2   2   2
#     4  11  21  35  62  90 123 153 196 249 298 344
#     4  11  23  36  62  90 120 156 194 247 302 344
#     4  10  20  35  60  91 123 150 194 246 306 344
#     4  10  20  34  57  94 121 150 189 251 300 353
#     4  10  22  42  59  87 120 160 206 236 282 367
#     4  10  22  37  60  89 124 153 195 246 296 352
#     4  10  22  38  65  82 119 164 200 238 293 352
#     4  10  22  36  60  91 119 148 194 250 298 344
#
# _framework density 22.636613000000001
#
# number of rings (size 3 to 8) (size 9 to 14) (size 15 to 20)
#    0.000    1.750    2.500    1.500    8.750    0.500 
#    0.000    0.625    8.250    3.000    0.000    0.000 
#    0.000    0.000    0.000    0.000    0.000    0.000 
#
# Total GULP energy -89427.748053 kJ/mol
# GULP energy per Si atom -5589.234253 kJ/mol
# Density = 2.258509 g / cm^3
# Si number density = 22.636613 Si / 1000 Ang^3
#
#
#
# Elastic Constant Matrix: (Units=GPa)
#
#
# Indices 1 2 3 4 5 6 
#
# 1 51.6798 22.6576 16.8373 4.0202 -3.5254 -15.5726
# 2 22.6576 77.0327 11.2621 -0.1731 1.1705 -26.5031
# 3 16.8373 11.2621 128.1272 -2.1575 -2.1876 11.7106
# 4 4.0202 -0.1731 -2.1575 23.0985 -3.7947 -2.3570
# 5 -3.5254 1.1705 -2.1876 -3.7947 20.5886 -0.5355
# 6 -15.5726 -26.5031 11.7106 -2.3570 -0.5355 26.9104
#
#
#
# Elastic Compliance Matrix: (Units=1/GPa)
#
#
# Indices 1 2 3 4 5 6 
#
# 1 0.026960 -0.001929 -0.004779 -0.002888 0.004092 0.015609
# 2 -0.001929 0.021662 -0.003638 0.002243 -0.000963 0.021978
# 3 -0.004779 -0.003638 0.009730 0.000685 0.000275 -0.010517
# 4 -0.002888 0.002243 0.000685 0.045635 0.007976 0.004395
# 5 0.004092 -0.000963 0.000275 0.007976 0.050904 0.003011
# 6 0.015609 0.021978 -0.010517 0.004395 0.003011 0.072860
#
#
# Mechanical properties :
#
#
# Convention : Reuss Voigt Hill
#
# Bulk Modulus (GPa) = 26.55345 39.81710 33.18528
# Shear Modulus (GPa) = 19.15737 27.85835 23.50786
#
# Velocity S-wave (km/s) = 2.91228 3.51191 3.22605
# Velocity P-wave (km/s) = 4.80253 5.83717 5.34494
#
# Compressibility (1/GPa) = 0.03765989
#
# Stress axis : x y z
#
# Youngs Moduli (GPa) = 37.09204 46.16351 102.77554
#
# Poissons Ratio (x) = 0.08907 0.49113
# Poissons Ratio (y) = 0.07157 0.37389
# Poissons Ratio (z) = 0.17725 0.16794
#
# Static dielectric constant tensor:
#      x y z
#    x 1.858850 -0.057910 0.006400 
#    y -0.057910 1.880040 0.005590 
#    z 0.006400 0.005590 1.860800 
# 
# From -- ./inp_files/279630.got.cif
#   From: 2010.05.17/outbox.cif.g08.bks.cpg/sg2_140_cif.got.tgz:279630.got - 2010.06.03 11:33:40.
