data_PCOD9094669
_publ_section_title
;
Structure prediction by ZEFSAII (Michael W. Deem and Ramdas Pophale) SiO2 
 PCOD9094669
Probable space group: P -1
;
_chemical_formula_sum "Si O2"
_cell_formula_units_Z 16
_cell_length_a 9.587661
_cell_length_b 15.738577
_cell_length_c 11.478276
_cell_angle_alpha 105.298929
_cell_angle_beta 53.317167
_cell_angle_gamma 140.408501
_cell_volume 817.191189
_symmetry_space_group_name_H-M "P -1"
_symmetry_group_IT_number 2
_symmetry_cell_setting 'triclinic'
loop_
_space_group_symop_operation_xyz
x,y,z
-x,-y,-z
loop_
_atom_site_type_symbol
_atom_site_label
_atom_site_fract_x
_atom_site_fract_y
_atom_site_fract_z
Si Si1 0.696938 0.465094 0.245503
Si Si2 0.866057 0.315598 0.712103
Si Si3 0.825283 0.320474 0.115532
Si Si4 0.173518 0.357023 0.365288
Si Si5 0.823075 0.671772 0.903161
Si Si6 0.558054 0.922898 0.970143
Si Si7 0.287920 0.596576 0.322486
Si Si8 0.111358 0.122065 0.903948
O O1 0.709779 0.367352 0.234122
O O2 0.396599 0.384926 0.330886
O O3 0.843844 0.573495 0.318890
O O4 0.909053 0.560566 0.063492
O O5 0.619885 0.176419 0.862813
O O6 0.786413 0.387210 0.758357
O O7 0.925129 0.288760 0.552197
O O8 0.954926 0.308033 0.143376
O O9 0.570848 0.180233 0.112426
O O10 0.091358 0.278957 0.256292
O O11 0.326019 0.509189 0.300868
O O12 0.500000 0.500000 0.000000
O O13 0.846344 0.771665 0.001303
O O14 0.500000 0.000000 0.000000
O O15 0.883672 0.041267 0.886055
O O16 0.577036 0.764456 0.267444
O O17 0.000000 0.500000 0.500000
O O18 0.000000 0.000000 0.000000
#
# Coordination Sequence:
#
# PCOD9094669 Si02
#       8
#     2   2   2   2   2   2   2   2
#     4  10  20  34  59  91 125 161 210 273 317 372
#     4  10  22  39  60  92 129 168 213 267 324 392
#     4  10  21  36  60  92 122 163 214 270 317 377
#     4  11  22  37  62  91 128 167 214 270 324 374
#     4  12  22  38  64  95 130 167 227 269 321 385
#     4  11  23  42  65  88 127 170 216 260 328 391
#     4  10  21  39  63  93 130 167 210 266 325 383
#     4  12  24  39  67  98 131 169 219 270 324 395
#
# _framework density 19.579260000000001
#
# number of rings (size 3 to 8) (size 9 to 14) (size 15 to 20)
#    0.000    1.250    5.000    1.125    3.500    0.000 
#    0.000    0.625    0.000    0.750    0.000    0.000 
#    0.000    0.000    0.000    0.000    0.000    0.000 
#
# Total GULP energy -89174.942169 kJ/mol
# GULP energy per Si atom -5573.433886 kJ/mol
# Density = 1.953470 g / cm^3
# Si number density = 19.579260 Si / 1000 Ang^3
#
#
#
# Elastic Constant Matrix: (Units=GPa)
#
#
# Indices 1 2 3 4 5 6 
#
# 1 139.1410 30.5713 24.3140 -12.3571 -13.8137 11.5796
# 2 30.5713 77.2797 33.6184 -11.1301 -14.1886 8.4917
# 3 24.3140 33.6184 62.1092 -0.9736 -3.3912 10.8909
# 4 -12.3571 -11.1301 -0.9736 26.1838 -0.9525 0.6805
# 5 -13.8137 -14.1886 -3.3912 -0.9525 28.3003 -3.7431
# 6 11.5796 8.4917 10.8909 0.6805 -3.7431 43.9511
#
#
#
# Elastic Compliance Matrix: (Units=1/GPa)
#
#
# Indices 1 2 3 4 5 6 
#
# 1 0.008593 -0.001132 -0.002294 0.003642 0.003309 -0.001251
# 2 -0.001132 0.020586 -0.009990 0.008179 0.008770 -0.000583
# 3 -0.002294 -0.009990 0.022706 -0.004543 -0.004005 -0.003363
# 4 0.003642 0.008179 -0.004543 0.043498 0.006596 -0.001526
# 5 0.003309 0.008770 -0.004005 0.006596 0.041333 0.001844
# 6 -0.001251 -0.000583 -0.003363 -0.001526 0.001844 0.024209
#
#
# Mechanical properties :
#
#
# Convention : Reuss Voigt Hill
#
# Bulk Modulus (GPa) = 39.91641 50.61524 45.26583
# Shear Modulus (GPa) = 25.49627 32.35545 28.92586
#
# Velocity S-wave (km/s) = 3.61253 4.06955 3.84783
# Velocity P-wave (km/s) = 6.15076 6.92743 6.55061
#
# Compressibility (1/GPa) = 0.02505235
#
# Stress axis : x y z
#
# Youngs Moduli (GPa) = 116.38025 48.57682 44.04117
#
# Poissons Ratio (x) = 0.05497 0.10103
# Poissons Ratio (y) = 0.13171 0.43999
# Poissons Ratio (z) = 0.26698 0.48530
#
# Static dielectric constant tensor:
#      x y z
#    x 1.501940 -0.140160 -0.121280 
#    y -0.140160 1.610430 -0.041040 
#    z -0.121280 -0.041040 1.672740 
# 
# From -- ./inp_files/257123.got.cif
#   From: 2010.05.17/outbox.cif.g08.bks.cpg/sg2_129_cif.got.tgz:257123.got - 2010.06.03 11:33:40.
