data_PCOD9094968
_publ_section_title
;
Structure prediction by ZEFSAII (Michael W. Deem and Ramdas Pophale) SiO2 
 PCOD9094968
Probable space group: P -1
;
_chemical_formula_sum "Si O2"
_cell_formula_units_Z 14
_cell_length_a 13.179276
_cell_length_b 9.315588
_cell_length_c 9.761821
_cell_angle_alpha 136.769355
_cell_angle_beta 58.514740
_cell_angle_gamma 132.941388
_cell_volume 600.127526
_symmetry_space_group_name_H-M "P -1"
_symmetry_group_IT_number 2
_symmetry_cell_setting 'triclinic'
loop_
_space_group_symop_operation_xyz
x,y,z
-x,-y,-z
loop_
_atom_site_type_symbol
_atom_site_label
_atom_site_fract_x
_atom_site_fract_y
_atom_site_fract_z
Si Si1 0.024754 0.227487 0.543310
Si Si2 0.143445 0.401240 0.832049
Si Si3 0.653858 0.073500 0.986303
Si Si4 0.230738 0.711806 0.649557
Si Si5 0.039870 0.258524 0.091348
Si Si6 0.354330 0.251940 0.448588
Si Si7 0.243877 0.803721 0.402077
O O1 0.045205 0.398943 0.779539
O O2 0.167817 0.416321 0.495468
O O3 0.895032 0.178644 0.510990
O O4 0.000000 0.000000 0.500000
O O5 0.241960 0.679943 0.996095
O O6 0.251027 0.327774 0.641946
O O7 0.055405 0.235104 0.902189
O O8 0.682734 0.144944 0.176384
O O9 0.500000 0.000000 0.000000
O O10 0.683824 0.873398 0.761969
O O11 0.295376 0.827042 0.537901
O O12 0.089269 0.716911 0.757515
O O13 0.180180 0.514130 0.210824
O O14 0.000000 0.000000 0.000000
O O15 0.500000 0.500000 0.500000
O O16 0.351228 0.040133 0.400356
#
# Coordination Sequence:
#
# PCOD9094968 Si02
#       7
#     2   2   2   2   2   2   2
#     4  10  20  34  68 100 136 175 222 269 352 406
#     4  11  23  38  68 105 136 176 228 276 347 411
#     4  11  24  48  70  95 136 180 239 289 332 405
#     4  10  25  43  67 102 143 180 227 284 353 417
#     4  11  23  39  68 106 148 182 219 282 359 417
#     4  12  24  43  74  98 131 183 240 284 336 410
#     4  11  23  44  67 102 147 180 228 287 342 421
#
# _framework density 23.328372999999999
#
# number of rings (size 3 to 8) (size 9 to 14) (size 15 to 20)
#    0.000    1.143    4.286    2.571    4.000    1.714 
#    2.571    1.429    0.000    0.000    0.000    0.000 
#    0.000    0.000    0.000    0.000    0.000    0.000 
#
# Total GULP energy -78002.585345 kJ/mol
# GULP energy per Si atom -5571.613239 kJ/mol
# Density = 2.327528 g / cm^3
# Si number density = 23.328373 Si / 1000 Ang^3
#
#
#
# Elastic Constant Matrix: (Units=GPa)
#
#
# Indices 1 2 3 4 5 6 
#
# 1 60.1840 54.9383 33.1600 1.8690 4.9367 -7.3467
# 2 54.9383 178.3157 42.8656 8.9601 22.6980 -24.4404
# 3 33.1600 42.8656 84.8022 8.7595 5.9134 -10.0337
# 4 1.8690 8.9601 8.7595 52.6687 -9.8090 3.8263
# 5 4.9367 22.6980 5.9134 -9.8090 47.7124 -1.5260
# 6 -7.3467 -24.4404 -10.0337 3.8263 -1.5260 44.5226
#
#
#
# Elastic Compliance Matrix: (Units=1/GPa)
#
#
# Indices 1 2 3 4 5 6 
#
# 1 0.026651 -0.006920 -0.007381 0.001878 0.001798 -0.001164
# 2 -0.006920 0.009062 -0.000958 -0.002109 -0.003793 0.003668
# 3 -0.007381 -0.000958 0.015745 -0.002560 -0.001195 0.001983
# 4 0.001878 -0.002109 -0.002560 0.020918 0.005330 -0.003040
# 5 0.001798 -0.003793 -0.001195 0.005330 0.023767 -0.001698
# 6 -0.001164 0.003668 0.001983 -0.003040 -0.001698 0.024932
#
#
# Mechanical properties :
#
#
# Convention : Reuss Voigt Hill
#
# Bulk Modulus (GPa) = 47.75449 65.02552 56.39001
# Shear Modulus (GPa) = 31.53146 41.80327 36.66736
#
# Velocity S-wave (km/s) = 3.68045 4.23774 3.96888
# Velocity P-wave (km/s) = 6.21095 7.20271 6.72514
#
# Compressibility (1/GPa) = 0.02094044
#
# Stress axis : x y z
#
# Youngs Moduli (GPa) = 37.52232 110.35312 63.51183
#
# Poissons Ratio (x) = 0.76359 0.46876
# Poissons Ratio (y) = 0.25964 0.06087
# Poissons Ratio (z) = 0.27694 0.10577
#
# Static dielectric constant tensor:
#      x y z
#    x 1.929670 -0.011500 0.010110 
#    y -0.011500 2.027350 0.074300 
#    z 0.010110 0.074300 2.080550 
# 
# From -- ./inp_files/296717.got.cif
#   From: 2010.05.17/outbox.cif.g08.bks.cpg/sg2_149_cif.got.tgz:296717.got - 2010.06.03 11:33:40.
