data_PCOD9094353
_publ_section_title
;
Structure prediction by ZEFSAII (Michael W. Deem and Ramdas Pophale) SiO2 
 PCOD9094353
Probable space group: P -1
;
_chemical_formula_sum "Si O2"
_cell_formula_units_Z 12
_cell_length_a 14.484252
_cell_length_b 9.444057
_cell_length_c 5.948190
_cell_angle_alpha 56.580318
_cell_angle_beta 129.862309
_cell_angle_gamma 124.813169
_cell_volume 490.212371
_symmetry_space_group_name_H-M "P -1"
_symmetry_group_IT_number 2
_symmetry_cell_setting 'triclinic'
loop_
_space_group_symop_operation_xyz
x,y,z
-x,-y,-z
loop_
_atom_site_type_symbol
_atom_site_label
_atom_site_fract_x
_atom_site_fract_y
_atom_site_fract_z
Si Si1 0.950214 0.156079 0.701901
Si Si2 0.379470 0.588316 0.489403
Si Si3 0.141368 0.264556 0.543349
Si Si4 0.082305 0.692229 0.056777
Si Si5 0.529168 0.299369 0.963650
Si Si6 0.270058 0.993297 0.860268
O O1 0.074520 0.284695 0.651415
O O2 0.909058 0.286944 0.685901
O O3 0.820419 0.048921 0.460726
O O4 0.000000 0.000000 0.000000
O O5 0.238420 0.442546 0.430080
O O6 0.470288 0.462269 0.731121
O O7 0.397537 0.676572 0.186821
O O8 0.412342 0.687669 0.701182
O O9 0.013596 0.195491 0.252708
O O10 0.219218 0.128813 0.808972
O O11 0.219380 0.800014 0.071412
O O12 0.000000 0.500000 0.000000
O O13 0.415981 0.105200 0.946166
#
# Coordination Sequence:
#
# PCOD9094353 Si02
#       6
#     2   2   2   2   2   2
#     4  11  19  33  61  82 111 153 189 239 291 345
#     4   9  19  32  53  85 117 148 190 241 289 338
#     4  10  20  34  56  87 113 149 194 236 288 350
#     4  11  23  37  55  85 117 149 191 240 293 346
#     4   9  19  32  53  85 117 148 190 241 289 338
#     4  10  20  34  56  87 113 149 194 236 288 350
#
# _framework density 24.479182999999999
#
# number of rings (size 3 to 8) (size 9 to 14) (size 15 to 20)
#    0.000    2.000    3.333    1.000    4.667    4.000 
#    0.000    0.000    0.000    2.000    0.000    0.000 
#    0.000    0.000    0.000    0.000    0.000    0.000 
#
# Total GULP energy -66843.604659 kJ/mol
# GULP energy per Si atom -5570.300388 kJ/mol
# Density = 2.442347 g / cm^3
# Si number density = 24.479183 Si / 1000 Ang^3
#
#
#
# Elastic Constant Matrix: (Units=GPa)
#
#
# Indices 1 2 3 4 5 6 
#
# 1 133.0509 73.6241 56.9790 16.5781 -41.9042 43.1636
# 2 73.6241 148.4696 47.0919 1.2950 -37.3480 28.7066
# 3 56.9790 47.0919 103.3207 13.9176 -21.2490 10.0208
# 4 16.5781 1.2950 13.9176 33.3112 -6.4470 -0.5403
# 5 -41.9042 -37.3480 -21.2490 -6.4470 46.2996 -8.2501
# 6 43.1636 28.7066 10.0208 -0.5403 -8.2501 48.7470
#
#
#
# Elastic Compliance Matrix: (Units=1/GPa)
#
#
# Indices 1 2 3 4 5 6 
#
# 1 0.019236 -0.002956 -0.005317 -0.005593 0.009554 -0.012645
# 2 -0.002956 0.010570 -0.002383 0.002940 0.004760 -0.002279
# 3 -0.005317 -0.002383 0.013733 -0.003001 -0.000278 0.003208
# 4 -0.005593 0.002940 -0.003001 0.034307 0.001506 0.004473
# 5 0.009554 0.004760 -0.000278 0.001506 0.033174 -0.005575
# 6 -0.012645 -0.002279 0.003208 0.004473 -0.005575 0.031499
#
#
# Mechanical properties :
#
#
# Convention : Reuss Voigt Hill
#
# Bulk Modulus (GPa) = 44.98999 82.24791 63.61895
# Shear Modulus (GPa) = 29.19890 39.48132 34.34011
#
# Velocity S-wave (km/s) = 3.45745 4.02039 3.74950
# Velocity P-wave (km/s) = 5.86152 7.43125 6.69256
#
# Compressibility (1/GPa) = 0.02222717
#
# Stress axis : x y z
#
# Youngs Moduli (GPa) = 51.98516 94.61148 72.81851
#
# Poissons Ratio (x) = 0.27965 0.38714
# Poissons Ratio (y) = 0.15366 0.17356
# Poissons Ratio (z) = 0.27638 0.22550
#
# Static dielectric constant tensor:
#      x y z
#    x 2.044260 -0.117440 -0.098870 
#    y -0.117440 2.029380 -0.056010 
#    z -0.098870 -0.056010 2.150250 
# 
# From -- ./inp_files/18297.got.cif
#   From: 2010.05.17/outbox.cif.g08.bks.cpg/sg2_10_cif.got.tgz:18297.got - 2010.06.03 11:33:40.
