data_PCOD9094732
_publ_section_title
;
Structure prediction by ZEFSAII (Michael W. Deem and Ramdas Pophale) SiO2 
 PCOD9094732
Probable space group: P -1
;
_chemical_formula_sum "Si O2"
_cell_formula_units_Z 14
_cell_length_a 12.583717
_cell_length_b 17.790873
_cell_length_c 7.941857
_cell_angle_alpha 112.072923
_cell_angle_beta 92.737178
_cell_angle_gamma 28.640326
_cell_volume 610.088835
_symmetry_space_group_name_H-M "P -1"
_symmetry_group_IT_number 2
_symmetry_cell_setting 'triclinic'
loop_
_space_group_symop_operation_xyz
x,y,z
-x,-y,-z
loop_
_atom_site_type_symbol
_atom_site_label
_atom_site_fract_x
_atom_site_fract_y
_atom_site_fract_z
Si Si1 0.246996 0.074855 0.606519
Si Si2 0.157658 0.683323 0.523710
Si Si3 0.093802 0.358868 0.777229
Si Si4 0.465093 0.431285 0.642827
Si Si5 0.459460 0.307594 0.116724
Si Si6 0.734155 0.202341 0.779805
Si Si7 0.797306 0.037042 0.226993
O O1 0.586964 0.849572 0.436133
O O2 0.195545 0.044448 0.718656
O O3 0.106536 0.262307 0.789001
O O4 0.113221 0.142345 0.471562
O O5 0.179877 0.651951 0.700577
O O6 0.295032 0.674044 0.491618
O O7 0.379715 0.456180 0.286731
O O8 0.840874 0.526548 0.763975
O O9 0.000000 0.500000 0.000000
O O10 0.486831 0.421057 0.837526
O O11 0.567706 0.266722 0.473317
O O12 0.686123 0.106866 0.088433
O O13 0.597300 0.220536 0.869655
O O14 0.000000 0.000000 0.500000
O O15 0.892157 0.141338 0.884892
#
# Coordination Sequence:
#
# PCOD9094732 Si02
#       7
#     2   2   2   2   2   2   2
#     4  10  21  42  67  91 125 166 210 257 320 363
#     4   9  18  36  58  89 130 162 203 248 307 378
#     4  10  24  42  67  88 120 167 214 269 310 367
#     4   9  18  32  58  93 121 167 196 238 314 374
#     4  10  22  38  58  90 128 165 209 258 312 368
#     4  10  20  34  60  89 122 165 200 247 310 374
#     4  10  20  36  61  93 126 165 201 253 314 380
#
# _framework density 22.947479000000001
#
# number of rings (size 3 to 8) (size 9 to 14) (size 15 to 20)
#    0.000    2.286    1.429    0.429    4.000    1.143 
#    0.000    2.143    0.000    0.000    0.000    0.000 
#    0.000    0.000    0.000    0.000    0.000    0.000 
#
# Total GULP energy -78158.364705 kJ/mol
# GULP energy per Si atom -5582.740336 kJ/mol
# Density = 2.289525 g / cm^3
# Si number density = 22.947479 Si / 1000 Ang^3
#
#
#
# Elastic Constant Matrix: (Units=GPa)
#
#
# Indices 1 2 3 4 5 6 
#
# 1 105.1146 62.6808 21.7419 12.4203 6.2335 3.0318
# 2 62.6808 237.4850 49.3991 -8.5461 -26.7568 0.8607
# 3 21.7419 49.3991 49.0329 19.4656 3.0472 -5.1562
# 4 12.4203 -8.5461 19.4656 31.4965 3.8563 1.4554
# 5 6.2335 -26.7568 3.0472 3.8563 38.9448 13.5009
# 6 3.0318 0.8607 -5.1562 1.4554 13.5009 35.0282
#
#
#
# Elastic Compliance Matrix: (Units=1/GPa)
#
#
# Indices 1 2 3 4 5 6 
#
# 1 0.013054 -0.004913 0.002701 -0.007554 -0.005569 0.001849
# 2 -0.004913 0.009991 -0.014073 0.012448 0.009643 -0.006126
# 3 0.002701 -0.014073 0.049514 -0.034245 -0.015747 0.014893
# 4 -0.007554 0.012448 -0.034245 0.058498 0.010524 -0.011180
# 5 -0.005569 0.009643 -0.015747 0.010524 0.039537 -0.017749
# 6 0.001849 -0.006126 0.014893 -0.011180 -0.017749 0.038037
#
#
# Mechanical properties :
#
#
# Convention : Reuss Voigt Hill
#
# Bulk Modulus (GPa) = 25.00660 73.25290 49.12975
# Shear Modulus (GPa) = 19.64392 38.28127 28.96260
#
# Velocity S-wave (km/s) = 2.92899 4.08881 3.55649
# Velocity P-wave (km/s) = 4.72859 7.36766 6.19040
#
# Compressibility (1/GPa) = 0.03998944
#
# Stress axis : x y z
#
# Youngs Moduli (GPa) = 76.60444 100.08542 20.19617
#
# Poissons Ratio (x) = 0.49174 -0.05455
# Poissons Ratio (y) = 0.37638 0.28422
# Poissons Ratio (z) = -0.20689 1.40848
#
# Static dielectric constant tensor:
#      x y z
#    x 1.853720 -0.034700 0.073380 
#    y -0.034700 1.952720 -0.034230 
#    z 0.073380 -0.034230 1.978340 
# 
# From -- ./inp_files/278120.got.cif
#   From: 2010.05.17/outbox.cif.g08.bks.cpg/sg2_140_cif.got.tgz:278120.got - 2010.06.03 11:33:40.
