data_PCOD9094508
_publ_section_title
;
Structure prediction by ZEFSAII (Michael W. Deem and Ramdas Pophale) SiO2 
 PCOD9094508
Probable space group: P -1
;
_chemical_formula_sum "Si O2"
_cell_formula_units_Z 16
_cell_length_a 20.071858
_cell_length_b 15.040256
_cell_length_c 14.379531
_cell_angle_alpha 132.655153
_cell_angle_beta 144.617825
_cell_angle_gamma 19.228129
_cell_volume 724.496611
_symmetry_space_group_name_H-M "P -1"
_symmetry_group_IT_number 2
_symmetry_cell_setting 'triclinic'
loop_
_space_group_symop_operation_xyz
x,y,z
-x,-y,-z
loop_
_atom_site_type_symbol
_atom_site_label
_atom_site_fract_x
_atom_site_fract_y
_atom_site_fract_z
Si Si1 0.887146 0.114790 0.813902
Si Si2 0.240409 0.585687 0.962584
Si Si3 0.588772 0.583882 0.565634
Si Si4 0.199017 0.891841 0.847370
Si Si5 0.132186 0.759982 0.539917
Si Si6 0.107777 0.267265 0.748071
Si Si7 0.675227 0.758145 0.166922
Si Si8 0.296214 0.258246 0.217532
O O1 0.720627 0.378061 0.870959
O O2 0.679614 0.245119 0.596247
O O3 0.154790 0.919965 0.926225
O O4 0.019033 0.883148 0.864476
O O5 0.536399 0.293061 0.030489
O O6 0.147441 0.538091 0.838884
O O7 0.620280 0.530243 0.452483
O O8 0.580522 0.734375 0.678149
O O9 0.894208 0.246673 0.718922
O O10 0.230287 0.728224 0.722894
O O11 0.929512 0.840285 0.383893
O O12 0.000000 0.000000 0.500000
O O13 0.156114 0.296443 0.730613
O O14 0.826266 0.593479 0.714430
O O15 0.391328 0.009007 0.954765
O O16 0.546467 0.920888 0.236084
O O17 0.000000 0.500000 0.000000
#
# Coordination Sequence:
#
# PCOD9094508 Si02
#       8
#     2   2   2   2   2   2   2   2
#     4  11  25  39  59  91 119 159 200 256 300 359
#     4  11  24  43  58  84 127 160 201 244 309 359
#     4  10  20  37  61  93 123 146 196 260 300 345
#     4  11  21  37  64  89 116 156 198 249 309 358
#     4   9  17  32  58  85 122 148 183 246 304 338
#     4   9  19  32  54  90 114 147 196 244 291 349
#     4  10  20  34  58  78 115 161 192 234 294 362
#     4   9  18  34  54  84 119 147 186 242 293 348
#
# _framework density 22.084299000000001
#
# number of rings (size 3 to 8) (size 9 to 14) (size 15 to 20)
#    0.000    2.000    1.250    3.750    3.500    4.000 
#    0.000    0.625    0.000    1.500    0.000    0.000 
#    0.000    0.000    0.000    0.000    0.000    0.000 
#
# Total GULP energy -89235.823029 kJ/mol
# GULP energy per Si atom -5577.238939 kJ/mol
# Density = 2.203403 g / cm^3
# Si number density = 22.084299 Si / 1000 Ang^3
#
#
#
# Elastic Constant Matrix: (Units=GPa)
#
#
# Indices 1 2 3 4 5 6 
#
# 1 82.2406 42.2739 17.9976 6.5440 27.5852 -1.0269
# 2 42.2739 90.3316 23.3563 25.1483 4.8577 3.3277
# 3 17.9976 23.3563 60.4162 16.4799 24.2092 6.0266
# 4 6.5440 25.1483 16.4799 35.9366 7.0379 6.1452
# 5 27.5852 4.8577 24.2092 7.0379 29.1048 1.0456
# 6 -1.0269 3.3277 6.0266 6.1452 1.0456 17.6884
#
#
#
# Elastic Compliance Matrix: (Units=1/GPa)
#
#
# Indices 1 2 3 4 5 6 
#
# 1 0.030317 -0.017281 0.009508 0.009138 -0.035993 0.000725
# 2 -0.017281 0.024414 -0.010260 -0.014218 0.024225 0.001407
# 3 0.009508 -0.010260 0.032127 -0.001739 -0.033390 -0.005886
# 4 0.009138 -0.014218 -0.001739 0.041415 -0.014506 -0.009733
# 5 -0.035993 0.024225 -0.033390 -0.014506 0.095562 0.004120
# 6 0.000725 0.001407 -0.005886 -0.009733 0.004120 0.061455
#
#
# Mechanical properties :
#
#
# Convention : Reuss Voigt Hill
#
# Bulk Modulus (GPa) = 19.68848 44.47156 32.08002
# Shear Modulus (GPa) = 14.78034 26.50333 20.64183
#
# Velocity S-wave (km/s) = 2.58983 3.46800 3.06058
# Velocity P-wave (km/s) = 4.22817 6.01805 5.20069
#
# Compressibility (1/GPa) = 0.05079113
#
# Stress axis : x y z
#
# Youngs Moduli (GPa) = 32.98520 40.95984 31.12663
#
# Poissons Ratio (x) = 0.70783 -0.29594
# Poissons Ratio (y) = 0.57002 0.31935
# Poissons Ratio (z) = -0.31361 0.42023
#
# Static dielectric constant tensor:
#      x y z
#    x 1.877770 -0.032480 0.006490 
#    y -0.032480 1.816040 -0.027400 
#    z 0.006490 -0.027400 1.865630 
# 
# From -- ./inp_files/578210.got.cif
#   From: 2010.05.17/outbox.cif.g08.bks.cpg/sg2_290_cif.got.tgz:578210.got - 2010.06.03 11:33:40.
