data_PCOD9094296
_publ_section_title
;
Structure prediction by ZEFSAII (Michael W. Deem and Ramdas Pophale) SiO2 
 PCOD9094296
Probable space group: P -1
;
_chemical_formula_sum "Si O2"
_cell_formula_units_Z 14
_cell_length_a 6.289407
_cell_length_b 5.078075
_cell_length_c 21.888881
_cell_angle_alpha 110.297870
_cell_angle_beta 91.189173
_cell_angle_gamma 103.173965
_cell_volume 634.596049
_symmetry_space_group_name_H-M "P -1"
_symmetry_group_IT_number 2
_symmetry_cell_setting 'triclinic'
loop_
_space_group_symop_operation_xyz
x,y,z
-x,-y,-z
loop_
_atom_site_type_symbol
_atom_site_label
_atom_site_fract_x
_atom_site_fract_y
_atom_site_fract_z
Si Si1 0.039003 0.063381 0.352554
Si Si2 0.589969 0.581145 0.699525
Si Si3 0.280824 0.832269 0.018766
Si Si4 0.775556 0.216373 0.765483
Si Si5 0.324876 0.111674 0.466134
Si Si6 0.131781 0.398631 0.084317
Si Si7 0.286565 0.554900 0.590389
O O1 0.214217 0.334035 0.342583
O O2 0.146111 0.945253 0.402509
O O3 0.848298 0.205521 0.384009
O O4 0.022094 0.835496 0.278703
O O5 0.630105 0.350800 0.728894
O O6 0.367043 0.482182 0.651623
O O7 0.627592 0.897402 0.756820
O O8 0.294660 0.601265 0.052609
O O9 0.184098 0.087715 0.067688
O O10 0.106286 0.665730 0.954201
O O11 0.500000 0.000000 0.000000
O O12 0.852017 0.425539 0.839065
O O13 0.196771 0.282820 0.523819
O O14 0.493677 0.304387 0.434799
O O15 0.500000 0.000000 0.500000
#
# Coordination Sequence:
#
# PCOD9094296 Si02
#       7
#     2   2   2   2   2   2   2
#     4   9  21  36  56  84 116 154 205 250 307 377
#     4   9  21  38  56  81 120 154 200 250 307 368
#     4  10  21  40  65  99 126 168 211 256 307 375
#     4  10  20  41  59  85 123 163 198 250 315 367
#     4  10  20  34  56  81 113 154 201 254 315 363
#     4  10  21  39  66  90 135 166 205 265 311 361
#     4  10  20  36  55  81 114 154 202 258 306 362
#
# _framework density 22.061278000000001
#
# number of rings (size 3 to 8) (size 9 to 14) (size 15 to 20)
#    0.857    1.429    0.000    2.571    0.000    1.714 
#    2.571    1.429    0.000    0.000    0.000    0.000 
#    0.000    0.000    0.000    0.000    0.000    0.000 
#
# Total GULP energy -78020.589047 kJ/mol
# GULP energy per Si atom -5572.899218 kJ/mol
# Density = 2.201107 g / cm^3
# Si number density = 22.061278 Si / 1000 Ang^3
#
#
#
# Elastic Constant Matrix: (Units=GPa)
#
#
# Indices 1 2 3 4 5 6 
#
# 1 43.3700 9.2459 48.3738 5.6689 -1.8692 -5.6784
# 2 9.2459 64.5561 11.2239 2.3763 3.0672 -15.5363
# 3 48.3738 11.2239 161.3183 34.5942 2.4321 -16.4799
# 4 5.6689 2.3763 34.5942 34.7395 0.6193 -5.6655
# 5 -1.8692 3.0672 2.4321 0.6193 12.1265 -3.7013
# 6 -5.6784 -15.5363 -16.4799 -5.6655 -3.7013 39.6912
#
#
#
# Elastic Compliance Matrix: (Units=1/GPa)
#
#
# Indices 1 2 3 4 5 6 
#
# 1 0.037274 -0.003733 -0.012380 0.006420 0.008993 0.000486
# 2 -0.003733 0.017589 0.000612 -0.000121 -0.003222 0.006287
# 3 -0.012380 0.000612 0.012213 -0.009826 -0.003457 0.001815
# 4 0.006420 -0.000121 -0.009826 0.037886 0.001778 0.002365
# 5 0.008993 -0.003222 -0.003457 0.001778 0.087402 0.006994
# 6 0.000486 0.006287 0.001815 0.002365 0.006994 0.029468
#
#
# Mechanical properties :
#
#
# Convention : Reuss Voigt Hill
#
# Bulk Modulus (GPa) = 27.71953 45.21462 36.46708
# Shear Modulus (GPa) = 18.87799 30.67149 24.77474
#
# Velocity S-wave (km/s) = 2.92842 3.73270 3.35475
# Velocity P-wave (km/s) = 4.90166 6.25435 5.61886
#
# Compressibility (1/GPa) = 0.03607565
#
# Stress axis : x y z
#
# Youngs Moduli (GPa) = 26.82858 56.85302 81.87698
#
# Poissons Ratio (x) = 0.21221 1.01365
# Poissons Ratio (y) = 0.10014 -0.05013
# Poissons Ratio (z) = 0.33214 -0.03481
#
# Static dielectric constant tensor:
#      x y z
#    x 1.850980 0.032880 0.020040 
#    y 0.032880 1.886520 0.031760 
#    z 0.020040 0.031760 1.800240 
# 
# From -- ./inp_files/580869.got.cif
#   From: 2010.05.17/outbox.cif.g08.bks.cpg/sg2_291_cif.got.tgz:580869.got - 2010.06.03 11:33:40.
