data_PCOD9094112
_publ_section_title
;
Structure prediction by ZEFSAII (Michael W. Deem and Ramdas Pophale) SiO2 
 PCOD9094112
Probable space group: P -1
;
_chemical_formula_sum "Si O2"
_cell_formula_units_Z 14
_cell_length_a 13.865447
_cell_length_b 5.211082
_cell_length_c 13.821372
_cell_angle_alpha 102.295513
_cell_angle_beta 143.606698
_cell_angle_gamma 67.257239
_cell_volume 537.575488
_symmetry_space_group_name_H-M "P -1"
_symmetry_group_IT_number 2
_symmetry_cell_setting 'triclinic'
loop_
_space_group_symop_operation_xyz
x,y,z
-x,-y,-z
loop_
_atom_site_type_symbol
_atom_site_label
_atom_site_fract_x
_atom_site_fract_y
_atom_site_fract_z
Si Si1 0.006289 0.920811 0.383000
Si Si2 0.202457 0.934830 0.044404
Si Si3 0.466601 0.223081 0.356552
Si Si4 0.781865 0.745250 0.519971
Si Si5 0.386785 0.811164 0.893758
Si Si6 0.471615 0.496791 0.759129
Si Si7 0.869649 0.348497 0.842209
O O1 0.097913 0.588420 0.399732
O O2 0.801311 0.032247 0.199606
O O3 0.000000 0.000000 0.500000
O O4 0.101612 0.102930 0.421205
O O5 0.325046 0.661524 0.063796
O O6 0.172693 0.814935 0.114934
O O7 0.330173 0.105348 0.182392
O O8 0.008420 0.119256 0.866836
O O9 0.526711 0.403829 0.341517
O O10 0.322481 0.441270 0.329660
O O11 0.647041 0.962382 0.507686
O O12 0.632292 0.710770 0.327592
O O13 0.369533 0.758320 0.762378
O O14 0.500000 0.500000 0.000000
O O15 0.500000 0.000000 0.000000
O O16 0.000000 0.500000 0.000000
#
# Coordination Sequence:
#
# PCOD9094112 Si02
#       7
#     2   2   2   2   2   2   2
#     4  12  23  38  61  79 107 142 195 235 282 342
#     4   8  15  24  46  69 110 150 180 212 276 343
#     4   9  16  28  48  79 111 143 179 226 278 336
#     4  11  20  33  57  82 103 140 188 227 275 333
#     4  12  28  42  57  81 115 149 191 242 288 326
#     4  10  20  34  54  79 110 150 187 234 282 337
#     4   8  13  24  39  72 111 151 169 216 274 338
#
# _framework density 26.042853000000001
#
# number of rings (size 3 to 8) (size 9 to 14) (size 15 to 20)
#    0.000    2.000    2.857    1.286    6.000    0.000 
#    0.000    0.000    0.000    0.000    0.000    0.000 
#    0.000    6.857    0.000    0.000    0.000    0.000 
#
# Total GULP energy -78070.099387 kJ/mol
# GULP energy per Si atom -5576.435671 kJ/mol
# Density = 2.598358 g / cm^3
# Si number density = 26.042853 Si / 1000 Ang^3
#
#
#
# Elastic Constant Matrix: (Units=GPa)
#
#
# Indices 1 2 3 4 5 6 
#
# 1 104.3624 74.9327 85.6729 -19.1467 40.8719 5.2006
# 2 74.9327 170.9750 82.7631 -38.2867 43.2939 13.7362
# 3 85.6729 82.7631 141.1749 -42.0069 62.7524 -1.1935
# 4 -19.1467 -38.2867 -42.0069 70.0729 -15.6019 28.1726
# 5 40.8719 43.2939 62.7524 -15.6019 66.4592 -9.6654
# 6 5.2006 13.7362 -1.1935 28.1726 -9.6654 54.1489
#
#
#
# Elastic Compliance Matrix: (Units=1/GPa)
#
#
# Indices 1 2 3 4 5 6 
#
# 1 0.021824 -0.004961 -0.011448 -0.004047 -0.000187 0.000982
# 2 -0.004961 0.010762 0.000013 0.006229 -0.003397 -0.006100
# 3 -0.011448 0.000013 0.022668 0.009966 -0.012888 -0.005890
# 4 -0.004047 0.006229 0.009966 0.027684 -0.006895 -0.016606
# 5 -0.000187 -0.003397 -0.012888 -0.006895 0.029295 0.009412
# 6 0.000982 -0.006100 -0.005890 -0.016606 0.009412 0.030111
#
#
# Mechanical properties :
#
#
# Convention : Reuss Voigt Hill
#
# Bulk Modulus (GPa) = 44.51989 100.36108 72.44048
# Shear Modulus (GPa) = 27.37904 49.67910 38.52907
#
# Velocity S-wave (km/s) = 3.24590 4.37234 3.85053
# Velocity P-wave (km/s) = 5.58389 8.00689 6.90254
#
# Compressibility (1/GPa) = 0.02246187
#
# Stress axis : x y z
#
# Youngs Moduli (GPa) = 45.82124 92.92324 44.11561
#
# Poissons Ratio (x) = 0.46095 0.50505
# Poissons Ratio (y) = 0.22730 -0.00059
# Poissons Ratio (z) = 0.52458 -0.00124
#
# Static dielectric constant tensor:
#      x y z
#    x 2.018580 -0.107380 -0.084530 
#    y -0.107380 2.266800 -0.057670 
#    z -0.084530 -0.057670 2.111990 
# 
# From -- ./inp_files/107477.got.cif
#   From: 2010.05.17/outbox.cif.g08.bks.cpg/sg2_54_cif.got.tgz:107477.got - 2010.06.03 11:33:40.
