data_PCOD9094242
_publ_section_title
;
Structure prediction by ZEFSAII (Michael W. Deem and Ramdas Pophale) SiO2 
 PCOD9094242
Probable space group: P -1
;
_chemical_formula_sum "Si O2"
_cell_formula_units_Z 14
_cell_length_a 18.773702
_cell_length_b 17.003638
_cell_length_c 11.168232
_cell_angle_alpha 22.461747
_cell_angle_beta 43.802034
_cell_angle_gamma 30.032339
_cell_volume 621.908084
_symmetry_space_group_name_H-M "P -1"
_symmetry_group_IT_number 2
_symmetry_cell_setting 'triclinic'
loop_
_space_group_symop_operation_xyz
x,y,z
-x,-y,-z
loop_
_atom_site_type_symbol
_atom_site_label
_atom_site_fract_x
_atom_site_fract_y
_atom_site_fract_z
Si Si1 0.506355 0.321208 0.851192
Si Si2 0.364354 0.537400 0.355337
Si Si3 0.250161 0.337141 0.636939
Si Si4 0.309627 0.346220 0.907045
Si Si5 0.821701 0.800627 0.837076
Si Si6 0.986861 0.757691 0.186901
Si Si7 0.039967 0.992648 0.596992
O O1 0.500000 0.500000 0.500000
O O2 0.527975 0.425357 0.798153
O O3 0.365815 0.370899 0.925297
O O4 0.656178 0.952436 0.159444
O O5 0.347598 0.397491 0.464870
O O6 0.400780 0.326361 0.718954
O O7 0.190517 0.898342 0.068452
O O8 0.086322 0.643639 0.346042
O O9 0.214102 0.259373 0.909888
O O10 0.131618 0.666250 0.638357
O O11 0.300727 0.113923 0.228612
O O12 0.826583 0.037363 0.515242
O O13 0.000000 0.500000 0.000000
O O14 0.000000 0.500000 0.500000
O O15 0.066794 0.763216 0.974224
O O16 0.000000 0.000000 0.500000
#
# Coordination Sequence:
#
# PCOD9094242 Si02
#       7
#     2   2   2   2   2   2   2
#     4  10  20  34  55  87 122 148 195 249 279 344
#     4   9  19  33  52  87 117 142 191 238 291 337
#     4  11  21  36  61  87 117 156 190 246 300 329
#     4   8  18  34  52  79 117 141 192 240 279 340
#     4   9  19  35  54  84 115 146 193 237 289 352
#     4  11  20  35  58  87 119 148 194 248 290 344
#     4  10  20  34  57  87 113 148 189 237 297 348
#
# _framework density 22.511364
#
# number of rings (size 3 to 8) (size 9 to 14) (size 15 to 20)
#    0.000    2.286    1.429    2.143    4.000    5.143 
#    0.000    0.000    0.000    1.714    0.000    0.000 
#    0.000    0.000    0.000    0.000    0.000    0.000 
#
# Total GULP energy -77982.216990 kJ/mol
# GULP energy per Si atom -5570.158356 kJ/mol
# Density = 2.246013 g / cm^3
# Si number density = 22.511364 Si / 1000 Ang^3
#
#
#
# Elastic Constant Matrix: (Units=GPa)
#
#
# Indices 1 2 3 4 5 6 
#
# 1 196.1739 33.5839 61.8556 15.1389 -51.5537 -39.6431
# 2 33.5839 53.7211 28.9494 -4.2559 -7.0412 -18.5139
# 3 61.8556 28.9494 96.9801 3.8220 -23.9868 -11.4805
# 4 15.1389 -4.2559 3.8220 31.3480 -3.7216 -4.2059
# 5 -51.5537 -7.0412 -23.9868 -3.7216 42.6927 -3.7652
# 6 -39.6431 -18.5139 -11.4805 -4.2059 -3.7652 38.0168
#
#
#
# Elastic Compliance Matrix: (Units=1/GPa)
#
#
# Indices 1 2 3 4 5 6 
#
# 1 0.012899 0.000002 -0.002779 -0.002246 0.015041 0.013854
# 2 0.000002 0.027040 -0.006231 0.006382 0.002597 0.012251
# 3 -0.002779 -0.006231 0.014758 -0.001027 0.003711 -0.001222
# 4 -0.002246 0.006382 -0.001027 0.034708 0.001178 0.004413
# 5 0.015041 0.002597 0.003711 0.001178 0.046211 0.022777
# 6 0.013854 0.012251 -0.001222 0.004413 0.022777 0.049092
#
#
# Mechanical properties :
#
#
# Convention : Reuss Voigt Hill
#
# Bulk Modulus (GPa) = 27.26360 66.18364 46.72362
# Shear Modulus (GPa) = 23.26097 37.24392 30.25245
#
# Velocity S-wave (km/s) = 3.21798 4.07191 3.66987
# Velocity P-wave (km/s) = 5.09358 7.18131 6.22558
#
# Compressibility (1/GPa) = 0.03667894
#
# Stress axis : x y z
#
# Youngs Moduli (GPa) = 77.52378 36.98241 67.76161
#
# Poissons Ratio (x) = -0.00006 0.18831
# Poissons Ratio (y) = -0.00012 0.42225
# Poissons Ratio (z) = 0.21544 0.23045
#
# Static dielectric constant tensor:
#      x y z
#    x 1.893550 0.057720 -0.073400 
#    y 0.057720 1.727450 -0.160280 
#    z -0.073400 -0.160280 1.890790 
# 
# From -- ./inp_files/292607.got.cif
#   From: 2010.05.17/outbox.cif.g08.bks.cpg/sg2_147_cif.got.tgz:292607.got - 2010.06.03 11:33:40.
