data_PCOD9094309
_publ_section_title
;
Structure prediction by ZEFSAII (Michael W. Deem and Ramdas Pophale) SiO2 
 PCOD9094309
Probable space group: P -1
;
_chemical_formula_sum "Si O2"
_cell_formula_units_Z 14
_cell_length_a 26.186976
_cell_length_b 9.100190
_cell_length_c 17.691212
_cell_angle_alpha 30.343090
_cell_angle_beta 158.647750
_cell_angle_gamma 137.243393
_cell_volume 717.912527
_symmetry_space_group_name_H-M "P -1"
_symmetry_group_IT_number 2
_symmetry_cell_setting 'triclinic'
loop_
_space_group_symop_operation_xyz
x,y,z
-x,-y,-z
loop_
_atom_site_type_symbol
_atom_site_label
_atom_site_fract_x
_atom_site_fract_y
_atom_site_fract_z
Si Si1 0.322515 0.741675 0.988732
Si Si2 0.923641 0.330332 0.135637
Si Si3 0.920668 0.741689 0.471360
Si Si4 0.680440 0.460741 0.618573
Si Si5 0.809976 0.853917 0.516940
Si Si6 0.675421 0.836950 0.833111
Si Si7 0.129041 0.571854 0.597825
O O1 0.499209 0.592969 0.319922
O O2 0.270800 0.450458 0.025388
O O3 0.221817 0.992884 0.800013
O O4 0.300627 0.938115 0.793436
O O5 0.957859 0.437367 0.217374
O O6 0.043102 0.378663 0.221605
O O7 0.970189 0.959673 0.384857
O O8 0.765690 0.430000 0.830153
O O9 0.880729 0.507944 0.466870
O O10 0.729621 0.689725 0.532584
O O11 0.731474 0.124080 0.794524
O O12 0.873822 0.083640 0.547081
O O13 0.500000 0.000000 0.500000
O O14 0.715077 0.663559 0.045425
O O15 0.000000 0.500000 0.500000
#
# Coordination Sequence:
#
# PCOD9094309 Si02
#       7
#     2   2   2   2   2   2   2
#     4   9  21  36  58  81 108 148 179 220 277 318
#     4  10  20  34  56  83 106 143 180 228 272 305
#     4  10  20  37  55  79 114 139 187 226 263 324
#     4  11  19  36  58  84 112 141 181 226 269 325
#     4  10  20  35  59  82 110 143 183 220 272 326
#     4   9  19  35  54  82 105 136 189 220 261 317
#     4  11  19  36  58  80 102 149 187 218 262 326
#
# _framework density 19.500982
#
# number of rings (size 3 to 8) (size 9 to 14) (size 15 to 20)
#    0.000    2.000    2.857    0.857    2.000    0.571 
#    0.000    1.429    6.286    0.000    0.000    0.000 
#    0.000    0.000    0.000    0.000    0.000    0.000 
#
# Total GULP energy -77966.305096 kJ/mol
# GULP energy per Si atom -5569.021793 kJ/mol
# Density = 1.945660 g / cm^3
# Si number density = 19.500982 Si / 1000 Ang^3
#
#
#
# Elastic Constant Matrix: (Units=GPa)
#
#
# Indices 1 2 3 4 5 6 
#
# 1 94.6759 62.8469 40.1519 3.9535 -2.1309 -24.5414
# 2 62.8469 102.2784 32.4397 6.4374 -6.2009 -18.4330
# 3 40.1519 32.4397 112.4053 28.1421 -13.5985 -20.4655
# 4 3.9535 6.4374 28.1421 33.0973 -7.3320 -11.1784
# 5 -2.1309 -6.2009 -13.5985 -7.3320 19.3631 5.9437
# 6 -24.5414 -18.4330 -20.4655 -11.1784 5.9437 38.9169
#
#
#
# Elastic Compliance Matrix: (Units=1/GPa)
#
#
# Indices 1 2 3 4 5 6 
#
# 1 0.021786 -0.010934 -0.005134 0.005532 -0.005143 0.008233
# 2 -0.010934 0.016887 -0.000280 -0.000887 0.003627 0.000147
# 3 -0.005134 -0.000280 0.014005 -0.009954 0.005312 0.000324
# 4 0.005532 -0.000887 -0.009954 0.042749 0.006733 0.009084
# 5 -0.005143 0.003627 0.005312 0.006733 0.060367 -0.006017
# 6 0.008233 0.000147 0.000324 0.009084 -0.006017 0.034656
#
#
# Mechanical properties :
#
#
# Convention : Reuss Voigt Hill
#
# Bulk Modulus (GPa) = 50.04909 64.47073 57.25991
# Shear Modulus (GPa) = 21.75728 29.87020 25.81374
#
# Velocity S-wave (km/s) = 3.34384 3.91798 3.64224
# Velocity P-wave (km/s) = 6.37408 7.32116 6.86398
#
# Compressibility (1/GPa) = 0.01998038
#
# Stress axis : x y z
#
# Youngs Moduli (GPa) = 45.90207 59.21703 71.40273
#
# Poissons Ratio (x) = 0.64749 0.36661
# Poissons Ratio (y) = 0.50190 0.02000
# Poissons Ratio (z) = 0.23568 0.01659
#
# Static dielectric constant tensor:
#      x y z
#    x 1.684090 -0.022820 0.016720 
#    y -0.022820 1.718140 0.023810 
#    z 0.016720 0.023810 1.746760 
# 
# From -- ./inp_files/174039.got.cif
#   From: 2010.05.17/outbox.cif.g08.bks.cpg/sg2_88_cif.got.tgz:174039.got - 2010.06.03 11:33:40.
