data_PCOD9094025
_publ_section_title
;
Structure prediction by ZEFSAII (Michael W. Deem and Ramdas Pophale) SiO2 
 PCOD9094025
Probable space group: P -1
;
_chemical_formula_sum "Si O2"
_cell_formula_units_Z 12
_cell_length_a 19.340150
_cell_length_b 7.956136
_cell_length_c 6.732538
_cell_angle_alpha 101.633387
_cell_angle_beta 79.971537
_cell_angle_gamma 146.978830
_cell_volume 552.920719
_symmetry_space_group_name_H-M "P -1"
_symmetry_group_IT_number 2
_symmetry_cell_setting 'triclinic'
loop_
_space_group_symop_operation_xyz
x,y,z
-x,-y,-z
loop_
_atom_site_type_symbol
_atom_site_label
_atom_site_fract_x
_atom_site_fract_y
_atom_site_fract_z
Si Si1 0.505684 0.653319 0.326098
Si Si2 0.170637 0.793329 0.053602
Si Si3 0.559833 0.834720 0.917838
Si Si4 0.233758 0.222372 0.423922
Si Si5 0.383480 0.843983 0.396320
Si Si6 0.940130 0.273683 0.291953
O O1 0.513260 0.468871 0.228649
O O2 0.371521 0.417389 0.441361
O O3 0.621921 0.976666 0.460243
O O4 0.493463 0.721922 0.134721
O O5 0.058706 0.459133 0.139089
O O6 0.302278 0.963430 0.052838
O O7 0.178749 0.989906 0.219817
O O8 0.138532 0.771787 0.837140
O O9 0.578680 0.035958 0.818160
O O10 0.264995 0.478857 0.399340
O O11 0.149740 0.042004 0.621815
O O12 0.500000 0.000000 0.500000
O O13 0.000000 0.500000 0.500000
#
# Coordination Sequence:
#
# PCOD9094025 Si02
#       6
#     2   2   2   2   2   2
#     4   9  20  34  53  77 106 141 174 212 254 304
#     4   9  19  35  57  78 101 136 175 219 258 302
#     4  10  20  34  52  79 109 138 175 211 255 309
#     4   9  19  33  54  80 105 137 173 212 261 306
#     4  10  21  34  51  78 111 144 171 206 257 309
#     4   9  18  35  57  78 100 131 178 220 259 307
#
# _framework density 21.702929999999999
#
# number of rings (size 3 to 8) (size 9 to 14) (size 15 to 20)
#    0.000    2.667    0.000    0.500    0.000   16.000 
#    0.000    0.833    0.000   10.000    0.000    0.000 
#    0.000    0.000    0.000    0.000    0.000    0.000 
#
# Total GULP energy -66905.899551 kJ/mol
# GULP energy per Si atom -5575.491629 kJ/mol
# Density = 2.165353 g / cm^3
# Si number density = 21.702930 Si / 1000 Ang^3
#
#
#
# Elastic Constant Matrix: (Units=GPa)
#
#
# Indices 1 2 3 4 5 6 
#
# 1 42.4315 28.5137 37.8637 -5.2214 13.7673 -0.1267
# 2 28.5137 131.9761 69.7844 -39.2911 4.5765 -15.0770
# 3 37.8637 69.7844 119.5716 -20.0618 33.0058 -10.8853
# 4 -5.2214 -39.2911 -20.0618 44.1378 -7.2275 9.0183
# 5 13.7673 4.5765 33.0058 -7.2275 35.1068 -3.4086
# 6 -0.1267 -15.0770 -10.8853 9.0183 -3.4086 29.6407
#
#
#
# Elastic Compliance Matrix: (Units=1/GPa)
#
#
# Indices 1 2 3 4 5 6 
#
# 1 0.035572 -0.005524 -0.006978 -0.004198 -0.008006 -0.004864
# 2 -0.005524 0.016893 -0.008951 0.011501 0.011043 0.003053
# 3 -0.006978 -0.008951 0.019627 -0.002669 -0.014932 0.001720
# 4 -0.004198 0.011501 -0.002669 0.033563 0.009147 -0.004308
# 5 -0.008006 0.011043 -0.014932 0.009147 0.046363 0.002648
# 6 -0.004864 0.003053 0.001720 -0.004308 0.002648 0.037516
#
#
# Mechanical properties :
#
#
# Convention : Reuss Voigt Hill
#
# Bulk Modulus (GPa) = 34.26046 62.92255 48.59151
# Shear Modulus (GPa) = 20.64674 32.29822 26.47248
#
# Velocity S-wave (km/s) = 3.08772 3.86190 3.49630
# Velocity P-wave (km/s) = 5.34157 6.99580 6.22389
#
# Compressibility (1/GPa) = 0.02918816
#
# Stress axis : x y z
#
# Youngs Moduli (GPa) = 28.11166 59.19535 50.94959
#
# Poissons Ratio (x) = 0.32697 0.35552
# Poissons Ratio (y) = 0.15528 0.45604
# Poissons Ratio (z) = 0.19616 0.52985
#
# Static dielectric constant tensor:
#      x y z
#    x 1.803960 -0.034620 -0.018750 
#    y -0.034620 1.866380 0.009790 
#    z -0.018750 0.009790 1.844300 
# 
# From -- ./inp_files/23160.got.cif
#   From: 2010.05.17/outbox.cif.g08.bks.cpg/sg2_12_cif.got.tgz:23160.got - 2010.06.03 11:33:40.
