data_PCOD9094927
_publ_section_title
;
Structure prediction by ZEFSAII (Michael W. Deem and Ramdas Pophale) SiO2 
 PCOD9094927
Probable space group: P -1
;
_chemical_formula_sum "Si O2"
_cell_formula_units_Z 14
_cell_length_a 5.371184
_cell_length_b 22.567682
_cell_length_c 15.082188
_cell_angle_alpha 16.122922
_cell_angle_beta 95.283744
_cell_angle_gamma 90.475612
_cell_volume 483.819063
_symmetry_space_group_name_H-M "P -1"
_symmetry_group_IT_number 2
_symmetry_cell_setting 'triclinic'
loop_
_space_group_symop_operation_xyz
x,y,z
-x,-y,-z
loop_
_atom_site_type_symbol
_atom_site_label
_atom_site_fract_x
_atom_site_fract_y
_atom_site_fract_z
Si Si1 0.931499 0.418896 0.475432
Si Si2 0.321364 0.846698 0.546131
Si Si3 0.502242 0.665253 0.987152
Si Si4 0.523151 0.190603 0.579273
Si Si5 0.044723 0.181965 0.637405
Si Si6 0.174136 0.760214 0.005675
Si Si7 0.500000 0.500000 0.500000
Si Si8 0.000000 0.500000 0.000000
O O1 0.733577 0.401714 0.569385
O O2 0.013523 0.244792 0.648722
O O3 0.761045 0.624384 0.112409
O O4 0.177154 0.500247 0.402373
O O5 0.484504 0.818669 0.681526
O O6 0.533955 0.770848 0.583076
O O7 0.154386 0.670212 0.795723
O O8 0.091172 0.073323 0.211868
O O9 0.257893 0.761510 0.905573
O O10 0.504598 0.417852 0.306867
O O11 0.345748 0.062865 0.803057
O O12 0.829186 0.066433 0.767569
O O13 0.998478 0.386260 0.269813
O O14 0.419866 0.752813 0.085350
#
# Coordination Sequence:
#
# PCOD9094927 Si02
#       8
#     2   2   2   2   2   2   1   1
#     4  10  21  39  66  91 121 173 223 279 328 395
#     4  11  22  36  63  99 142 170 218 257 336 406
#     4  10  20  37  60  95 135 172 209 260 339 409
#     4  10  20  37  57  94 131 181 210 258 319 413
#     4  10  20  34  64  90 131 176 221 254 331 401
#     4  11  22  42  63  96 125 173 223 284 327 393
#     4  10  24  44  66  86 126 170 236 280 340 372
#     4  10  20  36  60  94 138 180 198 258 322 416
#
# _framework density 28.936439
#
# number of rings (size 3 to 8) (size 9 to 14) (size 15 to 20)
#    0.000    1.714    2.857    1.286    4.000    0.571 
#   10.286    0.000    0.000   14.571    0.000    4.000 
#    0.000    0.000    0.000    0.000    0.000    0.000 
#
# Total GULP energy -77946.319092 kJ/mol
# GULP energy per Si atom -5567.594221 kJ/mol
# Density = 2.887058 g / cm^3
# Si number density = 28.936439 Si / 1000 Ang^3
#
#
#
# Elastic Constant Matrix: (Units=GPa)
#
#
# Indices 1 2 3 4 5 6 
#
# 1 116.9475 52.3548 -17.7498 -16.5673 -9.7966 -39.9061
# 2 52.3548 237.5258 45.4388 15.6002 -5.5862 -41.2232
# 3 -17.7498 45.4388 83.4197 4.2730 8.9449 -4.0556
# 4 -16.5673 15.6002 4.2730 47.8907 0.4480 -4.4725
# 5 -9.7966 -5.5862 8.9449 0.4480 22.8773 -8.6031
# 6 -39.9061 -41.2232 -4.0556 -4.4725 -8.6031 56.1783
#
#
#
# Elastic Compliance Matrix: (Units=1/GPa)
#
#
# Indices 1 2 3 4 5 6 
#
# 1 0.016063 -0.002518 0.004039 0.007033 0.008980 0.011789
# 2 -0.002518 0.006244 -0.004016 -0.002315 0.003113 0.002796
# 3 0.004039 -0.004016 0.015540 0.001401 -0.005220 0.000356
# 4 0.007033 -0.002315 0.001401 0.024460 0.003640 0.005904
# 5 0.008980 0.003113 -0.005220 0.003640 0.056782 0.017272
# 6 0.011789 0.002796 0.000356 0.005904 0.017272 0.031367
#
#
# Mechanical properties :
#
#
# Convention : Reuss Voigt Hill
#
# Bulk Modulus (GPa) = 30.43523 66.44231 48.43877
# Shear Modulus (GPa) = 30.04859 49.24587 39.64723
#
# Velocity S-wave (km/s) = 3.22597 4.12984 3.70557
# Velocity P-wave (km/s) = 4.94132 6.76403 5.92321
#
# Compressibility (1/GPa) = 0.03285666
#
# Stress axis : x y z
#
# Youngs Moduli (GPa) = 62.25671 160.15987 64.35045
#
# Poissons Ratio (x) = 0.40327 -0.25992
# Poissons Ratio (y) = 0.15676 0.25844
# Poissons Ratio (z) = -0.25147 0.64322
#
# Static dielectric constant tensor:
#      x y z
#    x 1.433560 -0.522930 -0.035010 
#    y -0.522930 1.876670 -0.379420 
#    z -0.035010 -0.379420 6.843270 
# 
# From -- ./inp_files/94666.got.cif
#   From: 2010.05.17/outbox.cif.g08.bks.cpg/sg2_48_cif.got.tgz:94666.got - 2010.06.03 11:33:40.
