data_PCOD9094086
_publ_section_title
;
Structure prediction by ZEFSAII (Michael W. Deem and Ramdas Pophale) SiO2 
 PCOD9094086
Probable space group: P -1
;
_chemical_formula_sum "Si O2"
_cell_formula_units_Z 16
_cell_length_a 21.869253
_cell_length_b 11.501860
_cell_length_c 16.180249
_cell_angle_alpha 25.637774
_cell_angle_beta 19.927913
_cell_angle_gamma 26.194110
_cell_volume 565.039791
_symmetry_space_group_name_H-M "P -1"
_symmetry_group_IT_number 2
_symmetry_cell_setting 'triclinic'
loop_
_space_group_symop_operation_xyz
x,y,z
-x,-y,-z
loop_
_atom_site_type_symbol
_atom_site_label
_atom_site_fract_x
_atom_site_fract_y
_atom_site_fract_z
Si Si1 0.035256 0.588880 0.707537
Si Si2 0.082984 0.254732 0.621443
Si Si3 0.684401 0.925882 0.238314
Si Si4 0.993091 0.113907 0.271550
Si Si5 0.642773 0.574277 0.709685
Si Si6 0.582029 0.069294 0.706111
Si Si7 0.363630 0.403445 0.630355
Si Si8 0.219542 0.353671 0.151244
O O1 0.154206 0.254793 0.788785
O O2 0.195912 0.650367 0.405538
O O3 0.013465 0.775409 0.697337
O O4 0.842846 0.612879 0.887497
O O5 0.230424 0.303186 0.469616
O O6 0.000000 0.500000 0.500000
O O7 0.889558 0.332491 0.872138
O O8 0.223054 0.998227 0.553712
O O9 0.594118 0.720108 0.435350
O O10 0.508500 0.206603 0.300287
O O11 0.813614 0.991520 0.958380
O O12 0.855971 0.400829 0.215672
O O13 0.887249 0.882258 0.545702
O O14 0.500000 0.500000 0.000000
O O15 0.426402 0.151650 0.778401
O O16 0.539517 0.361538 0.623949
O O17 0.599324 0.812022 0.913481
#
# Coordination Sequence:
#
# PCOD9094086 Si02
#       8
#     2   2   2   2   2   2   2   2
#     4  10  20  34  53  84 119 148 183 232 287 338
#     4   9  17  32  53  80 109 150 188 227 275 343
#     4  11  20  35  57  86 115 146 187 235 289 334
#     4  10  20  35  57  85 115 149 185 233 286 341
#     4  11  22  36  56  90 117 149 189 237 287 338
#     4   9  16  30  50  78 107 144 192 232 264 338
#     4   9  17  29  51  81 106 141 191 229 279 324
#     4   9  18  31  53  82 108 147 187 224 282 332
#
# _framework density 28.316590000000001
#
# number of rings (size 3 to 8) (size 9 to 14) (size 15 to 20)
#    0.000    2.250    1.250    3.750    0.000    0.000 
#    0.000    0.000    0.000    3.000  110.500   48.125 
#    0.000    0.000    0.000    0.000    0.000    0.000 
#
# Total GULP energy -89270.431315 kJ/mol
# GULP energy per Si atom -5579.401957 kJ/mol
# Density = 2.825214 g / cm^3
# Si number density = 28.316590 Si / 1000 Ang^3
#
#
#
# Elastic Constant Matrix: (Units=GPa)
#
#
# Indices 1 2 3 4 5 6 
#
# 1 171.7331 52.1688 17.4665 6.5821 13.0806 -29.8886
# 2 52.1688 135.7792 29.5829 26.5677 1.7196 -27.3112
# 3 17.4665 29.5829 67.8116 15.0306 0.8368 -2.9794
# 4 6.5821 26.5677 15.0306 35.6182 -3.7694 3.5232
# 5 13.0806 1.7196 0.8368 -3.7694 32.3416 8.3173
# 6 -29.8886 -27.3112 -2.9794 3.5232 8.3173 69.2492
#
#
#
# Elastic Compliance Matrix: (Units=1/GPa)
#
#
# Indices 1 2 3 4 5 6 
#
# 1 0.007262 -0.001984 -0.000803 -0.000170 -0.003538 0.002751
# 2 -0.001984 0.010883 -0.002434 -0.007273 -0.001561 0.003889
# 3 -0.000803 -0.002434 0.017193 -0.005327 -0.000553 -0.000229
# 4 -0.000170 -0.007273 -0.005327 0.037034 0.006408 -0.005825
# 5 -0.003538 -0.001561 -0.000553 0.006408 0.034914 -0.006686
# 6 0.002751 0.003889 -0.000229 -0.005825 -0.006686 0.018251
#
#
# Mechanical properties :
#
#
# Convention : Reuss Voigt Hill
#
# Bulk Modulus (GPa) = 40.16767 63.75115 51.95941
# Shear Modulus (GPa) = 34.65528 45.84884 40.25206
#
# Velocity S-wave (km/s) = 3.50215 4.02823 3.77437
# Velocity P-wave (km/s) = 5.52896 6.64817 6.11423
#
# Compressibility (1/GPa) = 0.02489564
#
# Stress axis : x y z
#
# Youngs Moduli (GPa) = 137.70102 91.88979 58.16337
#
# Poissons Ratio (x) = 0.18230 0.04670
# Poissons Ratio (y) = 0.27318 0.14159
# Poissons Ratio (z) = 0.11055 0.22369
#
# Static dielectric constant tensor:
#      x y z
#    x 2.319590 -0.095350 0.137600 
#    y -0.095350 2.361330 -0.144740 
#    z 0.137600 -0.144740 2.411620 
# 
# From -- ./inp_files/390751.got.cif
#   From: 2010.05.17/outbox.cif.g08.bks.cpg/sg2_196_cif.got.tgz:390751.got - 2010.06.03 11:33:40.
