data_PCOD9094289
_publ_section_title
;
Structure prediction by ZEFSAII (Michael W. Deem and Ramdas Pophale) SiO2 
 PCOD9094289
Probable space group: P -1
;
_chemical_formula_sum "Si O2"
_cell_formula_units_Z 14
_cell_length_a 5.505585
_cell_length_b 18.678933
_cell_length_c 15.267505
_cell_angle_alpha 28.345473
_cell_angle_beta 107.298223
_cell_angle_gamma 90.456649
_cell_volume 589.809884
_symmetry_space_group_name_H-M "P -1"
_symmetry_group_IT_number 2
_symmetry_cell_setting 'triclinic'
loop_
_space_group_symop_operation_xyz
x,y,z
-x,-y,-z
loop_
_atom_site_type_symbol
_atom_site_label
_atom_site_fract_x
_atom_site_fract_y
_atom_site_fract_z
Si Si1 0.384975 0.242833 0.812362
Si Si2 0.147741 0.718452 0.986089
Si Si3 0.958137 0.896716 0.187077
Si Si4 0.871363 0.465100 0.658059
Si Si5 0.797420 0.410258 0.330517
Si Si6 0.739560 0.058095 0.482385
Si Si7 0.824745 0.560148 0.007909
O O1 0.184912 0.193326 0.785982
O O2 0.185331 0.337155 0.775288
O O3 0.380604 0.392820 0.589949
O O4 0.711311 0.055799 0.053715
O O5 0.972855 0.643552 0.994410
O O6 0.483702 0.607567 0.099279
O O7 0.940535 0.934721 0.718960
O O8 0.191650 0.657216 0.157240
O O9 0.209752 0.738532 0.450026
O O10 0.000000 0.000000 0.000000
O O11 0.931152 0.580949 0.607658
O O12 0.846697 0.402816 0.239623
O O13 0.521669 0.274797 0.228222
O O14 0.500000 0.000000 0.500000
O O15 0.000000 0.000000 0.500000
O O16 0.000000 0.500000 0.000000
#
# Coordination Sequence:
#
# PCOD9094289 Si02
#       7
#     2   2   2   2   2   2   2
#     4   9  19  36  54  79 114 148 190 235 288 351
#     4  10  20  36  59  81 113 148 194 243 300 357
#     4  10  20  34  56  80 116 149 182 234 295 352
#     4   9  19  35  57  80 108 150 193 239 286 352
#     4  10  20  36  56  83 111 149 194 240 294 358
#     4  10  20  39  62  85 117 157 198 247 304 366
#     4  10  22  39  59  84 115 154 197 248 305 361
#
# _framework density 23.736463000000001
#
# number of rings (size 3 to 8) (size 9 to 14) (size 15 to 20)
#    0.000    2.286    1.429    0.857    0.000    4.000 
#    0.000    5.714    0.000    0.000    0.000    0.000 
#    0.000    0.000    0.000    0.000    0.000    0.000 
#
# Total GULP energy -78106.858578 kJ/mol
# GULP energy per Si atom -5579.061327 kJ/mol
# Density = 2.368244 g / cm^3
# Si number density = 23.736463 Si / 1000 Ang^3
#
#
#
# Elastic Constant Matrix: (Units=GPa)
#
#
# Indices 1 2 3 4 5 6 
#
# 1 67.2104 22.8782 29.6464 12.0173 -10.3776 -2.6254
# 2 22.8782 102.7046 52.8398 17.7511 -7.1657 -18.7207
# 3 29.6464 52.8398 154.9192 25.3387 -8.2601 -32.9661
# 4 12.0173 17.7511 25.3387 30.8845 -14.1936 -8.1901
# 5 -10.3776 -7.1657 -8.2601 -14.1936 39.3875 0.1352
# 6 -2.6254 -18.7207 -32.9661 -8.1901 0.1352 42.6858
#
#
#
# Elastic Compliance Matrix: (Units=1/GPa)
#
#
# Indices 1 2 3 4 5 6 
#
# 1 0.017614 -0.002424 -0.002449 -0.002873 0.002659 -0.002431
# 2 -0.002424 0.012776 -0.002766 -0.003505 -0.000167 0.002646
# 3 -0.002449 -0.002766 0.009655 -0.004298 -0.000691 0.005270
# 4 -0.002873 -0.003505 -0.004298 0.046750 0.014537 0.003890
# 5 0.002659 -0.000167 -0.000691 0.014537 0.031145 0.002248
# 6 -0.002431 0.002646 0.005270 0.003890 0.002248 0.029247
#
#
# Mechanical properties :
#
#
# Convention : Reuss Voigt Hill
#
# Bulk Modulus (GPa) = 40.38025 59.50701 49.94363
# Shear Modulus (GPa) = 29.28723 37.22287 33.25505
#
# Velocity S-wave (km/s) = 3.51643 3.96431 3.74707
# Velocity P-wave (km/s) = 5.79102 6.78813 6.30930
#
# Compressibility (1/GPa) = 0.02476458
#
# Stress axis : x y z
#
# Youngs Moduli (GPa) = 56.77406 78.26895 103.57462
#
# Poissons Ratio (x) = 0.18976 0.25369
# Poissons Ratio (y) = 0.13765 0.28653
# Poissons Ratio (z) = 0.13906 0.21652
#
# Static dielectric constant tensor:
#      x y z
#    x 1.919090 0.015680 -0.067950 
#    y 0.015680 1.889710 0.022840 
#    z -0.067950 0.022840 1.977190 
# 
# From -- ./inp_files/35439.got.cif
#   From: 2010.05.17/outbox.cif.g08.bks.cpg/sg2_18_cif.got.tgz:35439.got - 2010.06.03 11:33:40.
