data_PCOD9094144
_publ_section_title
;
Structure prediction by ZEFSAII (Michael W. Deem and Ramdas Pophale) SiO2 
 PCOD9094144
Probable space group: P -1
;
_chemical_formula_sum "Si O2"
_cell_formula_units_Z 12
_cell_length_a 14.973355
_cell_length_b 6.459356
_cell_length_c 15.205697
_cell_angle_alpha 111.017922
_cell_angle_beta 29.297167
_cell_angle_gamma 127.290818
_cell_volume 515.273475
_symmetry_space_group_name_H-M "P -1"
_symmetry_group_IT_number 2
_symmetry_cell_setting 'triclinic'
loop_
_space_group_symop_operation_xyz
x,y,z
-x,-y,-z
loop_
_atom_site_type_symbol
_atom_site_label
_atom_site_fract_x
_atom_site_fract_y
_atom_site_fract_z
Si Si1 0.286906 0.340208 0.048349
Si Si2 0.789435 0.918305 0.732165
Si Si3 0.227427 0.838656 0.936833
Si Si4 0.009404 0.519201 0.260341
Si Si5 0.752819 0.576296 0.223927
Si Si6 0.556614 0.289343 0.530354
O O1 0.224162 0.226675 0.185562
O O2 0.062797 0.305068 0.200326
O O3 0.524230 0.673611 0.885729
O O4 0.335978 0.150981 0.925744
O O5 0.848616 0.217084 0.752835
O O6 0.000000 0.000000 0.500000
O O7 0.366605 0.737613 0.762562
O O8 0.106616 0.642713 0.098058
O O9 0.033685 0.752441 0.015870
O O10 0.738635 0.393799 0.469347
O O11 0.687356 0.525994 0.375663
O O12 0.668218 0.726086 0.268110
O O13 0.500000 0.000000 0.500000
#
# Coordination Sequence:
#
# PCOD9094144 Si02
#       6
#     2   2   2   2   2   2
#     4  10  21  41  63  86 120 155 195 247 301 354
#     4  10  23  41  61  88 117 153 199 247 301 356
#     4   9  19  36  58  83 115 158 196 239 295 345
#     4  10  21  37  58  85 119 154 194 248 297 348
#     4   9  19  35  54  82 119 152 194 241 282 345
#     4  10  20  34  54  83 117 154 194 238 289 348
#
# _framework density 23.288602999999998
#
# number of rings (size 3 to 8) (size 9 to 14) (size 15 to 20)
#    0.000    2.333    0.000    1.500    0.000    6.000 
#    0.000    5.000    0.000    0.000    0.000    0.000 
#    0.000    0.000    0.000    0.000    0.000    0.000 
#
# Total GULP energy -66975.961881 kJ/mol
# GULP energy per Si atom -5581.330157 kJ/mol
# Density = 2.323560 g / cm^3
# Si number density = 23.288603 Si / 1000 Ang^3
#
#
#
# Elastic Constant Matrix: (Units=GPa)
#
#
# Indices 1 2 3 4 5 6 
#
# 1 71.1376 36.8449 31.7405 12.6701 -20.1821 -6.4536
# 2 36.8449 105.1535 28.8843 16.6857 -13.4180 1.1179
# 3 31.7405 28.8843 84.7578 12.7763 10.6748 -14.7717
# 4 12.6701 16.6857 12.7763 34.5572 -11.8838 -1.1297
# 5 -20.1821 -13.4180 10.6748 -11.8838 39.5237 8.3632
# 6 -6.4536 1.1179 -14.7717 -1.1297 8.3632 36.5512
#
#
#
# Elastic Compliance Matrix: (Units=1/GPa)
#
#
# Indices 1 2 3 4 5 6 
#
# 1 0.024599 -0.004015 -0.010667 0.002049 0.015395 -0.003304
# 2 -0.004015 0.012674 -0.003419 -0.002409 0.003144 -0.003272
# 3 -0.010667 -0.003419 0.022331 -0.008344 -0.017472 0.010986
# 4 0.002049 -0.002409 -0.008344 0.037358 0.014809 -0.005170
# 5 0.015395 0.003144 -0.017472 0.014809 0.046495 -0.014620
# 6 -0.003304 -0.003272 0.010986 -0.005170 -0.014620 0.034501
#
#
# Mechanical properties :
#
#
# Convention : Reuss Voigt Hill
#
# Bulk Modulus (GPa) = 42.73054 50.66536 46.69795
# Shear Modulus (GPa) = 22.52656 33.03171 27.77914
#
# Velocity S-wave (km/s) = 3.11348 3.77020 3.45747
# Velocity P-wave (km/s) = 5.59581 6.38398 6.00285
#
# Compressibility (1/GPa) = 0.02340247
#
# Stress axis : x y z
#
# Youngs Moduli (GPa) = 40.65186 78.90184 44.78056
#
# Poissons Ratio (x) = 0.31677 0.47770
# Poissons Ratio (y) = 0.16321 0.15309
# Poissons Ratio (z) = 0.43365 0.26974
#
# Static dielectric constant tensor:
#      x y z
#    x 1.872980 0.024520 -0.036670 
#    y 0.024520 1.893040 -0.021270 
#    z -0.036670 -0.021270 2.023020 
# 
# From -- ./inp_files/44500.got.cif
#   From: 2010.05.17/outbox.cif.g08.bks.cpg/sg2_23_cif.got.tgz:44500.got - 2010.06.03 11:33:40.
