data_PCOD9094266
_publ_section_title
;
Structure prediction by ZEFSAII (Michael W. Deem and Ramdas Pophale) SiO2 
 PCOD9094266
Probable space group: P -1
;
_chemical_formula_sum "Si O2"
_cell_formula_units_Z 12
_cell_length_a 5.137469
_cell_length_b 17.552955
_cell_length_c 10.835137
_cell_angle_alpha 32.183829
_cell_angle_beta 100.079203
_cell_angle_gamma 113.075461
_cell_volume 453.649670
_symmetry_space_group_name_H-M "P -1"
_symmetry_group_IT_number 2
_symmetry_cell_setting 'triclinic'
loop_
_space_group_symop_operation_xyz
x,y,z
-x,-y,-z
loop_
_atom_site_type_symbol
_atom_site_label
_atom_site_fract_x
_atom_site_fract_y
_atom_site_fract_z
Si Si1 0.148029 0.887734 0.137378
Si Si2 0.823048 0.404494 0.407660
Si Si3 0.399824 0.636749 0.298284
Si Si4 0.772014 0.127737 0.105616
Si Si5 0.788264 0.683355 0.895625
Si Si6 0.611719 0.153377 0.395952
O O1 0.089766 0.735179 0.428126
O O2 0.059395 0.822312 0.079310
O O3 0.500000 0.000000 0.000000
O O4 0.000000 0.000000 0.000000
O O5 0.585644 0.325422 0.606171
O O6 0.092362 0.538316 0.328214
O O7 0.730510 0.501132 0.169177
O O8 0.500000 0.500000 0.500000
O O9 0.474400 0.806801 0.007285
O O10 0.018491 0.209892 0.118337
O O11 0.578146 0.938635 0.373774
O O12 0.504959 0.716253 0.822770
O O13 0.030306 0.758248 0.702791
O O14 0.500000 0.000000 0.500000
#
# Coordination Sequence:
#
# PCOD9094266 Si02
#       6
#     2   2   2   2   2   2
#     4  11  26  41  59  83 114 162 204 239 283 332
#     4   9  21  36  53  86 113 148 192 245 288 349
#     4   9  18  32  57  86 111 150 181 237 311 346
#     4   9  20  38  56  87 120 151 187 243 283 352
#     4  10  21  35  61  90 117 147 183 237 304 353
#     4  10  20  34  55  92 120 149 181 227 303 361
#
# _framework density 26.452127999999998
#
# number of rings (size 3 to 8) (size 9 to 14) (size 15 to 20)
#    0.000    2.333    0.000    3.000   11.667    4.000 
#    3.000    0.000    0.000    6.000    0.000    0.000 
#    0.000    0.000    0.000    0.000    0.000    0.000 
#
# Total GULP energy -66932.866642 kJ/mol
# GULP energy per Si atom -5577.738887 kJ/mol
# Density = 2.639192 g / cm^3
# Si number density = 26.452128 Si / 1000 Ang^3
#
#
#
# Elastic Constant Matrix: (Units=GPa)
#
#
# Indices 1 2 3 4 5 6 
#
# 1 112.1063 2.9119 27.0718 -16.4082 47.7680 -13.8926
# 2 2.9119 51.4125 3.7756 -6.2380 4.9122 -5.8503
# 3 27.0718 3.7756 162.2746 -15.6697 37.5467 -22.7326
# 4 -16.4082 -6.2380 -15.6697 29.6836 -7.4971 -3.3953
# 5 47.7680 4.9122 37.5467 -7.4971 41.3250 -9.2903
# 6 -13.8926 -5.8503 -22.7326 -3.3953 -9.2903 29.7526
#
#
#
# Elastic Compliance Matrix: (Units=1/GPa)
#
#
# Indices 1 2 3 4 5 6 
#
# 1 0.020314 0.002632 0.003887 0.008399 -0.024382 0.006318
# 2 0.002632 0.021037 0.001529 0.006217 -0.004491 0.005841
# 3 0.003887 0.001529 0.009418 0.005477 -0.010760 0.006577
# 4 0.008399 0.006217 0.005477 0.042768 -0.004807 0.012708
# 5 -0.024382 -0.004491 -0.010760 -0.004807 0.061401 -0.001866
# 6 0.006318 0.005841 0.006577 0.012708 -0.001866 0.043602
#
#
# Mechanical properties :
#
#
# Convention : Reuss Voigt Hill
#
# Bulk Modulus (GPa) = 14.95526 43.70131 29.32829
# Shear Modulus (GPa) = 24.42204 39.62121 32.02163
#
# Velocity S-wave (km/s) = 3.04181 3.87440 3.48307
# Velocity P-wave (km/s) = 4.24297 6.04743 5.22370
#
# Compressibility (1/GPa) = 0.06686609
#
# Stress axis : x y z
#
# Youngs Moduli (GPa) = 49.22600 47.53486 106.17825
#
# Poissons Ratio (x) = -0.12509 -0.41276
# Poissons Ratio (y) = -0.12954 -0.16236
# Poissons Ratio (z) = -0.19136 -0.07269
#
# Static dielectric constant tensor:
#      x y z
#    x 2.303940 0.014220 -0.042570 
#    y 0.014220 2.195100 0.022550 
#    z -0.042570 0.022550 2.156420 
# 
# From -- ./inp_files/23030.got.cif
#   From: 2010.05.17/outbox.cif.g08.bks.cpg/sg2_12_cif.got.tgz:23030.got - 2010.06.03 11:33:40.
