data_PCOD9094734
_publ_section_title
;
Structure prediction by ZEFSAII (Michael W. Deem and Ramdas Pophale) SiO2 
 PCOD9094734
Probable space group: P -1
;
_chemical_formula_sum "Si O2"
_cell_formula_units_Z 16
_cell_length_a 19.034529
_cell_length_b 8.113867
_cell_length_c 7.774902
_cell_angle_alpha 109.251857
_cell_angle_beta 133.464607
_cell_angle_gamma 49.586841
_cell_volume 648.725350
_symmetry_space_group_name_H-M "P -1"
_symmetry_group_IT_number 2
_symmetry_cell_setting 'triclinic'
loop_
_space_group_symop_operation_xyz
x,y,z
-x,-y,-z
loop_
_atom_site_type_symbol
_atom_site_label
_atom_site_fract_x
_atom_site_fract_y
_atom_site_fract_z
Si Si1 0.308013 0.944684 0.809913
Si Si2 0.831637 0.779528 0.684692
Si Si3 0.928588 0.983086 0.523908
Si Si4 0.168455 0.603221 0.898519
Si Si5 0.409755 0.172861 0.056158
Si Si6 0.700633 0.197340 0.811616
Si Si7 0.098674 0.644020 0.169037
Si Si8 0.525279 0.405153 0.290948
O O1 0.236604 0.099273 0.568176
O O2 0.198052 0.967357 0.725218
O O3 0.373568 0.034533 0.044130
O O4 0.411339 0.707479 0.820123
O O5 0.854283 0.550699 0.681215
O O6 0.748625 0.955502 0.757155
O O7 0.961725 0.734566 0.913764
O O8 0.027594 0.726653 0.656173
O O9 0.902241 0.159219 0.686397
O O10 0.000000 0.000000 0.500000
O O11 0.272168 0.404382 0.885262
O O12 0.190481 0.785767 0.981028
O O13 0.179250 0.543825 0.096881
O O14 0.481898 0.268535 0.257079
O O15 0.500000 0.000000 0.000000
O O16 0.631078 0.349436 0.576267
O O17 0.593393 0.340768 0.820128
#
# Coordination Sequence:
#
# PCOD9094734 Si02
#       8
#     2   2   2   2   2   2   2   2
#     4  10  20  38  62  87 126 167 204 247 314 366
#     4  10  20  34  60  89 124 163 200 261 300 364
#     4  12  26  40  61  94 129 164 201 253 311 377
#     4  11  21  39  66  89 123 169 203 252 309 369
#     4   9  20  37  63  93 122 160 208 255 307 364
#     4   9  16  33  61  89 116 154 210 247 307 356
#     4  11  22  38  58  91 127 156 211 250 305 370
#     4   8  16  32  62  91 111 162 208 254 295 365
#
# _framework density 24.66375
#
# number of rings (size 3 to 8) (size 9 to 14) (size 15 to 20)
#    0.000    2.000    2.500    1.875    1.750    2.500 
#    0.000    0.000    2.750   28.500    0.000    0.000 
#    0.000    0.000    0.000    0.000    0.000    0.000 
#
# Total GULP energy -89245.554257 kJ/mol
# GULP energy per Si atom -5577.847141 kJ/mol
# Density = 2.460761 g / cm^3
# Si number density = 24.663750 Si / 1000 Ang^3
#
#
#
# Elastic Constant Matrix: (Units=GPa)
#
#
# Indices 1 2 3 4 5 6 
#
# 1 121.8369 20.3469 25.0431 -3.3377 15.5237 -5.9279
# 2 20.3469 109.9765 17.6336 -9.9124 8.9531 -21.5680
# 3 25.0431 17.6336 66.4810 -11.1494 17.6886 -4.2924
# 4 -3.3377 -9.9124 -11.1494 37.8935 0.0508 3.3662
# 5 15.5237 8.9531 17.6886 0.0508 42.2884 -5.2098
# 6 -5.9279 -21.5680 -4.2924 3.3662 -5.2098 32.6281
#
#
#
# Elastic Compliance Matrix: (Units=1/GPa)
#
#
# Indices 1 2 3 4 5 6 
#
# 1 0.009199 -0.001073 -0.002678 -0.000284 -0.001989 0.000321
# 2 -0.001073 0.011056 -0.001701 0.001707 -0.000418 0.006646
# 3 -0.002678 -0.001701 0.019088 0.005006 -0.006732 -0.000692
# 4 -0.000284 0.001707 0.005006 0.028431 -0.002583 -0.001610
# 5 -0.001989 -0.000418 -0.006732 -0.002583 0.027675 0.003162
# 6 0.000321 0.006646 -0.000692 -0.001610 0.003162 0.035680
#
#
# Mechanical properties :
#
#
# Convention : Reuss Voigt Hill
#
# Bulk Modulus (GPa) = 35.16553 47.14907 41.15730
# Shear Modulus (GPa) = 33.00067 38.24673 35.62370
#
# Velocity S-wave (km/s) = 3.66187 3.94220 3.80462
# Velocity P-wave (km/s) = 5.67168 6.31502 6.00198
#
# Compressibility (1/GPa) = 0.02843694
#
# Stress axis : x y z
#
# Youngs Moduli (GPa) = 108.71102 90.45231 52.38873
#
# Poissons Ratio (x) = 0.09707 0.14030
# Poissons Ratio (y) = 0.11666 0.08914
# Poissons Ratio (z) = 0.29114 0.15390
#
# Static dielectric constant tensor:
#      x y z
#    x 1.987120 0.026660 -0.051510 
#    y 0.026660 1.964410 -0.008830 
#    z -0.051510 -0.008830 1.979190 
# 
# From -- ./inp_files/294927.got.cif
#   From: 2010.05.17/outbox.cif.g08.bks.cpg/sg2_148_cif.got.tgz:294927.got - 2010.06.03 11:33:40.
