data_PCOD9094448
_publ_section_title
;
Structure prediction by ZEFSAII (Michael W. Deem and Ramdas Pophale) SiO2 
 PCOD9094448
Probable space group: P -1
;
_chemical_formula_sum "Si O2"
_cell_formula_units_Z 16
_cell_length_a 6.711051
_cell_length_b 15.571971
_cell_length_c 12.159860
_cell_angle_alpha 46.883029
_cell_angle_beta 81.249814
_cell_angle_gamma 64.111710
_cell_volume 813.543047
_symmetry_space_group_name_H-M "P -1"
_symmetry_group_IT_number 2
_symmetry_cell_setting 'triclinic'
loop_
_space_group_symop_operation_xyz
x,y,z
-x,-y,-z
loop_
_atom_site_type_symbol
_atom_site_label
_atom_site_fract_x
_atom_site_fract_y
_atom_site_fract_z
Si Si1 0.615197 0.882075 0.968355
Si Si2 0.541195 0.159303 0.764739
Si Si3 0.740501 0.912161 0.699324
Si Si4 0.729096 0.834373 0.529606
Si Si5 0.016424 0.011532 0.726873
Si Si6 0.251906 0.584833 0.393409
Si Si7 0.920723 0.139225 0.948412
Si Si8 0.168986 0.385612 0.456412
O O1 0.673532 0.849050 0.864866
O O2 0.489598 0.830584 0.109206
O O3 0.854041 0.852276 0.033223
O O4 0.524420 0.958030 0.157044
O O5 0.781931 0.107064 0.727724
O O6 0.799845 0.268997 0.769438
O O7 0.358393 0.290199 0.610020
O O8 0.782947 0.827371 0.660270
O O9 0.531844 0.056625 0.562815
O O10 0.942749 0.942591 0.696546
O O11 0.782520 0.696304 0.588223
O O12 0.870737 0.900585 0.401437
O O13 0.171225 0.894454 0.900895
O O14 0.500000 0.500000 0.500000
O O15 0.199987 0.516818 0.350567
O O16 0.071074 0.591289 0.494433
O O17 0.000000 0.000000 0.000000
#
# Coordination Sequence:
#
# PCOD9094448 Si02
#       8
#     2   2   2   2   2   2   2   2
#     4   9  17  32  56  83 124 151 194 245 293 353
#     4   9  17  32  55  85 115 159 184 241 301 350
#     4   9  20  36  53  91 123 160 200 255 292 340
#     4  11  20  35  60  87 126 158 204 245 297 358
#     4  10  21  32  57  92 121 153 199 249 300 347
#     4  11  26  40  55  87 127 158 198 242 305 368
#     4  10  20  34  57  86 115 153 196 241 296 358
#     4  11  22  39  56  83 123 163 195 237 307 363
#
# _framework density 19.667061
#
# number of rings (size 3 to 8) (size 9 to 14) (size 15 to 20)
#    0.000    2.250    3.750    1.125    5.250    1.000 
#    0.000    0.000    0.000    3.000    0.000    7.000 
#    0.000    0.000    0.000    0.000    0.000    0.000 
#
# Total GULP energy -89210.246743 kJ/mol
# GULP energy per Si atom -5575.640421 kJ/mol
# Density = 1.962230 g / cm^3
# Si number density = 19.667061 Si / 1000 Ang^3
#
#
#
# Elastic Constant Matrix: (Units=GPa)
#
#
# Indices 1 2 3 4 5 6 
#
# 1 64.7482 35.6899 32.3600 -2.5434 1.4115 11.2337
# 2 35.6899 125.5752 46.6993 14.4707 3.3463 30.1938
# 3 32.3600 46.6993 93.5816 7.9056 6.4526 13.5425
# 4 -2.5434 14.4707 7.9056 38.7011 5.8182 8.7332
# 5 1.4115 3.3463 6.4526 5.8182 35.7964 -2.8430
# 6 11.2337 30.1938 13.5425 8.7332 -2.8430 35.4644
#
#
#
# Elastic Compliance Matrix: (Units=1/GPa)
#
#
# Indices 1 2 3 4 5 6 
#
# 1 0.020823 -0.003887 -0.005261 0.004509 -0.000435 -0.002423
# 2 -0.003887 0.012487 -0.003559 -0.002421 -0.000574 -0.007491
# 3 -0.005261 -0.003559 0.014640 -0.001572 -0.001896 -0.000659
# 4 0.004509 -0.002421 -0.001572 0.029566 -0.004986 -0.006447
# 5 -0.000435 -0.000574 -0.001896 -0.004986 0.029551 0.004947
# 6 -0.002423 -0.007491 -0.000659 -0.006447 0.004947 0.037578
#
#
# Mechanical properties :
#
#
# Convention : Reuss Voigt Hill
#
# Bulk Modulus (GPa) = 44.37407 57.04482 50.70944
# Shear Modulus (GPa) = 28.15750 33.26946 30.71348
#
# Velocity S-wave (km/s) = 3.78790 4.11741 3.95609
# Velocity P-wave (km/s) = 6.46084 7.18834 6.83428
#
# Compressibility (1/GPa) = 0.02253568
#
# Stress axis : x y z
#
# Youngs Moduli (GPa) = 48.02281 80.08291 68.30595
#
# Poissons Ratio (x) = 0.31130 0.35937
# Poissons Ratio (y) = 0.18667 0.24311
# Poissons Ratio (z) = 0.25266 0.28502
#
# Static dielectric constant tensor:
#      x y z
#    x 1.836150 0.024610 0.029550 
#    y 0.024610 1.705610 0.026150 
#    z 0.029550 0.026150 1.722850 
# 
# From -- ./inp_files/73950.got.cif
#   From: 2010.05.17/outbox.cif.g08.bks.cpg/sg2_37_cif.got.tgz:73950.got - 2010.06.03 11:33:40.
