data_PCOD9094346
_publ_section_title
;
Structure prediction by ZEFSAII (Michael W. Deem and Ramdas Pophale) SiO2 
 PCOD9094346
Probable space group: P -1
;
_chemical_formula_sum "Si O2"
_cell_formula_units_Z 16
_cell_length_a 11.850442
_cell_length_b 7.008860
_cell_length_c 10.161791
_cell_angle_alpha 136.855700
_cell_angle_beta 87.587837
_cell_angle_gamma 96.873794
_cell_volume 571.750304
_symmetry_space_group_name_H-M "P -1"
_symmetry_group_IT_number 2
_symmetry_cell_setting 'triclinic'
loop_
_space_group_symop_operation_xyz
x,y,z
-x,-y,-z
loop_
_atom_site_type_symbol
_atom_site_label
_atom_site_fract_x
_atom_site_fract_y
_atom_site_fract_z
Si Si1 0.263895 0.445629 0.818640
Si Si2 0.806449 0.149606 0.768604
Si Si3 0.937076 0.739935 0.458528
Si Si4 0.501352 0.731013 0.958646
Si Si5 0.342143 0.602806 0.490829
Si Si6 0.570351 0.919560 0.628519
Si Si7 0.125389 0.401525 0.223744
Si Si8 0.257717 0.084368 0.891958
O O1 0.173912 0.382723 0.677906
O O2 0.398226 0.495631 0.803429
O O3 0.237450 0.204507 0.808727
O O4 0.238345 0.731678 0.035732
O O5 0.870835 0.407363 0.813764
O O6 0.886932 0.909103 0.665559
O O7 0.695002 0.037988 0.629702
O O8 0.014566 0.493695 0.346123
O O9 0.000000 0.000000 0.500000
O O10 0.634546 0.704774 0.949166
O O11 0.500000 0.000000 0.000000
O O12 0.468349 0.828457 0.154755
O O13 0.450296 0.784261 0.505422
O O14 0.391551 0.325887 0.401487
O O15 0.230995 0.520579 0.369748
O O16 0.304782 0.792640 0.709528
O O17 0.154214 0.110377 0.010047
#
# Coordination Sequence:
#
# PCOD9094346 Si02
#       8
#     2   2   2   2   2   2   2   2
#     4  10  21  37  59  85 115 147 185 233 280 330
#     4   9  20  37  57  81 110 145 188 233 276 331
#     4  10  21  36  57  84 112 149 192 230 276 327
#     4  10  20  36  60  87 116 147 183 230 284 341
#     4  10  20  36  56  81 116 146 180 234 282 331
#     4   9  20  37  56  82 112 148 187 223 285 346
#     4  10  21  35  55  83 109 142 190 232 272 330
#     4  10  20  34  56  86 114 145 184 230 286 335
#
# _framework density 27.984244
#
# number of rings (size 3 to 8) (size 9 to 14) (size 15 to 20)
#    0.000    2.250    0.000    2.625    0.000   11.000 
#    0.000    0.625    0.000   12.000    0.000    0.000 
#    0.000    0.000    0.000    0.000    0.000    0.000 
#
# Total GULP energy -89538.432336 kJ/mol
# GULP energy per Si atom -5596.152021 kJ/mol
# Density = 2.792055 g / cm^3
# Si number density = 27.984244 Si / 1000 Ang^3
#
#
#
# Elastic Constant Matrix: (Units=GPa)
#
#
# Indices 1 2 3 4 5 6 
#
# 1 120.8611 5.3714 71.8030 3.3716 -34.7144 -21.8416
# 2 5.3714 72.3551 -5.4682 15.4103 -0.0334 -2.1330
# 3 71.8030 -5.4682 130.2308 14.9814 -30.0940 -6.3168
# 4 3.3716 15.4103 14.9814 26.1327 0.4517 -2.5691
# 5 -34.7144 -0.0334 -30.0940 0.4517 55.2735 2.0868
# 6 -21.8416 -2.1330 -6.3168 -2.5691 2.0868 46.8117
#
#
#
# Elastic Compliance Matrix: (Units=1/GPa)
#
#
# Indices 1 2 3 4 5 6 
#
# 1 0.015352 -0.002444 -0.007551 0.004292 0.005266 0.006033
# 2 -0.002444 0.016717 0.003466 -0.011594 0.000478 -0.000569
# 3 -0.007551 0.003466 0.013581 -0.009116 0.002810 -0.002158
# 4 0.004292 -0.011594 -0.009116 0.050131 -0.002802 0.003120
# 5 0.005266 0.000478 0.002810 -0.002802 0.022889 0.001684
# 6 0.006033 -0.000569 -0.002158 0.003120 0.001684 0.023956
#
#
# Mechanical properties :
#
#
# Convention : Reuss Voigt Hill
#
# Bulk Modulus (GPa) = 30.68274 51.87327 41.27800
# Shear Modulus (GPa) = 30.02162 42.42630 36.22396
#
# Velocity S-wave (km/s) = 3.27892 3.89791 3.60174
# Velocity P-wave (km/s) = 5.03222 6.23178 5.66385
#
# Compressibility (1/GPa) = 0.03259162
#
# Stress axis : x y z
#
# Youngs Moduli (GPa) = 65.13909 59.81989 73.63349
#
# Poissons Ratio (x) = 0.14620 0.55601
# Poissons Ratio (y) = 0.15920 -0.25523
# Poissons Ratio (z) = 0.49186 -0.20735
#
# Static dielectric constant tensor:
#      x y z
#    x 2.164370 0.060210 -0.048240 
#    y 0.060210 2.217500 0.012740 
#    z -0.048240 0.012740 2.252000 
# 
# From -- ./inp_files/342657.got.cif
#   From: 2010.05.17/outbox.cif.g08.bks.cpg/sg2_172_cif.got.tgz:342657.got - 2010.06.03 11:33:40.
