data_PCOD9094633
_publ_section_title
;
Structure prediction by ZEFSAII (Michael W. Deem and Ramdas Pophale) SiO2 
 PCOD9094633
Probable space group: P -1
;
_chemical_formula_sum "Si O2"
_cell_formula_units_Z 14
_cell_length_a 17.950483
_cell_length_b 5.505100
_cell_length_c 8.712539
_cell_angle_alpha 92.097864
_cell_angle_beta 138.018638
_cell_angle_gamma 79.393308
_cell_volume 559.435551
_symmetry_space_group_name_H-M "P -1"
_symmetry_group_IT_number 2
_symmetry_cell_setting 'triclinic'
loop_
_space_group_symop_operation_xyz
x,y,z
-x,-y,-z
loop_
_atom_site_type_symbol
_atom_site_label
_atom_site_fract_x
_atom_site_fract_y
_atom_site_fract_z
Si Si1 0.981426 0.698378 0.789047
Si Si2 0.206543 0.515863 0.468002
Si Si3 0.846700 0.777721 0.091689
Si Si4 0.321079 0.512051 0.058610
Si Si5 0.154073 0.907946 0.642601
Si Si6 0.779438 0.192899 0.790382
Si Si7 0.443662 0.281559 0.971708
O O1 0.889814 0.609751 0.756590
O O2 0.060689 0.459435 0.823814
O O3 0.892906 0.865289 0.538645
O O4 0.081065 0.831013 0.998858
O O5 0.139888 0.681725 0.508264
O O6 0.250385 0.699628 0.421326
O O7 0.316911 0.333968 0.703858
O O8 0.896416 0.981263 0.267847
O O9 0.767625 0.667761 0.084341
O O10 0.773217 0.925949 0.842841
O O11 0.297847 0.614988 0.200215
O O12 0.280915 0.763787 0.898783
O O13 0.430277 0.341815 0.136422
O O14 0.500000 0.500000 0.000000
O O15 0.500000 0.000000 0.000000
#
# Coordination Sequence:
#
# PCOD9094633 Si02
#       7
#     2   2   2   2   2   2   2
#     4  11  22  36  61  97 134 178 219 263 328 403
#     4  11  25  41  65  94 132 176 218 280 337 401
#     4  10  21  38  60  95 133 176 217 264 328 405
#     4   9  22  41  67  92 130 171 218 279 336 397
#     4  10  20  34  59  85 128 165 220 260 320 380
#     4  10  23  41  61  95 139 176 215 259 336 417
#     4  11  27  49  77 103 127 171 236 297 350 397
#
# _framework density 25.025226
#
# number of rings (size 3 to 8) (size 9 to 14) (size 15 to 20)
#    0.000    1.714    0.000    3.429   10.000   13.714 
#    0.000    1.429    0.000    0.000    0.000    0.000 
#    0.000    0.000    0.000    0.000    0.000    0.000 
#
# Total GULP energy -77937.119576 kJ/mol
# GULP energy per Si atom -5566.937113 kJ/mol
# Density = 2.496827 g / cm^3
# Si number density = 25.025226 Si / 1000 Ang^3
#
#
#
# Elastic Constant Matrix: (Units=GPa)
#
#
# Indices 1 2 3 4 5 6 
#
# 1 127.3868 53.9654 5.4531 -1.4304 -1.7873 -9.7061
# 2 53.9654 145.6834 17.3085 -32.2998 4.3222 -28.9556
# 3 5.4531 17.3085 34.0734 -16.5241 -3.0213 -3.2458
# 4 -1.4304 -32.2998 -16.5241 36.7062 5.1729 -8.1914
# 5 -1.7873 4.3222 -3.0213 5.1729 34.1263 -0.3386
# 6 -9.7061 -28.9556 -3.2458 -8.1914 -0.3386 39.5566
#
#
#
# Elastic Compliance Matrix: (Units=1/GPa)
#
#
# Indices 1 2 3 4 5 6 
#
# 1 0.010007 -0.005546 -0.001976 -0.006343 0.001983 -0.003063
# 2 -0.005546 0.015691 0.002947 0.018754 -0.004719 0.014210
# 3 -0.001976 0.002947 0.040107 0.022770 -0.000282 0.009676
# 4 -0.006343 0.018754 0.022770 0.061050 -0.009682 0.026599
# 5 0.001983 -0.004719 -0.000282 -0.009682 0.031400 -0.004727
# 6 -0.003063 0.014210 0.009676 0.026599 -0.004727 0.041192
#
#
# Mechanical properties :
#
#
# Convention : Reuss Voigt Hill
#
# Bulk Modulus (GPa) = 17.65091 51.17750 34.41420
# Shear Modulus (GPa) = 21.97967 37.43893 29.70930
#
# Velocity S-wave (km/s) = 2.96683 3.87207 3.44928
# Velocity P-wave (km/s) = 4.33643 6.36281 5.44472
#
# Compressibility (1/GPa) = 0.05665429
#
# Stress axis : x y z
#
# Youngs Moduli (GPa) = 99.92517 63.73161 24.93326
#
# Poissons Ratio (x) = 0.35347 0.04928
# Poissons Ratio (y) = 0.55421 -0.07348
# Poissons Ratio (z) = 0.19749 -0.18782
#
# Static dielectric constant tensor:
#      x y z
#    x 2.005170 0.012790 -0.020270 
#    y 0.012790 2.012600 0.040950 
#    z -0.020270 0.040950 2.063290 
# 
# From -- ./inp_files/323738.got.cif
#   From: 2010.05.17/outbox.cif.g08.bks.cpg/sg2_162_cif.got.tgz:323738.got - 2010.06.03 11:33:40.
