data_PCOD9094570
_publ_section_title
;
Structure prediction by ZEFSAII (Michael W. Deem and Ramdas Pophale) SiO2 
 PCOD9094570
Probable space group: P -1
;
_chemical_formula_sum "Si O2"
_cell_formula_units_Z 14
_cell_length_a 14.949674
_cell_length_b 7.252489
_cell_length_c 5.708921
_cell_angle_alpha 78.715293
_cell_angle_beta 112.722403
_cell_angle_gamma 111.008177
_cell_volume 531.806234
_symmetry_space_group_name_H-M "P -1"
_symmetry_group_IT_number 2
_symmetry_cell_setting 'triclinic'
loop_
_space_group_symop_operation_xyz
x,y,z
-x,-y,-z
loop_
_atom_site_type_symbol
_atom_site_label
_atom_site_fract_x
_atom_site_fract_y
_atom_site_fract_z
Si Si1 0.574998 0.141404 0.731021
Si Si2 0.876120 0.895412 0.163774
Si Si3 0.190646 0.583019 0.744687
Si Si4 0.117385 0.545299 0.176625
Si Si5 0.420428 0.211522 0.936391
Si Si6 0.378475 0.571916 0.674922
Si Si7 0.878828 0.902251 0.666713
O O1 0.495934 0.186504 0.817936
O O2 0.639123 0.337112 0.610892
O O3 0.500000 0.000000 0.500000
O O4 0.629693 0.999345 0.945293
O O5 0.851526 0.657585 0.212404
O O6 0.843734 0.957896 0.366385
O O7 0.835374 0.946167 0.860667
O O8 0.998644 0.992569 0.243357
O O9 0.139612 0.635104 0.440989
O O10 0.309556 0.635566 0.780337
O O11 0.170373 0.651175 0.965159
O O12 0.138334 0.334155 0.281376
O O13 0.000000 0.500000 0.000000
O O14 0.354402 0.338768 0.734087
O O15 0.500133 0.342327 0.176548
#
# Coordination Sequence:
#
# PCOD9094570 Si02
#       7
#     2   2   2   2   2   2   2
#     4   9  18  35  58  85 117 162 201 243 296 369
#     4   8  14  27  45  69  92 125 170 217 273 319
#     4  10  21  34  55  83 111 146 194 255 296 354
#     4  10  20  36  54  78 109 150 196 240 301 364
#     4   9  19  36  59  86 118 164 202 240 298 377
#     4  10  20  34  58  88 120 159 201 248 310 359
#     4   8  14  26  48  66  90 127 170 216 266 334
#
# _framework density 26.325379000000002
#
# number of rings (size 3 to 8) (size 9 to 14) (size 15 to 20)
#    0.000    2.857    0.000    0.857    2.000    0.000 
#    0.000    1.429    0.000    3.429    0.000    0.000 
#    0.000    0.000    0.000    0.000    0.000    0.000 
#
# Total GULP energy -78190.272012 kJ/mol
# GULP energy per Si atom -5585.019429 kJ/mol
# Density = 2.626546 g / cm^3
# Si number density = 26.325379 Si / 1000 Ang^3
#
#
#
# Elastic Constant Matrix: (Units=GPa)
#
#
# Indices 1 2 3 4 5 6 
#
# 1 84.3272 24.5280 74.5717 -17.7714 -8.5334 9.6582
# 2 24.5280 100.2054 63.3627 -30.2621 1.1239 3.8772
# 3 74.5717 63.3627 216.2298 -37.8345 -16.2309 7.7821
# 4 -17.7714 -30.2621 -37.8345 57.4836 0.1109 -0.8161
# 5 -8.5334 1.1239 -16.2309 0.1109 25.2660 -14.9394
# 6 9.6582 3.8772 7.7821 -0.8161 -14.9394 23.2214
#
#
#
# Elastic Compliance Matrix: (Units=1/GPa)
#
#
# Indices 1 2 3 4 5 6 
#
# 1 0.017882 0.000034 -0.005765 0.001664 -0.001447 -0.006384
# 2 0.000034 0.013913 -0.003467 0.004999 -0.005564 -0.004579
# 3 -0.005765 -0.003467 0.008253 0.001871 0.005914 0.004081
# 4 0.001664 0.004999 0.001871 0.021761 0.001009 -0.000740
# 5 -0.001447 -0.005564 0.005914 0.001009 0.069217 0.044115
# 6 -0.006384 -0.004579 0.004081 -0.000740 0.044115 0.073471
#
#
# Mechanical properties :
#
#
# Convention : Reuss Voigt Hill
#
# Bulk Modulus (GPa) = 46.18401 80.63191 63.40796
# Shear Modulus (GPa) = 21.72882 37.08088 29.40485
#
# Velocity S-wave (km/s) = 2.87608 3.75715 3.34575
# Velocity P-wave (km/s) = 5.34890 7.03683 6.25011
#
# Compressibility (1/GPa) = 0.02165251
#
# Stress axis : x y z
#
# Youngs Moduli (GPa) = 55.92279 71.87772 121.16686
#
# Poissons Ratio (x) = -0.00243 0.69847
# Poissons Ratio (y) = -0.00189 0.42005
# Poissons Ratio (z) = 0.32237 0.24918
#
# Static dielectric constant tensor:
#      x y z
#    x 1.973450 -0.018050 -0.028510 
#    y -0.018050 2.091600 0.036260 
#    z -0.028510 0.036260 2.164530 
# 
# From -- ./inp_files/35928.got.cif
#   From: 2010.05.17/outbox.cif.g08.bks.cpg/sg2_18_cif.got.tgz:35928.got - 2010.06.03 11:33:40.
