data_PCOD9094966
_publ_section_title
;
Structure prediction by ZEFSAII (Michael W. Deem and Ramdas Pophale) SiO2 
 PCOD9094966
Probable space group: P -1
;
_chemical_formula_sum "Si O2"
_cell_formula_units_Z 14
_cell_length_a 10.965269
_cell_length_b 9.325203
_cell_length_c 10.451581
_cell_angle_alpha 58.563634
_cell_angle_beta 141.017647
_cell_angle_gamma 99.162527
_cell_volume 509.726782
_symmetry_space_group_name_H-M "P -1"
_symmetry_group_IT_number 2
_symmetry_cell_setting 'triclinic'
loop_
_space_group_symop_operation_xyz
x,y,z
-x,-y,-z
loop_
_atom_site_type_symbol
_atom_site_label
_atom_site_fract_x
_atom_site_fract_y
_atom_site_fract_z
Si Si1 0.021744 0.616461 0.782965
Si Si2 0.690402 0.454892 0.320227
Si Si3 0.844754 0.698116 0.170128
Si Si4 0.276235 0.491670 0.304219
Si Si5 0.382810 0.880795 0.693972
Si Si6 0.974010 0.081143 0.085585
Si Si7 0.707205 0.189881 0.072348
O O1 0.775623 0.663813 0.597174
O O2 0.085050 0.474346 0.787202
O O3 0.088295 0.777774 0.729849
O O4 0.188395 0.499904 0.086190
O O5 0.763799 0.611213 0.259667
O O6 0.600933 0.330401 0.223905
O O7 0.934480 0.287013 0.632213
O O8 0.499111 0.596202 0.193200
O O9 0.617888 0.868745 0.860016
O O10 0.500000 0.500000 0.500000
O O11 0.102750 0.698882 0.112884
O O12 0.338423 0.913768 0.795824
O O13 0.196515 0.007829 0.383490
O O14 0.790134 0.101859 0.038484
O O15 0.000000 0.000000 0.000000
#
# Coordination Sequence:
#
# PCOD9094966 Si02
#       7
#     2   2   2   2   2   2   2
#     4  10  20  38  67  99 117 167 229 272 325 382
#     4  10  20  37  68 105 128 162 225 278 331 388
#     4  10  20  34  67 102 127 164 216 280 330 386
#     4  10  25  44  65  91 128 178 232 273 323 396
#     4  11  21  43  66 101 140 168 215 277 344 396
#     4  11  27  41  64  99 135 187 220 265 341 405
#     4  10  20  44  72  97 133 177 221 283 326 391
#
# _framework density 27.465693000000002
#
# number of rings (size 3 to 8) (size 9 to 14) (size 15 to 20)
#    0.000    1.714    2.857    1.286    8.000    0.000 
#    0.000    5.000    0.000    4.286    0.000    0.000 
#    0.000    0.000    0.000    0.000    0.000    0.000 
#
# Total GULP energy -77991.366079 kJ/mol
# GULP energy per Si atom -5570.811863 kJ/mol
# Density = 2.740318 g / cm^3
# Si number density = 27.465693 Si / 1000 Ang^3
#
#
#
# Elastic Constant Matrix: (Units=GPa)
#
#
# Indices 1 2 3 4 5 6 
#
# 1 100.3174 32.7250 45.6601 11.1852 10.0197 -28.2684
# 2 32.7250 129.9787 37.2208 20.9866 18.4680 -33.4676
# 3 45.6601 37.2208 178.4063 5.3922 43.9117 -3.9937
# 4 11.1852 20.9866 5.3922 46.4830 13.0686 10.7436
# 5 10.0197 18.4680 43.9117 13.0686 39.1710 2.9702
# 6 -28.2684 -33.4676 -3.9937 10.7436 2.9702 53.6281
#
#
#
# Elastic Compliance Matrix: (Units=1/GPa)
#
#
# Indices 1 2 3 4 5 6 
#
# 1 0.014486 0.000340 -0.003821 -0.005648 0.001650 0.008604
# 2 0.000340 0.011721 -0.001560 -0.006574 -0.002340 0.008824
# 3 -0.003821 -0.001560 0.009090 0.003849 -0.009568 -0.002552
# 4 -0.005648 -0.006574 0.003849 0.030838 -0.009114 -0.012467
# 5 0.001650 -0.002340 -0.009568 -0.009114 0.040106 -0.001698
# 6 0.008604 0.008824 -0.002552 -0.012467 -0.001698 0.031091
#
#
# Mechanical properties :
#
#
# Convention : Reuss Voigt Hill
#
# Bulk Modulus (GPa) = 39.66020 71.10159 55.38090
# Shear Modulus (GPa) = 32.08851 47.39620 39.74235
#
# Velocity S-wave (km/s) = 3.42177 4.15860 3.80805
# Velocity P-wave (km/s) = 5.48476 7.00016 6.28828
#
# Compressibility (1/GPa) = 0.02521419
#
# Stress axis : x y z
#
# Youngs Moduli (GPa) = 69.03152 85.31817 110.00852
#
# Poissons Ratio (x) = -0.02900 0.42037
# Poissons Ratio (y) = -0.02347 0.17164
# Poissons Ratio (z) = 0.26378 0.13311
#
# Static dielectric constant tensor:
#      x y z
#    x 2.360430 0.013570 -0.089560 
#    y 0.013570 2.158090 -0.056710 
#    z -0.089560 -0.056710 2.421070 
# 
# From -- ./inp_files/428026.got.cif
#   From: 2010.05.17/outbox.cif.g08.bks.cpg/sg2_215_cif.got.tgz:428026.got - 2010.06.03 11:33:40.
