data_PCOD9094802
_publ_section_title
;
Structure prediction by ZEFSAII (Michael W. Deem and Ramdas Pophale) SiO2 
 PCOD9094802
Probable space group: P -1
;
_chemical_formula_sum "Si O2"
_cell_formula_units_Z 14
_cell_length_a 10.865740
_cell_length_b 10.930477
_cell_length_c 5.526343
_cell_angle_alpha 66.676609
_cell_angle_beta 115.562939
_cell_angle_gamma 111.835518
_cell_volume 527.453593
_symmetry_space_group_name_H-M "P -1"
_symmetry_group_IT_number 2
_symmetry_cell_setting 'triclinic'
loop_
_space_group_symop_operation_xyz
x,y,z
-x,-y,-z
loop_
_atom_site_type_symbol
_atom_site_label
_atom_site_fract_x
_atom_site_fract_y
_atom_site_fract_z
Si Si1 0.735660 0.838140 0.113510
Si Si2 0.333581 0.423861 0.420780
Si Si3 0.714012 0.121311 0.108969
Si Si4 0.476464 0.848360 0.706037
Si Si5 0.986540 0.138598 0.510216
Si Si6 0.942210 0.615128 0.007137
Si Si7 0.783073 0.354757 0.598395
O O1 0.684936 0.729360 0.371159
O O2 0.896885 0.838473 0.198940
O O3 0.728540 0.991584 0.065283
O O4 0.619410 0.799986 0.837767
O O5 0.500000 0.500000 0.500000
O O6 0.229200 0.427257 0.097448
O O7 0.257601 0.503925 0.487853
O O8 0.563132 0.127836 0.070313
O O9 0.821551 0.120260 0.425207
O O10 0.762789 0.260444 0.894441
O O11 0.343900 0.731832 0.600790
O O12 0.500000 0.000000 0.500000
O O13 0.030188 0.254489 0.251014
O O14 0.000000 0.000000 0.500000
O O15 0.000000 0.500000 0.000000
O O16 0.050269 0.634891 0.313687
#
# Coordination Sequence:
#
# PCOD9094802 Si02
#       7
#     2   2   2   2   2   2   2
#     4  10  20  37  59  84 117 148 190 241 286 333
#     4  10  20  34  61  88 112 149 189 235 293 334
#     4  10  20  39  62  80 114 154 193 233 284 340
#     4  12  24  35  58  87 118 153 192 234 281 340
#     4   8  16  32  58  80 104 146 184 233 284 324
#     4   8  16  33  56  80 107 147 186 225 274 340
#     4  10  21  39  60  84 115 151 193 230 282 345
#
# _framework density 26.542621
#
# number of rings (size 3 to 8) (size 9 to 14) (size 15 to 20)
#    0.000    2.286    1.429    1.286    2.000    0.571 
#    0.000    2.143    0.000   35.143    0.000    0.000 
#    0.000    0.000    0.000    0.000    0.000    0.000 
#
# Total GULP energy -78099.365618 kJ/mol
# GULP energy per Si atom -5578.526116 kJ/mol
# Density = 2.648221 g / cm^3
# Si number density = 26.542621 Si / 1000 Ang^3
#
#
#
# Elastic Constant Matrix: (Units=GPa)
#
#
# Indices 1 2 3 4 5 6 
#
# 1 102.0187 12.7685 40.8705 3.1463 48.6839 5.8402
# 2 12.7685 113.8331 31.9472 -14.8262 10.8216 1.1281
# 3 40.8705 31.9472 85.6609 2.2989 47.6163 6.5415
# 4 3.1463 -14.8262 2.2989 63.2528 27.8136 15.3099
# 5 48.6839 10.8216 47.6163 27.8136 63.4684 5.3757
# 6 5.8402 1.1281 6.5415 15.3099 5.3757 34.6956
#
#
#
# Elastic Compliance Matrix: (Units=1/GPa)
#
#
# Indices 1 2 3 4 5 6 
#
# 1 0.017694 0.000391 0.001450 0.008000 -0.017892 -0.004022
# 2 0.000391 0.010230 -0.003787 0.002913 -0.000403 -0.000907
# 3 0.001450 -0.003787 0.025641 0.009820 -0.023529 -0.005643
# 4 0.008000 0.002913 0.009820 0.030318 -0.026219 -0.012609
# 5 -0.017892 -0.000403 -0.023529 -0.026219 0.057838 0.010069
# 6 -0.004022 -0.000907 -0.005643 -0.012609 0.010069 0.034596
#
#
# Mechanical properties :
#
#
# Convention : Reuss Voigt Hill
#
# Bulk Modulus (GPa) = 20.13157 52.52057 36.32607
# Shear Modulus (GPa) = 25.41079 46.67847 36.04463
#
# Velocity S-wave (km/s) = 3.09748 4.19814 3.68909
# Velocity P-wave (km/s) = 4.51592 6.58251 5.64460
#
# Compressibility (1/GPa) = 0.04967321
#
# Stress axis : x y z
#
# Youngs Moduli (GPa) = 56.51662 97.74768 39.00054
#
# Poissons Ratio (x) = -0.03822 -0.05655
# Poissons Ratio (y) = -0.02210 0.14769
# Poissons Ratio (z) = -0.08195 0.37017
#
# Static dielectric constant tensor:
#      x y z
#    x 2.116870 0.096790 0.075530 
#    y 0.096790 2.229070 0.224610 
#    z 0.075530 0.224610 2.187350 
# 
# From -- ./inp_files/68818.got.cif
#   From: 2010.05.17/outbox.cif.g08.bks.cpg/sg2_35_cif.got.tgz:68818.got - 2010.06.03 11:33:40.
