data_PCOD9094503
_publ_section_title
;
Structure prediction by ZEFSAII (Michael W. Deem and Ramdas Pophale) SiO2 
 PCOD9094503
Probable space group: P -1
;
_chemical_formula_sum "Si O2"
_cell_formula_units_Z 15
_cell_length_a 11.584486
_cell_length_b 23.017115
_cell_length_c 9.063986
_cell_angle_alpha 146.208515
_cell_angle_beta 40.604285
_cell_angle_gamma 149.607762
_cell_volume 672.291337
_symmetry_space_group_name_H-M "P -1"
_symmetry_group_IT_number 2
_symmetry_cell_setting 'triclinic'
loop_
_space_group_symop_operation_xyz
x,y,z
-x,-y,-z
loop_
_atom_site_type_symbol
_atom_site_label
_atom_site_fract_x
_atom_site_fract_y
_atom_site_fract_z
Si Si1 0.662196 0.914534 0.544873
Si Si2 0.466894 0.308772 0.398849
Si Si3 0.000000 0.500000 0.000000
Si Si4 0.545756 0.749490 0.022794
Si Si5 0.130194 0.462729 0.096492
Si Si6 0.360061 0.404857 0.200170
Si Si7 0.107002 0.204781 0.775937
Si Si8 0.773320 0.297715 0.312530
O O1 0.775121 0.856385 0.393846
O O2 0.413661 0.838070 0.700961
O O3 0.627929 0.865825 0.306226
O O4 0.844015 0.075159 0.726494
O O5 0.387983 0.212867 0.132380
O O6 0.614947 0.462876 0.515772
O O7 0.255772 0.270229 0.620020
O O8 0.625957 0.305406 0.348818
O O9 0.975392 0.574445 0.041640
O O10 0.268543 0.637785 0.062654
O O11 0.647197 0.675252 0.823248
O O12 0.125191 0.578613 0.411282
O O13 0.981080 0.337333 0.090044
O O14 0.399917 0.536099 0.988117
O O15 0.156506 0.302998 0.070179
#
# Coordination Sequence:
#
# PCOD9094503 Si02
#       8
#     2   2   1   2   2   2   2   2
#     4   9  17  33  48  71 105 128 167 210 246 288
#     4  11  19  30  51  78 103 129 167 202 256 303
#     4  10  16  30  48  72 104 126 160 210 256 278
#     4  10  19  31  48  77 103 130 164 208 252 296
#     4  10  18  30  49  76 102 125 167 208 252 289
#     4  10  19  33  49  77 107 129 158 208 258 297
#     4   9  18  31  50  70 102 134 161 208 252 288
#     4  10  18  30  51  76  95 131 170 208 242 292
#
# _framework density 22.311757
#
# number of rings (size 3 to 8) (size 9 to 14) (size 15 to 20)
#    0.000    2.133    6.667    0.800    0.000    0.533 
#    0.000    0.000    0.000    0.800    0.000    1.867 
#    0.000    0.000    0.000    0.000    0.000    0.000 
#
# Total GULP energy -83506.510049 kJ/mol
# GULP energy per Si atom -5567.100670 kJ/mol
# Density = 2.226097 g / cm^3
# Si number density = 22.311757 Si / 1000 Ang^3
#
#
#
# Elastic Constant Matrix: (Units=GPa)
#
#
# Indices 1 2 3 4 5 6 
#
# 1 78.0687 10.9371 25.9645 10.3765 32.7150 5.5638
# 2 10.9371 62.7866 20.5268 18.9702 24.4714 8.6559
# 3 25.9645 20.5268 81.9681 5.3197 26.4893 6.4047
# 4 10.3765 18.9702 5.3197 32.3617 7.0049 1.7485
# 5 32.7150 24.4714 26.4893 7.0049 32.0724 0.6191
# 6 5.5638 8.6559 6.4047 1.7485 0.6191 29.5888
#
#
#
# Elastic Compliance Matrix: (Units=1/GPa)
#
#
# Indices 1 2 3 4 5 6 
#
# 1 0.027913 0.012876 0.001144 -0.008180 -0.037301 -0.007999
# 2 0.012876 0.033576 0.000987 -0.015608 -0.035950 -0.010782
# 3 0.001144 0.000987 0.017034 -0.000097 -0.015893 -0.003853
# 4 -0.008180 -0.015608 -0.000097 0.040003 0.011528 0.003520
# 5 -0.037301 -0.035950 -0.015893 0.011528 0.106918 0.018053
# 6 -0.007999 -0.010782 -0.003853 0.003520 0.018053 0.038703
#
#
# Mechanical properties :
#
#
# Convention : Reuss Voigt Hill
#
# Bulk Modulus (GPa) = 9.21350 37.52002 23.36676
# Shear Modulus (GPa) = 18.49706 29.83091 24.16399
#
# Velocity S-wave (km/s) = 2.88241 3.66047 3.29449
# Velocity P-wave (km/s) = 3.90078 5.89221 4.99671
#
# Compressibility (1/GPa) = 0.10853639
#
# Stress axis : x y z
#
# Youngs Moduli (GPa) = 35.82502 29.78345 58.70704
#
# Poissons Ratio (x) = -0.38350 -0.06716
# Poissons Ratio (y) = -0.46129 -0.05792
# Poissons Ratio (z) = -0.04098 -0.02938
#
# Static dielectric constant tensor:
#      x y z
#    x 1.871500 -0.003780 -0.165720 
#    y -0.003780 1.836980 -0.014900 
#    z -0.165720 -0.014900 1.817860 
# 
# From -- ./inp_files/251730.got.cif
#   From: 2010.05.17/outbox.cif.g08.bks.cpg/sg2_126_cif.got.tgz:251730.got - 2010.06.03 11:33:40.
