data_PCOD9094491
_publ_section_title
;
Structure prediction by ZEFSAII (Michael W. Deem and Ramdas Pophale) SiO2 
 PCOD9094491
Probable space group: P -1
;
_chemical_formula_sum "Si O2"
_cell_formula_units_Z 14
_cell_length_a 11.252397
_cell_length_b 9.895677
_cell_length_c 11.384765
_cell_angle_alpha 63.168404
_cell_angle_beta 153.679446
_cell_angle_gamma 111.903639
_cell_volume 499.975694
_symmetry_space_group_name_H-M "P -1"
_symmetry_group_IT_number 2
_symmetry_cell_setting 'triclinic'
loop_
_space_group_symop_operation_xyz
x,y,z
-x,-y,-z
loop_
_atom_site_type_symbol
_atom_site_label
_atom_site_fract_x
_atom_site_fract_y
_atom_site_fract_z
Si Si1 0.248454 0.436525 0.662739
Si Si2 0.180100 0.025572 0.020626
Si Si3 0.571000 0.098545 0.138155
Si Si4 0.978418 0.274124 0.279249
Si Si5 0.441935 0.280048 0.118297
Si Si6 0.298489 0.489877 0.217623
Si Si7 0.302297 0.159321 0.379787
O O1 0.454721 0.566891 0.804951
O O2 0.000000 0.500000 0.500000
O O3 0.136777 0.387741 0.459153
O O4 0.389864 0.292393 0.918919
O O5 0.410428 0.928839 0.333331
O O6 0.186097 0.208382 0.972122
O O7 0.920912 0.936815 0.835929
O O8 0.314912 0.020954 0.013790
O O9 0.844043 0.163558 0.292011
O O10 0.674980 0.150136 0.350890
O O11 0.500000 0.000000 0.000000
O O12 0.182862 0.203779 0.388210
O O13 0.733096 0.373973 0.957161
O O14 0.500000 0.500000 0.500000
O O15 0.344139 0.316464 0.287442
O O16 0.000000 0.500000 0.000000
#
# Coordination Sequence:
#
# PCOD9094491 Si02
#       7
#     2   2   2   2   2   2   2
#     4  11  21  38  56  83 128 162 208 241 302 372
#     4  10  23  37  63  88 126 159 192 255 316 367
#     4  10  20  34  57  92 123 150 197 242 326 367
#     4  11  22  37  64  90 125 163 203 256 305 370
#     4   9  23  36  54  87 122 164 197 249 299 374
#     4  10  23  41  62  89 125 161 208 253 304 359
#     4  11  22  39  62  91 122 160 202 253 309 362
#
# _framework density 28.001359999999998
#
# number of rings (size 3 to 8) (size 9 to 14) (size 15 to 20)
#    0.857    0.857    2.857    1.714    6.000    1.714 
#    0.000    0.000    0.000    1.714    0.000    0.000 
#    0.000    0.000    0.000    0.000    0.000    0.000 
#
# Total GULP energy -77943.583075 kJ/mol
# GULP energy per Si atom -5567.398791 kJ/mol
# Density = 2.793763 g / cm^3
# Si number density = 28.001360 Si / 1000 Ang^3
#
#
#
# Elastic Constant Matrix: (Units=GPa)
#
#
# Indices 1 2 3 4 5 6 
#
# 1 134.2667 22.1259 29.5701 5.2439 -6.1167 -7.4629
# 2 22.1259 181.3110 80.2888 29.7121 3.7552 5.8046
# 3 29.5701 80.2888 180.6836 23.4689 9.8356 -7.7307
# 4 5.2439 29.7121 23.4689 56.8545 -8.2875 -12.1642
# 5 -6.1167 3.7552 9.8356 -8.2875 33.7521 10.9080
# 6 -7.4629 5.8046 -7.7307 -12.1642 10.9080 58.4879
#
#
#
# Elastic Compliance Matrix: (Units=1/GPa)
#
#
# Indices 1 2 3 4 5 6 
#
# 1 0.007898 -0.000583 -0.001156 0.000451 0.001722 0.000685
# 2 -0.000583 0.007419 -0.002865 -0.003061 -0.000274 -0.001775
# 3 -0.001156 -0.002865 0.007417 -0.001593 -0.002870 0.001321
# 4 0.000451 -0.003061 -0.001593 0.021307 0.004935 0.003662
# 5 0.001722 -0.000274 -0.002870 0.004935 0.033765 -0.005403
# 6 0.000685 -0.001775 0.001321 0.003662 -0.005403 0.019305
#
#
# Mechanical properties :
#
#
# Convention : Reuss Voigt Hill
#
# Bulk Modulus (GPa) = 73.94067 84.47010 79.20538
# Shear Modulus (GPa) = 45.11521 54.10401 49.60961
#
# Velocity S-wave (km/s) = 4.01830 4.40044 4.21371
# Velocity P-wave (km/s) = 6.92766 7.48668 7.21259
#
# Compressibility (1/GPa) = 0.01352436
#
# Stress axis : x y z
#
# Youngs Moduli (GPa) = 126.62089 134.78485 134.83396
#
# Poissons Ratio (x) = 0.07862 0.15592
# Poissons Ratio (y) = 0.07386 0.38628
# Poissons Ratio (z) = 0.14642 0.38614
#
# Static dielectric constant tensor:
#      x y z
#    x 2.214800 0.012790 -0.078970 
#    y 0.012790 2.453090 -0.048270 
#    z -0.078970 -0.048270 2.287610 
# 
# From -- ./inp_files/538235.got.cif
#   From: 2010.05.17/outbox.cif.g08.bks.cpg/sg2_270_cif.got.tgz:538235.got - 2010.06.03 11:33:40.
