data_PCOD9094998
_publ_section_title
;
Structure prediction by ZEFSAII (Michael W. Deem and Ramdas Pophale) SiO2 
 PCOD9094998
Probable space group: P -1
;
_chemical_formula_sum "Si O2"
_cell_formula_units_Z 16
_cell_length_a 21.596512
_cell_length_b 15.813216
_cell_length_c 10.775428
_cell_angle_alpha 49.737665
_cell_angle_beta 147.485638
_cell_angle_gamma 153.186889
_cell_volume 801.910677
_symmetry_space_group_name_H-M "P -1"
_symmetry_group_IT_number 2
_symmetry_cell_setting 'triclinic'
loop_
_space_group_symop_operation_xyz
x,y,z
-x,-y,-z
loop_
_atom_site_type_symbol
_atom_site_label
_atom_site_fract_x
_atom_site_fract_y
_atom_site_fract_z
Si Si1 0.569406 0.539372 0.283949
Si Si2 0.739664 0.581314 0.292127
Si Si3 0.826075 0.464375 0.095878
Si Si4 0.926257 0.120541 0.927035
Si Si5 0.005143 0.014127 0.347781
Si Si6 0.955359 0.590087 0.473288
Si Si7 0.301130 0.276583 0.309744
Si Si8 0.335847 0.053293 0.583462
O O1 0.678005 0.539157 0.373548
O O2 0.378941 0.338539 0.239063
O O3 0.749194 0.742896 0.482114
O O4 0.470585 0.551715 0.014475
O O5 0.831355 0.545310 0.420341
O O6 0.914729 0.822399 0.334436
O O7 0.824319 0.493207 0.213105
O O8 0.923243 0.649564 0.012954
O O9 0.983681 0.487627 0.328796
O O10 0.587702 0.240167 0.858458
O O11 0.732105 0.003623 0.622598
O O12 0.871029 0.003642 0.065660
O O13 0.080946 0.164594 0.065525
O O14 0.000000 0.000000 0.500000
O O15 0.178108 0.838648 0.588171
O O16 0.500000 0.500000 0.500000
O O17 0.287023 0.139222 0.460713
#
# Coordination Sequence:
#
# PCOD9094998 Si02
#       8
#     2   2   2   2   2   2   2   2
#     4  10  20  35  51  82 116 147 178 225 287 337
#     4  10  21  34  55  81 113 147 187 225 278 346
#     4  10  21  38  54  84 116 148 194 241 279 325
#     4  11  21  34  55  86 114 148 186 233 286 339
#     4  10  20  35  55  81 114 146 180 226 283 345
#     4  10  22  36  57  83 113 151 196 236 277 328
#     4  12  20  32  56  84 114 143 181 231 287 339
#     4  11  21  34  56  82 117 146 186 236 285 336
#
# _framework density 19.952347
#
# number of rings (size 3 to 8) (size 9 to 14) (size 15 to 20)
#    0.000    1.500    2.500    3.750    0.000    0.000 
#    0.000    0.000    0.000    6.750    0.000   19.250 
#    0.000    0.000    0.000    0.000    0.000    0.000 
#
# Total GULP energy -89300.597562 kJ/mol
# GULP energy per Si atom -5581.287348 kJ/mol
# Density = 1.990693 g / cm^3
# Si number density = 19.952347 Si / 1000 Ang^3
#
#
#
# Elastic Constant Matrix: (Units=GPa)
#
#
# Indices 1 2 3 4 5 6 
#
# 1 98.4212 24.3533 23.8919 -7.8200 4.3478 7.6222
# 2 24.3533 66.8781 7.1731 -8.6782 1.5471 4.5411
# 3 23.8919 7.1731 69.6344 12.8568 -8.7988 -2.3208
# 4 -7.8200 -8.6782 12.8568 40.6676 -11.9131 -5.3022
# 5 4.3478 1.5471 -8.7988 -11.9131 23.8563 0.2508
# 6 7.6222 4.5411 -2.3208 -5.3022 0.2508 32.6413
#
#
#
# Elastic Compliance Matrix: (Units=1/GPa)
#
#
# Indices 1 2 3 4 5 6 
#
# 1 0.012695 -0.003611 -0.004797 0.002047 -0.002801 -0.002449
# 2 -0.003611 0.016865 -0.001042 0.003352 0.000865 -0.001039
# 3 -0.004797 -0.001042 0.017731 -0.005092 0.004921 0.001661
# 4 0.002047 0.003352 -0.005092 0.031698 0.013321 0.003740
# 5 -0.002801 0.000865 0.004921 0.013321 0.050811 0.002657
# 6 -0.002449 -0.001039 0.001661 0.003740 0.002657 0.032058
#
#
# Mechanical properties :
#
#
# Convention : Reuss Voigt Hill
#
# Bulk Modulus (GPa) = 35.22469 38.41895 36.82182
# Shear Modulus (GPa) = 26.28494 31.40074 28.84284
#
# Velocity S-wave (km/s) = 3.63352 3.97140 3.80621
# Velocity P-wave (km/s) = 5.94104 6.35032 6.14909
#
# Compressibility (1/GPa) = 0.02838918
#
# Stress axis : x y z
#
# Youngs Moduli (GPa) = 78.77399 59.29452 56.39718
#
# Poissons Ratio (x) = 0.21414 0.27054
# Poissons Ratio (y) = 0.28449 0.05879
# Poissons Ratio (z) = 0.37788 0.06181
#
# Static dielectric constant tensor:
#      x y z
#    x 1.766680 0.031310 -0.028060 
#    y 0.031310 1.746290 0.031710 
#    z -0.028060 0.031710 1.722830 
# 
# From -- ./inp_files/471728.got.cif
#   From: 2010.05.17/outbox.cif.g08.bks.cpg/sg2_236_cif.got.tgz:471728.got - 2010.06.03 11:33:40.
