data_PCOD9094047
_publ_section_title
;
Structure prediction by ZEFSAII (Michael W. Deem and Ramdas Pophale) SiO2 
 PCOD9094047
Probable space group: P -1
;
_chemical_formula_sum "Si O2"
_cell_formula_units_Z 16
_cell_length_a 22.430960
_cell_length_b 8.494794
_cell_length_c 8.667467
_cell_angle_alpha 33.044026
_cell_angle_beta 51.203786
_cell_angle_gamma 51.907498
_cell_volume 685.339070
_symmetry_space_group_name_H-M "P -1"
_symmetry_group_IT_number 2
_symmetry_cell_setting 'triclinic'
loop_
_space_group_symop_operation_xyz
x,y,z
-x,-y,-z
loop_
_atom_site_type_symbol
_atom_site_label
_atom_site_fract_x
_atom_site_fract_y
_atom_site_fract_z
Si Si1 0.915050 0.280478 0.066299
Si Si2 0.696537 0.969635 0.411976
Si Si3 0.820577 0.785773 0.621696
Si Si4 0.592449 0.436127 0.422037
Si Si5 0.715662 0.364388 0.782138
Si Si6 0.135138 0.424178 0.764344
Si Si7 0.049778 0.925871 0.320327
Si Si8 0.328087 0.022441 0.088849
O O1 0.897547 0.447678 0.122010
O O2 0.853199 0.077982 0.313088
O O3 0.892709 0.520699 0.769745
O O4 0.997290 0.053968 0.154092
O O5 0.633744 0.208221 0.411171
O O6 0.766431 0.790409 0.555647
O O7 0.662498 0.693431 0.629949
O O8 0.731555 0.180566 0.066483
O O9 0.758763 0.836956 0.821252
O O10 0.500000 0.500000 0.500000
O O11 0.626782 0.262445 0.660354
O O12 0.622904 0.735626 0.145390
O O13 0.784079 0.473087 0.483444
O O14 0.682467 0.118970 0.942196
O O15 0.082203 0.580137 0.578108
O O16 0.121063 0.094900 0.067698
O O17 0.000000 0.000000 0.500000
#
# Coordination Sequence:
#
# PCOD9094047 Si02
#       8
#     2   2   2   2   2   2   2   2
#     4  11  19  33  60  88 121 160 227 276 324 373
#     4  11  25  43  64  98 135 173 216 268 335 396
#     4  11  21  37  62  90 124 167 221 275 321 377
#     4  11  24  47  72  98 134 175 214 262 321 393
#     4  12  24  42  66  98 138 174 216 277 332 390
#     4  11  21  35  58  90 131 169 213 275 348 377
#     4  10  20  34  52  91 130 167 216 283 334 387
#     4  11  23  41  69 101 128 171 225 266 318 386
#
# _framework density 23.346107
#
# number of rings (size 3 to 8) (size 9 to 14) (size 15 to 20)
#    0.000    1.000    1.250    9.375    1.750    0.000 
#    0.000    3.750    0.000   15.000    0.000    0.000 
#    0.000    0.000    0.000    0.000    0.000    0.000 
#
# Total GULP energy -89281.971616 kJ/mol
# GULP energy per Si atom -5580.123226 kJ/mol
# Density = 2.329297 g / cm^3
# Si number density = 23.346107 Si / 1000 Ang^3
#
#
#
# Elastic Constant Matrix: (Units=GPa)
#
#
# Indices 1 2 3 4 5 6 
#
# 1 14.1299 26.4614 -80.5134 -21.1189 87.1075 33.1320
# 2 26.4614 75.7739 11.9919 -7.2988 14.9013 10.6193
# 3 -80.5134 11.9919 -77.2603 -49.2719 187.6484 92.4785
# 4 -21.1189 -7.2988 -49.2719 27.8330 11.6077 0.7166
# 5 87.1075 14.9013 187.6484 11.6077 -81.4309 -75.1146
# 6 33.1320 10.6193 92.4785 0.7166 -75.1146 -4.4959
#
#
#
# Elastic Compliance Matrix: (Units=1/GPa)
#
#
# Indices 1 2 3 4 5 6 
#
# 1 0.023238 -0.009761 -0.002930 0.007650 0.004498 0.013998
# 2 -0.009761 0.018129 -0.001119 -0.003313 -0.002665 -0.008142
# 3 -0.002930 -0.001119 0.005499 0.004976 0.005043 0.005420
# 4 0.007650 -0.003313 0.004976 0.045710 0.008351 0.018654
# 5 0.004498 -0.002665 0.005043 0.008351 0.008107 -0.003525
# 6 0.013998 -0.008142 0.005420 0.018654 -0.003525 0.034863
#
#
# Mechanical properties :
#
#
# Convention : Reuss Voigt Hill
#
# Bulk Modulus (GPa) = 51.95837 -7.94186 22.00825
# Shear Modulus (GPa) = 29.48448 -7.97186 10.75631
#
# Velocity S-wave (km/s) = 3.55763 -1.84988 2.14880
# Velocity P-wave (km/s) = 6.25936 2.82346 3.95017
#
# Compressibility (1/GPa) = 0.01924618
#
# Stress axis : x y z
#
# Youngs Moduli (GPa) = 43.03319 55.16060 181.84115
#
# Poissons Ratio (x) = 0.53841 0.53278
# Poissons Ratio (y) = 0.42004 0.20351
# Poissons Ratio (z) = 0.12608 0.06174
#
# Static dielectric constant tensor:
#      x y z
#    x 1.880590 0.033390 0.035220 
#    y 0.033390 1.946010 0.008440 
#    z 0.035220 0.008440 1.831920 
# 
# From -- ./inp_files/217786.got.cif
#   From: 2010.05.17/outbox.cif.g08.bks.cpg/sg2_109_cif.got.tgz:217786.got - 2010.06.03 11:33:40.
