data_PCOD9094647
_publ_section_title
;
Structure prediction by ZEFSAII (Michael W. Deem and Ramdas Pophale) SiO2 
 PCOD9094647
Probable space group: P -1
;
_chemical_formula_sum "Si O2"
_cell_formula_units_Z 14
_cell_length_a 20.882105
_cell_length_b 7.992180
_cell_length_c 17.046893
_cell_angle_alpha 43.033756
_cell_angle_beta 160.536404
_cell_angle_gamma 144.333672
_cell_volume 543.666063
_symmetry_space_group_name_H-M "P -1"
_symmetry_group_IT_number 2
_symmetry_cell_setting 'triclinic'
loop_
_space_group_symop_operation_xyz
x,y,z
-x,-y,-z
loop_
_atom_site_type_symbol
_atom_site_label
_atom_site_fract_x
_atom_site_fract_y
_atom_site_fract_z
Si Si1 0.710102 0.672516 0.941918
Si Si2 0.828116 0.667577 0.392469
Si Si3 0.493634 0.186697 0.750176
Si Si4 0.091290 0.299854 0.221918
Si Si5 0.652009 0.384565 0.131161
Si Si6 0.462254 0.756767 0.389071
Si Si7 0.230862 0.635677 0.418827
O O1 0.738003 0.496715 0.105094
O O2 0.694617 0.505539 0.901941
O O3 0.464142 0.637362 0.676953
O O4 0.892674 0.010807 0.049544
O O5 0.839407 0.590223 0.342186
O O6 0.859187 0.483195 0.557575
O O7 0.571398 0.596315 0.127419
O O8 0.000000 0.000000 0.500000
O O9 0.270540 0.201601 0.480007
O O10 0.545129 0.115283 0.747871
O O11 0.438470 0.942768 0.834294
O O12 0.230942 0.585050 0.230252
O O13 0.065468 0.421384 0.233683
O O14 0.500000 0.500000 0.500000
O O15 0.670198 0.020682 0.587082
#
# Coordination Sequence:
#
# PCOD9094647 Si02
#       7
#     2   2   2   2   2   2   2
#     4  10  22  37  59  88 114 152 194 233 292 346
#     4  10  20  34  59  89 116 151 189 230 292 350
#     4  10  21  39  58  83 122 153 187 244 287 333
#     4  10  22  38  60  85 113 155 199 231 284 347
#     4  10  20  36  56  85 122 148 186 241 285 341
#     4  10  21  40  61  82 116 156 194 240 289 330
#     4  10  20  40  60  83 119 149 190 247 284 336
#
# _framework density 25.751099
#
# number of rings (size 3 to 8) (size 9 to 14) (size 15 to 20)
#    0.000    2.000    1.429    1.714    0.000    2.857 
#    0.000    0.000    0.000    0.000    0.000    0.000 
#    0.000    0.000    0.000    0.000    0.000    0.000 
#
# Total GULP energy -78363.050523 kJ/mol
# GULP energy per Si atom -5597.360752 kJ/mol
# Density = 2.569249 g / cm^3
# Si number density = 25.751099 Si / 1000 Ang^3
#
#
#
# Elastic Constant Matrix: (Units=GPa)
#
#
# Indices 1 2 3 4 5 6 
#
# 1 64.1449 8.6719 0.8385 5.1345 -22.3173 -10.9547
# 2 8.6719 146.7062 20.8892 13.8429 -22.5452 -2.7809
# 3 0.8385 20.8892 79.1101 14.2648 -10.0177 -19.8901
# 4 5.1345 13.8429 14.2648 46.7050 -9.1574 -14.6294
# 5 -22.3173 -22.5452 -10.0177 -9.1574 32.8707 9.1114
# 6 -10.9547 -2.7809 -19.8901 -14.6294 9.1114 33.8538
#
#
#
# Elastic Compliance Matrix: (Units=1/GPa)
#
#
# Indices 1 2 3 4 5 6 
#
# 1 0.021309 0.000613 0.002508 0.001130 0.014586 0.004982
# 2 0.000613 0.007984 -0.001713 -0.001543 0.005583 -0.002322
# 3 0.002508 -0.001713 0.015822 -0.001379 0.002559 0.008682
# 4 0.001130 -0.001543 -0.001379 0.025926 0.003852 0.009596
# 5 0.014586 0.005583 0.002559 0.003852 0.047217 -0.004361
# 6 0.004982 -0.002322 0.008682 0.009596 -0.004361 0.041382
#
#
# Mechanical properties :
#
#
# Convention : Reuss Voigt Hill
#
# Bulk Modulus (GPa) = 20.86355 38.97338 29.91846
# Shear Modulus (GPa) = 28.93503 39.99001 34.46252
#
# Velocity S-wave (km/s) = 3.35571 3.94502 3.66224
# Velocity P-wave (km/s) = 4.80978 5.99319 5.43380
#
# Compressibility (1/GPa) = 0.04793049
#
# Stress axis : x y z
#
# Youngs Moduli (GPa) = 46.92779 125.25552 63.20311
#
# Poissons Ratio (x) = -0.07673 -0.15853
# Poissons Ratio (y) = -0.02875 0.10828
# Poissons Ratio (z) = -0.11771 0.21458
#
# Static dielectric constant tensor:
#      x y z
#    x 2.063480 0.011250 0.026610 
#    y 0.011250 1.998670 -0.043060 
#    z 0.026610 -0.043060 2.076180 
# 
# From -- ./inp_files/25163.got.cif
#   From: 2010.05.17/outbox.cif.g08.bks.cpg/sg2_13_cif.got.tgz:25163.got - 2010.06.03 11:33:40.
