data_PCOD9094180
_publ_section_title
;
Structure prediction by ZEFSAII (Michael W. Deem and Ramdas Pophale) SiO2 
 PCOD9094180
Probable space group: P -1
;
_chemical_formula_sum "Si O2"
_cell_formula_units_Z 14
_cell_length_a 16.478778
_cell_length_b 16.091895
_cell_length_c 12.288793
_cell_angle_alpha 116.922600
_cell_angle_beta 54.120951
_cell_angle_gamma 162.271147
_cell_volume 726.885113
_symmetry_space_group_name_H-M "P -1"
_symmetry_group_IT_number 2
_symmetry_cell_setting 'triclinic'
loop_
_space_group_symop_operation_xyz
x,y,z
-x,-y,-z
loop_
_atom_site_type_symbol
_atom_site_label
_atom_site_fract_x
_atom_site_fract_y
_atom_site_fract_z
Si Si1 0.834636 0.121484 0.585754
Si Si2 0.848273 0.897695 0.242264
Si Si3 0.311291 0.133018 0.023017
Si Si4 0.281507 0.509969 0.870622
Si Si5 0.694878 0.519115 0.743466
Si Si6 0.383376 0.551161 0.572420
Si Si7 0.370708 0.803836 0.910064
O O1 0.096384 0.364820 0.428874
O O2 0.043668 0.258716 0.601470
O O3 0.566366 0.812022 0.569206
O O4 0.626964 0.021758 0.738520
O O5 0.609850 0.712956 0.222662
O O6 0.621576 0.691496 0.406219
O O7 0.051790 0.985113 0.117370
O O8 0.090469 0.199048 0.239659
O O9 0.491001 0.314459 0.102780
O O10 0.573515 0.367064 0.859871
O O11 0.095304 0.848148 0.024420
O O12 0.349911 0.515336 0.707071
O O13 0.352470 0.682029 0.897962
O O14 0.000000 0.500000 0.000000
O O15 0.500000 0.000000 0.000000
#
# Coordination Sequence:
#
# PCOD9094180 Si02
#       7
#     2   2   2   2   2   2   2
#     4   9  18  34  57  81 103 135 178 225 265 307
#     4  10  20  34  55  79 106 152 199 220 239 292
#     4  12  22  34  54  79 117 151 176 221 261 309
#     4  11  23  36  52  82 113 138 173 222 290 325
#     4  10  20  36  55  78 111 150 191 215 246 306
#     4   9  18  34  52  76 112 142 177 223 260 310
#     4  11  21  38  63  82 100 130 176 229 275 334
#
# _framework density 19.260265
#
# number of rings (size 3 to 8) (size 9 to 14) (size 15 to 20)
#    0.000    1.714    0.000    6.857    0.000    1.143 
#    0.000    0.000    0.000    5.143    0.000    0.000 
#    0.000    0.000    0.000    0.000    0.000    0.000 
#
# Total GULP energy -78103.709702 kJ/mol
# GULP energy per Si atom -5578.836407 kJ/mol
# Density = 1.921643 g / cm^3
# Si number density = 19.260265 Si / 1000 Ang^3
#
#
#
# Elastic Constant Matrix: (Units=GPa)
#
#
# Indices 1 2 3 4 5 6 
#
# 1 28.5207 18.3615 38.2815 -7.4603 11.9107 -0.5664
# 2 18.3615 118.0905 15.9113 -6.8726 3.5102 6.9993
# 3 38.2815 15.9113 142.8683 -11.7637 3.0686 -1.7938
# 4 -7.4603 -6.8726 -11.7637 30.0394 -2.1969 -5.0097
# 5 11.9107 3.5102 3.0686 -2.1969 32.5462 -0.4066
# 6 -0.5664 6.9993 -1.7938 -5.0097 -0.4066 29.9833
#
#
#
# Elastic Compliance Matrix: (Units=1/GPa)
#
#
# Indices 1 2 3 4 5 6 
#
# 1 0.079130 -0.008684 -0.018902 0.008983 -0.025589 0.003545
# 2 -0.008684 0.009751 0.001194 0.000307 0.002006 -0.002291
# 3 -0.018902 0.001194 0.011869 0.000689 0.005720 0.000267
# 4 0.008983 0.000307 0.000689 0.036849 -0.000820 0.006285
# 5 -0.025589 0.002006 0.005720 -0.000820 0.039277 -0.000214
# 6 0.003545 -0.002291 0.000267 0.006285 -0.000214 0.035017
#
#
# Mechanical properties :
#
#
# Convention : Reuss Voigt Hill
#
# Bulk Modulus (GPa) = 20.84753 48.28756 34.56754
# Shear Modulus (GPa) = 17.81485 32.97547 25.39516
#
# Velocity S-wave (km/s) = 3.04460 4.14224 3.63509
# Velocity P-wave (km/s) = 4.81737 6.92842 5.96700
#
# Compressibility (1/GPa) = 0.04796732
#
# Stress axis : x y z
#
# Youngs Moduli (GPa) = 12.63737 102.54982 84.25640
#
# Poissons Ratio (x) = 0.89050 1.59262
# Poissons Ratio (y) = 0.10974 -0.10062
# Poissons Ratio (z) = 0.23887 -0.12246
#
# Static dielectric constant tensor:
#      x y z
#    x 1.654260 -0.003230 0.028560 
#    y -0.003230 1.651040 -0.006510 
#    z 0.028560 -0.006510 1.735030 
# 
# From -- ./inp_files/35090.got.cif
#   From: 2010.05.17/outbox.cif.g08.bks.cpg/sg2_18_cif.got.tgz:35090.got - 2010.06.03 11:33:40.
