data_PCOD9094323
_publ_section_title
;
Structure prediction by ZEFSAII (Michael W. Deem and Ramdas Pophale) SiO2 
 PCOD9094323
Probable space group: P -1
;
_chemical_formula_sum "Si O2"
_cell_formula_units_Z 11
_cell_length_a 13.695449
_cell_length_b 9.888371
_cell_length_c 12.371046
_cell_angle_alpha 40.541484
_cell_angle_beta 21.484754
_cell_angle_gamma 41.682202
_cell_volume 393.254076
_symmetry_space_group_name_H-M "P -1"
_symmetry_group_IT_number 2
_symmetry_cell_setting 'triclinic'
loop_
_space_group_symop_operation_xyz
x,y,z
-x,-y,-z
loop_
_atom_site_type_symbol
_atom_site_label
_atom_site_fract_x
_atom_site_fract_y
_atom_site_fract_z
Si Si1 0.392418 0.113843 0.735819
Si Si2 0.000000 0.500000 0.000000
Si Si3 0.713766 0.076937 0.650440
Si Si4 0.442826 0.482484 0.742155
Si Si5 0.346763 0.327280 0.315225
Si Si6 0.054001 0.333999 0.397089
O O1 0.112171 0.256608 0.973994
O O2 0.567044 0.068784 0.692226
O O3 0.524623 0.278666 0.428751
O O4 0.442673 0.888697 0.760459
O O5 0.246802 0.457454 0.859541
O O6 0.722579 0.326186 0.511366
O O7 0.975460 0.892597 0.486622
O O8 0.500000 0.000000 0.000000
O O9 0.312217 0.398580 0.032518
O O10 0.119346 0.293883 0.480432
O O11 0.177319 0.463651 0.500921
O O12 0.500000 0.500000 0.000000
#
# Coordination Sequence:
#
# PCOD9094323 Si02
#       6
#     2   1   2   2   2   2
#     4  10  21  35  55  83 114 146 184 233 277 325
#     4  10  20  34  56  84 116 144 174 222 280 336
#     4   8  15  32  56  79 105 139 178 219 273 328
#     4  10  20  36  58  86 114 144 183 227 282 334
#     4  10  22  39  58  80 108 149 195 229 272 332
#     4   9  20  38  59  81 111 147 183 234 279 321
#
# _framework density 27.971738999999999
#
# number of rings (size 3 to 8) (size 9 to 14) (size 15 to 20)
#    0.000    2.545    0.000    2.182    0.000    8.000 
#    0.000    3.636    0.000   28.364    0.000    0.000 
#    0.000    0.000    0.000    0.000    0.000    0.000 
#
# Total GULP energy -61343.624013 kJ/mol
# GULP energy per Si atom -5576.693092 kJ/mol
# Density = 2.790807 g / cm^3
# Si number density = 27.971739 Si / 1000 Ang^3
#
#
#
# Elastic Constant Matrix: (Units=GPa)
#
#
# Indices 1 2 3 4 5 6 
#
# 1 91.8107 29.3562 1.6600 4.2968 6.1723 -10.5673
# 2 29.3562 356.5851 57.2647 23.2214 -2.1470 39.0538
# 3 1.6600 57.2647 68.6772 2.9150 -5.7157 15.7529
# 4 4.2968 23.2214 2.9150 57.4474 -2.1212 -0.3466
# 5 6.1723 -2.1470 -5.7157 -2.1212 33.4990 4.5152
# 6 -10.5673 39.0538 15.7529 -0.3466 4.5152 52.6579
#
#
#
# Elastic Compliance Matrix: (Units=1/GPa)
#
#
# Indices 1 2 3 4 5 6 
#
# 1 0.011965 -0.001342 -0.000241 -0.000423 -0.002859 0.003711
# 2 -0.001342 0.003633 -0.002395 -0.001249 0.000300 -0.002281
# 3 -0.000241 -0.002395 0.017731 0.000191 0.003450 -0.003871
# 4 -0.000423 -0.001249 0.000191 0.017978 0.001059 0.000812
# 5 -0.002859 0.000300 0.003450 0.001059 0.031665 -0.004536
# 6 0.003711 -0.002281 -0.003871 0.000812 -0.004536 0.022979
#
#
# Mechanical properties :
#
#
# Convention : Reuss Voigt Hill
#
# Bulk Modulus (GPa) = 39.41579 77.07054 58.24316
# Shear Modulus (GPa) = 40.86161 57.30700 49.08430
#
# Velocity S-wave (km/s) = 3.82621 4.53122 4.19356
# Velocity P-wave (km/s) = 5.80015 7.41544 6.65697
#
# Compressibility (1/GPa) = 0.02537054
#
# Stress axis : x y z
#
# Youngs Moduli (GPa) = 83.57925 275.29223 56.39888
#
# Poissons Ratio (x) = 0.36955 0.01360
# Poissons Ratio (y) = 0.11220 0.13509
# Poissons Ratio (z) = 0.02015 0.65941
#
# Static dielectric constant tensor:
#      x y z
#    x 2.171530 0.051570 -0.082730 
#    y 0.051570 2.359190 -0.006290 
#    z -0.082730 -0.006290 2.083690 
# 
# From -- ./inp_files/20265.got.cif
#   From: 2010.05.17/outbox.cif.g08.bks.cpg/sg2_11_cif.got.tgz:20265.got - 2010.06.03 11:33:40.
