data_PCOD9094152
_publ_section_title
;
Structure prediction by ZEFSAII (Michael W. Deem and Ramdas Pophale) SiO2 
 PCOD9094152
Probable space group: P -1
;
_chemical_formula_sum "Si O2"
_cell_formula_units_Z 16
_cell_length_a 28.773534
_cell_length_b 18.027049
_cell_length_c 14.731093
_cell_angle_alpha 20.585421
_cell_angle_beta 161.567806
_cell_angle_gamma 163.571043
_cell_volume 653.348229
_symmetry_space_group_name_H-M "P -1"
_symmetry_group_IT_number 2
_symmetry_cell_setting 'triclinic'
loop_
_space_group_symop_operation_xyz
x,y,z
-x,-y,-z
loop_
_atom_site_type_symbol
_atom_site_label
_atom_site_fract_x
_atom_site_fract_y
_atom_site_fract_z
Si Si1 0.881698 0.891612 0.548292
Si Si2 0.539752 0.679584 0.281666
Si Si3 0.281049 0.273094 0.102560
Si Si4 0.611859 0.607982 0.199395
Si Si5 0.056366 0.438558 0.535094
Si Si6 0.794261 0.133128 0.829565
Si Si7 0.272121 0.782439 0.708732
Si Si8 0.834153 0.478280 0.668476
O O1 0.747290 0.815730 0.471190
O O2 0.758475 0.809849 0.321392
O O3 0.051841 0.212437 0.505975
O O4 0.992201 0.772330 0.878886
O O5 0.500000 0.500000 0.500000
O O6 0.409130 0.488031 0.174276
O O7 0.477374 0.858262 0.992027
O O8 0.401665 0.418862 0.067906
O O9 0.266935 0.014795 0.395036
O O10 0.087673 0.232426 0.790853
O O11 0.674224 0.427722 0.495689
O O12 0.650711 0.810567 0.958653
O O13 0.189684 0.719354 0.402301
O O14 0.141410 0.521109 0.699527
O O15 0.837287 0.308471 0.293067
O O16 0.758831 0.269370 0.686826
O O17 0.000000 0.500000 0.000000
#
# Coordination Sequence:
#
# PCOD9094152 Si02
#       8
#     2   2   2   2   2   2   2   2
#     4  10  20  34  54  85 119 148 183 228 284 343
#     4  10  22  37  58  91 117 143 185 235 287 338
#     4  10  23  39  61  82 114 155 189 231 284 340
#     4  10  21  36  54  86 117 148 188 231 284 339
#     4  10  23  41  60  83 109 152 196 239 280 327
#     4  11  21  36  58  85 118 148 192 237 274 336
#     4  10  22  42  63  79 115 151 188 238 286 332
#     4  11  19  32  57  81 113 154 182 220 285 338
#
# _framework density 24.489238
#
# number of rings (size 3 to 8) (size 9 to 14) (size 15 to 20)
#    0.000    1.750    2.500    1.875    1.750    5.000 
#    0.000    1.250    0.000    0.000    0.000    0.000 
#    0.000    0.000    0.000    0.000    0.000    0.000 
#
# Total GULP energy -89409.748636 kJ/mol
# GULP energy per Si atom -5588.109290 kJ/mol
# Density = 2.443350 g / cm^3
# Si number density = 24.489238 Si / 1000 Ang^3
#
#
#
# Elastic Constant Matrix: (Units=GPa)
#
#
# Indices 1 2 3 4 5 6 
#
# 1 138.4582 29.5707 67.4773 5.0299 28.6812 33.7941
# 2 29.5707 40.1188 27.0892 -2.2956 16.3110 12.7055
# 3 67.4773 27.0892 126.4439 -10.0179 38.4012 15.6232
# 4 5.0299 -2.2956 -10.0179 32.0450 2.5747 -2.7650
# 5 28.6812 16.3110 38.4012 2.5747 53.4749 5.0357
# 6 33.7941 12.7055 15.6232 -2.7650 5.0357 34.5898
#
#
#
# Elastic Compliance Matrix: (Units=1/GPa)
#
#
# Indices 1 2 3 4 5 6 
#
# 1 0.013152 -0.002872 -0.005173 -0.004611 -0.001334 -0.009632
# 2 -0.002872 0.033869 -0.002792 0.001869 -0.006186 -0.007324
# 3 -0.005173 -0.002792 0.013492 0.005466 -0.006454 0.001362
# 4 -0.004611 0.001869 0.005466 0.034511 -0.004127 0.004709
# 5 -0.001334 -0.006186 -0.006454 -0.004127 0.025911 0.002388
# 6 -0.009632 -0.007324 0.001362 0.004709 0.002388 0.040424
#
#
# Mechanical properties :
#
#
# Convention : Reuss Voigt Hill
#
# Bulk Modulus (GPa) = 25.74690 61.47727 43.61208
# Shear Modulus (GPa) = 25.51276 36.08087 30.79681
#
# Velocity S-wave (km/s) = 3.23119 3.84257 3.55006
# Velocity P-wave (km/s) = 4.94542 6.69667 5.88653
#
# Compressibility (1/GPa) = 0.03883963
#
# Stress axis : x y z
#
# Youngs Moduli (GPa) = 76.03584 29.52520 74.11540
#
# Poissons Ratio (x) = 0.08479 0.38342
# Poissons Ratio (y) = 0.21836 0.20692
# Poissons Ratio (z) = 0.39336 0.08243
#
# Static dielectric constant tensor:
#      x y z
#    x 1.964180 0.034780 0.031900 
#    y 0.034780 1.958740 0.035190 
#    z 0.031900 0.035190 2.046760 
# 
# From -- ./inp_files/70302.got.cif
#   From: 2010.05.17/outbox.cif.g08.bks.cpg/sg2_36_cif.got.tgz:70302.got - 2010.06.03 11:33:40.
