data_PCOD9094521
_publ_section_title
;
Structure prediction by ZEFSAII (Michael W. Deem and Ramdas Pophale) SiO2 
 PCOD9094521
Probable space group: P -1
;
_chemical_formula_sum "Si O2"
_cell_formula_units_Z 16
_cell_length_a 13.088659
_cell_length_b 12.595583
_cell_length_c 15.058398
_cell_angle_alpha 39.230071
_cell_angle_beta 27.237156
_cell_angle_gamma 48.716623
_cell_volume 714.963632
_symmetry_space_group_name_H-M "P -1"
_symmetry_group_IT_number 2
_symmetry_cell_setting 'triclinic'
loop_
_space_group_symop_operation_xyz
x,y,z
-x,-y,-z
loop_
_atom_site_type_symbol
_atom_site_label
_atom_site_fract_x
_atom_site_fract_y
_atom_site_fract_z
Si Si1 0.093611 0.607325 0.636985
Si Si2 0.084575 0.623280 0.935285
Si Si3 0.525456 0.813352 0.136721
Si Si4 0.817990 0.909738 0.367411
Si Si5 0.651205 0.982303 0.115572
Si Si6 0.997850 0.155479 0.294453
Si Si7 0.751405 0.804633 0.686823
Si Si8 0.497798 0.193573 0.469571
O O1 0.321634 0.670984 0.368997
O O2 0.127408 0.741350 0.605364
O O3 0.867732 0.643583 0.736047
O O4 0.055241 0.430371 0.833643
O O5 0.347685 0.632430 0.746541
O O6 0.062278 0.799041 0.788706
O O7 0.000000 0.500000 0.000000
O O8 0.596184 0.853992 0.158620
O O9 0.745902 0.775232 0.938499
O O10 0.500000 0.000000 0.000000
O O11 0.677070 0.074449 0.365140
O O12 0.757567 0.816263 0.567902
O O13 0.711282 0.800838 0.437775
O O14 0.086426 0.950703 0.128006
O O15 0.583231 0.887510 0.321512
O O16 0.486849 0.134520 0.137536
O O17 0.931521 0.958488 0.482094
#
# Coordination Sequence:
#
# PCOD9094521 Si02
#       8
#     2   2   2   2   2   2   2   2
#     4  11  22  34  52  79 112 150 176 217 279 324
#     4  10  20  37  55  77 114 146 174 216 276 329
#     4  12  20  30  55  82 110 143 181 227 267 318
#     4  10  20  34  58  83 106 135 189 233 264 308
#     4  11  18  31  55  80 106 138 181 230 271 310
#     4  11  19  35  53  78 111 143 180 221 264 322
#     4  11  19  34  54  80 108 139 185 225 265 316
#     4  10  20  37  55  81 110 142 179 229 268 319
#
# _framework density 22.378761000000001
#
# number of rings (size 3 to 8) (size 9 to 14) (size 15 to 20)
#    0.000    1.250    6.250    2.250    0.000    0.500 
#    0.000    3.125    0.000    0.750    0.000    0.000 
#    0.000    0.000    0.000    0.000    0.000    0.000 
#
# Total GULP energy -89191.457901 kJ/mol
# GULP energy per Si atom -5574.466119 kJ/mol
# Density = 2.232783 g / cm^3
# Si number density = 22.378761 Si / 1000 Ang^3
#
#
#
# Elastic Constant Matrix: (Units=GPa)
#
#
# Indices 1 2 3 4 5 6 
#
# 1 100.4971 5.4798 32.4074 3.0206 -20.6294 -9.8582
# 2 5.4798 28.0872 20.9947 10.6462 -5.9203 -12.7988
# 3 32.4074 20.9947 106.6611 26.6643 -19.2949 -11.9975
# 4 3.0206 10.6462 26.6643 33.1444 -12.4765 0.9203
# 5 -20.6294 -5.9203 -19.2949 -12.4765 36.1384 -0.6161
# 6 -9.8582 -12.7988 -11.9975 0.9203 -0.6161 25.3624
#
#
#
# Elastic Compliance Matrix: (Units=1/GPa)
#
#
# Indices 1 2 3 4 5 6 
#
# 1 0.012707 0.002354 -0.003360 0.003323 0.007071 0.004589
# 2 0.002354 0.057888 -0.004579 -0.014459 0.003878 0.028580
# 3 -0.003360 -0.004579 0.014319 -0.009131 0.001885 0.003534
# 4 0.003323 -0.014459 -0.009131 0.046085 0.010363 -0.011745
# 5 0.007071 0.003878 0.001885 0.010363 0.037032 0.006121
# 6 0.004589 0.028580 0.003534 -0.011745 0.006121 0.057881
#
#
# Mechanical properties :
#
#
# Convention : Reuss Voigt Hill
#
# Bulk Modulus (GPa) = 13.56012 39.22324 26.39168
# Shear Modulus (GPa) = 19.10855 30.68661 24.89758
#
# Velocity S-wave (km/s) = 2.92528 3.70704 3.33912
# Velocity P-wave (km/s) = 4.18117 5.99065 5.16576
#
# Compressibility (1/GPa) = 0.07374567
#
# Stress axis : x y z
#
# Youngs Moduli (GPa) = 78.69427 17.27474 69.83889
#
# Poissons Ratio (x) = -0.04067 0.23463
# Poissons Ratio (y) = -0.18527 0.31978
# Poissons Ratio (z) = 0.26438 0.07910
#
# Static dielectric constant tensor:
#      x y z
#    x 1.887440 -0.050820 -0.016230 
#    y -0.050820 1.960350 0.032940 
#    z -0.016230 0.032940 1.879100 
# 
# From -- ./inp_files/426000.got.cif
#   From: 2010.05.17/outbox.cif.g08.bks.cpg/sg2_213_cif.got.tgz:426000.got - 2010.06.03 11:33:40.
