data_PCOD9094200
_publ_section_title
;
Structure prediction by ZEFSAII (Michael W. Deem and Ramdas Pophale) SiO2 
 PCOD9094200
Probable space group: P -1
;
_chemical_formula_sum "Si O2"
_cell_formula_units_Z 16
_cell_length_a 15.849214
_cell_length_b 18.079486
_cell_length_c 11.114129
_cell_angle_alpha 64.438302
_cell_angle_beta 44.520459
_cell_angle_gamma 28.759552
_cell_volume 879.924884
_symmetry_space_group_name_H-M "P -1"
_symmetry_group_IT_number 2
_symmetry_cell_setting 'triclinic'
loop_
_space_group_symop_operation_xyz
x,y,z
-x,-y,-z
loop_
_atom_site_type_symbol
_atom_site_label
_atom_site_fract_x
_atom_site_fract_y
_atom_site_fract_z
Si Si1 0.287804 0.283677 0.897287
Si Si2 0.393195 0.719433 0.059430
Si Si3 0.211920 0.912881 0.480185
Si Si4 0.772748 0.372868 0.079911
Si Si5 0.752453 0.216320 0.102712
Si Si6 0.482132 0.412882 0.480201
Si Si7 0.401609 0.872867 0.079901
Si Si8 0.891494 0.780566 0.940574
O O1 0.545642 0.175438 0.656039
O O2 0.340184 0.263001 0.001879
O O3 0.000000 0.500000 0.000000
O O4 0.288343 0.188985 0.925256
O O5 0.591052 0.543769 0.064151
O O6 0.453858 0.777352 0.987023
O O7 0.408443 0.688975 0.925244
O O8 0.076670 0.897576 0.295120
O O9 0.330044 0.749986 0.499962
O O10 0.210175 0.939630 0.322968
O O11 0.868074 0.236992 0.998117
O O12 0.587645 0.439593 0.322964
O O13 0.004387 0.277379 0.987024
O O14 0.552586 0.324547 0.343956
O O15 0.000000 0.000000 0.000000
O O16 0.166928 0.602445 0.704871
O O17 0.257281 0.043754 0.064108
#
# Coordination Sequence:
#
# PCOD9094200 Si02
#       8
#     2   2   2   2   2   2   2   2
#     4  10  21  35  54  82 109 149 177 224 279 324
#     4  12  19  39  55  82 119 136 188 227 272 329
#     4  10  20  34  55  83 108 144 179 223 280 317
#     4  10  23  33  59  85 109 147 179 231 279 318
#     4  10  21  35  54  82 109 149 177 224 279 324
#     4  10  20  34  55  83 108 144 179 223 280 317
#     4  10  23  33  59  85 109 147 179 231 279 318
#     4  12  19  39  55  82 119 136 188 227 272 329
#
# _framework density 18.183371000000001
#
# number of rings (size 3 to 8) (size 9 to 14) (size 15 to 20)
#    1.500    0.000    2.500    5.250    0.000    0.000 
#    0.000    0.000    0.000    1.500    0.000    0.000 
#    0.000    0.000    0.000    0.000    0.000    0.000 
#
# Total GULP energy -89161.999385 kJ/mol
# GULP energy per Si atom -5572.624962 kJ/mol
# Density = 1.814198 g / cm^3
# Si number density = 18.183371 Si / 1000 Ang^3
#
#
#
# Elastic Constant Matrix: (Units=GPa)
#
#
# Indices 1 2 3 4 5 6 
#
# 1 133.7733 37.5470 33.1678 1.1589 4.7151 -1.5417
# 2 37.5470 115.9104 27.8001 3.4009 0.6059 -0.0566
# 3 33.1678 27.8001 22.9744 10.6810 4.6542 -0.4915
# 4 1.1589 3.4009 10.6810 25.0018 -0.3582 0.8466
# 5 4.7151 0.6059 4.6542 -0.3582 22.1045 3.4619
# 6 -1.5417 -0.0566 -0.4915 0.8466 3.4619 36.5324
#
#
#
# Elastic Compliance Matrix: (Units=1/GPa)
#
#
# Indices 1 2 3 4 5 6 
#
# 1 0.013592 0.001891 -0.027653 0.010982 0.003103 -0.000344
# 2 0.001891 0.013463 -0.023839 0.008358 0.004514 -0.000842
# 3 -0.027653 -0.023839 0.144362 -0.057666 -0.025481 0.004489
# 4 0.010982 0.008358 -0.057666 0.063240 0.011035 -0.002810
# 5 0.003103 0.004514 -0.025481 0.011035 0.050824 -0.005277
# 6 -0.000344 -0.000842 0.004489 -0.002810 -0.005277 0.027983
#
#
# Mechanical properties :
#
#
# Convention : Reuss Voigt Hill
#
# Bulk Modulus (GPa) = 13.84742 52.18754 33.01748
# Shear Modulus (GPa) = 11.44849 28.33730 19.89290
#
# Velocity S-wave (km/s) = 2.51193 3.95196 3.31118
# Velocity P-wave (km/s) = 4.00562 7.04181 5.72853
#
# Compressibility (1/GPa) = 0.07221564
#
# Stress axis : x y z
#
# Youngs Moduli (GPa) = 73.57027 74.27636 6.92702
#
# Poissons Ratio (x) = -0.14043 0.19155
# Poissons Ratio (y) = -0.13909 0.16513
# Poissons Ratio (z) = 2.03442 1.77068
#
# Static dielectric constant tensor:
#      x y z
#    x 1.680330 -0.001040 0.004600 
#    y -0.001040 1.628680 -0.012160 
#    z 0.004600 -0.012160 1.615500 
# 
# From -- ./inp_files/456160.got.cif
#   From: 2010.05.17/outbox.cif.g08.bks.cpg/sg2_229_cif.got.tgz:456160.got - 2010.06.03 11:33:40.
