data_PCOD9094316
_publ_section_title
;
Structure prediction by ZEFSAII (Michael W. Deem and Ramdas Pophale) SiO2 
 PCOD9094316
Probable space group: P -1
;
_chemical_formula_sum "Si O2"
_cell_formula_units_Z 16
_cell_length_a 14.191989
_cell_length_b 7.992744
_cell_length_c 11.143050
_cell_angle_alpha 118.441151
_cell_angle_beta 68.375097
_cell_angle_gamma 138.806387
_cell_volume 731.884117
_symmetry_space_group_name_H-M "P -1"
_symmetry_group_IT_number 2
_symmetry_cell_setting 'triclinic'
loop_
_space_group_symop_operation_xyz
x,y,z
-x,-y,-z
loop_
_atom_site_type_symbol
_atom_site_label
_atom_site_fract_x
_atom_site_fract_y
_atom_site_fract_z
Si Si1 0.005924 0.968706 0.651399
Si Si2 0.867859 0.104305 0.610447
Si Si3 0.148241 0.118185 0.073853
Si Si4 0.725923 0.406482 0.235253
Si Si5 0.429660 0.182397 0.291359
Si Si6 0.428973 0.296107 0.076234
Si Si7 0.049125 0.605284 0.873460
Si Si8 0.340243 0.681826 0.042763
O O1 0.152667 0.281327 0.682505
O O2 0.893664 0.942061 0.616472
O O3 0.040393 0.810871 0.524011
O O4 0.948799 0.909724 0.791768
O O5 0.940086 0.361713 0.748429
O O6 0.698430 0.903157 0.598584
O O7 0.263498 0.129877 0.088890
O O8 0.241305 0.399570 0.060366
O O9 0.063441 0.852046 0.942870
O O10 0.573429 0.281366 0.312408
O O11 0.798907 0.299164 0.192522
O O12 0.711829 0.390020 0.092729
O O13 0.468900 0.374039 0.225728
O O14 0.347607 0.896384 0.170392
O O15 0.500000 0.500000 0.000000
O O16 0.496549 0.179087 0.980923
O O17 0.000000 0.500000 0.000000
#
# Coordination Sequence:
#
# PCOD9094316 Si02
#       8
#     2   2   2   2   2   2   2   2
#     4  10  21  37  55  84 109 145 194 226 275 337
#     4  10  21  36  58  80 109 151 189 225 278 334
#     4  11  19  34  58  82 115 144 188 230 274 333
#     4  10  20  34  56  83 115 139 185 235 280 328
#     4  11  19  35  55  81 116 146 184 226 285 329
#     4   9  17  31  53  86 112 142 179 228 276 328
#     4  11  18  35  58  83 107 142 188 231 272 328
#     4  10  21  31  54  88 116 144 177 237 285 322
#
# _framework density 21.861384999999999
#
# number of rings (size 3 to 8) (size 9 to 14) (size 15 to 20)
#    0.000    1.750    3.750    3.750    0.000    1.000 
#    0.000    0.625    0.000    0.000    0.000    5.250 
#    0.000    0.000    0.000    0.000    0.000    0.000 
#
# Total GULP energy -89184.531247 kJ/mol
# GULP energy per Si atom -5574.033203 kJ/mol
# Density = 2.181163 g / cm^3
# Si number density = 21.861385 Si / 1000 Ang^3
#
#
#
# Elastic Constant Matrix: (Units=GPa)
#
#
# Indices 1 2 3 4 5 6 
#
# 1 92.7461 24.2594 23.3495 -22.2630 -14.2143 35.7856
# 2 24.2594 95.3932 49.2241 -8.0131 -12.2225 4.7655
# 3 23.3495 49.2241 104.7477 -6.9927 -24.7745 8.8808
# 4 -22.2630 -8.0131 -6.9927 20.1141 13.4889 -10.1341
# 5 -14.2143 -12.2225 -24.7745 13.4889 23.9544 -12.7193
# 6 35.7856 4.7655 8.8808 -10.1341 -12.7193 43.1932
#
#
#
# Elastic Compliance Matrix: (Units=1/GPa)
#
#
# Indices 1 2 3 4 5 6 
#
# 1 0.022043 -0.002503 -0.004167 0.023453 -0.014090 -0.015777
# 2 -0.002503 0.014440 -0.006517 0.002566 -0.001204 0.002068
# 3 -0.004167 -0.006517 0.017561 -0.014188 0.022384 0.003823
# 4 0.023453 0.002566 -0.014188 0.112206 -0.068242 -0.010566
# 5 -0.014090 -0.001204 0.022384 -0.068242 0.106292 0.022493
# 6 -0.015777 0.002068 0.003823 -0.010566 0.022493 0.039353
#
#
# Mechanical properties :
#
#
# Convention : Reuss Voigt Hill
#
# Bulk Modulus (GPa) = 36.13806 54.06145 45.09976
# Shear Modulus (GPa) = 14.38880 30.52260 22.45570
#
# Velocity S-wave (km/s) = 2.56829 3.74061 3.20845
# Velocity P-wave (km/s) = 5.03600 6.59084 5.86517
#
# Compressibility (1/GPa) = 0.02767165
#
# Stress axis : x y z
#
# Youngs Moduli (GPa) = 45.36495 69.25141 56.94483
#
# Poissons Ratio (x) = 0.17332 0.23728
# Poissons Ratio (y) = 0.11354 0.37110
# Poissons Ratio (z) = 0.18903 0.45130
#
# Static dielectric constant tensor:
#      x y z
#    x 1.873650 0.032510 -0.021790 
#    y 0.032510 1.825600 -0.011830 
#    z -0.021790 -0.011830 1.845910 
# 
# From -- ./inp_files/312380.got.cif
#   From: 2010.05.17/outbox.cif.g08.bks.cpg/sg2_157_cif.got.tgz:312380.got - 2010.06.03 11:33:40.
