data_PCOD9094236
_publ_section_title
;
Structure prediction by ZEFSAII (Michael W. Deem and Ramdas Pophale) SiO2 
 PCOD9094236
Probable space group: P -1
;
_chemical_formula_sum "Si O2"
_cell_formula_units_Z 16
_cell_length_a 27.559778
_cell_length_b 29.922199
_cell_length_c 10.698179
_cell_angle_alpha 146.449079
_cell_angle_beta 33.649410
_cell_angle_gamma 170.609684
_cell_volume 790.419054
_symmetry_space_group_name_H-M "P -1"
_symmetry_group_IT_number 2
_symmetry_cell_setting 'triclinic'
loop_
_space_group_symop_operation_xyz
x,y,z
-x,-y,-z
loop_
_atom_site_type_symbol
_atom_site_label
_atom_site_fract_x
_atom_site_fract_y
_atom_site_fract_z
Si Si1 0.309189 0.567455 0.065704
Si Si2 0.815875 0.482018 0.404313
Si Si3 0.479154 0.169790 0.156524
Si Si4 0.318840 0.740810 0.302981
Si Si5 0.233278 0.007790 0.710230
Si Si6 0.795990 0.599173 0.343314
Si Si7 0.179472 0.238653 0.135142
Si Si8 0.894627 0.309498 0.498301
O O1 0.265656 0.605907 0.157755
O O2 0.049224 0.361903 0.242430
O O3 0.611096 0.835442 0.124518
O O4 0.284153 0.472248 0.799628
O O5 0.713026 0.357804 0.202743
O O6 0.045796 0.759305 0.540648
O O7 0.970948 0.557833 0.345129
O O8 0.510252 0.242367 0.567397
O O9 0.586220 0.349890 0.286196
O O10 0.499569 0.121219 0.891960
O O11 0.144334 0.879986 0.251850
O O12 0.065707 0.578512 0.417443
O O13 0.544679 0.983651 0.479255
O O14 0.013416 0.881093 0.831389
O O15 0.778593 0.667379 0.614232
O O16 0.500000 0.500000 0.000000
O O17 0.000000 0.000000 0.000000
#
# Coordination Sequence:
#
# PCOD9094236 Si02
#       8
#     2   2   2   2   2   2   2   2
#     4  10  21  38  62  84 120 164 206 238 290 350
#     4  11  20  37  59  86 120 161 205 241 289 345
#     4  11  20  37  59  86 120 161 205 241 289 345
#     4  10  20  34  55  86 123 160 205 252 291 331
#     4  11  22  39  63  90 115 157 197 241 288 369
#     4  11  22  39  63  90 115 157 197 241 288 369
#     4  12  24  42  64  94 119 148 187 244 308 360
#     4  10  20  34  55  86 123 160 205 252 291 331
#
# _framework density 20.242426999999999
#
# number of rings (size 3 to 8) (size 9 to 14) (size 15 to 20)
#    0.000    1.250    5.000    1.875    0.000    0.500 
#    0.000    1.250    0.000    4.500    0.000    0.000 
#    0.000    0.000    0.000    0.000    0.000    0.000 
#
# Total GULP energy -89242.954922 kJ/mol
# GULP energy per Si atom -5577.684683 kJ/mol
# Density = 2.019635 g / cm^3
# Si number density = 20.242427 Si / 1000 Ang^3
#
#
#
# Elastic Constant Matrix: (Units=GPa)
#
#
# Indices 1 2 3 4 5 6 
#
# 1 53.8266 16.2124 -4.1590 1.1886 -2.5146 19.3750
# 2 16.2124 107.6885 20.9932 0.0246 -1.9208 7.8885
# 3 -4.1590 20.9932 77.8300 -4.3168 6.7037 0.2828
# 4 1.1886 0.0246 -4.3168 30.4493 2.1329 1.3448
# 5 -2.5146 -1.9208 6.7037 2.1329 35.9283 6.5574
# 6 19.3750 7.8885 0.2828 1.3448 6.5574 36.7445
#
#
#
# Elastic Compliance Matrix: (Units=1/GPa)
#
#
# Indices 1 2 3 4 5 6 
#
# 1 0.024444 -0.003032 0.001842 -0.000372 0.003577 -0.012877
# 2 -0.003032 0.010422 -0.003084 -0.000368 0.001087 -0.000795
# 3 0.001842 -0.003084 0.014138 0.002131 -0.002801 0.000004
# 4 -0.000372 -0.000368 0.002131 0.033345 -0.002323 -0.000547
# 5 0.003577 0.001087 -0.002801 -0.002323 0.030152 -0.007394
# 6 -0.012877 -0.000795 0.000004 -0.000547 -0.007394 0.035515
#
#
# Mechanical properties :
#
#
# Convention : Reuss Voigt Hill
#
# Bulk Modulus (GPa) = 24.71834 33.93759 29.32797
# Shear Modulus (GPa) = 29.40309 34.37764 31.89036
#
# Velocity S-wave (km/s) = 3.81536 4.12551 3.97346
# Velocity P-wave (km/s) = 5.62557 6.28451 5.96415
#
# Compressibility (1/GPa) = 0.04045578
#
# Stress axis : x y z
#
# Youngs Moduli (GPa) = 40.90937 95.95546 70.72973
#
# Poissons Ratio (x) = 0.29093 -0.13029
# Poissons Ratio (y) = 0.12404 0.21815
# Poissons Ratio (z) = -0.07536 0.29595
#
# Static dielectric constant tensor:
#      x y z
#    x 1.783990 -0.040520 0.035990 
#    y -0.040520 1.747790 -0.014030 
#    z 0.035990 -0.014030 1.747200 
# 
# From -- ./inp_files/48980.got.cif
#   From: 2010.05.17/outbox.cif.g08.bks.cpg/sg2_25_cif.got.tgz:48980.got - 2010.06.03 11:33:40.
