data_PCOD9094916
_publ_section_title
;
Structure prediction by ZEFSAII (Michael W. Deem and Ramdas Pophale) SiO2 
 PCOD9094916
Probable space group: P -1
;
_chemical_formula_sum "Si O2"
_cell_formula_units_Z 15
_cell_length_a 13.958507
_cell_length_b 8.225964
_cell_length_c 9.073457
_cell_angle_alpha 114.729269
_cell_angle_beta 136.337133
_cell_angle_gamma 67.402027
_cell_volume 647.773538
_symmetry_space_group_name_H-M "P -1"
_symmetry_group_IT_number 2
_symmetry_cell_setting 'triclinic'
loop_
_space_group_symop_operation_xyz
x,y,z
-x,-y,-z
loop_
_atom_site_type_symbol
_atom_site_label
_atom_site_fract_x
_atom_site_fract_y
_atom_site_fract_z
Si Si1 0.183828 0.814531 0.968719
Si Si2 0.508055 0.809018 0.351621
Si Si3 0.843816 0.030352 0.531862
Si Si4 0.623723 0.622322 0.671471
Si Si5 0.462961 0.954788 0.779454
Si Si6 0.075625 0.548081 0.952519
Si Si7 0.980823 0.265092 0.537205
Si Si8 0.000000 0.000000 0.000000
O O1 0.087538 0.751204 0.978667
O O2 0.126092 0.749350 0.724766
O O3 0.135725 0.022090 0.031108
O O4 0.348514 0.760128 0.151028
O O5 0.618019 0.671378 0.510383
O O6 0.500000 0.000000 0.500000
O O7 0.551697 0.859670 0.257719
O O8 0.685590 0.116996 0.407903
O O9 0.924904 0.165286 0.578351
O O10 0.874158 0.847927 0.399615
O O11 0.898380 0.979817 0.734375
O O12 0.500000 0.500000 0.500000
O O13 0.576198 0.807227 0.776362
O O14 0.765046 0.527989 0.863140
O O15 0.500000 0.000000 0.000000
O O16 0.010977 0.455027 0.705964
O O17 0.000000 0.500000 0.000000
#
# Coordination Sequence:
#
# PCOD9094916 Si02
#       8
#     2   2   2   2   2   2   2   1
#     4  11  22  41  61  93 131 170 214 274 323 388
#     4  10  22  40  67  93 126 176 220 261 327 389
#     4  10  21  39  65  94 128 164 217 271 318 382
#     4  11  24  44  66  93 137 173 214 278 332 389
#     4  11  23  40  69  95 127 171 226 267 324 393
#     4  12  26  41  67  94 130 175 220 265 336 395
#     4  10  23  40  64  94 132 169 211 273 334 382
#     4  10  20  34  64  86 118 160 210 264 312 372
#
# _framework density 23.156241000000001
#
# number of rings (size 3 to 8) (size 9 to 14) (size 15 to 20)
#    0.000    1.333    1.333    4.400    1.867   10.667 
#    0.000    2.000    0.000    0.000    0.000    0.000 
#    0.000    0.000    0.000    0.000    0.000    0.000 
#
# Total GULP energy -83582.288413 kJ/mol
# GULP energy per Si atom -5572.152561 kJ/mol
# Density = 2.310354 g / cm^3
# Si number density = 23.156241 Si / 1000 Ang^3
#
#
#
# Elastic Constant Matrix: (Units=GPa)
#
#
# Indices 1 2 3 4 5 6 
#
# 1 98.4514 23.1830 53.1840 -4.5282 -15.3139 9.6715
# 2 23.1830 68.7333 37.1482 -6.7153 -11.8736 12.0084
# 3 53.1840 37.1482 148.1124 -20.5607 -18.5180 0.3223
# 4 -4.5282 -6.7153 -20.5607 39.2292 -0.1929 -1.7153
# 5 -15.3139 -11.8736 -18.5180 -0.1929 39.9379 -15.4288
# 6 9.6715 12.0084 0.3223 -1.7153 -15.4288 30.9344
#
#
#
# Elastic Compliance Matrix: (Units=1/GPa)
#
#
# Indices 1 2 3 4 5 6 
#
# 1 0.013336 -0.001481 -0.004374 -0.001124 0.001542 -0.002843
# 2 -0.001481 0.018436 -0.003900 0.000670 0.000684 -0.006275
# 3 -0.004374 -0.003900 0.010410 0.004521 0.003939 0.004988
# 4 -0.001124 0.000670 0.004521 0.028002 0.003241 0.003213
# 5 0.001542 0.000684 0.003939 0.003241 0.033989 0.016343
# 6 -0.002843 -0.006275 0.004988 0.003213 0.016343 0.043929
#
#
# Mechanical properties :
#
#
# Convention : Reuss Voigt Hill
#
# Bulk Modulus (GPa) = 44.10784 60.25863 52.18323
# Shear Modulus (GPa) = 28.54365 35.47242 32.00804
#
# Velocity S-wave (km/s) = 3.51473 3.91816 3.72191
# Velocity P-wave (km/s) = 5.96325 6.82264 6.40737
#
# Compressibility (1/GPa) = 0.02267171
#
# Stress axis : x y z
#
# Youngs Moduli (GPa) = 74.98231 54.24106 96.06364
#
# Poissons Ratio (x) = 0.08032 0.42023
# Poissons Ratio (y) = 0.11103 0.37466
# Poissons Ratio (z) = 0.32801 0.21155
#
# Static dielectric constant tensor:
#      x y z
#    x 1.969910 -0.024990 0.101610 
#    y -0.024990 2.190380 0.047110 
#    z 0.101610 0.047110 2.103230 
# 
# From -- ./inp_files/184213.got.cif
#   From: 2010.05.17/outbox.cif.g08.bks.cpg/sg2_93_cif.got.tgz:184213.got - 2010.06.03 11:33:40.
