data_PCOD9094704
_publ_section_title
;
Structure prediction by ZEFSAII (Michael W. Deem and Ramdas Pophale) SiO2 
 PCOD9094704
Probable space group: P -1
;
_chemical_formula_sum "Si O2"
_cell_formula_units_Z 16
_cell_length_a 12.992637
_cell_length_b 8.853926
_cell_length_c 25.418315
_cell_angle_alpha 43.077864
_cell_angle_beta 159.759027
_cell_angle_gamma 124.566007
_cell_volume 598.669814
_symmetry_space_group_name_H-M "P -1"
_symmetry_group_IT_number 2
_symmetry_cell_setting 'triclinic'
loop_
_space_group_symop_operation_xyz
x,y,z
-x,-y,-z
loop_
_atom_site_type_symbol
_atom_site_label
_atom_site_fract_x
_atom_site_fract_y
_atom_site_fract_z
Si Si1 0.299437 0.807986 0.588843
Si Si2 0.756206 0.871320 0.237379
Si Si3 0.299959 0.719478 0.110252
Si Si4 0.743034 0.545846 0.144280
Si Si5 0.818200 0.032592 0.664366
Si Si6 0.386115 0.438732 0.087233
Si Si7 0.414722 0.866226 0.361975
Si Si8 0.012231 0.738301 0.135045
O O1 0.932818 0.856923 0.381909
O O2 0.551421 0.573370 0.730587
O O3 0.273953 0.080546 0.498815
O O4 0.447056 0.718017 0.740313
O O5 0.573112 0.706514 0.200830
O O6 0.038146 0.827231 0.340125
O O7 0.456278 0.155853 0.009890
O O8 0.248379 0.953296 0.063267
O O9 0.910362 0.841135 0.874188
O O10 0.707596 0.405322 0.214455
O O11 0.010995 0.568885 0.227620
O O12 0.500000 0.500000 0.000000
O O13 0.689313 0.185976 0.617869
O O14 0.128105 0.742023 0.892596
O O15 0.500000 0.000000 0.500000
O O16 0.138311 0.347514 0.963091
O O17 0.366397 0.737672 0.319212
#
# Coordination Sequence:
#
# PCOD9094704 Si02
#       8
#     2   2   2   2   2   2   2   2
#     4  12  21  35  56  87 117 150 185 231 287 333
#     4  10  21  35  60  85 115 141 192 241 272 329
#     4   9  20  37  57  82 113 147 188 231 281 328
#     4   8  16  36  58  77 108 148 184 230 275 324
#     4  11  21  37  59  86 110 147 190 234 281 332
#     4  10  20  34  60  85 109 154 188 224 283 346
#     4  10  21  36  58  78 116 151 186 228 285 330
#     4   8  18  36  57  82 109 146 190 231 270 334
#
# _framework density 26.725916999999999
#
# number of rings (size 3 to 8) (size 9 to 14) (size 15 to 20)
#    0.750    1.500    2.500    0.750    0.000    2.000 
#    0.000    6.250    0.000    0.000    0.000    0.000 
#    0.000    0.000    0.000    0.000    0.000    0.000 
#
# Total GULP energy -89131.658881 kJ/mol
# GULP energy per Si atom -5570.728680 kJ/mol
# Density = 2.666509 g / cm^3
# Si number density = 26.725917 Si / 1000 Ang^3
#
#
#
# Elastic Constant Matrix: (Units=GPa)
#
#
# Indices 1 2 3 4 5 6 
#
# 1 105.4928 13.9421 30.2577 3.6261 -6.0177 -0.5257
# 2 13.9421 135.5220 30.6782 24.4746 -10.3672 0.6368
# 3 30.2577 30.6782 47.6225 12.8665 -8.9780 -9.4748
# 4 3.6261 24.4746 12.8665 33.1270 3.9508 -1.8866
# 5 -6.0177 -10.3672 -8.9780 3.9508 45.2584 7.3448
# 6 -0.5257 0.6368 -9.4748 -1.8866 7.3448 29.4166
#
#
#
# Elastic Compliance Matrix: (Units=1/GPa)
#
#
# Indices 1 2 3 4 5 6 
#
# 1 0.011872 0.000513 -0.008759 0.001548 0.000242 -0.002581
# 2 0.000513 0.009699 -0.005192 -0.005627 0.002203 -0.002784
# 3 -0.008759 -0.005192 0.034881 -0.008647 0.003746 0.009701
# 4 0.001548 -0.005627 -0.008647 0.038374 -0.006378 0.001418
# 5 0.000242 0.002203 0.003746 -0.006378 0.024815 -0.005442
# 6 -0.002581 -0.002784 0.009701 0.001418 -0.005442 0.038583
#
#
# Mechanical properties :
#
#
# Convention : Reuss Voigt Hill
#
# Bulk Modulus (GPa) = 33.81329 48.71035 41.26182
# Shear Modulus (GPa) = 25.64624 35.81102 30.72863
#
# Velocity S-wave (km/s) = 3.10110 3.66448 3.39450
# Velocity P-wave (km/s) = 5.04993 6.01415 5.55301
#
# Compressibility (1/GPa) = 0.02957417
#
# Stress axis : x y z
#
# Youngs Moduli (GPa) = 84.23431 103.10048 28.66880
#
# Poissons Ratio (x) = -0.05285 0.25112
# Poissons Ratio (y) = -0.04318 0.14886
# Poissons Ratio (z) = 0.73783 0.53533
#
# Static dielectric constant tensor:
#      x y z
#    x 2.240490 -0.018710 0.097430 
#    y -0.018710 2.049770 -0.030330 
#    z 0.097430 -0.030330 2.150330 
# 
# From -- ./inp_files/619259.got.cif
#   From: 2010.05.17/outbox.cif.g08.bks.cpg/sg2_310_cif.got.tgz:619259.got - 2010.06.03 11:33:40.
