data_PCOD9094646
_publ_section_title
;
Structure prediction by ZEFSAII (Michael W. Deem and Ramdas Pophale) SiO2 
 PCOD9094646
Probable space group: P -1
;
_chemical_formula_sum "Si O2"
_cell_formula_units_Z 16
_cell_length_a 9.394754
_cell_length_b 13.727984
_cell_length_c 11.395662
_cell_angle_alpha 31.536409
_cell_angle_beta 101.316315
_cell_angle_gamma 112.858237
_cell_volume 680.055904
_symmetry_space_group_name_H-M "P -1"
_symmetry_group_IT_number 2
_symmetry_cell_setting 'triclinic'
loop_
_space_group_symop_operation_xyz
x,y,z
-x,-y,-z
loop_
_atom_site_type_symbol
_atom_site_label
_atom_site_fract_x
_atom_site_fract_y
_atom_site_fract_z
Si Si1 0.500011 0.827018 0.773173
Si Si2 0.010714 0.786081 0.295771
Si Si3 0.550704 0.271390 0.864386
Si Si4 0.157966 0.980969 0.345557
Si Si5 0.332130 0.255519 0.638080
Si Si6 0.909810 0.328983 0.810451
Si Si7 0.826691 0.323577 0.183413
Si Si8 0.866687 0.045905 0.284030
O O1 0.328554 0.636880 0.910408
O O2 0.500000 0.000000 0.500000
O O3 0.675466 0.830964 0.784493
O O4 0.494917 0.844988 0.897450
O O5 0.827460 0.751497 0.317109
O O6 0.008714 0.568622 0.556105
O O7 0.117700 0.965100 0.217875
O O8 0.071709 0.805688 0.153960
O O9 0.432492 0.192518 0.814043
O O10 0.570840 0.508400 0.634060
O O11 0.725808 0.288930 0.841152
O O12 0.177756 0.773039 0.591672
O O13 0.998411 0.958861 0.410299
O O14 0.270258 0.108878 0.665229
O O15 0.964618 0.254348 0.011682
O O16 0.801922 0.127303 0.297435
O O17 0.000000 0.500000 0.000000
#
# Coordination Sequence:
#
# PCOD9094646 Si02
#       8
#     2   2   2   2   2   2   2   2
#     4  10  23  41  64  91 122 169 215 260 310 375
#     4   9  20  38  57  88 125 163 208 248 323 373
#     4  10  20  41  61  90 133 167 209 254 322 368
#     4  10  23  39  61  88 128 158 207 266 313 369
#     4   9  22  36  63  93 127 168 202 263 316 380
#     4  10  20  34  59  88 124 161 208 254 304 382
#     4  11  23  43  69  86 117 168 217 260 316 374
#     4  11  22  37  62  96 119 160 216 257 317 377
#
# _framework density 23.527477000000001
#
# number of rings (size 3 to 8) (size 9 to 14) (size 15 to 20)
#    0.000    2.000    1.250    1.125    7.000    2.500 
#    0.000    0.625    5.500    0.000    0.000    0.000 
#    0.000    0.000    0.000    0.000    0.000    0.000 
#
# Total GULP energy -89216.594746 kJ/mol
# GULP energy per Si atom -5576.037172 kJ/mol
# Density = 2.347393 g / cm^3
# Si number density = 23.527477 Si / 1000 Ang^3
#
#
#
# Elastic Constant Matrix: (Units=GPa)
#
#
# Indices 1 2 3 4 5 6 
#
# 1 62.3210 39.4044 6.7548 5.4686 -10.2876 23.8542
# 2 39.4044 109.8795 24.7746 12.4465 -3.0976 2.7120
# 3 6.7548 24.7746 79.5683 13.0364 1.2952 6.3271
# 4 5.4686 12.4465 13.0364 41.8460 0.2334 -4.2793
# 5 -10.2876 -3.0976 1.2952 0.2334 33.6972 5.0890
# 6 23.8542 2.7120 6.3271 -4.2793 5.0890 48.1606
#
#
#
# Elastic Compliance Matrix: (Units=1/GPa)
#
#
# Indices 1 2 3 4 5 6 
#
# 1 0.030780 -0.010470 0.002328 -0.003372 0.010846 -0.016408
# 2 -0.010470 0.013571 -0.003528 -0.001037 -0.002571 0.005065
# 3 0.002328 -0.003528 0.014388 -0.004071 0.000351 -0.003243
# 4 -0.003372 -0.001037 -0.004071 0.026417 -0.001877 0.004809
# 5 0.010846 -0.002571 0.000351 -0.001877 0.034117 -0.009046
# 6 -0.016408 0.005065 -0.003243 0.004809 -0.009046 0.030415
#
#
# Mechanical properties :
#
#
# Convention : Reuss Voigt Hill
#
# Bulk Modulus (GPa) = 28.24995 43.73738 35.99366
# Shear Modulus (GPa) = 27.05224 36.79644 31.92434
#
# Velocity S-wave (km/s) = 3.39457 3.95901 3.68760
# Velocity P-wave (km/s) = 5.23426 6.28718 5.78472
#
# Compressibility (1/GPa) = 0.03539830
#
# Stress axis : x y z
#
# Youngs Moduli (GPa) = 32.48812 73.68611 69.50371
#
# Poissons Ratio (x) = 0.77153 -0.16178
# Poissons Ratio (y) = 0.34017 0.24519
# Poissons Ratio (z) = -0.07562 0.25994
#
# Static dielectric constant tensor:
#      x y z
#    x 1.907410 0.015550 0.009670 
#    y 0.015550 1.923730 -0.014190 
#    z 0.009670 -0.014190 1.964960 
# 
# From -- ./inp_files/398233.got.cif
#   From: 2010.05.17/outbox.cif.g08.bks.cpg/sg2_200_cif.got.tgz:398233.got - 2010.06.03 11:33:40.
