data_PCOD9094620
_publ_section_title
;
Structure prediction by ZEFSAII (Michael W. Deem and Ramdas Pophale) SiO2 
 PCOD9094620
Probable space group: P -1
;
_chemical_formula_sum "Si O2"
_cell_formula_units_Z 16
_cell_length_a 17.467955
_cell_length_b 24.250296
_cell_length_c 11.881736
_cell_angle_alpha 148.805504
_cell_angle_beta 28.378467
_cell_angle_gamma 159.881280
_cell_volume 809.545964
_symmetry_space_group_name_H-M "P -1"
_symmetry_group_IT_number 2
_symmetry_cell_setting 'triclinic'
loop_
_space_group_symop_operation_xyz
x,y,z
-x,-y,-z
loop_
_atom_site_type_symbol
_atom_site_label
_atom_site_fract_x
_atom_site_fract_y
_atom_site_fract_z
Si Si1 0.316814 0.413747 0.407576
Si Si2 0.685720 0.070349 0.983154
Si Si3 0.168245 0.259223 0.968940
Si Si4 0.247076 0.667115 0.536705
Si Si5 0.254231 0.171905 0.920392
Si Si6 0.191957 0.043824 0.240305
Si Si7 0.191113 0.268027 0.551387
Si Si8 0.715860 0.489350 0.595572
O O1 0.169004 0.308920 0.528347
O O2 0.585785 0.572242 0.386005
O O3 0.221113 0.459899 0.528597
O O4 0.320480 0.310508 0.146306
O O5 0.941252 0.166491 0.761725
O O6 0.604845 0.922326 0.896733
O O7 0.735632 0.200495 0.220289
O O8 0.500000 0.000000 0.000000
O O9 0.185383 0.173954 0.888031
O O10 0.431151 0.387245 0.790471
O O11 0.139766 0.353937 0.239046
O O12 0.951933 0.120656 0.925219
O O13 0.491559 0.765811 0.316943
O O14 0.265351 0.610354 0.532967
O O15 0.000000 0.500000 0.500000
O O16 0.000000 0.000000 0.000000
O O17 0.253278 0.172523 0.304002
O O18 0.000000 0.000000 0.500000
#
# Coordination Sequence:
#
# PCOD9094620 Si02
#       8
#     2   2   2   2   2   2   2   2
#     4  10  20  37  63  90 114 154 212 255 295 358
#     4  11  25  37  59  91 125 160 200 252 314 374
#     4   9  17  32  55  87 110 148 206 256 289 350
#     4  11  23  39  63  89 130 165 202 253 323 373
#     4  10  21  35  65  90 119 155 212 259 299 361
#     4  10  20  34  59  81 117 153 206 247 298 360
#     4  10  22  38  62  85 123 160 206 247 304 371
#     4   9  18  32  59  85 115 153 204 251 298 358
#
# _framework density 19.764164999999998
#
# number of rings (size 3 to 8) (size 9 to 14) (size 15 to 20)
#    0.000    2.000    0.000    4.500   10.500    0.000 
#    0.000    0.625    5.500    4.500    0.000    0.000 
#    0.000    0.000    0.000    0.000    0.000    0.000 
#
# Total GULP energy -89120.006278 kJ/mol
# GULP energy per Si atom -5570.000392 kJ/mol
# Density = 1.971918 g / cm^3
# Si number density = 19.764165 Si / 1000 Ang^3
#
#
#
# Elastic Constant Matrix: (Units=GPa)
#
#
# Indices 1 2 3 4 5 6 
#
# 1 102.5967 33.1834 38.9520 8.1594 4.7058 -12.7386
# 2 33.1834 88.1919 35.3025 4.0575 -5.4414 -10.1788
# 3 38.9520 35.3025 67.9689 4.6855 -11.3220 0.2252
# 4 8.1594 4.0575 4.6855 22.7423 -2.6258 4.2608
# 5 4.7058 -5.4414 -11.3220 -2.6258 24.6325 1.6625
# 6 -12.7386 -10.1788 0.2252 4.2608 1.6625 34.2823
#
#
#
# Elastic Compliance Matrix: (Units=1/GPa)
#
#
# Indices 1 2 3 4 5 6 
#
# 1 0.015297 -0.001724 -0.008915 -0.005500 -0.008414 0.006323
# 2 -0.001724 0.015274 -0.006838 -0.001454 0.000128 0.004114
# 3 -0.008915 -0.006838 0.025344 0.001824 0.012464 -0.006340
# 4 -0.005500 -0.001454 0.001824 0.048331 0.007317 -0.008849
# 5 -0.008414 0.000128 0.012464 0.007317 0.049178 -0.006464
# 6 0.006323 0.004114 -0.006340 -0.008849 -0.006464 0.034195
#
#
# Mechanical properties :
#
#
# Convention : Reuss Voigt Hill
#
# Bulk Modulus (GPa) = 47.70091 52.62591 50.16341
# Shear Modulus (GPa) = 21.78086 26.41937 24.10011
#
# Velocity S-wave (km/s) = 3.32330 3.66010 3.49576
# Velocity P-wave (km/s) = 6.23804 6.67432 6.45986
#
# Compressibility (1/GPa) = 0.02096396
#
# Stress axis : x y z
#
# Youngs Moduli (GPa) = 65.37088 65.47039 39.45648
#
# Poissons Ratio (x) = 0.11285 0.35174
# Poissons Ratio (y) = 0.11268 0.26978
# Poissons Ratio (z) = 0.58276 0.44765
#
# Static dielectric constant tensor:
#      x y z
#    x 1.772990 -0.036600 -0.018540 
#    y -0.036600 1.740190 0.015830 
#    z -0.018540 0.015830 1.687600 
# 
# From -- ./inp_files/467470.got.cif
#   From: 2010.05.17/outbox.cif.g08.bks.cpg/sg2_234_cif.got.tgz:467470.got - 2010.06.03 11:33:40.
