data_PCOD9094311
_publ_section_title
;
Structure prediction by ZEFSAII (Michael W. Deem and Ramdas Pophale) SiO2 
 PCOD9094311
Probable space group: P -1
;
_chemical_formula_sum "Si O2"
_cell_formula_units_Z 10
_cell_length_a 14.762934
_cell_length_b 12.443737
_cell_length_c 21.292843
_cell_angle_alpha 161.847293
_cell_angle_beta 159.284072
_cell_angle_gamma 28.802127
_cell_volume 428.301979
_symmetry_space_group_name_H-M "P -1"
_symmetry_group_IT_number 2
_symmetry_cell_setting 'triclinic'
loop_
_space_group_symop_operation_xyz
x,y,z
-x,-y,-z
loop_
_atom_site_type_symbol
_atom_site_label
_atom_site_fract_x
_atom_site_fract_y
_atom_site_fract_z
Si Si1 0.631789 0.751576 0.671209
Si Si2 0.356796 0.699769 0.912208
Si Si3 0.062015 0.832762 0.618231
Si Si4 0.895100 0.652992 0.275710
Si Si5 0.590084 0.684850 0.816961
O O1 0.500000 0.500000 0.500000
O O2 0.450881 0.664707 0.444879
O O3 0.902913 0.622137 0.755865
O O4 0.677768 0.110067 0.937245
O O5 0.115489 0.415061 0.588326
O O6 0.620098 0.531261 0.999827
O O7 0.396905 0.993252 0.046641
O O8 0.332366 0.689886 0.694557
O O9 0.899695 0.799219 0.430404
O O10 0.162864 0.208025 0.920011
O O11 0.000000 0.000000 0.500000
#
# Coordination Sequence:
#
# PCOD9094311 Si02
#       5
#     2   2   2   2   2
#     4   9  18  34  59  79 105 142 181 217 269 312
#     4  11  20  36  61  79 106 144 181 221 264 319
#     4  10  20  34  56  83 108 142 179 220 272 314
#     4  11  19  35  56  81 109 142 180 221 263 320
#     4   9  19  35  54  82 110 140 178 219 271 320
#
# _framework density 23.348012000000001
#
# number of rings (size 3 to 8) (size 9 to 14) (size 15 to 20)
#    0.000    2.000    6.000    1.200    0.000    3.200 
#    0.000    1.000    0.000   15.600    0.000    0.000 
#    0.000    0.000    0.000    0.000    0.000    0.000 
#
# Total GULP energy -55822.076949 kJ/mol
# GULP energy per Si atom -5582.207695 kJ/mol
# Density = 2.329487 g / cm^3
# Si number density = 23.348012 Si / 1000 Ang^3
#
#
#
# Elastic Constant Matrix: (Units=GPa)
#
#
# Indices 1 2 3 4 5 6 
#
# 1 76.1400 25.4452 29.0407 -14.0726 2.9025 -7.4782
# 2 25.4452 37.1045 24.0727 -5.8049 8.7793 -5.1478
# 3 29.0407 24.0727 133.1706 -11.1489 20.5655 -6.2709
# 4 -14.0726 -5.8049 -11.1489 24.2913 -4.2315 -4.2846
# 5 2.9025 8.7793 20.5655 -4.2315 40.5928 -0.0936
# 6 -7.4782 -5.1478 -6.2709 -4.2846 -0.0936 40.5904
#
#
#
# Elastic Compliance Matrix: (Units=1/GPa)
#
#
# Indices 1 2 3 4 5 6 
#
# 1 0.019255 -0.010958 -0.001793 0.008699 0.002815 0.002806
# 2 -0.010958 0.038536 -0.003530 0.000670 -0.005687 0.002381
# 3 -0.001793 -0.003530 0.009296 0.001905 -0.003618 0.000851
# 4 0.008699 0.000670 0.001905 0.049099 0.003403 0.007172
# 5 0.002815 -0.005687 -0.003618 0.003403 0.027850 -0.000338
# 6 0.002806 0.002381 0.000851 0.007172 -0.000338 0.026343
#
#
# Mechanical properties :
#
#
# Convention : Reuss Voigt Hill
#
# Bulk Modulus (GPa) = 28.96217 44.83694 36.89955
# Shear Modulus (GPa) = 23.31546 32.28532 27.80039
#
# Velocity S-wave (km/s) = 3.16350 3.72262 3.45439
# Velocity P-wave (km/s) = 5.07692 6.14187 5.63461
#
# Compressibility (1/GPa) = 0.03452780
#
# Stress axis : x y z
#
# Youngs Moduli (GPa) = 51.93348 25.94952 107.56868
#
# Poissons Ratio (x) = 0.28434 0.19282
# Poissons Ratio (y) = 0.56907 0.37972
# Poissons Ratio (z) = 0.09309 0.09160
#
# Static dielectric constant tensor:
#      x y z
#    x 1.901140 0.030240 -0.000640 
#    y 0.030240 1.884260 0.003340 
#    z -0.000640 0.003340 1.895670 
# 
# From -- ./inp_files/144717.got.cif
#   From: 2010.05.17/outbox.cif.g08.bks.cpg/sg2_73_cif.got.tgz:144717.got - 2010.06.03 11:33:40.
