data_PCOD9094192
_publ_section_title
;
Structure prediction by ZEFSAII (Michael W. Deem and Ramdas Pophale) SiO2 
 PCOD9094192
Probable space group: P -1
;
_chemical_formula_sum "Si O2"
_cell_formula_units_Z 16
_cell_length_a 7.767028
_cell_length_b 19.950588
_cell_length_c 19.434382
_cell_angle_alpha 20.584035
_cell_angle_beta 45.111850
_cell_angle_gamma 41.479428
_cell_volume 701.162252
_symmetry_space_group_name_H-M "P -1"
_symmetry_group_IT_number 2
_symmetry_cell_setting 'triclinic'
loop_
_space_group_symop_operation_xyz
x,y,z
-x,-y,-z
loop_
_atom_site_type_symbol
_atom_site_label
_atom_site_fract_x
_atom_site_fract_y
_atom_site_fract_z
Si Si1 0.881033 0.046455 0.095764
Si Si2 0.946659 0.057274 0.331502
Si Si3 0.152869 0.351738 0.256906
Si Si4 0.986132 0.297526 0.952615
Si Si5 0.447377 0.942589 0.992476
Si Si6 0.546672 0.554963 0.194188
Si Si7 0.744486 0.461409 0.080883
Si Si8 0.457247 0.176844 0.626650
O O1 0.758755 0.873405 0.308428
O O2 0.638148 0.213795 0.964073
O O3 0.153471 0.948498 0.074376
O O4 0.930230 0.174679 0.022254
O O5 0.816994 0.228007 0.261079
O O6 0.824571 0.881965 0.524935
O O7 0.254198 0.945063 0.367409
O O8 0.940157 0.177700 0.147268
O O9 0.173599 0.464916 0.212988
O O10 0.850229 0.479772 0.200133
O O11 0.323758 0.398483 0.103095
O O12 0.295815 0.256856 0.900165
O O13 0.500000 0.000000 0.000000
O O14 0.452234 0.105935 0.775400
O O15 0.558653 0.518711 0.143412
O O16 0.422756 0.410916 0.405864
O O17 0.000000 0.500000 0.000000
#
# Coordination Sequence:
#
# PCOD9094192 Si02
#       8
#     2   2   2   2   2   2   2   2
#     4  11  21  35  55  78 112 144 173 224 276 319
#     4   9  18  34  56  80 108 144 185 222 260 314
#     4   9  18  34  57  78 106 144 184 224 260 313
#     4   9  19  36  55  77 105 143 185 221 264 318
#     4   9  19  37  59  79 104 142 181 219 268 323
#     4  10  21  33  53  83 110 138 176 221 271 318
#     4   9  17  31  53  83 111 140 180 221 265 315
#     4  10  20  34  55  82 109 138 175 221 271 321
#
# _framework density 22.819254999999998
#
# number of rings (size 3 to 8) (size 9 to 14) (size 15 to 20)
#    0.000    2.500    0.000    3.375    0.000    7.000 
#    0.000    5.000    0.000   26.250    0.000    0.000 
#    0.000    0.000    0.000    0.000    0.000    0.000 
#
# Total GULP energy -89276.348212 kJ/mol
# GULP energy per Si atom -5579.771763 kJ/mol
# Density = 2.276732 g / cm^3
# Si number density = 22.819255 Si / 1000 Ang^3
#
#
#
# Elastic Constant Matrix: (Units=GPa)
#
#
# Indices 1 2 3 4 5 6 
#
# 1 84.3541 27.8080 6.2436 3.9899 -27.4008 -4.6759
# 2 27.8080 79.2210 10.8312 3.3651 19.4962 37.3849
# 3 6.2436 10.8312 90.3435 1.5169 -5.3748 21.3436
# 4 3.9899 3.3651 1.5169 24.3686 -2.5745 -8.4221
# 5 -27.4008 19.4962 -5.3748 -2.5745 4.5750 -15.4749
# 6 -4.6759 37.3849 21.3436 -8.4221 -15.4749 31.7787
#
#
#
# Elastic Compliance Matrix: (Units=1/GPa)
#
#
# Indices 1 2 3 4 5 6 
#
# 1 0.007566 0.004115 0.000947 -0.006131 -0.008015 -0.009891
# 2 0.004115 0.005044 -0.000875 0.001924 0.017165 0.004127
# 3 0.000947 -0.000875 0.012704 -0.002047 0.005514 -0.005221
# 4 -0.006131 0.001924 -0.002047 0.041859 -0.011893 0.003511
# 5 -0.008015 0.017165 0.005514 -0.011893 -0.002688 -0.029536
# 6 -0.009891 0.004127 -0.005221 0.003511 -0.029536 0.015211
#
#
# Mechanical properties :
#
#
# Convention : Reuss Voigt Hill
#
# Bulk Modulus (GPa) = 29.68407 38.18714 33.93560
# Shear Modulus (GPa) = 60.56687 26.08019 43.32353
#
# Velocity S-wave (km/s) = 5.15748 3.38435 4.36196
# Velocity P-wave (km/s) = 6.96439 5.66063 6.34608
#
# Compressibility (1/GPa) = 0.03368811
#
# Stress axis : x y z
#
# Youngs Moduli (GPa) = 132.16216 198.23591 78.71391
#
# Poissons Ratio (x) = -0.81578 -0.07452
# Poissons Ratio (y) = -0.54387 0.06891
# Poissons Ratio (z) = -0.12511 0.17353
#
# Static dielectric constant tensor:
#      x y z
#    x 1.983100 0.004680 -0.011490 
#    y 0.004680 1.858390 -0.002560 
#    z -0.011490 -0.002560 1.807420 
# 
# From -- ./inp_files/591578.got.cif
#   From: 2010.05.17/outbox.cif.g08.bks.cpg/sg2_296_cif.got.tgz:591578.got - 2010.06.03 11:33:40.
