data_PCOD9094256
_publ_section_title
;
Structure prediction by ZEFSAII (Michael W. Deem and Ramdas Pophale) SiO2 
 PCOD9094256
Probable space group: P -1
;
_chemical_formula_sum "Si O2"
_cell_formula_units_Z 16
_cell_length_a 13.830462
_cell_length_b 21.342302
_cell_length_c 21.348610
_cell_angle_alpha 19.597701
_cell_angle_beta 30.265994
_cell_angle_gamma 22.853380
_cell_volume 820.404769
_symmetry_space_group_name_H-M "P -1"
_symmetry_group_IT_number 2
_symmetry_cell_setting 'triclinic'
loop_
_space_group_symop_operation_xyz
x,y,z
-x,-y,-z
loop_
_atom_site_type_symbol
_atom_site_label
_atom_site_fract_x
_atom_site_fract_y
_atom_site_fract_z
Si Si1 0.576028 0.874188 0.007770
Si Si2 0.975754 0.934872 0.505413
Si Si3 0.564870 0.736315 0.520732
Si Si4 0.266412 0.313045 0.670904
Si Si5 0.503194 0.487052 0.436324
Si Si6 0.374591 0.879704 0.876683
Si Si7 0.081097 0.463268 0.061531
Si Si8 0.912404 0.274177 0.846676
O O1 0.515945 0.689595 0.212431
O O2 0.871007 0.708457 0.985010
O O3 0.500000 0.000000 0.000000
O O4 0.429571 0.072507 0.848589
O O5 0.244502 0.783655 0.466336
O O6 0.932742 0.740290 0.715735
O O7 0.000000 0.000000 0.500000
O O8 0.715446 0.165585 0.404982
O O9 0.615698 0.725421 0.427892
O O10 0.766706 0.476590 0.683255
O O11 0.595623 0.929600 0.346794
O O12 0.277765 0.505205 0.517912
O O13 0.003522 0.372382 0.752378
O O14 0.500000 0.500000 0.500000
O O15 0.635798 0.655891 0.971723
O O16 0.263088 0.791212 0.976772
O O17 0.168521 0.031079 0.904182
O O18 0.000000 0.500000 0.000000
#
# Coordination Sequence:
#
# PCOD9094256 Si02
#       8
#     2   2   2   2   2   2   2   2
#     4  11  23  39  59  87 117 155 195 240 295 350
#     4  10  20  34  55  89 116 143 188 243 297 346
#     4  10  20  35  57  89 120 150 187 244 289 348
#     4  11  21  36  59  84 119 152 199 232 289 351
#     4  11  23  38  59  86 117 156 193 239 298 349
#     4   9  19  34  50  82 124 146 190 233 288 341
#     4  10  21  33  57  89 117 145 188 243 299 341
#     4  10  21  34  56  86 121 159 189 234 292 345
#
# _framework density 19.502568
#
# number of rings (size 3 to 8) (size 9 to 14) (size 15 to 20)
#    0.000    1.750    2.500    3.750    1.750    4.000 
#    0.000    0.000    0.000    1.500    3.250    0.000 
#    0.000    0.000    0.000    0.000    0.000    0.000 
#
# Total GULP energy -89236.274803 kJ/mol
# GULP energy per Si atom -5577.267175 kJ/mol
# Density = 1.945818 g / cm^3
# Si number density = 19.502568 Si / 1000 Ang^3
#
#
#
# Elastic Constant Matrix: (Units=GPa)
#
#
# Indices 1 2 3 4 5 6 
#
# 1 104.4120 58.0774 34.8846 -3.1729 -18.3130 -14.3067
# 2 58.0774 103.2914 17.1810 -15.3660 -0.8154 -10.9674
# 3 34.8846 17.1810 96.8439 -9.0258 -5.4537 -10.8146
# 4 -3.1729 -15.3660 -9.0258 23.8504 -11.2813 -4.7486
# 5 -18.3130 -0.8154 -5.4537 -11.2813 39.3553 6.2281
# 6 -14.3067 -10.9674 -10.8146 -4.7486 6.2281 37.5893
#
#
#
# Elastic Compliance Matrix: (Units=1/GPa)
#
#
# Indices 1 2 3 4 5 6 
#
# 1 0.017370 -0.009122 -0.004280 -0.001803 0.006562 0.001403
# 2 -0.009122 0.016356 0.001596 0.009934 -0.001349 0.003238
# 3 -0.004280 0.001596 0.012584 0.006364 0.001123 0.003075
# 4 -0.001803 0.009934 0.006364 0.059841 0.015985 0.008954
# 5 0.006562 -0.001349 0.001123 0.015985 0.033343 -0.001079
# 6 0.001403 0.003238 0.003075 0.008954 -0.001079 0.030277
#
#
# Mechanical properties :
#
#
# Convention : Reuss Voigt Hill
#
# Bulk Modulus (GPa) = 44.05923 58.31481 51.18702
# Shear Modulus (GPa) = 24.88184 33.11928 29.00056
#
# Velocity S-wave (km/s) = 3.57574 4.12539 3.86036
# Velocity P-wave (km/s) = 6.29988 7.25657 6.79508
#
# Compressibility (1/GPa) = 0.02269672
#
# Stress axis : x y z
#
# Youngs Moduli (GPa) = 57.57133 61.14000 79.46324
#
# Poissons Ratio (x) = 0.55771 0.34013
# Poissons Ratio (y) = 0.52516 -0.12679
# Poissons Ratio (z) = 0.24643 -0.09756
#
# Static dielectric constant tensor:
#      x y z
#    x 1.689720 -0.031670 -0.042960 
#    y -0.031670 1.703110 0.003750 
#    z -0.042960 0.003750 1.725260 
# 
# From -- ./inp_files/612351.got.cif
#   From: 2010.05.17/outbox.cif.g08.bks.cpg/sg2_307_cif.got.tgz:612351.got - 2010.06.03 11:33:40.
