data_PCOD9094148
_publ_section_title
;
Structure prediction by ZEFSAII (Michael W. Deem and Ramdas Pophale) SiO2 
 PCOD9094148
Probable space group: P -1
;
_chemical_formula_sum "Si O2"
_cell_formula_units_Z 16
_cell_length_a 13.100801
_cell_length_b 16.060653
_cell_length_c 12.057008
_cell_angle_alpha 67.879788
_cell_angle_beta 56.022964
_cell_angle_gamma 22.830713
_cell_volume 736.750212
_symmetry_space_group_name_H-M "P -1"
_symmetry_group_IT_number 2
_symmetry_cell_setting 'triclinic'
loop_
_space_group_symop_operation_xyz
x,y,z
-x,-y,-z
loop_
_atom_site_type_symbol
_atom_site_label
_atom_site_fract_x
_atom_site_fract_y
_atom_site_fract_z
Si Si1 0.209315 0.232580 0.915501
Si Si2 0.465697 0.282313 0.009939
Si Si3 0.434852 0.415208 0.345602
Si Si4 0.805403 0.888405 0.617834
Si Si5 0.204234 0.948393 0.857202
Si Si6 0.659448 0.346858 0.830466
Si Si7 0.767970 0.942326 0.853456
Si Si8 0.135176 0.954995 0.549667
O O1 0.402445 0.158284 0.929793
O O2 0.899950 0.488644 0.921182
O O3 0.498197 0.030951 0.750727
O O4 0.114461 0.204809 0.048985
O O5 0.596926 0.149948 0.109765
O O6 0.476772 0.382662 0.967457
O O7 0.712070 0.078269 0.868935
O O8 0.536814 0.262766 0.284129
O O9 0.531130 0.438190 0.204597
O O10 0.063354 0.679183 0.477326
O O11 0.635571 0.266348 0.410508
O O12 0.688340 0.069054 0.571589
O O13 0.957320 0.799395 0.694849
O O14 0.932926 0.188510 0.835147
O O15 0.000000 0.000000 0.000000
O O16 0.846856 0.182401 0.691369
O O17 0.000000 0.000000 0.500000
#
# Coordination Sequence:
#
# PCOD9094148 Si02
#       8
#     2   2   2   2   2   2   2   2
#     4   9  21  37  56  89 110 150 190 227 287 333
#     4  11  20  34  61  82 112 149 187 238 282 324
#     4  10  21  39  57  77 119 153 180 229 289 326
#     4   9  20  36  56  81 114 149 182 228 282 338
#     4   9  21  38  56  83 112 149 192 233 277 331
#     4   9  21  36  54  86 113 146 187 229 282 333
#     4   9  20  37  54  86 116 140 191 234 275 337
#     4  10  20  34  54  84 112 145 186 227 277 341
#
# _framework density 21.716995000000001
#
# number of rings (size 3 to 8) (size 9 to 14) (size 15 to 20)
#    0.750    1.750    0.000    1.125    0.000   12.000 
#    0.000    0.625    0.000    7.500    0.000    0.000 
#    0.000    0.000    0.000    0.000    0.000    0.000 
#
# Total GULP energy -89145.903224 kJ/mol
# GULP energy per Si atom -5571.618952 kJ/mol
# Density = 2.166757 g / cm^3
# Si number density = 21.716995 Si / 1000 Ang^3
#
#
#
# Elastic Constant Matrix: (Units=GPa)
#
#
# Indices 1 2 3 4 5 6 
#
# 1 25.4248 26.0263 5.6383 -5.6356 10.7559 -3.7073
# 2 26.0263 93.2424 11.9049 -19.6300 7.6785 -13.8365
# 3 5.6383 11.9049 72.0306 1.1181 11.7387 0.4262
# 4 -5.6356 -19.6300 1.1181 36.2041 2.7121 4.3121
# 5 10.7559 7.6785 11.7387 2.7121 25.1682 -10.2652
# 6 -3.7073 -13.8365 0.4262 4.3121 -10.2652 29.9303
#
#
#
# Elastic Compliance Matrix: (Units=1/GPa)
#
#
# Indices 1 2 3 4 5 6 
#
# 1 0.069171 -0.017751 0.002420 0.004594 -0.030119 -0.010665
# 2 -0.017751 0.017811 -0.002614 0.005690 0.005698 0.007207
# 3 0.002420 -0.002614 0.015662 -0.000325 -0.009242 -0.004254
# 4 0.004594 0.005690 -0.000325 0.032643 -0.008925 -0.004560
# 5 -0.030119 0.005698 -0.009242 -0.008925 0.065420 0.022758
# 6 -0.010665 0.007207 -0.004254 -0.004560 0.022758 0.043945
#
#
# Mechanical properties :
#
#
# Convention : Reuss Voigt Hill
#
# Bulk Modulus (GPa) = 14.98054 30.87076 22.92565
# Shear Modulus (GPa) = 16.51282 28.06907 22.29094
#
# Velocity S-wave (km/s) = 2.76046 3.59903 3.20727
# Velocity P-wave (km/s) = 4.13198 5.61396 4.92898
#
# Compressibility (1/GPa) = 0.06675329
#
# Stress axis : x y z
#
# Youngs Moduli (GPa) = 14.45686 56.14379 63.84925
#
# Poissons Ratio (x) = 0.99663 -0.15449
# Poissons Ratio (y) = 0.25663 0.16689
# Poissons Ratio (z) = -0.03498 0.14675
#
# Static dielectric constant tensor:
#      x y z
#    x 1.832470 0.009060 -0.011560 
#    y 0.009060 1.807270 -0.028400 
#    z -0.011560 -0.028400 1.835380 
# 
# From -- ./inp_files/456965.got.cif
#   From: 2010.05.17/outbox.cif.g08.bks.cpg/sg2_229_cif.got.tgz:456965.got - 2010.06.03 11:33:40.
