data_PCOD9094159
_publ_section_title
;
Structure prediction by ZEFSAII (Michael W. Deem and Ramdas Pophale) SiO2 
 PCOD9094159
Probable space group: P -1
;
_chemical_formula_sum "Si O2"
_cell_formula_units_Z 14
_cell_length_a 7.838752
_cell_length_b 15.928239
_cell_length_c 8.996711
_cell_angle_alpha 119.476167
_cell_angle_beta 56.458057
_cell_angle_gamma 135.310292
_cell_volume 648.932019
_symmetry_space_group_name_H-M "P -1"
_symmetry_group_IT_number 2
_symmetry_cell_setting 'triclinic'
loop_
_space_group_symop_operation_xyz
x,y,z
-x,-y,-z
loop_
_atom_site_type_symbol
_atom_site_label
_atom_site_fract_x
_atom_site_fract_y
_atom_site_fract_z
Si Si1 0.226622 0.219377 0.130315
Si Si2 0.231221 0.370591 0.012062
Si Si3 0.681293 0.278868 0.137252
Si Si4 0.442527 0.828047 0.588306
Si Si5 0.152550 0.139805 0.781556
Si Si6 0.210793 0.873033 0.519033
Si Si7 0.328350 0.928281 0.186318
O O1 0.505946 0.299761 0.142874
O O2 0.014109 0.139870 0.290418
O O3 0.170701 0.304280 0.144543
O O4 0.215004 0.142129 0.927840
O O5 0.251133 0.277764 0.826389
O O6 0.500000 0.500000 0.000000
O O7 0.991941 0.366028 0.066907
O O8 0.603028 0.256856 0.329262
O O9 0.610186 0.154586 0.991620
O O10 0.712227 0.888015 0.428153
O O11 0.247214 0.780248 0.502690
O O12 0.444382 0.935074 0.756337
O O13 0.853165 0.061394 0.824921
O O14 0.168117 0.857899 0.351551
O O15 0.500000 0.000000 0.500000
#
# Coordination Sequence:
#
# PCOD9094159 Si02
#       7
#     2   2   2   2   2   2   2
#     4  10  21  39  60  87 118 156 199 244 297 348
#     4   9  21  42  64  85 115 150 198 255 303 347
#     4  11  21  37  63  86 122 157 195 245 292 350
#     4  11  19  35  55  85 124 157 197 237 285 352
#     4   9  20  36  57  85 119 150 198 246 290 348
#     4  10  20  35  56  85 124 161 196 236 282 350
#     4  10  20  34  54  86 122 162 193 236 286 346
#
# _framework density 21.573909
#
# number of rings (size 3 to 8) (size 9 to 14) (size 15 to 20)
#    0.857    1.143    1.429    2.571    0.000    2.857 
#    0.000    7.143    0.000    4.286    0.000    0.000 
#    0.000    0.000    0.000    0.000    0.000    0.000 
#
# Total GULP energy -77940.208858 kJ/mol
# GULP energy per Si atom -5567.157776 kJ/mol
# Density = 2.152481 g / cm^3
# Si number density = 21.573909 Si / 1000 Ang^3
#
#
#
# Elastic Constant Matrix: (Units=GPa)
#
#
# Indices 1 2 3 4 5 6 
#
# 1 108.6337 6.9399 9.4260 2.7116 18.4747 27.8029
# 2 6.9399 70.9733 16.9401 -10.5926 1.7561 21.6741
# 3 9.4260 16.9401 104.4029 -15.7439 17.5878 0.1394
# 4 2.7116 -10.5926 -15.7439 11.4506 -0.3679 -0.6420
# 5 18.4747 1.7561 17.5878 -0.3679 38.1870 -0.9656
# 6 27.8029 21.6741 0.1394 -0.6420 -0.9656 21.6806
#
#
#
# Elastic Compliance Matrix: (Units=1/GPa)
#
#
# Indices 1 2 3 4 5 6 
#
# 1 0.019184 0.009087 -0.001586 -0.000547 -0.009837 -0.034130
# 2 0.009087 0.029032 -0.001422 0.020299 -0.005901 -0.040329
# 3 -0.001586 -0.001422 0.013463 0.017613 -0.005106 0.003664
# 4 -0.000547 0.020299 0.017613 0.129291 -0.007945 -0.016229
# 5 -0.009837 -0.005901 -0.005106 -0.007945 0.033993 0.019825
# 6 -0.034130 -0.040329 0.003664 -0.016229 0.019825 0.130588
#
#
# Mechanical properties :
#
#
# Convention : Reuss Voigt Hill
#
# Bulk Modulus (GPa) = 13.54344 38.95799 26.25071
# Shear Modulus (GPa) = 13.58672 30.97722 22.28197
#
# Velocity S-wave (km/s) = 2.51226 3.79339 3.21724
# Velocity P-wave (km/s) = 3.83491 6.10603 5.09853
#
# Compressibility (1/GPa) = 0.07383651
#
# Stress axis : x y z
#
# Youngs Moduli (GPa) = 52.12745 34.44448 74.27496
#
# Poissons Ratio (x) = -0.31300 0.11783
# Poissons Ratio (y) = -0.47369 0.10564
# Poissons Ratio (z) = 0.08269 0.04899
#
# Static dielectric constant tensor:
#      x y z
#    x 1.886840 -0.022070 0.023300 
#    y -0.022070 1.778760 -0.012960 
#    z 0.023300 -0.012960 1.828340 
# 
# From -- ./inp_files/212952.got.cif
#   From: 2010.05.17/outbox.cif.g08.bks.cpg/sg2_107_cif.got.tgz:212952.got - 2010.06.03 11:33:40.
