data_PCOD9094700
_publ_section_title
;
Structure prediction by ZEFSAII (Michael W. Deem and Ramdas Pophale) SiO2 
 PCOD9094700
Probable space group: P -1
;
_chemical_formula_sum "Si O2"
_cell_formula_units_Z 14
_cell_length_a 7.548128
_cell_length_b 11.995967
_cell_length_c 8.265177
_cell_angle_alpha 67.243782
_cell_angle_beta 53.265027
_cell_angle_gamma 66.068703
_cell_volume 537.479843
_symmetry_space_group_name_H-M "P -1"
_symmetry_group_IT_number 2
_symmetry_cell_setting 'triclinic'
loop_
_space_group_symop_operation_xyz
x,y,z
-x,-y,-z
loop_
_atom_site_type_symbol
_atom_site_label
_atom_site_fract_x
_atom_site_fract_y
_atom_site_fract_z
Si Si1 0.798284 0.207040 0.661564
Si Si2 0.887067 0.608890 0.122638
Si Si3 0.452081 0.272201 0.302647
Si Si4 0.607798 0.069806 0.087095
Si Si5 0.747906 0.492616 0.569982
Si Si6 0.851028 0.818744 0.240722
Si Si7 0.152874 0.207028 0.243931
O O1 0.716488 0.353342 0.662492
O O2 0.009415 0.153559 0.697636
O O3 0.901195 0.196357 0.431403
O O4 0.632589 0.129206 0.866580
O O5 0.743426 0.544201 0.359839
O O6 0.988880 0.691756 0.151642
O O7 0.809750 0.722554 0.976689
O O8 0.000000 0.500000 0.000000
O O9 0.632673 0.172014 0.155909
O O10 0.451315 0.411918 0.275717
O O11 0.377209 0.210587 0.539935
O O12 0.231892 0.291181 0.292823
O O13 0.338461 0.078899 0.241068
O O14 0.773708 0.939571 0.105412
O O15 0.000000 0.500000 0.500000
#
# Coordination Sequence:
#
# PCOD9094700 Si02
#       7
#     2   2   2   2   2   2   2
#     4  11  20  35  61  82 112 146 185 235 272 325
#     4  11  19  34  62  83 109 149 188 223 282 329
#     4   8  18  33  55  79 108 141 183 226 270 315
#     4  10  21  37  56  84 117 141 189 226 276 328
#     4  11  16  34  58  85 106 141 193 226 274 330
#     4  10  20  34  60  83 109 150 187 226 274 330
#     4   9  20  36  57  80 110 154 174 229 279 321
#
# _framework density 26.047487
#
# number of rings (size 3 to 8) (size 9 to 14) (size 15 to 20)
#    0.857    1.143    5.714    0.857    0.000    1.143 
#    0.000    1.429    6.286    0.000    0.000    0.000 
#    0.000    0.000    0.000    0.000    0.000    0.000 
#
# Total GULP energy -77967.917542 kJ/mol
# GULP energy per Si atom -5569.136967 kJ/mol
# Density = 2.598820 g / cm^3
# Si number density = 26.047487 Si / 1000 Ang^3
#
#
#
# Elastic Constant Matrix: (Units=GPa)
#
#
# Indices 1 2 3 4 5 6 
#
# 1 30.3061 11.8354 16.6772 5.8732 4.7825 -8.4539
# 2 11.8354 173.3704 51.0986 21.0441 1.3096 -4.7765
# 3 16.6772 51.0986 106.3663 -12.9618 25.1744 1.5165
# 4 5.8732 21.0441 -12.9618 34.6382 -8.8422 12.4396
# 5 4.7825 1.3096 25.1744 -8.8422 23.2988 -3.5794
# 6 -8.4539 -4.7765 1.5165 12.4396 -3.5794 21.4062
#
#
#
# Elastic Compliance Matrix: (Units=1/GPa)
#
#
# Indices 1 2 3 4 5 6 
#
# 1 0.063420 0.007963 -0.019586 -0.041793 -0.000101 0.052480
# 2 0.007963 0.010314 -0.009397 -0.015752 0.004420 0.016005
# 3 -0.019586 -0.009397 0.024335 0.023970 -0.017001 -0.028328
# 4 -0.041793 -0.015752 0.023970 0.079566 0.003409 -0.067386
# 5 -0.000101 0.004420 -0.017001 0.003409 0.064027 0.010876
# 6 0.052480 0.016005 -0.028328 -0.067386 0.010876 0.113997
#
#
# Mechanical properties :
#
#
# Convention : Reuss Voigt Hill
#
# Bulk Modulus (GPa) = 17.84816 52.14059 34.99437
# Shear Modulus (GPa) = 12.00841 31.23076 21.61958
#
# Velocity S-wave (km/s) = 2.14947 3.46640 2.88411
# Velocity P-wave (km/s) = 3.60934 6.00685 4.95528
#
# Compressibility (1/GPa) = 0.05602818
#
# Stress axis : x y z
#
# Youngs Moduli (GPa) = 15.76795 96.95946 41.09261
#
# Poissons Ratio (x) = -0.77208 0.80485
# Poissons Ratio (y) = -0.12556 0.38615
# Poissons Ratio (z) = 0.30883 0.91113
#
# Static dielectric constant tensor:
#      x y z
#    x 2.122770 0.040980 -0.046430 
#    y 0.040980 2.061750 0.048220 
#    z -0.046430 0.048220 2.129870 
# 
# From -- ./inp_files/251785.got.cif
#   From: 2010.05.17/outbox.cif.g08.bks.cpg/sg2_126_cif.got.tgz:251785.got - 2010.06.03 11:33:40.
