data_PCOD9094243
_publ_section_title
;
Structure prediction by ZEFSAII (Michael W. Deem and Ramdas Pophale) SiO2 
 PCOD9094243
Probable space group: P -1
;
_chemical_formula_sum "Si O2"
_cell_formula_units_Z 10
_cell_length_a 9.114681
_cell_length_b 8.706988
_cell_length_c 10.012795
_cell_angle_alpha 66.858915
_cell_angle_beta 80.276130
_cell_angle_gamma 33.689522
_cell_volume 385.349407
_symmetry_space_group_name_H-M "P -1"
_symmetry_group_IT_number 2
_symmetry_cell_setting 'triclinic'
loop_
_space_group_symop_operation_xyz
x,y,z
-x,-y,-z
loop_
_atom_site_type_symbol
_atom_site_label
_atom_site_fract_x
_atom_site_fract_y
_atom_site_fract_z
Si Si1 0.353569 0.863210 0.989830
Si Si2 0.889167 0.208916 0.612624
Si Si3 0.831602 0.391510 0.280307
Si Si4 0.799276 0.796133 0.523374
Si Si5 0.263103 0.553228 0.153491
O O1 0.572348 0.694958 0.130268
O O2 0.305792 0.707623 0.055773
O O3 0.508671 0.758535 0.863125
O O4 0.040557 0.223847 0.921427
O O5 0.727512 0.404074 0.432707
O O6 0.758500 0.411541 0.694858
O O7 0.171750 0.043240 0.591708
O O8 0.988915 0.924850 0.710175
O O9 0.047191 0.328213 0.315699
O O10 0.000000 0.500000 0.500000
O O11 0.500000 0.000000 0.500000
#
# Coordination Sequence:
#
# PCOD9094243 Si02
#       5
#     2   2   2   2   2
#     4  10  20  34  55  87 123 151 183 238 299 344
#     4   9  20  39  61  92 115 153 196 249 282 345
#     4   9  20  39  61  92 115 153 196 249 282 345
#     4  10  23  40  59  84 118 156 194 240 297 342
#     4  10  20  34  55  87 123 151 183 238 299 344
#
# _framework density 25.950474
#
# number of rings (size 3 to 8) (size 9 to 14) (size 15 to 20)
#    1.200    1.200    0.000    3.600    0.000    7.200 
#    0.000    0.000    0.000    8.400    0.000    0.000 
#    0.000    0.000    0.000    0.000    0.000    0.000 
#
# Total GULP energy -55890.695105 kJ/mol
# GULP energy per Si atom -5589.069510 kJ/mol
# Density = 2.589141 g / cm^3
# Si number density = 25.950474 Si / 1000 Ang^3
#
#
#
# Elastic Constant Matrix: (Units=GPa)
#
#
# Indices 1 2 3 4 5 6 
#
# 1 127.2352 59.6573 29.5887 -11.3223 29.7616 -11.9141
# 2 59.6573 107.4264 48.7315 10.3776 19.4350 -48.0760
# 3 29.5887 48.7315 147.2469 18.0088 44.0070 -9.5345
# 4 -11.3223 10.3776 18.0088 30.6399 -11.8233 -6.6293
# 5 29.7616 19.4350 44.0070 -11.8233 56.5035 -9.2051
# 6 -11.9141 -48.0760 -9.5345 -6.6293 -9.2051 30.5211
#
#
#
# Elastic Compliance Matrix: (Units=1/GPa)
#
#
# Indices 1 2 3 4 5 6 
#
# 1 0.019627 -0.031308 0.007475 -0.000765 -0.012603 -0.043285
# 2 -0.031308 0.096351 -0.027522 0.015171 0.031371 0.143707
# 3 0.007475 -0.027522 0.019806 -0.017097 -0.020673 -0.044196
# 4 -0.000765 0.015171 -0.017097 0.055749 0.026410 0.038332
# 5 -0.012603 0.031371 -0.020673 0.026410 0.044490 0.057192
# 6 -0.043285 0.143707 -0.044196 0.038332 0.057192 0.253999
#
#
# Mechanical properties :
#
#
# Convention : Reuss Voigt Hill
#
# Bulk Modulus (GPa) = 30.23589 73.09596 51.66593
# Shear Modulus (GPa) = 8.28146 39.79497 24.03821
#
# Velocity S-wave (km/s) = 1.78835 3.92024 3.04684
# Velocity P-wave (km/s) = 3.99261 6.97995 5.68597
#
# Compressibility (1/GPa) = 0.03307328
#
# Stress axis : x y z
#
# Youngs Moduli (GPa) = 50.94954 10.37869 50.49076
#
# Poissons Ratio (x) = 0.32493 -0.37739
# Poissons Ratio (y) = 1.59511 1.38962
# Poissons Ratio (z) = -0.38082 0.28565
#
# Static dielectric constant tensor:
#      x y z
#    x 2.076320 0.003380 -0.033620 
#    y 0.003380 2.030130 -0.049240 
#    z -0.033620 -0.049240 2.193950 
# 
# From -- ./inp_files/374036.got.cif
#   From: 2010.05.17/outbox.cif.g08.bks.cpg/sg2_188_cif.got.tgz:374036.got - 2010.06.03 11:33:40.
