data_PCOD9094103
_publ_section_title
;
Structure prediction by ZEFSAII (Michael W. Deem and Ramdas Pophale) SiO2 
 PCOD9094103
Probable space group: P -1
;
_chemical_formula_sum "Si O2"
_cell_formula_units_Z 16
_cell_length_a 16.816797
_cell_length_b 11.784835
_cell_length_c 7.135701
_cell_angle_alpha 79.508759
_cell_angle_beta 99.626461
_cell_angle_gamma 35.296067
_cell_volume 667.862667
_symmetry_space_group_name_H-M "P -1"
_symmetry_group_IT_number 2
_symmetry_cell_setting 'triclinic'
loop_
_space_group_symop_operation_xyz
x,y,z
-x,-y,-z
loop_
_atom_site_type_symbol
_atom_site_label
_atom_site_fract_x
_atom_site_fract_y
_atom_site_fract_z
Si Si1 0.944422 0.915532 0.947299
Si Si2 0.484907 0.114406 0.191929
Si Si3 0.865719 0.764269 0.912759
Si Si4 0.492742 0.859523 0.387391
Si Si5 0.593202 0.540997 0.026087
Si Si6 0.835442 0.779052 0.337567
Si Si7 0.716505 0.394680 0.713355
Si Si8 0.767844 0.103940 0.214638
O O1 0.804519 0.173204 0.727885
O O2 0.883646 0.982813 0.118727
O O3 0.940890 0.794828 0.894079
O O4 0.127016 0.738584 0.084772
O O5 0.471976 0.992383 0.195935
O O6 0.677320 0.906142 0.306212
O O7 0.434200 0.189024 0.369346
O O8 0.393886 0.335926 0.986864
O O9 0.688776 0.961358 0.693458
O O10 0.821331 0.817824 0.098873
O O11 0.000000 0.500000 0.000000
O O12 0.616569 0.599885 0.468573
O O13 0.413378 0.721404 0.965954
O O14 0.597289 0.516569 0.806426
O O15 0.727479 0.280542 0.229538
O O16 0.000000 0.500000 0.500000
O O17 0.844579 0.893885 0.403683
#
# Coordination Sequence:
#
# PCOD9094103 Si02
#       8
#     2   2   2   2   2   2   2   2
#     4   9  19  34  54  82 110 143 187 227 275 330
#     4   9  19  33  56  79 111 144 187 218 270 340
#     4  11  24  36  54  82 116 146 183 235 285 326
#     4  10  21  34  56  84 112 147 181 231 279 331
#     4   8  14  28  49  77 102 133 177 223 263 317
#     4  10  20  34  54  78 109 146 184 228 276 335
#     4   9  18  33  57  82 107 145 186 228 271 333
#     4   8  15  28  49  76 102 132 178 225 266 315
#
# _framework density 23.957021000000001
#
# number of rings (size 3 to 8) (size 9 to 14) (size 15 to 20)
#    0.000    2.750    0.000    0.750    8.750    1.000 
#    0.000    0.000    0.000    1.500    0.000    1.750 
#    0.000    0.000    0.000    0.000    0.000    0.000 
#
# Total GULP energy -89215.291814 kJ/mol
# GULP energy per Si atom -5575.955738 kJ/mol
# Density = 2.390249 g / cm^3
# Si number density = 23.957021 Si / 1000 Ang^3
#
#
#
# Elastic Constant Matrix: (Units=GPa)
#
#
# Indices 1 2 3 4 5 6 
#
# 1 116.7935 37.3685 23.1400 -26.3505 -30.4693 22.5038
# 2 37.3685 110.3318 40.0391 -45.5596 -12.4671 18.8671
# 3 23.1400 40.0391 61.3711 -22.4826 -15.5981 16.9320
# 4 -26.3505 -45.5596 -22.4826 63.8365 8.2559 -25.1423
# 5 -30.4693 -12.4671 -15.5981 8.2559 21.1685 -14.9508
# 6 22.5038 18.8671 16.9320 -25.1423 -14.9508 52.1159
#
#
#
# Elastic Compliance Matrix: (Units=1/GPa)
#
#
# Indices 1 2 3 4 5 6 
#
# 1 0.014893 -0.002410 0.002090 0.002912 0.021330 0.001286
# 2 -0.002410 0.015380 -0.006904 0.008249 -0.001904 0.001149
# 3 0.002090 -0.006904 0.025183 0.002407 0.015963 -0.000844
# 4 0.002912 0.008249 0.002407 0.026544 0.007481 0.009926
# 5 0.021330 -0.001904 0.015963 0.007481 0.098488 0.018156
# 6 0.001286 0.001149 -0.000844 0.009926 0.018156 0.028488
#
#
# Mechanical properties :
#
#
# Convention : Reuss Voigt Hill
#
# Bulk Modulus (GPa) = 24.38647 54.39907 39.39277
# Shear Modulus (GPa) = 21.08882 39.95412 30.52147
#
# Velocity S-wave (km/s) = 2.97017 4.08823 3.57320
# Velocity P-wave (km/s) = 4.68656 6.71126 5.78813
#
# Compressibility (1/GPa) = 0.04100634
#
# Stress axis : x y z
#
# Youngs Moduli (GPa) = 67.14685 65.01937 39.70989
#
# Poissons Ratio (x) = 0.15669 -0.08299
# Poissons Ratio (y) = 0.16182 0.27417
# Poissons Ratio (z) = -0.14033 0.44892
#
# Static dielectric constant tensor:
#      x y z
#    x 1.933110 0.120360 -0.060600 
#    y 0.120360 2.101740 0.099730 
#    z -0.060600 0.099730 2.043960 
# 
# From -- ./inp_files/181808.got.cif
#   From: 2010.05.17/outbox.cif.g08.bks.cpg/sg2_91_cif.got.tgz:181808.got - 2010.06.03 11:33:40.
