data_PCOD9094211
_publ_section_title
;
Structure prediction by ZEFSAII (Michael W. Deem and Ramdas Pophale) SiO2 
 PCOD9094211
Probable space group: P -1
;
_chemical_formula_sum "Si O2"
_cell_formula_units_Z 16
_cell_length_a 9.813153
_cell_length_b 22.089003
_cell_length_c 11.235014
_cell_angle_alpha 46.416994
_cell_angle_beta 132.934377
_cell_angle_gamma 152.948998
_cell_volume 785.426075
_symmetry_space_group_name_H-M "P -1"
_symmetry_group_IT_number 2
_symmetry_cell_setting 'triclinic'
loop_
_space_group_symop_operation_xyz
x,y,z
-x,-y,-z
loop_
_atom_site_type_symbol
_atom_site_label
_atom_site_fract_x
_atom_site_fract_y
_atom_site_fract_z
Si Si1 0.770280 0.530808 0.090174
Si Si2 0.631492 0.009335 0.723261
Si Si3 0.196228 0.485823 0.144366
Si Si4 0.212448 0.945508 0.749699
Si Si5 0.837630 0.773704 0.095131
Si Si6 0.222917 0.792792 0.145552
Si Si7 0.259110 0.787637 0.616462
Si Si8 0.584561 0.761626 0.717667
O O1 0.652968 0.397032 0.235203
O O2 0.071207 0.661870 0.165351
O O3 0.500000 0.500000 0.000000
O O4 0.811000 0.551568 0.944155
O O5 0.786583 0.134760 0.561759
O O6 0.897076 0.081803 0.875718
O O7 0.357801 0.960864 0.694709
O O8 0.492763 0.884515 0.734636
O O9 0.540080 0.637352 0.173661
O O10 0.036313 0.365410 0.302689
O O11 0.000000 0.500000 0.000000
O O12 0.870087 0.859156 0.665578
O O13 0.444797 0.092673 0.752799
O O14 0.218949 0.866145 0.946820
O O15 0.000244 0.748050 0.176639
O O16 0.720924 0.783253 0.898635
O O17 0.414576 0.787425 0.606273
#
# Coordination Sequence:
#
# PCOD9094211 Si02
#       8
#     2   2   2   2   2   2   2   2
#     4  11  17  31  55  85 104 136 175 231 267 318
#     4  10  23  38  57  75 111 154 183 214 268 337
#     4  11  20  35  56  83 112 140 177 230 275 310
#     4   9  17  33  54  78 103 145 175 224 266 312
#     4   9  18  36  56  84 105 140 182 229 268 314
#     4   9  16  29  54  83 108 127 184 223 268 314
#     4  11  23  39  52  81 114 147 183 217 272 332
#     4  10  20  34  55  84 111 131 183 234 266 310
#
# _framework density 20.371109000000001
#
# number of rings (size 3 to 8) (size 9 to 14) (size 15 to 20)
#    0.000    2.000    6.250    1.500    0.000    1.500 
#    2.250    0.000    0.000    3.000    0.000    0.000 
#    0.000    0.000    0.000    0.000    0.000    0.000 
#
# Total GULP energy -89266.769761 kJ/mol
# GULP energy per Si atom -5579.173110 kJ/mol
# Density = 2.032474 g / cm^3
# Si number density = 20.371109 Si / 1000 Ang^3
#
#
#
# Elastic Constant Matrix: (Units=GPa)
#
#
# Indices 1 2 3 4 5 6 
#
# 1 86.7116 25.4205 0.9875 -9.7079 -2.6955 4.0137
# 2 25.4205 91.5204 5.4966 -5.3843 0.3877 -0.9258
# 3 0.9875 5.4966 20.2388 -11.0182 -0.8227 6.8394
# 4 -9.7079 -5.3843 -11.0182 21.4413 -1.7589 -11.4375
# 5 -2.6955 0.3877 -0.8227 -1.7589 15.0342 -6.3273
# 6 4.0137 -0.9258 6.8394 -11.4375 -6.3273 40.1135
#
#
#
# Elastic Compliance Matrix: (Units=1/GPa)
#
#
# Indices 1 2 3 4 5 6 
#
# 1 0.013565 -0.003567 0.004826 0.008497 0.004123 0.000811
# 2 -0.003567 0.012153 -0.003405 0.000279 -0.000600 0.001203
# 3 0.004826 -0.003405 0.071684 0.038795 0.009308 -0.000254
# 4 0.008497 0.000279 0.038795 0.082662 0.021519 0.019505
# 5 0.004123 -0.000600 0.009308 0.021519 0.077154 0.016292
# 6 0.000811 0.001203 -0.000254 0.019505 0.016292 0.033051
#
#
# Mechanical properties :
#
#
# Convention : Reuss Voigt Hill
#
# Bulk Modulus (GPa) = 10.74001 29.14225 19.94113
# Shear Modulus (GPa) = 15.35639 26.42220 20.88930
#
# Velocity S-wave (km/s) = 2.74858 3.60536 3.20572
# Velocity P-wave (km/s) = 3.91874 5.62745 4.84895
#
# Compressibility (1/GPa) = 0.09310976
#
# Stress axis : x y z
#
# Youngs Moduli (GPa) = 73.71811 82.28436 13.95013
#
# Poissons Ratio (x) = 0.29352 -0.06733
# Poissons Ratio (y) = 0.26296 0.04751
# Poissons Ratio (z) = -0.35579 0.28022
#
# Static dielectric constant tensor:
#      x y z
#    x 1.762280 0.010450 -0.034430 
#    y 0.010450 1.757500 0.006240 
#    z -0.034430 0.006240 1.772380 
# 
# From -- ./inp_files/404794.got.cif
#   From: 2010.05.17/outbox.cif.g08.bks.cpg/sg2_203_cif.got.tgz:404794.got - 2010.06.03 11:33:40.
