data_PCOD9094218
_publ_section_title
;
Structure prediction by ZEFSAII (Michael W. Deem and Ramdas Pophale) SiO2 
 PCOD9094218
Probable space group: P -1
;
_chemical_formula_sum "Si O2"
_cell_formula_units_Z 12
_cell_length_a 17.141088
_cell_length_b 5.104088
_cell_length_c 12.849172
_cell_angle_alpha 117.717840
_cell_angle_beta 41.385410
_cell_angle_gamma 90.488987
_cell_volume 535.168136
_symmetry_space_group_name_H-M "P -1"
_symmetry_group_IT_number 2
_symmetry_cell_setting 'triclinic'
loop_
_space_group_symop_operation_xyz
x,y,z
-x,-y,-z
loop_
_atom_site_type_symbol
_atom_site_label
_atom_site_fract_x
_atom_site_fract_y
_atom_site_fract_z
Si Si1 0.391323 0.109131 0.356402
Si Si2 0.685406 0.880707 0.951178
Si Si3 0.344380 0.128263 0.633583
Si Si4 0.288505 0.845125 0.242185
Si Si5 0.015039 0.629379 0.396654
Si Si6 0.828936 0.184038 0.192834
O O1 0.384799 0.955420 0.445015
O O2 0.252374 0.523809 0.577563
O O3 0.391300 0.877918 0.220612
O O4 0.535573 0.094050 0.201167
O O5 0.705081 0.517227 0.817428
O O6 0.824031 0.702515 0.856036
O O7 0.686289 0.106557 0.895471
O O8 0.240431 0.558860 0.791945
O O9 0.500000 0.000000 0.500000
O O10 0.240574 0.040557 0.775215
O O11 0.128155 0.212060 0.497242
O O12 0.000000 0.500000 0.500000
O O13 0.000000 0.000000 0.500000
O O14 0.000000 0.000000 0.000000
#
# Coordination Sequence:
#
# PCOD9094218 Si02
#       6
#     2   2   2   2   2   2
#     4  10  24  34  64  87 122 151 212 238 314 358
#     4  10  20  34  55  84 121 157 192 239 290 356
#     4  10  23  43  66  88 125 157 209 263 316 365
#     4  10  20  34  55  84 121 157 192 239 290 356
#     4   8  16  32  48  69 110 151 188 228 278 336
#     4  10  23  43  66  88 125 157 209 263 316 365
#
# _framework density 22.422858999999999
#
# number of rings (size 3 to 8) (size 9 to 14) (size 15 to 20)
#    1.000    1.333    0.000    2.000    4.667    0.000 
#    3.000    0.000    3.667    0.000    0.000    0.000 
#    0.000    0.000    0.000    0.000    0.000    0.000 
#
# Total GULP energy -66814.820382 kJ/mol
# GULP energy per Si atom -5567.901698 kJ/mol
# Density = 2.237182 g / cm^3
# Si number density = 22.422859 Si / 1000 Ang^3
#
#
#
# Elastic Constant Matrix: (Units=GPa)
#
#
# Indices 1 2 3 4 5 6 
#
# 1 75.2430 31.0413 35.0355 -4.6684 -42.9749 -3.6184
# 2 31.0413 155.7788 11.3338 -15.0714 -14.0147 7.5205
# 3 35.0355 11.3338 119.9761 -1.8898 -45.5633 2.9780
# 4 -4.6684 -15.0714 -1.8898 23.7113 4.4940 -9.5117
# 5 -42.9749 -14.0147 -45.5633 4.4940 49.4345 -1.5620
# 6 -3.6184 7.5205 2.9780 -9.5117 -1.5620 19.3519
#
#
#
# Elastic Compliance Matrix: (Units=1/GPa)
#
#
# Indices 1 2 3 4 5 6 
#
# 1 0.029942 -0.003945 0.001395 0.002670 0.026281 0.010351
# 2 -0.003945 0.007489 -0.000140 0.003492 -0.001817 -0.002057
# 3 0.001395 -0.000140 0.012989 -0.001918 0.013270 -0.001555
# 4 0.002670 0.003492 -0.001918 0.056008 -0.002703 0.026748
# 5 0.026281 -0.001817 0.013270 -0.002703 0.055249 0.006709
# 6 0.010351 -0.002057 -0.001555 0.026748 0.006709 0.068337
#
#
# Mechanical properties :
#
#
# Convention : Reuss Voigt Hill
#
# Bulk Modulus (GPa) = 22.20209 56.20212 39.20211
# Shear Modulus (GPa) = 19.96745 36.73870 28.35308
#
# Velocity S-wave (km/s) = 2.98735 4.05217 3.55980
# Velocity P-wave (km/s) = 4.67141 6.85656 5.86662
#
# Compressibility (1/GPa) = 0.04504081
#
# Stress axis : x y z
#
# Youngs Moduli (GPa) = 33.39781 133.52507 76.98993
#
# Poissons Ratio (x) = 0.52674 -0.10739
# Poissons Ratio (y) = 0.13175 0.01075
# Poissons Ratio (z) = -0.04659 0.01864
#
# Static dielectric constant tensor:
#      x y z
#    x 1.699570 -0.035550 -0.019380 
#    y -0.035550 1.817490 0.027720 
#    z -0.019380 0.027720 1.885040 
# 
# From -- ./inp_files/442227.got.cif
#   From: 2010.05.17/outbox.cif.g08.bks.cpg/sg2_222_cif.got.tgz:442227.got - 2010.06.03 11:33:40.
