data_PCOD9094951
_publ_section_title
;
Structure prediction by ZEFSAII (Michael W. Deem and Ramdas Pophale) SiO2 
 PCOD9094951
Probable space group: P -1
;
_chemical_formula_sum "Si O2"
_cell_formula_units_Z 12
_cell_length_a 5.171546
_cell_length_b 10.346278
_cell_length_c 8.075502
_cell_angle_alpha 103.837115
_cell_angle_beta 85.529972
_cell_angle_gamma 89.260176
_cell_volume 418.052002
_symmetry_space_group_name_H-M "P -1"
_symmetry_group_IT_number 2
_symmetry_cell_setting 'triclinic'
loop_
_space_group_symop_operation_xyz
x,y,z
-x,-y,-z
loop_
_atom_site_type_symbol
_atom_site_label
_atom_site_fract_x
_atom_site_fract_y
_atom_site_fract_z
Si Si1 0.713800 0.307847 0.851805
Si Si2 0.817237 0.613313 0.462869
Si Si3 0.487723 0.054548 0.729824
Si Si4 0.005568 0.869620 0.638223
Si Si5 0.097872 0.147637 0.012891
Si Si6 0.459849 0.446999 0.222806
O O1 0.570368 0.200069 0.709368
O O2 0.759699 0.446692 0.799464
O O3 0.542301 0.357808 0.035788
O O4 0.959408 0.230472 0.899496
O O5 0.955702 0.752831 0.475322
O O6 0.680139 0.547942 0.294930
O O7 0.601500 0.631028 0.628778
O O8 0.000000 0.500000 0.500000
O O9 0.744396 0.962206 0.684821
O O10 0.387901 0.106281 0.930286
O O11 0.251778 0.965950 0.646105
O O12 0.994675 0.790184 0.789977
O O13 0.000000 0.000000 0.000000
#
# Coordination Sequence:
#
# PCOD9094951 Si02
#       6
#     2   2   2   2   2   2
#     4  11  22  45  70 113 142 181 237 303 365 410
#     4  11  25  47  70  99 140 199 246 281 352 437
#     4  11  22  40  67 107 141 180 233 299 355 418
#     4  11  24  38  72 102 139 185 240 292 350 424
#     4  10  20  34  66 101 141 178 227 291 351 419
#     4  10  26  44  73 100 146 189 239 295 354 429
#
# _framework density 28.704566
#
# number of rings (size 3 to 8) (size 9 to 14) (size 15 to 20)
#    0.000    1.333    3.333    2.500   11.667    1.333 
#    0.000    5.833    0.000    0.000    0.000    0.000 
#    0.000    0.000    0.000    0.000    0.000    0.000 
#
# Total GULP energy -67122.771578 kJ/mol
# GULP energy per Si atom -5593.564298 kJ/mol
# Density = 2.863923 g / cm^3
# Si number density = 28.704566 Si / 1000 Ang^3
#
#
#
# Elastic Constant Matrix: (Units=GPa)
#
#
# Indices 1 2 3 4 5 6 
#
# 1 168.4880 79.2956 29.9237 15.9557 13.3590 10.1250
# 2 79.2956 185.8440 52.9731 31.4940 18.2715 10.9267
# 3 29.9237 52.9731 135.1950 12.0399 9.8391 22.1692
# 4 15.9557 31.4940 12.0399 58.4982 10.0969 10.4281
# 5 13.3590 18.2715 9.8391 10.0969 39.8623 1.5865
# 6 10.1250 10.9267 22.1692 10.4281 1.5865 64.7915
#
#
#
# Elastic Compliance Matrix: (Units=1/GPa)
#
#
# Indices 1 2 3 4 5 6 
#
# 1 0.007510 -0.002958 -0.000333 -0.000118 -0.001028 -0.000517
# 2 -0.002958 0.007838 -0.002124 -0.002800 -0.001382 0.000352
# 3 -0.000333 -0.002124 0.008794 0.000057 -0.000997 -0.002583
# 4 -0.000118 -0.002800 0.000057 0.019706 -0.003579 -0.002613
# 5 -0.001028 -0.001382 -0.000997 -0.003579 0.027191 0.000645
# 6 -0.000517 0.000352 -0.002583 -0.002613 0.000645 0.016744
#
#
# Mechanical properties :
#
#
# Convention : Reuss Voigt Hill
#
# Bulk Modulus (GPa) = 75.12400 90.43465 82.77932
# Shear Modulus (GPa) = 48.51939 54.45269 51.48604
#
# Velocity S-wave (km/s) = 4.11579 4.36019 4.23975
# Velocity P-wave (km/s) = 6.98674 7.54467 7.27106
#
# Compressibility (1/GPa) = 0.01331132
#
# Stress axis : x y z
#
# Youngs Moduli (GPa) = 133.15250 127.58087 113.71522
#
# Poissons Ratio (x) = 0.37739 0.03789
# Poissons Ratio (y) = 0.39387 0.24156
# Poissons Ratio (z) = 0.04437 0.27101
#
# Static dielectric constant tensor:
#      x y z
#    x 2.327380 0.049180 -0.070250 
#    y 0.049180 2.165340 -0.017670 
#    z -0.070250 -0.017670 2.448160 
# 
# From -- ./inp_files/129840.got.cif
#   From: 2010.05.17/outbox.cif.g08.bks.cpg/sg2_65_cif.got.tgz:129840.got - 2010.06.03 11:33:40.
