data_PCOD9094544
_publ_section_title
;
Structure prediction by ZEFSAII (Michael W. Deem and Ramdas Pophale) SiO2 
 PCOD9094544
Probable space group: P -1
;
_chemical_formula_sum "Si O2"
_cell_formula_units_Z 16
_cell_length_a 10.215287
_cell_length_b 11.230961
_cell_length_c 7.310390
_cell_angle_alpha 123.924864
_cell_angle_beta 112.612239
_cell_angle_gamma 66.966178
_cell_volume 625.108358
_symmetry_space_group_name_H-M "P -1"
_symmetry_group_IT_number 2
_symmetry_cell_setting 'triclinic'
loop_
_space_group_symop_operation_xyz
x,y,z
-x,-y,-z
loop_
_atom_site_type_symbol
_atom_site_label
_atom_site_fract_x
_atom_site_fract_y
_atom_site_fract_z
Si Si1 0.597616 0.120160 0.157030
Si Si2 0.684726 0.525444 0.443508
Si Si3 0.873010 0.213199 0.282796
Si Si4 0.113181 0.504468 0.900189
Si Si5 0.231722 0.022815 0.559104
Si Si6 0.833898 0.749583 0.567242
Si Si7 0.964981 0.187805 0.740005
Si Si8 0.584443 0.566669 0.821443
O O1 0.752169 0.113888 0.127530
O O2 0.499784 0.271105 0.151987
O O3 0.648211 0.100428 0.380576
O O4 0.500000 0.000000 0.000000
O O5 0.793776 0.376395 0.311551
O O6 0.741806 0.674225 0.590818
O O7 0.658113 0.493985 0.613027
O O8 0.532443 0.526015 0.263017
O O9 0.906951 0.221283 0.527899
O O10 0.031917 0.179724 0.245931
O O11 0.087449 0.679345 0.037312
O O12 0.282659 0.437877 0.977768
O O13 0.088316 0.397946 0.634004
O O14 0.000000 0.500000 0.000000
O O15 0.267799 0.128455 0.512728
O O16 0.138996 0.133473 0.758292
O O17 0.110092 0.941415 0.350465
#
# Coordination Sequence:
#
# PCOD9094544 Si02
#       8
#     2   2   2   2   2   2   2   2
#     4  10  20  34  58  85 115 157 196 236 279 350
#     4  10  20  37  59  85 113 154 192 240 297 343
#     4   9  17  34  57  84 111 150 194 235 282 339
#     4  12  20  34  60  93 115 144 199 248 284 333
#     4   9  18  33  53  84 115 153 191 229 283 350
#     4  11  21  34  60  89 120 150 193 246 293 337
#     4   9  17  32  57  84 114 149 193 237 277 339
#     4  10  22  38  61  82 113 151 203 238 284 355
#
# _framework density 25.595562999999999
#
# number of rings (size 3 to 8) (size 9 to 14) (size 15 to 20)
#    0.000    2.000    3.750    1.875    1.750    0.500 
#    0.000    0.625    5.500    0.750    0.000    0.000 
#    0.000    0.000    0.000    0.000    0.000    0.000 
#
# Total GULP energy -89246.912902 kJ/mol
# GULP energy per Si atom -5577.932056 kJ/mol
# Density = 2.553731 g / cm^3
# Si number density = 25.595563 Si / 1000 Ang^3
#
#
#
# Elastic Constant Matrix: (Units=GPa)
#
#
# Indices 1 2 3 4 5 6 
#
# 1 109.4269 39.1234 28.7596 -2.4974 37.7341 16.3661
# 2 39.1234 138.1245 9.5297 3.2642 18.8058 11.1390
# 3 28.7596 9.5297 50.9701 4.0325 18.5154 4.6413
# 4 -2.4974 3.2642 4.0325 30.0231 1.2249 7.6058
# 5 37.7341 18.8058 18.5154 1.2249 48.9038 13.7569
# 6 16.3661 11.1390 4.6413 7.6058 13.7569 44.4090
#
#
#
# Elastic Compliance Matrix: (Units=1/GPa)
#
#
# Indices 1 2 3 4 5 6 
#
# 1 0.014416 -0.002584 -0.004880 0.003029 -0.007716 -0.002283
# 2 -0.002584 0.008166 0.000473 -0.000960 -0.001123 -0.000633
# 3 -0.004880 0.000473 0.024671 -0.003945 -0.006130 0.001676
# 4 0.003029 -0.000960 -0.003945 0.035888 0.000533 -0.006775
# 5 -0.007716 -0.001123 -0.006130 0.000533 0.030791 -0.005864
# 6 -0.002283 -0.000633 0.001676 -0.006775 -0.005864 0.026320
#
#
# Mechanical properties :
#
#
# Convention : Reuss Voigt Hill
#
# Bulk Modulus (GPa) = 30.05631 50.37187 40.21409
# Shear Modulus (GPa) = 30.24382 39.40778 34.82580
#
# Velocity S-wave (km/s) = 3.44118 3.92807 3.69266
# Velocity P-wave (km/s) = 5.24949 6.34789 5.82464
#
# Compressibility (1/GPa) = 0.03327088
#
# Stress axis : x y z
#
# Youngs Moduli (GPa) = 69.36695 122.46332 40.53403
#
# Poissons Ratio (x) = 0.31639 0.19781
# Poissons Ratio (y) = 0.17921 -0.01916
# Poissons Ratio (z) = 0.33851 -0.05789
#
# Static dielectric constant tensor:
#      x y z
#    x 2.119150 0.008860 0.023590 
#    y 0.008860 2.090390 -0.007340 
#    z 0.023590 -0.007340 2.154980 
# 
# From -- ./inp_files/255143.got.cif
#   From: 2010.05.17/outbox.cif.g08.bks.cpg/sg2_128_cif.got.tgz:255143.got - 2010.06.03 11:33:40.
