data_PCOD9094186
_publ_section_title
;
Structure prediction by ZEFSAII (Michael W. Deem and Ramdas Pophale) SiO2 
 PCOD9094186
Probable space group: P -1
;
_chemical_formula_sum "Si O2"
_cell_formula_units_Z 14
_cell_length_a 8.533667
_cell_length_b 5.641712
_cell_length_c 17.547333
_cell_angle_alpha 133.905485
_cell_angle_beta 106.580000
_cell_angle_gamma 92.753036
_cell_volume 545.117019
_symmetry_space_group_name_H-M "P -1"
_symmetry_group_IT_number 2
_symmetry_cell_setting 'triclinic'
loop_
_space_group_symop_operation_xyz
x,y,z
-x,-y,-z
loop_
_atom_site_type_symbol
_atom_site_label
_atom_site_fract_x
_atom_site_fract_y
_atom_site_fract_z
Si Si1 0.112221 0.892750 0.738681
Si Si2 0.287414 0.898720 0.909361
Si Si3 0.487280 0.404998 0.850461
Si Si4 0.477915 0.587698 0.404212
Si Si5 0.958324 0.437519 0.069709
Si Si6 0.728615 0.413724 0.759473
Si Si7 0.209569 0.258550 0.429812
O O1 0.310693 0.106297 0.787277
O O2 0.027563 0.174163 0.816322
O O3 0.139375 0.732639 0.787639
O O4 0.973405 0.702407 0.610723
O O5 0.421725 0.699692 0.869030
O O6 0.218155 0.794881 0.962835
O O7 0.371906 0.326109 0.011836
O O8 0.586788 0.246401 0.768993
O O9 0.372292 0.424852 0.276992
O O10 0.345051 0.430819 0.419294
O O11 0.672447 0.578990 0.442797
O O12 0.500000 0.000000 0.500000
O O13 0.106396 0.345726 0.116612
O O14 0.000000 0.500000 0.000000
O O15 0.794991 0.142723 0.662368
#
# Coordination Sequence:
#
# PCOD9094186 Si02
#       7
#     2   2   2   2   2   2   2
#     4  10  20  36  54  77 110 145 181 220 269 324
#     4  10  21  37  54  75 113 155 181 219 269 311
#     4  10  22  35  52  80 111 150 188 216 260 323
#     4   9  18  35  58  83 106 132 174 226 279 325
#     4  10  21  34  53  82 109 139 186 229 264 315
#     4  10  20  34  55  81 109 140 180 224 267 317
#     4   9  19  35  59  82 104 136 177 228 275 317
#
# _framework density 25.682558
#
# number of rings (size 3 to 8) (size 9 to 14) (size 15 to 20)
#    0.000    2.286    0.000    2.143    0.000    9.143 
#    0.000    0.714    0.000    8.571    0.000    0.000 
#    0.000    0.000    0.000    0.000    0.000    0.000 
#
# Total GULP energy -78023.307837 kJ/mol
# GULP energy per Si atom -5573.093417 kJ/mol
# Density = 2.562410 g / cm^3
# Si number density = 25.682558 Si / 1000 Ang^3
#
#
#
# Elastic Constant Matrix: (Units=GPa)
#
#
# Indices 1 2 3 4 5 6 
#
# 1 87.5078 22.3549 55.1403 -16.7168 27.2028 14.1417
# 2 22.3549 68.0747 50.4151 -19.1594 25.1472 19.0486
# 3 55.1403 50.4151 127.2511 -31.9098 36.7522 -1.3611
# 4 -16.7168 -19.1594 -31.9098 44.4367 -15.9788 4.8058
# 5 27.2028 25.1472 36.7522 -15.9788 56.2450 4.3549
# 6 14.1417 19.0486 -1.3611 4.8058 4.3549 41.6453
#
#
#
# Elastic Compliance Matrix: (Units=1/GPa)
#
#
# Indices 1 2 3 4 5 6 
#
# 1 0.018537 0.004560 -0.008034 0.002510 -0.004386 -0.008474
# 2 0.004560 0.029041 -0.010494 0.006453 -0.005310 -0.015364
# 3 -0.008034 -0.010494 0.016990 0.002963 -0.002301 0.007982
# 4 0.002510 0.006453 0.002963 0.030309 0.003158 -0.007535
# 5 -0.004386 -0.005310 -0.002301 0.003158 0.024605 0.000905
# 6 -0.008474 -0.015364 0.007982 -0.007535 0.000905 0.034953
#
#
# Mechanical properties :
#
#
# Convention : Reuss Voigt Hill
#
# Bulk Modulus (GPa) = 27.29813 59.85050 43.57431
# Shear Modulus (GPa) = 25.69610 38.79361 32.24486
#
# Velocity S-wave (km/s) = 3.16654 3.89074 3.54717
# Velocity P-wave (km/s) = 4.90117 6.59836 5.81205
#
# Compressibility (1/GPa) = 0.03663254
#
# Stress axis : x y z
#
# Youngs Moduli (GPa) = 53.94598 34.43408 58.85767
#
# Poissons Ratio (x) = -0.15702 0.47284
# Poissons Ratio (y) = -0.24599 0.61766
# Poissons Ratio (z) = 0.43338 0.36136
#
# Static dielectric constant tensor:
#      x y z
#    x 2.033160 -0.039910 0.091040 
#    y -0.039910 2.100730 -0.046750 
#    z 0.091040 -0.046750 2.230920 
# 
# From -- ./inp_files/37760.got.cif
#   From: 2010.05.17/outbox.cif.g08.bks.cpg/sg2_19_cif.got.tgz:37760.got - 2010.06.03 11:33:40.
