data_PCOD9094046
_publ_section_title
;
Structure prediction by ZEFSAII (Michael W. Deem and Ramdas Pophale) SiO2 
 PCOD9094046
Probable space group: P -1
;
_chemical_formula_sum "Si O2"
_cell_formula_units_Z 15
_cell_length_a 18.646547
_cell_length_b 8.658185
_cell_length_c 10.507524
_cell_angle_alpha 66.295184
_cell_angle_beta 39.389963
_cell_angle_gamma 38.183959
_cell_volume 566.927411
_symmetry_space_group_name_H-M "P -1"
_symmetry_group_IT_number 2
_symmetry_cell_setting 'triclinic'
loop_
_space_group_symop_operation_xyz
x,y,z
-x,-y,-z
loop_
_atom_site_type_symbol
_atom_site_label
_atom_site_fract_x
_atom_site_fract_y
_atom_site_fract_z
Si Si1 0.351538 0.596027 0.573397
Si Si2 0.856711 0.826890 0.462012
Si Si3 0.500000 0.000000 0.500000
Si Si4 0.106936 0.965970 0.478713
Si Si5 0.676063 0.766153 0.598837
Si Si6 0.108726 0.579016 0.966673
Si Si7 0.062314 0.132953 0.149080
Si Si8 0.513372 0.321005 0.178293
O O1 0.500000 0.500000 0.500000
O O2 0.201110 0.653612 0.828428
O O3 0.438328 0.368829 0.412878
O O4 0.263797 0.865717 0.532344
O O5 0.717880 0.836620 0.634065
O O6 0.925163 0.802107 0.515434
O O7 0.031890 0.599400 0.196285
O O8 0.582813 0.968859 0.537631
O O9 0.722322 0.741423 0.218606
O O10 0.342723 0.654664 0.253196
O O11 0.007727 0.975869 0.723991
O O12 0.000000 0.000000 0.500000
O O13 0.529529 0.788419 0.812637
O O14 0.883361 0.437235 0.371823
O O15 0.942952 0.795979 0.011861
O O16 0.266020 0.896364 0.023849
#
# Coordination Sequence:
#
# PCOD9094046 Si02
#       8
#     2   2   1   2   2   2   2   2
#     4  11  20  34  52  85 127 166 196 249 295 357
#     4  11  23  35  59  92 123 160 204 254 296 368
#     4  10  20  34  52  86 130 176 186 232 290 366
#     4  10  23  46  66  88 117 155 211 266 312 354
#     4  10  22  37  53  92 127 163 202 238 300 365
#     4  11  21  35  57  92 129 166 202 239 305 368
#     4  10  21  40  63  87 124 166 196 245 313 371
#     4  10  21  40  61  84 124 164 198 246 310 365
#
# _framework density 26.458414000000001
#
# number of rings (size 3 to 8) (size 9 to 14) (size 15 to 20)
#    0.000    1.600    5.333    2.000    5.600    1.600 
#    0.000    2.667    0.000    1.600    0.000    0.000 
#    0.000    0.000    0.000    0.000    0.000    0.000 
#
# Total GULP energy -83652.255337 kJ/mol
# GULP energy per Si atom -5576.817022 kJ/mol
# Density = 2.639819 g / cm^3
# Si number density = 26.458414 Si / 1000 Ang^3
#
#
#
# Elastic Constant Matrix: (Units=GPa)
#
#
# Indices 1 2 3 4 5 6 
#
# 1 222.2331 40.1961 50.8216 11.9294 -44.9668 17.5001
# 2 40.1961 47.5480 11.6272 8.9309 -17.7574 -5.7152
# 3 50.8216 11.6272 99.7633 18.2867 -37.3078 -3.4929
# 4 11.9294 8.9309 18.2867 28.9324 -3.2206 -14.9281
# 5 -44.9668 -17.7574 -37.3078 -3.2206 55.8699 -6.1308
# 6 17.5001 -5.7152 -3.4929 -14.9281 -6.1308 55.3539
#
#
#
# Elastic Compliance Matrix: (Units=1/GPa)
#
#
# Indices 1 2 3 4 5 6 
#
# 1 0.006409 -0.004207 -0.001773 -0.001358 0.002264 -0.002688
# 2 -0.004207 0.028304 0.002948 -0.006147 0.007622 0.003625
# 3 -0.001773 0.002948 0.015819 -0.008822 0.009625 0.000550
# 4 -0.001358 -0.006147 -0.008822 0.048069 -0.004888 0.011660
# 5 0.002264 0.007622 0.009625 -0.004888 0.028566 0.002524
# 6 -0.002688 0.003625 0.000550 0.011660 0.002524 0.022748
#
#
# Mechanical properties :
#
#
# Convention : Reuss Voigt Hill
#
# Bulk Modulus (GPa) = 22.48764 63.87046 43.17905
# Shear Modulus (GPa) = 29.27381 45.82455 37.54918
#
# Velocity S-wave (km/s) = 3.32988 4.16618 3.77128
# Velocity P-wave (km/s) = 4.82720 6.88005 5.94293
#
# Compressibility (1/GPa) = 0.04446888
#
# Stress axis : x y z
#
# Youngs Moduli (GPa) = 156.03600 35.33110 63.21401
#
# Poissons Ratio (x) = 0.14863 0.11208
# Poissons Ratio (y) = 0.65642 -0.18638
# Poissons Ratio (z) = 0.27666 -0.10417
#
# Static dielectric constant tensor:
#      x y z
#    x 2.114800 -0.017000 0.091570 
#    y -0.017000 1.956690 -0.012840 
#    z 0.091570 -0.012840 2.089230 
# 
# From -- ./inp_files/462093.got.cif
#   From: 2010.05.17/outbox.cif.g08.bks.cpg/sg2_232_cif.got.tgz:462093.got - 2010.06.03 11:33:40.
