data_PCOD9094191
_publ_section_title
;
Structure prediction by ZEFSAII (Michael W. Deem and Ramdas Pophale) SiO2 
 PCOD9094191
Probable space group: P -1
;
_chemical_formula_sum "Si O2"
_cell_formula_units_Z 14
_cell_length_a 14.733511
_cell_length_b 9.149715
_cell_length_c 19.800618
_cell_angle_alpha 34.773800
_cell_angle_beta 25.694935
_cell_angle_gamma 52.320287
_cell_volume 563.245553
_symmetry_space_group_name_H-M "P -1"
_symmetry_group_IT_number 2
_symmetry_cell_setting 'triclinic'
loop_
_space_group_symop_operation_xyz
x,y,z
-x,-y,-z
loop_
_atom_site_type_symbol
_atom_site_label
_atom_site_fract_x
_atom_site_fract_y
_atom_site_fract_z
Si Si1 0.379430 0.767515 0.605704
Si Si2 0.706432 0.746129 0.062444
Si Si3 0.176926 0.591978 0.489774
Si Si4 0.166617 0.261550 0.737988
Si Si5 0.998766 0.812256 0.413971
Si Si6 0.472200 0.294201 0.264704
Si Si7 0.040767 0.362128 0.258258
O O1 0.209390 0.427485 0.877065
O O2 0.587570 0.738923 0.437679
O O3 0.500000 0.000000 0.500000
O O4 0.311288 0.953994 0.530312
O O5 0.469488 0.753351 0.244842
O O6 0.588778 0.504214 0.171877
O O7 0.893362 0.051025 0.783869
O O8 0.079832 0.269618 0.715203
O O9 0.031466 0.704926 0.589921
O O10 0.130013 0.660308 0.420170
O O11 0.157687 0.546192 0.665016
O O12 0.000000 0.000000 0.000000
O O13 0.043156 0.096554 0.320291
O O14 0.705601 0.615024 0.684710
O O15 0.691063 0.351349 0.046974
#
# Coordination Sequence:
#
# PCOD9094191 Si02
#       7
#     2   2   2   2   2   2   2
#     4   9  16  32  56  76 102 139 178 214 263 310
#     4   9  20  36  56  76 105 149 178 218 262 311
#     4   9  19  35  59  76 106 146 178 218 266 313
#     4   9  16  32  59  77  97 140 183 211 261 313
#     4  11  21  35  53  82 113 139 175 219 267 320
#     4  10  20  34  55  82 108 140 178 219 268 317
#     4   9  20  36  56  78 105 145 174 218 267 314
#
# _framework density 24.855944999999998
#
# number of rings (size 3 to 8) (size 9 to 14) (size 15 to 20)
#    0.857    1.714    1.429    0.857    0.000    1.714 
#    0.000    2.143    0.000    0.000    0.000    0.000 
#    0.000    0.000    0.000    0.000    0.000    0.000 
#
# Total GULP energy -77951.196578 kJ/mol
# GULP energy per Si atom -5567.942613 kJ/mol
# Density = 2.479937 g / cm^3
# Si number density = 24.855945 Si / 1000 Ang^3
#
#
#
# Elastic Constant Matrix: (Units=GPa)
#
#
# Indices 1 2 3 4 5 6 
#
# 1 55.1641 21.2842 23.3867 -4.3880 19.6890 -24.3648
# 2 21.2842 102.1695 46.0732 -21.9831 11.0283 -30.8297
# 3 23.3867 46.0732 100.5454 14.3532 33.9510 0.3335
# 4 -4.3880 -21.9831 14.3532 26.3624 0.3260 -10.6420
# 5 19.6890 11.0283 33.9510 0.3260 26.4590 4.8559
# 6 -24.3648 -30.8297 0.3335 -10.6420 4.8559 29.4085
#
#
#
# Elastic Compliance Matrix: (Units=1/GPa)
#
#
# Indices 1 2 3 4 5 6 
#
# 1 0.016214 -0.022338 0.019362 -0.033620 -0.023800 -0.018441
# 2 -0.022338 -0.001472 0.001406 -0.018135 0.021185 -0.030127
# 3 0.019362 0.001406 0.018825 0.005403 -0.044086 0.026536
# 4 -0.033620 -0.018135 0.005403 -0.008805 0.036042 -0.056065
# 5 -0.023800 0.021185 -0.044086 0.036042 0.102978 -0.000971
# 6 -0.018441 -0.030127 0.026536 -0.056065 -0.000971 -0.033286
#
#
# Mechanical properties :
#
#
# Convention : Reuss Voigt Hill
#
# Bulk Modulus (GPa) = 32.86684 48.81857 40.84270
# Shear Modulus (GPa) = 46.40944 27.58832 36.99888
#
# Velocity S-wave (km/s) = 4.32573 3.33517 3.86234
# Velocity P-wave (km/s) = 6.18068 5.87490 6.02973
#
# Compressibility (1/GPa) = 0.03042581
#
# Stress axis : x y z
#
# Youngs Moduli (GPa) = 61.67593 -679.19346 53.12009
#
# Poissons Ratio (x) = -15.17198 -1.02851
# Poissons Ratio (y) = 1.37773 -0.07467
# Poissons Ratio (z) = -1.19417 0.95477
#
# Static dielectric constant tensor:
#      x y z
#    x 2.066490 0.047690 -0.040720 
#    y 0.047690 1.973860 -0.066060 
#    z -0.040720 -0.066060 2.085020 
# 
# From -- ./inp_files/109389.got.cif
#   From: 2010.05.17/outbox.cif.g08.bks.cpg/sg2_55_cif.got.tgz:109389.got - 2010.06.03 11:33:40.
