data_PCOD9094959
_publ_section_title
;
Structure prediction by ZEFSAII (Michael W. Deem and Ramdas Pophale) SiO2 
 PCOD9094959
Probable space group: P -1
;
_chemical_formula_sum "Si O2"
_cell_formula_units_Z 14
_cell_length_a 8.192292
_cell_length_b 9.532398
_cell_length_c 12.126266
_cell_angle_alpha 89.088151
_cell_angle_beta 141.039112
_cell_angle_gamma 94.419097
_cell_volume 592.208815
_symmetry_space_group_name_H-M "P -1"
_symmetry_group_IT_number 2
_symmetry_cell_setting 'triclinic'
loop_
_space_group_symop_operation_xyz
x,y,z
-x,-y,-z
loop_
_atom_site_type_symbol
_atom_site_label
_atom_site_fract_x
_atom_site_fract_y
_atom_site_fract_z
Si Si1 0.033227 0.353233 0.662216
Si Si2 0.348293 0.561775 0.684470
Si Si3 0.123876 0.484494 0.930337
Si Si4 0.948187 0.250994 0.991457
Si Si5 0.663096 0.975456 0.761451
Si Si6 0.915275 0.945853 0.206997
Si Si7 0.634915 0.136975 0.214108
O O1 0.185251 0.414484 0.633566
O O2 0.169751 0.446748 0.830554
O O3 0.053517 0.194155 0.705791
O O4 0.741580 0.392404 0.483794
O O5 0.308744 0.695985 0.740181
O O6 0.640510 0.533539 0.862311
O O7 0.929697 0.352729 0.874775
O O8 0.061659 0.643289 0.913188
O O9 0.734157 0.119511 0.866194
O O10 0.200152 0.165747 0.134146
O O11 0.381893 0.928841 0.669138
O O12 0.820144 0.015143 0.728092
O O13 0.841322 0.070810 0.245384
O O14 0.651376 0.903453 0.994589
#
# Coordination Sequence:
#
# PCOD9094959 Si02
#       7
#     2   2   2   2   2   2   2
#     4  11  24  41  61  93 131 164 215 270 308 377
#     4  11  24  41  61  93 131 164 215 270 308 377
#     4  11  21  40  65  90 122 178 208 255 323 385
#     4  10  20  34  66  95 127 163 215 262 317 367
#     4  11  18  40  61  98 131 157 212 275 295 392
#     4  11  22  37  67  95 122 172 212 253 325 379
#     4  11  22  37  67  95 122 172 212 253 325 379
#
# _framework density 23.640308999999998
#
# number of rings (size 3 to 8) (size 9 to 14) (size 15 to 20)
#    0.000    1.143    7.143    0.429    4.000    0.571 
#    0.000    3.571    0.000    0.000    0.000    0.000 
#    0.000    0.000    0.000    0.000    0.000    0.000 
#
# Total GULP energy -77941.492954 kJ/mol
# GULP energy per Si atom -5567.249497 kJ/mol
# Density = 2.358650 g / cm^3
# Si number density = 23.640309 Si / 1000 Ang^3
#
#
#
# Elastic Constant Matrix: (Units=GPa)
#
#
# Indices 1 2 3 4 5 6 
#
# 1 54.4603 47.6013 27.1538 -2.6717 -15.2282 7.1204
# 2 47.6013 160.1182 31.1358 -12.4506 -10.9939 -8.9280
# 3 27.1538 31.1358 47.4153 -15.2493 16.5349 9.9311
# 4 -2.6717 -12.4506 -15.2493 27.3599 12.2134 -1.3443
# 5 -15.2282 -10.9939 16.5349 12.2134 -1.7535 -10.0817
# 6 7.1204 -8.9280 9.9311 -1.3443 -10.0817 32.8554
#
#
#
# Elastic Compliance Matrix: (Units=1/GPa)
#
#
# Indices 1 2 3 4 5 6 
#
# 1 0.022296 -0.008279 0.002077 0.005532 -0.014681 -0.011988
# 2 -0.008279 0.009397 -0.001102 0.003359 -0.000622 0.004627
# 3 0.002077 -0.001102 0.009800 -0.005386 0.024010 0.003435
# 4 0.005532 0.003359 -0.005386 0.027144 0.019923 0.008566
# 5 -0.014681 -0.000622 0.024010 0.019923 -0.019536 -0.009424
# 6 -0.011988 0.004627 0.003435 0.008566 -0.009424 0.030712
#
#
# Mechanical properties :
#
#
# Convention : Reuss Voigt Hill
#
# Bulk Modulus (GPa) = 37.19323 52.64172 44.91748
# Shear Modulus (GPa) = 48.36476 22.09921 35.23199
#
# Velocity S-wave (km/s) = 4.52803 3.06078 3.86467
# Velocity P-wave (km/s) = 6.56540 5.89977 6.24147
#
# Compressibility (1/GPa) = 0.02688661
#
# Stress axis : x y z
#
# Youngs Moduli (GPa) = 44.85130 106.41436 102.04520
#
# Poissons Ratio (x) = 0.88095 -0.21198
# Poissons Ratio (y) = 0.37130 0.11243
# Poissons Ratio (z) = -0.09317 0.11725
#
# Static dielectric constant tensor:
#      x y z
#    x 2.022270 0.051990 0.064270 
#    y 0.051990 1.841340 0.048960 
#    z 0.064270 0.048960 2.053690 
# 
# From -- ./inp_files/382155.got.cif
#   From: 2010.05.17/outbox.cif.g08.bks.cpg/sg2_192_cif.got.tgz:382155.got - 2010.06.03 11:33:40.
