data_PCOD9094016
_publ_section_title
;
Structure prediction by ZEFSAII (Michael W. Deem and Ramdas Pophale) SiO2 
 PCOD9094016
Probable space group: P -1
;
_chemical_formula_sum "Si O2"
_cell_formula_units_Z 16
_cell_length_a 8.429933
_cell_length_b 6.829148
_cell_length_c 17.669446
_cell_angle_alpha 52.330895
_cell_angle_beta 129.560579
_cell_angle_gamma 104.131026
_cell_volume 602.961724
_symmetry_space_group_name_H-M "P -1"
_symmetry_group_IT_number 2
_symmetry_cell_setting 'triclinic'
loop_
_space_group_symop_operation_xyz
x,y,z
-x,-y,-z
loop_
_atom_site_type_symbol
_atom_site_label
_atom_site_fract_x
_atom_site_fract_y
_atom_site_fract_z
Si Si1 0.277532 0.944368 0.967248
Si Si2 0.939874 0.340617 0.233038
Si Si3 0.622203 0.359019 0.474723
Si Si4 0.422652 0.763448 0.755512
Si Si5 0.822631 0.562933 0.995112
Si Si6 0.703034 0.882195 0.494864
Si Si7 0.508600 0.297555 0.776470
Si Si8 0.946468 0.803023 0.291494
O O1 0.274897 0.684742 0.983285
O O2 0.298788 0.890705 0.075882
O O3 0.500000 0.000000 0.000000
O O4 0.097242 0.157368 0.821061
O O5 0.715904 0.347465 0.201146
O O6 0.101447 0.305386 0.360091
O O7 0.994590 0.068565 0.270760
O O8 0.919358 0.547832 0.111652
O O9 0.493092 0.248588 0.525438
O O10 0.487774 0.603310 0.331072
O O11 0.847195 0.392398 0.566538
O O12 0.663336 0.132750 0.477673
O O13 0.632362 0.794751 0.855319
O O14 0.494731 0.550242 0.764015
O O15 0.286251 0.007614 0.611925
O O16 0.000000 0.500000 0.000000
O O17 0.278211 0.229164 0.735115
#
# Coordination Sequence:
#
# PCOD9094016 Si02
#       8
#     2   2   2   2   2   2   2   2
#     4   8  16  29  46  73  98 126 159 204 251 297
#     4  10  20  34  52  76 105 134 164 209 261 304
#     4   9  17  28  47  75 100 125 172 218 243 287
#     4  10  20  34  52  76 105 134 164 209 261 304
#     4  10  21  31  54  83 103 128 175 220 250 295
#     4   9  19  30  49  73 105 132 168 208 258 298
#     4   9  17  30  50  74  97 132 172 207 244 305
#     4   9  17  30  50  74  97 132 172 207 244 305
#
# _framework density 26.535682000000001
#
# number of rings (size 3 to 8) (size 9 to 14) (size 15 to 20)
#    0.000    2.750    0.000    1.125   10.500    0.000 
#    0.000    0.000    0.000    3.000    0.000   10.500 
#    0.000    0.000    0.000    0.000    0.000    0.000 
#
# Total GULP energy -89421.978358 kJ/mol
# GULP energy per Si atom -5588.873647 kJ/mol
# Density = 2.647529 g / cm^3
# Si number density = 26.535682 Si / 1000 Ang^3
#
#
#
# Elastic Constant Matrix: (Units=GPa)
#
#
# Indices 1 2 3 4 5 6 
#
# 1 56.9099 -24.0103 47.9731 6.4955 -22.1777 0.2523
# 2 -24.0103 89.1456 16.5232 11.9714 -7.3477 -8.9045
# 3 47.9731 16.5232 220.5061 -11.3072 -28.3663 -3.1537
# 4 6.4955 11.9714 -11.3072 44.5296 -6.5303 -2.2633
# 5 -22.1777 -7.3477 -28.3663 -6.5303 40.8052 0.7429
# 6 0.2523 -8.9045 -3.1537 -2.2633 0.7429 24.8388
#
#
#
# Elastic Compliance Matrix: (Units=1/GPa)
#
#
# Indices 1 2 3 4 5 6 
#
# 1 0.037012 0.014072 -0.007447 -0.008594 0.016053 0.002460
# 2 0.014072 0.017641 -0.003729 -0.006450 0.007111 0.004907
# 3 -0.007447 -0.003729 0.006704 0.003870 0.000562 -0.000074
# 4 -0.008594 -0.006450 0.003870 0.026623 0.001107 0.000659
# 5 0.016053 0.007111 0.000562 0.001107 0.035052 0.001510
# 6 0.002460 0.004907 -0.000074 0.000659 0.001510 0.041999
#
#
# Mechanical properties :
#
#
# Convention : Reuss Voigt Hill
#
# Bulk Modulus (GPa) = 14.89224 49.72596 32.30910
# Shear Modulus (GPa) = 27.52930 43.77308 35.65119
#
# Velocity S-wave (km/s) = 3.22443 4.06592 3.66938
# Velocity P-wave (km/s) = 4.41440 6.38923 5.49132
#
# Compressibility (1/GPa) = 0.06714909
#
# Stress axis : x y z
#
# Youngs Moduli (GPa) = 27.01821 56.68475 149.15621
#
# Poissons Ratio (x) = -0.79767 1.11079
# Poissons Ratio (y) = -0.38020 0.55624
# Poissons Ratio (z) = 0.20121 0.21139
#
# Static dielectric constant tensor:
#      x y z
#    x 1.910950 -0.081910 0.030880 
#    y -0.081910 2.140000 -0.049420 
#    z 0.030880 -0.049420 2.160110 
# 
# From -- ./inp_files/250352.got.cif
#   From: 2010.05.17/outbox.cif.g08.bks.cpg/sg2_126_cif.got.tgz:250352.got - 2010.06.03 11:33:40.
