data_PCOD9094525
_publ_section_title
;
Structure prediction by ZEFSAII (Michael W. Deem and Ramdas Pophale) SiO2 
 PCOD9094525
Probable space group: P -1
;
_chemical_formula_sum "Si O2"
_cell_formula_units_Z 14
_cell_length_a 8.759759
_cell_length_b 10.210830
_cell_length_c 6.937334
_cell_angle_alpha 94.168097
_cell_angle_beta 90.505001
_cell_angle_gamma 117.097577
_cell_volume 550.318653
_symmetry_space_group_name_H-M "P -1"
_symmetry_group_IT_number 2
_symmetry_cell_setting 'triclinic'
loop_
_space_group_symop_operation_xyz
x,y,z
-x,-y,-z
loop_
_atom_site_type_symbol
_atom_site_label
_atom_site_fract_x
_atom_site_fract_y
_atom_site_fract_z
Si Si1 0.100128 0.638560 0.752920
Si Si2 0.642480 0.037543 0.231040
Si Si3 0.705389 0.733558 0.581484
Si Si4 0.735423 0.034573 0.683957
Si Si5 0.419609 0.276005 0.824462
Si Si6 0.020238 0.329186 0.650416
Si Si7 0.271813 0.436839 0.092496
O O1 0.244265 0.799217 0.831635
O O2 0.091789 0.648428 0.520370
O O3 0.115041 0.488202 0.771206
O O4 0.918182 0.607881 0.840029
O O5 0.704239 0.043525 0.454693
O O6 0.443681 0.998643 0.225496
O O7 0.651228 0.893523 0.133837
O O8 0.573886 0.719020 0.408679
O O9 0.641422 0.611432 0.732429
O O10 0.857065 0.720029 0.469695
O O11 0.772030 0.894909 0.691465
O O12 0.890928 0.190713 0.757899
O O13 0.608855 0.388782 0.910558
O O14 0.296828 0.342185 0.911706
#
# Coordination Sequence:
#
# PCOD9094525 Si02
#       7
#     2   2   2   2   2   2   2
#     4   9  18  32  52  79 110 144 181 221 268 320
#     4   9  18  32  52  79 110 144 181 221 268 320
#     4  10  20  34  58  84 108 140 180 224 268 316
#     4   9  17  31  53  80 110 143 180 222 268 319
#     4  10  21  37  57  81 109 142 180 222 269 320
#     4   9  17  31  53  80 110 143 180 222 268 319
#     4  10  21  37  57  81 109 142 180 222 269 320
#
# _framework density 25.439807999999999
#
# number of rings (size 3 to 8) (size 9 to 14) (size 15 to 20)
#    0.000    2.571    0.000    1.714    0.000    9.714 
#    0.000    1.429    0.000    0.000    0.000    0.000 
#    0.000    0.000    0.000    0.000    0.000    0.000 
#
# Total GULP energy -78331.710878 kJ/mol
# GULP energy per Si atom -5595.122206 kJ/mol
# Density = 2.538191 g / cm^3
# Si number density = 25.439808 Si / 1000 Ang^3
#
#
#
# Elastic Constant Matrix: (Units=GPa)
#
#
# Indices 1 2 3 4 5 6 
#
# 1 57.6512 68.6025 12.5454 21.2513 -20.8735 13.8019
# 2 68.6025 237.9245 34.3157 58.9116 -29.3326 20.2771
# 3 12.5454 34.3157 89.7180 7.9437 -6.5129 -0.6958
# 4 21.2513 58.9116 7.9437 32.3904 -6.6887 3.2243
# 5 -20.8735 -29.3326 -6.5129 -6.6887 40.1567 -6.7085
# 6 13.8019 20.2771 -0.6958 3.2243 -6.7085 39.6412
#
#
#
# Elastic Compliance Matrix: (Units=1/GPa)
#
#
# Indices 1 2 3 4 5 6 
#
# 1 0.032108 -0.005173 -0.001045 -0.008672 0.010277 -0.006107
# 2 -0.005173 0.009477 -0.001659 -0.012947 0.001513 -0.001767
# 3 -0.001045 -0.001659 0.011911 0.000749 0.000544 0.001453
# 4 -0.008672 -0.012947 0.000749 0.058811 -0.003328 0.004308
# 5 0.010277 0.001513 0.000544 -0.003328 0.031082 0.001188
# 6 -0.006107 -0.001767 0.001453 0.004308 0.001188 0.028132
#
#
# Mechanical properties :
#
#
# Convention : Reuss Voigt Hill
#
# Bulk Modulus (GPa) = 26.49502 68.46898 47.48200
# Shear Modulus (GPa) = 25.01823 40.42634 32.72229
#
# Velocity S-wave (km/s) = 3.13937 3.99067 3.59034
# Velocity P-wave (km/s) = 4.85574 6.94309 5.99102
#
# Compressibility (1/GPa) = 0.03774294
#
# Stress axis : x y z
#
# Youngs Moduli (GPa) = 31.14524 105.52344 83.95556
#
# Poissons Ratio (x) = 0.54582 0.08771
# Poissons Ratio (y) = 0.16110 0.13927
# Poissons Ratio (z) = 0.03254 0.17505
#
# Static dielectric constant tensor:
#      x y z
#    x 2.015110 -0.027080 0.114370 
#    y -0.027080 1.982030 -0.000370 
#    z 0.114370 -0.000370 2.032070 
# 
# From -- ./inp_files/159588.got.cif
#   From: 2010.05.17/outbox.cif.g08.bks.cpg/sg2_80_cif.got.tgz:159588.got - 2010.06.03 11:33:40.
