data_PCOD9094653
_publ_section_title
;
Structure prediction by ZEFSAII (Michael W. Deem and Ramdas Pophale) SiO2 
 PCOD9094653
Probable space group: P -1
;
_chemical_formula_sum "Si O2"
_cell_formula_units_Z 16
_cell_length_a 11.645111
_cell_length_b 10.702189
_cell_length_c 18.099455
_cell_angle_alpha 52.719144
_cell_angle_beta 29.913323
_cell_angle_gamma 72.905830
_cell_volume 727.602073
_symmetry_space_group_name_H-M "P -1"
_symmetry_group_IT_number 2
_symmetry_cell_setting 'triclinic'
loop_
_space_group_symop_operation_xyz
x,y,z
-x,-y,-z
loop_
_atom_site_type_symbol
_atom_site_label
_atom_site_fract_x
_atom_site_fract_y
_atom_site_fract_z
Si Si1 0.426041 0.502074 0.260358
Si Si2 0.725165 0.335246 0.584771
Si Si3 0.334050 0.543618 0.134577
Si Si4 0.900902 0.800510 0.227287
Si Si5 0.541650 0.054738 0.044437
Si Si6 0.045882 0.790727 0.837640
Si Si7 0.513598 0.746516 0.574024
Si Si8 0.124390 0.222118 0.907331
O O1 0.248564 0.536385 0.405253
O O2 0.312155 0.452713 0.259555
O O3 0.470296 0.350830 0.326837
O O4 0.738678 0.703035 0.007978
O O5 0.441117 0.279940 0.721380
O O6 0.001362 0.445590 0.339989
O O7 0.660545 0.139378 0.725999
O O8 0.500000 0.500000 0.000000
O O9 0.483464 0.771479 0.983931
O O10 0.608373 0.675346 0.478671
O O11 0.923175 0.720317 0.166194
O O12 0.145989 0.866070 0.126576
O O13 0.929453 0.990436 0.113638
O O14 0.500000 0.000000 0.000000
O O15 0.220838 0.717158 0.733665
O O16 0.249001 0.022103 0.635343
O O17 0.969296 0.715398 0.992056
#
# Coordination Sequence:
#
# PCOD9094653 Si02
#       8
#     2   2   2   2   2   2   2   2
#     4  11  22  39  63  88 124 168 217 261 308 392
#     4  10  22  42  69  93 123 176 218 262 320 391
#     4  12  28  43  61  99 132 162 219 279 327 375
#     4   9  18  34  62  93 118 158 214 259 307 374
#     4  11  23  42  71  93 125 175 222 261 313 393
#     4   9  20  37  57  90 123 167 206 251 321 383
#     4  10  20  34  59  89 121 160 208 256 314 374
#     4   8  17  36  60  89 126 156 207 262 313 373
#
# _framework density 21.990041999999999
#
# number of rings (size 3 to 8) (size 9 to 14) (size 15 to 20)
#    0.000    2.000    1.250    2.250    1.750    2.500 
#    0.000    8.125    0.000    0.000    0.000    0.000 
#    0.000    0.000    0.000    0.000    0.000    0.000 
#
# Total GULP energy -89300.157993 kJ/mol
# GULP energy per Si atom -5581.259875 kJ/mol
# Density = 2.193999 g / cm^3
# Si number density = 21.990042 Si / 1000 Ang^3
#
#
#
# Elastic Constant Matrix: (Units=GPa)
#
#
# Indices 1 2 3 4 5 6 
#
# 1 91.5906 15.4066 20.9483 3.8737 13.9136 7.3391
# 2 15.4066 103.2936 45.0848 -6.1035 10.9673 -4.2186
# 3 20.9483 45.0848 103.4430 9.8980 -2.9530 0.0329
# 4 3.8737 -6.1035 9.8980 38.2337 -7.0824 6.4327
# 5 13.9136 10.9673 -2.9530 -7.0824 22.8096 -6.4155
# 6 7.3391 -4.2186 0.0329 6.4327 -6.4155 23.8230
#
#
#
# Elastic Compliance Matrix: (Units=1/GPa)
#
#
# Indices 1 2 3 4 5 6 
#
# 1 0.013945 0.000074 -0.003030 -0.001558 -0.011364 -0.006918
# 2 0.000074 0.013203 -0.006195 0.002527 -0.006437 -0.000092
# 3 -0.003030 -0.006195 0.013485 -0.003433 0.006184 0.002410
# 4 -0.001558 0.002527 -0.003433 0.029792 0.007077 -0.005207
# 5 -0.011364 -0.006437 0.006184 0.007077 0.061661 0.017047
# 6 -0.006918 -0.000092 0.002410 -0.005207 0.017047 0.050085
#
#
# Mechanical properties :
#
#
# Convention : Reuss Voigt Hill
#
# Bulk Modulus (GPa) = 44.77761 51.24517 48.01139
# Shear Modulus (GPa) = 24.04834 31.43243 27.74038
#
# Velocity S-wave (km/s) = 3.31055 3.78483 3.55561
# Velocity P-wave (km/s) = 5.91776 6.51570 6.22392
#
# Compressibility (1/GPa) = 0.02233259
#
# Stress axis : x y z
#
# Youngs Moduli (GPa) = 71.70978 75.74030 74.15651
#
# Poissons Ratio (x) = -0.00563 0.22466
# Poissons Ratio (y) = -0.00533 0.45940
# Poissons Ratio (z) = 0.21725 0.46921
#
# Static dielectric constant tensor:
#      x y z
#    x 1.864800 0.026530 -0.025390 
#    y 0.026530 1.875490 -0.031270 
#    z -0.025390 -0.031270 1.845150 
# 
# From -- ./inp_files/568659.got.cif
#   From: 2010.05.17/outbox.cif.g08.bks.cpg/sg2_285_cif.got.tgz:568659.got - 2010.06.03 11:33:40.
