data_PCOD9094583
_publ_section_title
;
Structure prediction by ZEFSAII (Michael W. Deem and Ramdas Pophale) SiO2 
 PCOD9094583
Probable space group: P -1
;
_chemical_formula_sum "Si O2"
_cell_formula_units_Z 16
_cell_length_a 10.500542
_cell_length_b 8.049012
_cell_length_c 20.657339
_cell_angle_alpha 127.756653
_cell_angle_beta 140.994376
_cell_angle_gamma 80.707552
_cell_volume 673.505321
_symmetry_space_group_name_H-M "P -1"
_symmetry_group_IT_number 2
_symmetry_cell_setting 'triclinic'
loop_
_space_group_symop_operation_xyz
x,y,z
-x,-y,-z
loop_
_atom_site_type_symbol
_atom_site_label
_atom_site_fract_x
_atom_site_fract_y
_atom_site_fract_z
Si Si1 0.365691 0.638315 0.471982
Si Si2 0.408605 0.704120 0.090838
Si Si3 0.972685 0.645905 0.443008
Si Si4 0.125213 0.160778 0.782769
Si Si5 0.494216 0.187855 0.287790
Si Si6 0.482345 0.300063 0.592897
Si Si7 0.792740 0.165113 0.177030
Si Si8 0.624868 0.807127 0.341991
O O1 0.500000 0.500000 0.500000
O O2 0.493071 0.830027 0.632506
O O3 0.413667 0.736018 0.440553
O O4 0.052982 0.403242 0.298296
O O5 0.677942 0.806749 0.185531
O O6 0.463676 0.673279 0.179971
O O7 0.338040 0.905080 0.120163
O O8 0.201064 0.443170 0.903116
O O9 0.812529 0.340938 0.285127
O O10 0.764752 0.682390 0.389106
O O11 0.212867 0.697333 0.588079
O O12 0.131231 0.879317 0.504428
O O13 0.168441 0.045603 0.835280
O O14 0.829762 0.935340 0.592233
O O15 0.446104 0.402389 0.309484
O O16 0.548514 0.252383 0.678150
O O17 0.500000 0.000000 0.000000
#
# Coordination Sequence:
#
# PCOD9094583 Si02
#       8
#     2   2   2   2   2   2   2   2
#     4   9  18  39  60  92 120 160 218 258 293 384
#     4  10  23  38  55  91 133 156 208 263 315 365
#     4   9  17  33  50  84 120 149 202 250 296 358
#     4  11  21  37  61  90 123 170 197 259 324 370
#     4   9  18  35  58  82 119 159 208 251 292 377
#     4  11  20  35  69  87 116 168 217 244 314 375
#     4  11  21  35  62  89 123 161 205 259 313 364
#     4  10  20  34  58  90 126 160 200 267 305 365
#
# _framework density 23.756308000000001
#
# number of rings (size 3 to 8) (size 9 to 14) (size 15 to 20)
#    0.000    2.000    3.750    3.000    1.750    2.000 
#    0.000    6.250    0.000    4.500    0.000    0.000 
#    0.000    0.000    0.000    0.000    0.000    0.000 
#
# Total GULP energy -89134.213878 kJ/mol
# GULP energy per Si atom -5570.888367 kJ/mol
# Density = 2.370224 g / cm^3
# Si number density = 23.756308 Si / 1000 Ang^3
#
#
#
# Elastic Constant Matrix: (Units=GPa)
#
#
# Indices 1 2 3 4 5 6 
#
# 1 119.6607 29.5874 26.2225 10.2250 -35.3426 28.4893
# 2 29.5874 54.9449 15.8714 11.2978 -16.8682 -0.2065
# 3 26.2225 15.8714 88.4662 22.2916 -20.4510 -4.7580
# 4 10.2250 11.2978 22.2916 30.8566 -15.8721 -18.4867
# 5 -35.3426 -16.8682 -20.4510 -15.8721 35.9269 -0.8968
# 6 28.4893 -0.2065 -4.7580 -18.4867 -0.8968 50.8176
#
#
#
# Elastic Compliance Matrix: (Units=1/GPa)
#
#
# Indices 1 2 3 4 5 6 
#
# 1 0.015411 -0.004009 -0.001057 -0.002894 0.011158 -0.009611
# 2 -0.004009 0.022766 -0.000920 -0.003109 0.004878 0.001209
# 3 -0.001057 -0.000920 0.014696 -0.009365 0.002722 -0.001394
# 4 -0.002894 -0.003109 -0.009365 0.067230 0.020702 0.025555
# 5 0.011158 0.004878 0.002722 0.020702 0.051858 0.002466
# 6 -0.009611 0.001209 -0.001394 0.025555 0.002466 0.034281
#
#
# Mechanical properties :
#
#
# Convention : Reuss Voigt Hill
#
# Bulk Modulus (GPa) = 24.44924 45.15935 34.80430
# Shear Modulus (GPa) = 21.56592 36.27960 28.92276
#
# Velocity S-wave (km/s) = 3.01624 3.91212 3.49302
# Velocity P-wave (km/s) = 4.73754 6.28148 5.56333
#
# Compressibility (1/GPa) = 0.04090107
#
# Stress axis : x y z
#
# Youngs Moduli (GPa) = 64.88959 43.92521 68.04533
#
# Poissons Ratio (x) = 0.17609 0.07193
# Poissons Ratio (y) = 0.26013 0.06260
# Poissons Ratio (z) = 0.06859 0.04041
#
# Static dielectric constant tensor:
#      x y z
#    x 1.979240 0.035550 -0.024380 
#    y 0.035550 1.975290 0.082390 
#    z -0.024380 0.082390 1.793490 
# 
# From -- ./inp_files/594198.got.cif
#   From: 2010.05.17/outbox.cif.g08.bks.cpg/sg2_298_cif.got.tgz:594198.got - 2010.06.03 11:33:40.
