data_PCOD9094428
_publ_section_title
;
Structure prediction by ZEFSAII (Michael W. Deem and Ramdas Pophale) SiO2 
 PCOD9094428
Probable space group: P -1
;
_chemical_formula_sum "Si O2"
_cell_formula_units_Z 16
_cell_length_a 7.949748
_cell_length_b 13.223717
_cell_length_c 13.229604
_cell_angle_alpha 37.613082
_cell_angle_beta 102.436568
_cell_angle_gamma 77.794355
_cell_volume 636.241639
_symmetry_space_group_name_H-M "P -1"
_symmetry_group_IT_number 2
_symmetry_cell_setting 'triclinic'
loop_
_space_group_symop_operation_xyz
x,y,z
-x,-y,-z
loop_
_atom_site_type_symbol
_atom_site_label
_atom_site_fract_x
_atom_site_fract_y
_atom_site_fract_z
Si Si1 0.758123 0.126813 0.322065
Si Si2 0.054130 0.288159 0.792858
Si Si3 0.385865 0.531914 0.332873
Si Si4 0.548603 0.949913 0.665122
Si Si5 0.193988 0.935317 0.262556
Si Si6 0.555876 0.515129 0.843984
Si Si7 0.256990 0.964951 0.902031
Si Si8 0.695809 0.647525 0.093349
O O1 0.696264 0.979814 0.393520
O O2 0.563020 0.287513 0.251967
O O3 0.719509 0.294892 0.102240
O O4 0.000000 0.000000 0.500000
O O5 0.178277 0.162810 0.805987
O O6 0.788716 0.437895 0.636536
O O7 0.115495 0.420442 0.750159
O O8 0.128995 0.101946 0.032534
O O9 0.629068 0.309193 0.558272
O O10 0.329942 0.506017 0.229622
O O11 0.350424 0.750703 0.149623
O O12 0.709582 0.712596 0.930201
O O13 0.500000 0.000000 0.500000
O O14 0.670756 0.038759 0.656502
O O15 0.965472 0.976476 0.225600
O O16 0.354758 0.514319 0.787500
O O17 0.471556 0.871142 0.935529
#
# Coordination Sequence:
#
# PCOD9094428 Si02
#       8
#     2   2   2   2   2   2   2   2
#     4  10  21  37  59  81 112 155 196 238 288 340
#     4  10  21  37  60  87 116 151 193 241 293 344
#     4  10  20  34  57  84 115 151 190 234 285 344
#     4  10  21  35  55  85 114 146 190 234 282 342
#     4  10  21  37  58  85 119 151 192 239 287 345
#     4   9  20  37  55  83 114 149 195 235 282 345
#     4  10  21  39  61  84 114 156 195 238 293 345
#     4   9  20  38  59  84 119 151 191 242 289 343
#
# _framework density 25.147676000000001
#
# number of rings (size 3 to 8) (size 9 to 14) (size 15 to 20)
#    0.000    2.250    0.000    2.625    0.000   12.000 
#    0.000    5.000    0.000   30.750    0.000    0.000 
#    0.000    0.000    0.000    0.000    0.000    0.000 
#
# Total GULP energy -89239.793083 kJ/mol
# GULP energy per Si atom -5577.487068 kJ/mol
# Density = 2.509044 g / cm^3
# Si number density = 25.147676 Si / 1000 Ang^3
#
#
#
# Elastic Constant Matrix: (Units=GPa)
#
#
# Indices 1 2 3 4 5 6 
#
# 1 51.2586 17.4374 21.3745 11.8441 8.9423 20.3901
# 2 17.4374 112.2038 9.8668 16.1768 6.5332 8.7662
# 3 21.3745 9.8668 75.4436 3.7579 17.1331 1.6047
# 4 11.8441 16.1768 3.7579 38.9355 0.8451 6.6488
# 5 8.9423 6.5332 17.1331 0.8451 23.6766 6.4925
# 6 20.3901 8.7662 1.6047 6.6488 6.4925 45.7187
#
#
#
# Elastic Compliance Matrix: (Units=1/GPa)
#
#
# Indices 1 2 3 4 5 6 
#
# 1 0.029279 -0.002154 -0.007034 -0.005354 -0.002077 -0.011325
# 2 -0.002154 0.009854 -0.000137 -0.003355 -0.001631 -0.000204
# 3 -0.007034 -0.000137 0.017737 0.000023 -0.011277 0.004139
# 4 -0.005354 -0.003355 0.000023 0.028910 0.002312 -0.001502
# 5 -0.002077 -0.001631 -0.011277 0.002312 0.053266 -0.006266
# 6 -0.011325 -0.000204 0.004139 -0.001502 -0.006266 0.027926
#
#
# Mechanical properties :
#
#
# Convention : Reuss Voigt Hill
#
# Bulk Modulus (GPa) = 26.16395 37.36261 31.76328
# Shear Modulus (GPa) = 25.20632 34.34799 29.77715
#
# Velocity S-wave (km/s) = 3.16940 3.69975 3.44480
# Velocity P-wave (km/s) = 4.88059 5.75677 5.33669
#
# Compressibility (1/GPa) = 0.03822053
#
# Stress axis : x y z
#
# Youngs Moduli (GPa) = 34.15388 101.48386 56.37776
#
# Poissons Ratio (x) = 0.21860 0.39658
# Poissons Ratio (y) = 0.07357 0.00770
# Poissons Ratio (z) = 0.24025 0.01386
#
# Static dielectric constant tensor:
#      x y z
#    x 2.001710 0.018680 -0.020590 
#    y 0.018680 2.115440 0.057450 
#    z -0.020590 0.057450 1.974480 
# 
# From -- ./inp_files/505293.got.cif
#   From: 2010.05.17/outbox.cif.g08.bks.cpg/sg2_253_cif.got.tgz:505293.got - 2010.06.03 11:33:40.
