data_PCOD9094677
_publ_section_title
;
Structure prediction by ZEFSAII (Michael W. Deem and Ramdas Pophale) SiO2 
 PCOD9094677
Probable space group: P -1
;
_chemical_formula_sum "Si O2"
_cell_formula_units_Z 16
_cell_length_a 9.387787
_cell_length_b 13.114303
_cell_length_c 21.255572
_cell_angle_alpha 24.285969
_cell_angle_beta 134.621086
_cell_angle_gamma 126.720371
_cell_volume 758.014325
_symmetry_space_group_name_H-M "P -1"
_symmetry_group_IT_number 2
_symmetry_cell_setting 'triclinic'
loop_
_space_group_symop_operation_xyz
x,y,z
-x,-y,-z
loop_
_atom_site_type_symbol
_atom_site_label
_atom_site_fract_x
_atom_site_fract_y
_atom_site_fract_z
Si Si1 0.775429 0.620220 0.382668
Si Si2 0.535064 0.726251 0.116769
Si Si3 0.621962 0.446869 0.638346
Si Si4 0.767445 0.946021 0.884351
Si Si5 0.837989 0.832756 0.411471
Si Si6 0.787192 0.153745 0.960308
Si Si7 0.756681 0.426576 0.251043
Si Si8 0.407226 0.784474 0.798481
O O1 0.663434 0.662117 0.256937
O O2 0.608526 0.494058 0.441802
O O3 0.813438 0.824475 0.333295
O O4 0.000000 0.500000 0.500000
O O5 0.303184 0.784749 0.033376
O O6 0.580390 0.523688 0.191012
O O7 0.631984 0.971584 0.988438
O O8 0.692960 0.657129 0.499175
O O9 0.751976 0.403140 0.767293
O O10 0.690255 0.184740 0.769640
O O11 0.602205 0.920898 0.793725
O O12 0.792734 0.683413 0.080464
O O13 0.984744 0.971730 0.907483
O O14 0.055456 0.702021 0.576935
O O15 0.759349 0.101800 0.266051
O O16 0.694746 0.226661 0.294620
O O17 0.500000 0.500000 0.000000
#
# Coordination Sequence:
#
# PCOD9094677 Si02
#       8
#     2   2   2   2   2   2   2   2
#     4  11  23  35  55  96 129 157 186 251 317 365
#     4  10  21  35  57  90 130 159 193 240 312 371
#     4  11  21  35  63  94 124 149 202 260 310 357
#     4  11  20  38  61  94 122 158 207 251 303 356
#     4  12  22  40  64  92 122 158 206 252 312 355
#     4  10  20  34  59  93 123 156 194 255 308 360
#     4  11  21  40  62  86 124 165 207 244 297 365
#     4  10  25  39  61  87 121 164 213 257 285 353
#
# _framework density 21.107782
#
# number of rings (size 3 to 8) (size 9 to 14) (size 15 to 20)
#    0.000    1.250    5.000    1.875    0.000    0.000 
#    0.000    0.625    0.000    6.000    0.000    0.000 
#    0.000    0.000    0.000    0.000    0.000    0.000 
#
# Total GULP energy -89138.260808 kJ/mol
# GULP energy per Si atom -5571.141301 kJ/mol
# Density = 2.105974 g / cm^3
# Si number density = 21.107782 Si / 1000 Ang^3
#
#
#
# Elastic Constant Matrix: (Units=GPa)
#
#
# Indices 1 2 3 4 5 6 
#
# 1 150.5488 37.9284 31.7310 -2.7432 37.1291 -16.4496
# 2 37.9284 73.2319 10.2139 -4.7471 9.4886 -26.7868
# 3 31.7310 10.2139 60.0406 -6.1825 6.6699 -4.7921
# 4 -2.7432 -4.7471 -6.1825 32.4190 -10.9665 8.2693
# 5 37.1291 9.4886 6.6699 -10.9665 41.3703 2.9086
# 6 -16.4496 -26.7868 -4.7921 8.2693 2.9086 36.9502
#
#
#
# Elastic Compliance Matrix: (Units=1/GPa)
#
#
# Indices 1 2 3 4 5 6 
#
# 1 0.011169 -0.002491 -0.004477 -0.004924 -0.010353 0.004503
# 2 -0.002491 0.020834 -0.000849 -0.002474 -0.004099 0.014760
# 3 -0.004477 -0.000849 0.019247 0.004275 0.002331 -0.001252
# 4 -0.004924 -0.002474 0.004275 0.039672 0.015766 -0.013550
# 5 -0.010353 -0.004099 0.002331 0.015766 0.039184 -0.013891
# 6 0.004503 0.014760 -0.001252 -0.013550 -0.013891 0.043732
#
#
# Mechanical properties :
#
#
# Convention : Reuss Voigt Hill
#
# Bulk Modulus (GPa) = 28.07673 49.28533 38.68103
# Shear Modulus (GPa) = 24.83328 35.74445 30.28887
#
# Velocity S-wave (km/s) = 3.43373 4.11959 3.79220
# Velocity P-wave (km/s) = 5.38992 6.78440 6.12696
#
# Compressibility (1/GPa) = 0.03561669
#
# Stress axis : x y z
#
# Youngs Moduli (GPa) = 89.53390 47.99912 51.95619
#
# Poissons Ratio (x) = 0.11957 0.23258
# Poissons Ratio (y) = 0.22304 0.04410
# Poissons Ratio (z) = 0.40080 0.04074
#
# Static dielectric constant tensor:
#      x y z
#    x 1.770360 -0.001880 -0.021830 
#    y -0.001880 1.819500 0.035150 
#    z -0.021830 0.035150 1.908410 
# 
# From -- ./inp_files/282986.got.cif
#   From: 2010.05.17/outbox.cif.g08.bks.cpg/sg2_142_cif.got.tgz:282986.got - 2010.06.03 11:33:40.
