data_PCOD9094549
_publ_section_title
;
Structure prediction by ZEFSAII (Michael W. Deem and Ramdas Pophale) SiO2 
 PCOD9094549
Probable space group: P -1
;
_chemical_formula_sum "Si O2"
_cell_formula_units_Z 13
_cell_length_a 10.581931
_cell_length_b 7.004759
_cell_length_c 18.167897
_cell_angle_alpha 64.120729
_cell_angle_beta 140.847175
_cell_angle_gamma 137.708918
_cell_volume 541.513372
_symmetry_space_group_name_H-M "P -1"
_symmetry_group_IT_number 2
_symmetry_cell_setting 'triclinic'
loop_
_space_group_symop_operation_xyz
x,y,z
-x,-y,-z
loop_
_atom_site_type_symbol
_atom_site_label
_atom_site_fract_x
_atom_site_fract_y
_atom_site_fract_z
Si Si1 0.216910 0.768010 0.137998
Si Si2 0.545033 0.221789 0.332637
Si Si3 0.500000 0.500000 0.000000
Si Si4 0.185397 0.143952 0.810682
Si Si5 0.257150 0.777061 0.810734
Si Si6 0.091822 0.225678 0.118767
Si Si7 0.088004 0.668721 0.395686
O O1 0.091618 0.440492 0.129812
O O2 0.325944 0.907809 0.243730
O O3 0.483016 0.968224 0.168721
O O4 0.003078 0.774744 0.003947
O O5 0.385581 0.327004 0.244820
O O6 0.823229 0.445172 0.370208
O O7 0.642715 0.206795 0.457953
O O8 0.541641 0.508423 0.111355
O O9 0.658667 0.371414 0.082747
O O10 0.933050 0.099364 0.674643
O O11 0.214195 0.950894 0.812907
O O12 0.145393 0.095325 0.891994
O O13 0.992721 0.527143 0.679739
#
# Coordination Sequence:
#
# PCOD9094549 Si02
#       7
#     2   2   1   2   2   2   2
#     4  10  22  39  58  88 118 159 194 235 300 348
#     4  10  21  43  61  84 120 155 202 246 280 354
#     4  10  20  34  58  86 116 152 190 234 288 342
#     4  11  22  38  60  91 120 152 194 246 292 348
#     4  10  20  39  61  88 117 151 200 240 288 351
#     4  11  23  37  58  91 122 154 192 240 304 346
#     4   9  22  40  65  86 110 161 205 238 291 337
#
# _framework density 24.006795
#
# number of rings (size 3 to 8) (size 9 to 14) (size 15 to 20)
#    0.000    1.846    1.538    1.846    0.000    4.308 
#    8.308    6.154    0.000    0.000    0.000    0.000 
#    0.000    0.000    0.000    0.000    0.000    0.000 
#
# Total GULP energy -72562.526736 kJ/mol
# GULP energy per Si atom -5581.732826 kJ/mol
# Density = 2.395215 g / cm^3
# Si number density = 24.006795 Si / 1000 Ang^3
#
#
#
# Elastic Constant Matrix: (Units=GPa)
#
#
# Indices 1 2 3 4 5 6 
#
# 1 85.1302 36.7763 53.4532 -8.0657 0.2308 -16.5747
# 2 36.7763 126.0519 53.0753 -21.0756 1.8946 -42.9062
# 3 53.4532 53.0753 242.7449 -8.6256 -12.2037 -38.9133
# 4 -8.0657 -21.0756 -8.6256 17.6982 -5.1224 4.4468
# 5 0.2308 1.8946 -12.2037 -5.1224 29.7702 -1.4773
# 6 -16.5747 -42.9062 -38.9133 4.4468 -1.4773 53.1689
#
#
#
# Elastic Compliance Matrix: (Units=1/GPa)
#
#
# Indices 1 2 3 4 5 6 
#
# 1 0.014811 -0.002818 -0.002564 0.001884 -0.000648 0.000291
# 2 -0.002818 0.014395 -0.000458 0.013806 0.001755 0.009297
# 3 -0.002564 -0.000458 0.005391 0.000960 0.002561 0.002768
# 4 0.001884 0.013806 0.000960 0.076415 0.012966 0.006400
# 5 -0.000648 0.001755 0.002561 0.012966 0.036915 0.003030
# 6 0.000291 0.009297 0.002768 0.006400 0.003030 0.027976
#
#
# Mechanical properties :
#
#
# Convention : Reuss Voigt Hill
#
# Bulk Modulus (GPa) = 43.63574 82.28185 62.95879
# Shear Modulus (GPa) = 25.61202 40.83560 33.22381
#
# Velocity S-wave (km/s) = 3.26983 4.12879 3.72416
# Velocity P-wave (km/s) = 5.69839 7.55500 6.69140
#
# Compressibility (1/GPa) = 0.02291700
#
# Stress axis : x y z
#
# Youngs Moduli (GPa) = 67.51736 69.47079 185.50021
#
# Poissons Ratio (x) = 0.19574 0.47569
# Poissons Ratio (y) = 0.19024 0.08490
# Poissons Ratio (z) = 0.17314 0.03180
#
# Static dielectric constant tensor:
#      x y z
#    x 1.998340 0.081920 0.029270 
#    y 0.081920 1.994070 0.040860 
#    z 0.029270 0.040860 1.950150 
# 
# From -- ./inp_files/19709.got.cif
#   From: 2010.05.17/outbox.cif.g08.bks.cpg/sg2_10_cif.got.tgz:19709.got - 2010.06.03 11:33:40.
