data_PCOD9094914
_publ_section_title
;
Structure prediction by ZEFSAII (Michael W. Deem and Ramdas Pophale) SiO2 
 PCOD9094914
Probable space group: P -1
;
_chemical_formula_sum "Si O2"
_cell_formula_units_Z 15
_cell_length_a 5.364369
_cell_length_b 11.184132
_cell_length_c 13.318446
_cell_angle_alpha 131.992445
_cell_angle_beta 115.265685
_cell_angle_gamma 80.181814
_cell_volume 529.145521
_symmetry_space_group_name_H-M "P -1"
_symmetry_group_IT_number 2
_symmetry_cell_setting 'triclinic'
loop_
_space_group_symop_operation_xyz
x,y,z
-x,-y,-z
loop_
_atom_site_type_symbol
_atom_site_label
_atom_site_fract_x
_atom_site_fract_y
_atom_site_fract_z
Si Si1 0.880388 0.627472 0.620291
Si Si2 0.820010 0.131391 0.446586
Si Si3 0.500000 0.000000 0.000000
Si Si4 0.386096 0.150262 0.614244
Si Si5 0.826263 0.293142 0.919324
Si Si6 0.360796 0.560542 0.352568
Si Si7 0.258135 0.057892 0.190346
Si Si8 0.532407 0.655664 0.931327
O O1 0.582183 0.611334 0.507016
O O2 0.869253 0.566637 0.698497
O O3 0.965423 0.823722 0.749767
O O4 0.000000 0.500000 0.500000
O O5 0.749658 0.270557 0.590109
O O6 0.585913 0.120226 0.314878
O O7 0.150118 0.192064 0.521043
O O8 0.784518 0.944888 0.373931
O O9 0.709202 0.935355 0.918905
O O10 0.492142 0.165767 0.017460
O O11 0.620024 0.277712 0.780081
O O12 0.500000 0.000000 0.500000
O O13 0.685934 0.380101 0.034522
O O14 0.149584 0.351037 0.981705
O O15 0.819878 0.108573 0.855988
O O16 0.493786 0.468835 0.236702
#
# Coordination Sequence:
#
# PCOD9094914 Si02
#       8
#     2   2   1   2   2   2   2   2
#     4  10  21  37  60  88 131 170 223 258 315 383
#     4   9  21  40  63  92 124 155 215 271 330 377
#     4  10  20  34  64  84 138 166 218 242 320 374
#     4  10  22  41  70  91 115 161 215 280 331 380
#     4  10  25  41  66  93 130 165 223 268 322 382
#     4  10  22  39  59  91 127 172 210 262 324 382
#     4   9  19  39  57  98 121 175 210 267 316 385
#     4  11  24  42  62  95 134 176 213 261 317 397
#
# _framework density 28.34759
#
# number of rings (size 3 to 8) (size 9 to 14) (size 15 to 20)
#    0.000    2.133    1.333    0.000    9.333    6.400 
#    2.400    1.333    0.000    0.000    0.000    0.000 
#    0.000    0.000    0.000    0.000    0.000    0.000 
#
# Total GULP energy -83694.838981 kJ/mol
# GULP energy per Si atom -5579.655932 kJ/mol
# Density = 2.828307 g / cm^3
# Si number density = 28.347590 Si / 1000 Ang^3
#
#
#
# Elastic Constant Matrix: (Units=GPa)
#
#
# Indices 1 2 3 4 5 6 
#
# 1 112.7579 30.0463 30.4259 -7.3565 -13.8019 -18.6753
# 2 30.0463 113.9241 15.6954 19.3300 -7.8987 6.9650
# 3 30.4259 15.6954 119.6681 -4.9607 -4.8193 -2.1123
# 4 -7.3565 19.3300 -4.9607 47.7372 -15.1217 -2.4091
# 5 -13.8019 -7.8987 -4.8193 -15.1217 52.7232 -7.6014
# 6 -18.6753 6.9650 -2.1123 -2.4091 -7.6014 47.3341
#
#
#
# Elastic Compliance Matrix: (Units=1/GPa)
#
#
# Indices 1 2 3 4 5 6 
#
# 1 0.012504 -0.003938 -0.002136 0.005180 0.004907 0.006469
# 2 -0.003938 0.011044 -0.000826 -0.005890 -0.001687 -0.003786
# 3 -0.002136 -0.000826 0.009066 0.001072 0.000425 -0.000194
# 4 0.005180 -0.005890 0.001072 0.027483 0.009298 0.005850
# 5 0.004907 -0.001687 0.000425 0.009298 0.023637 0.006472
# 6 0.006469 -0.003786 -0.000194 0.005850 0.006472 0.025564
#
#
# Mechanical properties :
#
#
# Convention : Reuss Voigt Hill
#
# Bulk Modulus (GPa) = 53.15232 55.40946 54.28089
# Shear Modulus (GPa) = 38.64834 47.57107 43.10971
#
# Velocity S-wave (km/s) = 3.69639 4.10095 3.90391
# Velocity P-wave (km/s) = 6.08348 6.48171 6.28575
#
# Compressibility (1/GPa) = 0.01881386
#
# Stress axis : x y z
#
# Youngs Moduli (GPa) = 79.97254 90.54592 110.30071
#
# Poissons Ratio (x) = 0.35656 0.23563
# Poissons Ratio (y) = 0.31492 0.09114
# Poissons Ratio (z) = 0.17084 0.07482
#
# Static dielectric constant tensor:
#      x y z
#    x 5.403400 0.408990 1.504510 
#    y 0.408990 2.293220 0.204450 
#    z 1.504510 0.204450 3.104010 
# 
# From -- ./inp_files/84966.got.cif
#   From: 2010.05.17/outbox.cif.g08.bks.cpg/sg2_43_cif.got.tgz:84966.got - 2010.06.03 11:33:40.
