data_PCOD9094789
_publ_section_title
;
Structure prediction by ZEFSAII (Michael W. Deem and Ramdas Pophale) SiO2 
 PCOD9094789
Probable space group: P -1
;
_chemical_formula_sum "Si O2"
_cell_formula_units_Z 14
_cell_length_a 5.564592
_cell_length_b 8.243412
_cell_length_c 15.001955
_cell_angle_alpha 70.463413
_cell_angle_beta 113.923556
_cell_angle_gamma 81.283312
_cell_volume 558.916860
_symmetry_space_group_name_H-M "P -1"
_symmetry_group_IT_number 2
_symmetry_cell_setting 'triclinic'
loop_
_space_group_symop_operation_xyz
x,y,z
-x,-y,-z
loop_
_atom_site_type_symbol
_atom_site_label
_atom_site_fract_x
_atom_site_fract_y
_atom_site_fract_z
Si Si1 0.534660 0.646163 0.230205
Si Si2 0.325571 0.762656 0.525264
Si Si3 0.169529 0.860435 0.818251
Si Si4 0.848049 0.364608 0.968049
Si Si5 0.360487 0.052470 0.065479
Si Si6 0.876730 0.297467 0.684396
Si Si7 0.918015 0.795764 0.614950
O O1 0.384705 0.620099 0.303754
O O2 0.860521 0.629523 0.280240
O O3 0.384852 0.861705 0.147016
O O4 0.425457 0.554201 0.148231
O O5 0.226139 0.685744 0.436173
O O6 0.657410 0.723773 0.581648
O O7 0.169619 0.718725 0.596388
O O8 0.203343 0.985047 0.459965
O O9 0.195758 0.745559 0.932760
O O10 0.482029 0.862559 0.853889
O O11 0.037454 0.778882 0.735325
O O12 0.997196 0.076970 0.760648
O O13 0.074034 0.208769 0.974324
O O14 0.000000 0.500000 0.000000
O O15 0.500000 0.000000 0.000000
#
# Coordination Sequence:
#
# PCOD9094789 Si02
#       7
#     2   2   2   2   2   2   2
#     4  11  21  37  59  87 115 163 198 245 299 358
#     4   9  17  31  49  84 114 146 184 251 304 349
#     4  10  21  34  55  84 117 164 195 243 300 366
#     4  12  25  39  57  87 127 163 205 250 298 358
#     4  11  21  39  61  82 120 161 210 246 298 355
#     4  10  20  34  61  85 117 151 204 249 298 359
#     4   9  18  29  51  79 121 149 185 238 309 363
#
# _framework density 25.048446999999999
#
# number of rings (size 3 to 8) (size 9 to 14) (size 15 to 20)
#    0.000    1.714    2.857    3.000    2.000    4.000 
#    0.000    0.000    0.000    0.000    0.000    6.000 
#    0.000    0.000    0.000    0.000    0.000    0.000 
#
# Total GULP energy -78354.900563 kJ/mol
# GULP energy per Si atom -5596.778612 kJ/mol
# Density = 2.499144 g / cm^3
# Si number density = 25.048447 Si / 1000 Ang^3
#
#
#
# Elastic Constant Matrix: (Units=GPa)
#
#
# Indices 1 2 3 4 5 6 
#
# 1 183.3716 47.0362 90.0432 28.9158 16.6446 -6.6460
# 2 47.0362 78.3929 18.4296 8.3268 14.0797 7.6890
# 3 90.0432 18.4296 163.8269 50.2810 12.5881 8.6227
# 4 28.9158 8.3268 50.2810 35.8807 12.2508 18.8486
# 5 16.6446 14.0797 12.5881 12.2508 60.0093 -1.9249
# 6 -6.6460 7.6890 8.6227 18.8486 -1.9249 48.0768
#
#
#
# Elastic Compliance Matrix: (Units=1/GPa)
#
#
# Indices 1 2 3 4 5 6 
#
# 1 0.009105 -0.004655 -0.003746 -0.003089 0.000108 0.003890
# 2 -0.004655 0.016215 0.000233 0.003289 -0.003384 -0.004703
# 3 -0.003746 0.000233 0.013687 -0.019449 0.002235 0.004705
# 4 -0.003089 0.003289 -0.019449 0.075452 -0.012122 -0.027531
# 5 0.000108 -0.003384 0.002235 -0.012122 0.019617 0.005693
# 6 0.003890 -0.004703 0.004705 -0.027531 0.005693 0.032268
#
#
# Mechanical properties :
#
#
# Convention : Reuss Voigt Hill
#
# Bulk Modulus (GPa) = 44.11163 81.84550 62.97857
# Shear Modulus (GPa) = 26.28320 46.79887 36.54103
#
# Velocity S-wave (km/s) = 3.24280 4.32711 3.82359
# Velocity P-wave (km/s) = 5.62759 7.59678 6.68509
#
# Compressibility (1/GPa) = 0.02266976
#
# Stress axis : x y z
#
# Youngs Moduli (GPa) = 109.82806 61.67295 73.06467
#
# Poissons Ratio (x) = 0.28711 0.27368
# Poissons Ratio (y) = 0.51129 -0.01702
# Poissons Ratio (z) = 0.41139 -0.01437
#
# Static dielectric constant tensor:
#      x y z
#    x 2.370270 -0.057610 0.388430 
#    y -0.057610 2.042370 -0.093540 
#    z 0.388430 -0.093540 2.335010 
# 
# From -- ./inp_files/44662.got.cif
#   From: 2010.05.17/outbox.cif.g08.bks.cpg/sg2_23_cif.got.tgz:44662.got - 2010.06.03 11:33:40.
