data_PCOD9094859
_publ_section_title
;
Structure prediction by ZEFSAII (Michael W. Deem and Ramdas Pophale) SiO2 
 PCOD9094859
Probable space group: P -1
;
_chemical_formula_sum "Si O2"
_cell_formula_units_Z 16
_cell_length_a 5.022992
_cell_length_b 18.207381
_cell_length_c 15.044238
_cell_angle_alpha 146.912711
_cell_angle_beta 103.247507
_cell_angle_gamma 62.998145
_cell_volume 636.065022
_symmetry_space_group_name_H-M "P -1"
_symmetry_group_IT_number 2
_symmetry_cell_setting 'triclinic'
loop_
_space_group_symop_operation_xyz
x,y,z
-x,-y,-z
loop_
_atom_site_type_symbol
_atom_site_label
_atom_site_fract_x
_atom_site_fract_y
_atom_site_fract_z
Si Si1 0.175730 0.644234 0.659259
Si Si2 0.536789 0.296334 0.994365
Si Si3 0.222366 0.874017 0.513634
Si Si4 0.774520 0.590536 0.440853
Si Si5 0.840442 0.367272 0.636790
Si Si6 0.344800 0.873513 0.994539
Si Si7 0.409304 0.868301 0.341645
Si Si8 0.188267 0.041293 0.845284
O O1 0.500000 0.500000 0.500000
O O2 0.893360 0.676131 0.604184
O O3 0.243390 0.782149 0.826955
O O4 0.097240 0.579333 0.677666
O O5 0.436414 0.237704 0.840026
O O6 0.915865 0.199795 0.939010
O O7 0.377426 0.479176 0.167623
O O8 0.431242 0.059682 0.944602
O O9 0.055184 0.781556 0.445062
O O10 0.432939 0.789150 0.358306
O O11 0.953893 0.036279 0.619628
O O12 0.358538 0.922728 0.657530
O O13 0.915854 0.603177 0.370369
O O14 0.457279 0.246880 0.032671
O O15 0.591837 0.354053 0.538754
O O16 0.032412 0.997207 0.148411
O O17 0.500000 0.000000 0.500000
#
# Coordination Sequence:
#
# PCOD9094859 Si02
#       8
#     2   2   2   2   2   2   2   2
#     4  11  22  36  64  96 133 166 209 266 312 376
#     4   9  21  35  62  93 127 157 215 260 312 365
#     4  10  24  42  65  92 128 171 213 258 325 377
#     4  11  24  39  59  96 137 166 208 256 328 374
#     4  12  25  40  64  96 134 169 206 266 322 378
#     4  10  20  34  62  91 121 159 216 257 306 356
#     4  10  21  44  66  94 120 169 221 262 308 387
#     4   9  21  36  61  88 120 168 209 258 293 386
#
# _framework density 25.154658999999999
#
# number of rings (size 3 to 8) (size 9 to 14) (size 15 to 20)
#    0.750    1.000    2.500    0.750   10.500    0.500 
#    0.000    0.625    0.000    4.500    0.000    0.000 
#    0.000    0.000    0.000    0.000    0.000    0.000 
#
# Total GULP energy -89299.033671 kJ/mol
# GULP energy per Si atom -5581.189604 kJ/mol
# Density = 2.509741 g / cm^3
# Si number density = 25.154659 Si / 1000 Ang^3
#
#
#
# Elastic Constant Matrix: (Units=GPa)
#
#
# Indices 1 2 3 4 5 6 
#
# 1 88.3861 8.5682 27.9179 -3.8923 25.8937 6.9875
# 2 8.5682 96.7226 33.2712 -5.8026 -0.6958 14.9836
# 3 27.9179 33.2712 112.1699 -25.5484 -0.0953 -6.4333
# 4 -3.8923 -5.8026 -25.5484 33.7054 -2.0628 8.7449
# 5 25.8937 -0.6958 -0.0953 -2.0628 37.3671 0.0270
# 6 6.9875 14.9836 -6.4333 8.7449 0.0270 25.3803
#
#
#
# Elastic Compliance Matrix: (Units=1/GPa)
#
#
# Indices 1 2 3 4 5 6 
#
# 1 0.016631 0.001078 -0.005003 -0.000785 -0.011556 -0.006201
# 2 0.001078 0.013396 -0.004444 0.001601 -0.000413 -0.009883
# 3 -0.005003 -0.004444 0.013563 0.007956 0.003855 0.004694
# 4 -0.000785 0.001601 0.007956 0.039227 0.002768 -0.012231
# 5 -0.011556 -0.000413 0.003855 0.002768 0.034922 0.003412
# 6 -0.006201 -0.009883 0.004694 -0.012231 0.003412 0.052343
#
#
# Mechanical properties :
#
#
# Convention : Reuss Voigt Hill
#
# Bulk Modulus (GPa) = 37.24219 48.53261 42.88740
# Shear Modulus (GPa) = 25.53996 34.45865 29.99930
#
# Velocity S-wave (km/s) = 3.18986 3.70519 3.45714
# Velocity P-wave (km/s) = 5.32958 6.13516 5.74650
#
# Compressibility (1/GPa) = 0.02685127
#
# Stress axis : x y z
#
# Youngs Moduli (GPa) = 60.12891 74.64777 73.72926
#
# Poissons Ratio (x) = -0.08048 0.36889
# Poissons Ratio (y) = -0.06483 0.32768
# Poissons Ratio (z) = 0.30084 0.33177
#
# Static dielectric constant tensor:
#      x y z
#    x 2.007100 0.015320 -0.027470 
#    y 0.015320 2.101080 0.002900 
#    z -0.027470 0.002900 2.010350 
# 
# From -- ./inp_files/550344.got.cif
#   From: 2010.05.17/outbox.cif.g08.bks.cpg/sg2_276_cif.got.tgz:550344.got - 2010.06.03 11:33:40.
