data_PCOD9094989
_publ_section_title
;
Structure prediction by ZEFSAII (Michael W. Deem and Ramdas Pophale) SiO2 
 PCOD9094989
Probable space group: P -1
;
_chemical_formula_sum "Si O2"
_cell_formula_units_Z 16
_cell_length_a 27.547026
_cell_length_b 17.500394
_cell_length_c 6.603279
_cell_angle_alpha 119.007772
_cell_angle_beta 118.672027
_cell_angle_gamma 17.754392
_cell_volume 847.016620
_symmetry_space_group_name_H-M "P -1"
_symmetry_group_IT_number 2
_symmetry_cell_setting 'triclinic'
loop_
_space_group_symop_operation_xyz
x,y,z
-x,-y,-z
loop_
_atom_site_type_symbol
_atom_site_label
_atom_site_fract_x
_atom_site_fract_y
_atom_site_fract_z
Si Si1 0.622415 0.806243 0.683194
Si Si2 0.503697 0.864568 0.898030
Si Si3 0.890141 0.964884 0.861684
Si Si4 0.133514 0.811449 0.697669
Si Si5 0.192374 0.563501 0.750105
Si Si6 0.654375 0.205445 0.954878
Si Si7 0.458580 0.355519 0.555843
Si Si8 0.662113 0.293752 0.459169
O O1 0.551546 0.848373 0.770728
O O2 0.768807 0.546713 0.521091
O O3 0.500000 0.000000 0.500000
O O4 0.632930 0.882186 0.923683
O O5 0.471620 0.815879 0.685779
O O6 0.653543 0.642429 0.068465
O O7 0.795847 0.027187 0.863764
O O8 0.796239 0.114713 0.657999
O O9 0.869871 0.083870 0.100261
O O10 0.074406 0.683622 0.811897
O O11 0.112229 0.772538 0.783684
O O12 0.311729 0.530204 0.607326
O O13 0.000000 0.000000 0.500000
O O14 0.588076 0.208392 0.773493
O O15 0.500000 0.500000 0.000000
O O16 0.711961 0.142987 0.213404
O O17 0.379100 0.555091 0.539285
O O18 0.500000 0.500000 0.500000
#
# Coordination Sequence:
#
# PCOD9094989 Si02
#       8
#     2   2   2   2   2   2   2   2
#     4   9  20  39  59  86 112 145 192 239 300 346
#     4  10  20  38  62  85 114 146 191 248 291 342
#     4  12  22  35  53  79 120 157 189 225 276 339
#     4  12  22  35  52  83 127 156 187 230 280 346
#     4  11  23  35  57  86 117 157 189 228 299 345
#     4  10  20  35  50  76 107 152 197 231 265 324
#     4  11  19  35  57  80 114 149 193 236 278 330
#     4  11  19  35  54  77 114 156 197 230 267 331
#
# _framework density 18.889828999999999
#
# number of rings (size 3 to 8) (size 9 to 14) (size 15 to 20)
#    0.000    1.250    6.250    2.625    0.000    0.000 
#    0.000    0.000    0.000    0.750    0.000    8.750 
#    0.000    0.000    0.000    0.000    0.000    0.000 
#
# Total GULP energy -89203.982325 kJ/mol
# GULP energy per Si atom -5575.248895 kJ/mol
# Density = 1.884684 g / cm^3
# Si number density = 18.889829 Si / 1000 Ang^3
#
#
#
# Elastic Constant Matrix: (Units=GPa)
#
#
# Indices 1 2 3 4 5 6 
#
# 1 56.1567 19.1757 28.9614 0.3245 1.1883 -13.8300
# 2 19.1757 25.2347 18.7965 7.5185 11.1687 -5.1291
# 3 28.9614 18.7965 147.0689 6.4649 29.0457 8.4680
# 4 0.3245 7.5185 6.4649 41.7709 1.3015 -6.8602
# 5 1.1883 11.1687 29.0457 1.3015 39.2271 -2.6611
# 6 -13.8300 -5.1291 8.4680 -6.8602 -2.6611 22.7314
#
#
#
# Elastic Compliance Matrix: (Units=1/GPa)
#
#
# Indices 1 2 3 4 5 6 
#
# 1 0.036240 -0.025167 -0.008369 0.009030 0.013580 0.023803
# 2 -0.025167 0.069348 0.000889 -0.012825 -0.019633 -0.006164
# 3 -0.008369 0.000889 0.010814 -0.003294 -0.008639 -0.010925
# 4 0.009030 -0.012825 -0.003294 0.028669 0.005758 0.013153
# 5 0.013580 -0.019633 -0.008639 0.005758 0.037773 0.013210
# 6 0.023803 -0.006164 -0.010925 0.013153 0.013210 0.066669
#
#
# Mechanical properties :
#
#
# Convention : Reuss Voigt Hill
#
# Bulk Modulus (GPa) = 19.56687 40.25858 29.91272
# Shear Modulus (GPa) = 15.06738 31.51433 23.29086
#
# Velocity S-wave (km/s) = 2.82733 4.08894 3.51520
# Velocity P-wave (km/s) = 4.58686 6.60690 5.68729
#
# Compressibility (1/GPa) = 0.05110680
#
# Stress axis : x y z
#
# Youngs Moduli (GPa) = 27.59397 14.42004 92.47287
#
# Poissons Ratio (x) = 0.36291 0.77394
# Poissons Ratio (y) = 0.69446 -0.08221
# Poissons Ratio (z) = 0.23094 -0.01282
#
# Static dielectric constant tensor:
#      x y z
#    x 1.810650 -0.053000 -0.030060 
#    y -0.053000 1.670460 0.022090 
#    z -0.030060 0.022090 1.707360 
# 
# From -- ./inp_files/127523.got.cif
#   From: 2010.05.17/outbox.cif.g08.bks.cpg/sg2_64_cif.got.tgz:127523.got - 2010.06.03 11:33:40.
