data_PCOD9094552
_publ_section_title
;
Structure prediction by ZEFSAII (Michael W. Deem and Ramdas Pophale) SiO2 
 PCOD9094552
Probable space group: P -1
;
_chemical_formula_sum "Si O2"
_cell_formula_units_Z 15
_cell_length_a 6.223376
_cell_length_b 8.706682
_cell_length_c 16.835286
_cell_angle_alpha 130.432417
_cell_angle_beta 89.314466
_cell_angle_gamma 96.647989
_cell_volume 687.278972
_symmetry_space_group_name_H-M "P -1"
_symmetry_group_IT_number 2
_symmetry_cell_setting 'triclinic'
loop_
_space_group_symop_operation_xyz
x,y,z
-x,-y,-z
loop_
_atom_site_type_symbol
_atom_site_label
_atom_site_fract_x
_atom_site_fract_y
_atom_site_fract_z
Si Si1 0.288082 0.814381 0.264022
Si Si2 0.611763 0.986858 0.178297
Si Si3 0.451791 0.541502 0.835758
Si Si4 0.115395 0.349889 0.894483
Si Si5 0.808853 0.495668 0.563925
Si Si6 0.814753 0.446202 0.315615
Si Si7 0.500000 0.000000 0.000000
Si Si8 0.617959 0.762263 0.535266
O O1 0.392181 0.625945 0.235596
O O2 0.054817 0.740732 0.202588
O O3 0.447020 0.905273 0.221659
O O4 0.291902 0.001256 0.387312
O O5 0.719325 0.220137 0.270442
O O6 0.499708 0.982750 0.092023
O O7 0.798232 0.839624 0.126610
O O8 0.323424 0.480913 0.897161
O O9 0.267063 0.540812 0.768990
O O10 0.569928 0.769817 0.916304
O O11 0.000000 0.500000 0.000000
O O12 0.679170 0.671727 0.590423
O O13 0.640179 0.290182 0.492094
O O14 0.000000 0.500000 0.500000
O O15 0.929605 0.529122 0.658121
O O16 0.719202 0.624448 0.423812
#
# Coordination Sequence:
#
# PCOD9094552 Si02
#       8
#     2   2   2   2   2   2   1   2
#     4  11  22  39  60  88 121 154 195 237 284 354
#     4  10  21  38  62  88 117 154 194 241 293 342
#     4  10  24  41  60  87 118 153 193 243 299 344
#     4  11  23  41  63  87 114 154 197 239 297 356
#     4   9  17  32  54  83 117 154 196 238 275 331
#     4  10  21  38  59  88 122 155 196 242 285 341
#     4  10  20  42  62  80 116 150 186 246 298 338
#     4  10  20  34  58  86 118 161 196 231 289 343
#
# _framework density 21.825198
#
# number of rings (size 3 to 8) (size 9 to 14) (size 15 to 20)
#    0.000    1.867    0.000    4.800    0.000    6.933 
#    0.000   16.000    0.000    0.000    0.000    0.000 
#    0.000    0.000    0.000    0.000    0.000    0.000 
#
# Total GULP energy -83529.745636 kJ/mol
# GULP energy per Si atom -5568.649709 kJ/mol
# Density = 2.177552 g / cm^3
# Si number density = 21.825198 Si / 1000 Ang^3
#
#
#
# Elastic Constant Matrix: (Units=GPa)
#
#
# Indices 1 2 3 4 5 6 
#
# 1 42.1588 9.9001 -13.3038 5.7182 2.1405 -0.3822
# 2 9.9001 104.9649 26.2948 28.4287 -5.2145 -10.3992
# 3 -13.3038 26.2948 67.7902 28.0817 -14.2466 3.0941
# 4 5.7182 28.4287 28.0817 47.7333 -7.5056 3.4770
# 5 2.1405 -5.2145 -14.2466 -7.5056 32.5171 0.2275
# 6 -0.3822 -10.3992 3.0941 3.4770 0.2275 15.7997
#
#
#
# Elastic Compliance Matrix: (Units=1/GPa)
#
#
# Indices 1 2 3 4 5 6 
#
# 1 0.028642 -0.003492 0.010072 -0.007074 0.000349 -0.002026
# 2 -0.003492 0.013620 -0.004074 -0.006242 -0.000889 0.011064
# 3 0.010072 -0.004074 0.024955 -0.012033 0.006873 -0.004776
# 4 -0.007074 -0.006242 -0.012033 0.033591 0.002012 -0.009344
# 5 0.000349 -0.000889 0.006873 0.002012 0.034083 -0.002856
# 6 -0.002026 0.011064 -0.004776 -0.009344 -0.002856 0.073558
#
#
# Mechanical properties :
#
#
# Convention : Reuss Voigt Hill
#
# Bulk Modulus (GPa) = 13.84524 28.96623 21.40574
# Shear Modulus (GPa) = 21.97675 32.01154 26.99414
#
# Velocity S-wave (km/s) = 3.17668 3.83394 3.52068
# Velocity P-wave (km/s) = 4.45113 5.73581 5.13381
#
# Compressibility (1/GPa) = 0.07222699
#
# Stress axis : x y z
#
# Youngs Moduli (GPa) = 34.91437 73.42385 40.07182
#
# Poissons Ratio (x) = 0.25639 -0.40358
# Poissons Ratio (y) = 0.12192 0.16326
# Poissons Ratio (z) = -0.35164 0.29915
#
# Static dielectric constant tensor:
#      x y z
#    x 1.808380 -0.000980 0.014870 
#    y -0.000980 1.795430 -0.014160 
#    z 0.014870 -0.014160 1.813460 
# 
# From -- ./inp_files/89066.got.cif
#   From: 2010.05.17/outbox.cif.g08.bks.cpg/sg2_45_cif.got.tgz:89066.got - 2010.06.03 11:33:40.
