data_PCOD9094674
_publ_section_title
;
Structure prediction by ZEFSAII (Michael W. Deem and Ramdas Pophale) SiO2 
 PCOD9094674
Probable space group: P -1
;
_chemical_formula_sum "Si O2"
_cell_formula_units_Z 16
_cell_length_a 18.631699
_cell_length_b 11.472803
_cell_length_c 12.037854
_cell_angle_alpha 35.512266
_cell_angle_beta 154.286307
_cell_angle_gamma 134.807255
_cell_volume 644.307231
_symmetry_space_group_name_H-M "P -1"
_symmetry_group_IT_number 2
_symmetry_cell_setting 'triclinic'
loop_
_space_group_symop_operation_xyz
x,y,z
-x,-y,-z
loop_
_atom_site_type_symbol
_atom_site_label
_atom_site_fract_x
_atom_site_fract_y
_atom_site_fract_z
Si Si1 0.453011 0.154725 0.659282
Si Si2 0.063053 0.193672 0.382282
Si Si3 0.640234 0.261728 0.044796
Si Si4 0.165889 0.384232 0.962721
Si Si5 0.440392 0.493841 0.756821
Si Si6 0.946811 0.383570 0.853682
Si Si7 0.334847 0.166048 0.164863
Si Si8 0.351172 0.111734 0.003310
O O1 0.592707 0.218856 0.885971
O O2 0.303967 0.324001 0.297257
O O3 0.373984 0.954679 0.747776
O O4 0.540185 0.097029 0.707021
O O5 0.996470 0.404562 0.185556
O O6 0.252372 0.161888 0.712394
O O7 0.000000 0.000000 0.500000
O O8 0.027474 0.219881 0.182193
O O9 0.799306 0.384231 0.194919
O O10 0.487180 0.415248 0.759656
O O11 0.209378 0.218265 0.053558
O O12 0.997608 0.364157 0.810893
O O13 0.253146 0.598200 0.427316
O O14 0.580563 0.630170 0.876162
O O15 0.464082 0.293525 0.020947
O O16 0.500000 0.000000 0.500000
O O17 0.241500 0.131048 0.945496
#
# Coordination Sequence:
#
# PCOD9094674 Si02
#       8
#     2   2   2   2   2   2   2   2
#     4  10  20  34  59  92 127 156 216 260 311 373
#     4  10  24  40  66  91 135 175 201 254 316 401
#     4   9  21  35  61  90 126 163 206 260 320 373
#     4  11  23  38  61  95 127 163 206 272 314 368
#     4   9  21  42  64  89 122 171 205 269 311 381
#     4  10  24  41  62  99 131 163 210 252 336 377
#     4  11  22  41  66  90 120 167 227 260 307 374
#     4  10  21  40  63  92 120 168 217 259 309 374
#
# _framework density 24.832874
#
# number of rings (size 3 to 8) (size 9 to 14) (size 15 to 20)
#    0.000    2.000    1.250    0.750   12.250    0.000 
#    0.000    3.125    0.000    0.000    0.000    0.000 
#    0.000    0.000    0.000    0.000    0.000    0.000 
#
# Total GULP energy -89180.424699 kJ/mol
# GULP energy per Si atom -5573.776544 kJ/mol
# Density = 2.477635 g / cm^3
# Si number density = 24.832874 Si / 1000 Ang^3
#
#
#
# Elastic Constant Matrix: (Units=GPa)
#
#
# Indices 1 2 3 4 5 6 
#
# 1 161.0721 27.7871 16.0323 1.4424 20.1061 -21.6576
# 2 27.7871 63.6668 6.5564 -21.3309 -1.1161 3.3851
# 3 16.0323 6.5564 36.1886 -8.4005 6.3517 1.9067
# 4 1.4424 -21.3309 -8.4005 24.3436 2.1048 -1.2616
# 5 20.1061 -1.1161 6.3517 2.1048 26.6180 -1.8624
# 6 -21.6576 3.3851 1.9067 -1.2616 -1.8624 39.9668
#
#
#
# Elastic Compliance Matrix: (Units=1/GPa)
#
#
# Indices 1 2 3 4 5 6 
#
# 1 0.009043 -0.006082 -0.003732 -0.006426 -0.005327 0.005142
# 2 -0.006082 0.026422 0.003304 0.024173 0.002666 -0.004804
# 3 -0.003732 0.003304 0.033517 0.015050 -0.006491 -0.003729
# 4 -0.006426 0.024173 0.015050 0.067907 -0.003392 -0.004262
# 5 -0.005327 0.002666 -0.006491 -0.003392 0.043460 -0.000885
# 6 0.005142 -0.004804 -0.003729 -0.004262 -0.000885 0.028216
#
#
# Mechanical properties :
#
#
# Convention : Reuss Voigt Hill
#
# Bulk Modulus (GPa) = 17.86913 40.18658 29.02786
# Shear Modulus (GPa) = 20.81248 32.22246 26.51747
#
# Velocity S-wave (km/s) = 2.89814 3.60609 3.27132
# Velocity P-wave (km/s) = 4.29073 5.79280 5.09739
#
# Compressibility (1/GPa) = 0.05596242
#
# Stress axis : x y z
#
# Youngs Moduli (GPa) = 110.58093 37.84670 29.83540
#
# Poissons Ratio (x) = 0.23020 0.11134
# Poissons Ratio (y) = 0.67259 -0.09858
# Poissons Ratio (z) = 0.41269 -0.12505
#
# Static dielectric constant tensor:
#      x y z
#    x 2.113450 0.004270 -0.038740 
#    y 0.004270 2.139370 0.007650 
#    z -0.038740 0.007650 2.103060 
# 
# From -- ./inp_files/464332.got.cif
#   From: 2010.05.17/outbox.cif.g08.bks.cpg/sg2_233_cif.got.tgz:464332.got - 2010.06.03 11:33:40.
