data_PCOD9094899
_publ_section_title
;
Structure prediction by ZEFSAII (Michael W. Deem and Ramdas Pophale) SiO2 
 PCOD9094899
Probable space group: P -1
;
_chemical_formula_sum "Si O2"
_cell_formula_units_Z 14
_cell_length_a 11.658576
_cell_length_b 12.192948
_cell_length_c 10.963423
_cell_angle_alpha 86.019457
_cell_angle_beta 131.808457
_cell_angle_gamma 134.268732
_cell_volume 557.872283
_symmetry_space_group_name_H-M "P -1"
_symmetry_group_IT_number 2
_symmetry_cell_setting 'triclinic'
loop_
_space_group_symop_operation_xyz
x,y,z
-x,-y,-z
loop_
_atom_site_type_symbol
_atom_site_label
_atom_site_fract_x
_atom_site_fract_y
_atom_site_fract_z
Si Si1 0.697312 0.021904 0.692833
Si Si2 0.297562 0.456488 0.733513
Si Si3 0.000044 0.995808 0.147177
Si Si4 0.659211 0.474695 0.966787
Si Si5 0.925534 0.386561 0.335052
Si Si6 0.848659 0.376004 0.030648
Si Si7 0.731605 0.043395 0.991955
O O1 0.605000 0.938849 0.773158
O O2 0.740997 0.938149 0.648946
O O3 0.064274 0.298553 0.938052
O O4 0.500000 0.000000 0.500000
O O5 0.193527 0.423925 0.799012
O O6 0.076831 0.364187 0.477266
O O7 0.648235 0.731708 0.952901
O O8 0.356187 0.364267 0.767710
O O9 0.011268 0.126910 0.197799
O O10 0.000000 0.000000 0.000000
O O11 0.593053 0.312060 0.882184
O O12 0.054223 0.516064 0.290327
O O13 0.000000 0.500000 0.500000
O O14 0.540908 0.143421 0.085526
O O15 0.783759 0.206246 0.006772
O O16 0.000000 0.500000 0.000000
#
# Coordination Sequence:
#
# PCOD9094899 Si02
#       7
#     2   2   2   2   2   2   2
#     4  10  20  34  63  96 126 165 220 264 314 386
#     4  10  20  38  65  94 119 167 226 272 306 379
#     4   9  19  35  58  89 126 163 216 265 322 373
#     4  10  20  39  63  91 133 167 208 269 334 374
#     4  12  23  41  69  97 122 169 235 264 304 399
#     4  12  25  42  62  95 140 174 205 269 349 385
#     4  11  22  40  62  92 132 170 209 267 334 384
#
# _framework density 25.09535
#
# number of rings (size 3 to 8) (size 9 to 14) (size 15 to 20)
#    0.000    1.429    4.286    1.286    0.000    0.000 
#    0.000    2.857    0.000    0.000    0.000    0.000 
#    0.000    0.000    0.000    0.000    0.000    0.000 
#
# Total GULP energy -78128.186039 kJ/mol
# GULP energy per Si atom -5580.584717 kJ/mol
# Density = 2.503823 g / cm^3
# Si number density = 25.095350 Si / 1000 Ang^3
#
#
#
# Elastic Constant Matrix: (Units=GPa)
#
#
# Indices 1 2 3 4 5 6 
#
# 1 198.7127 79.1989 36.0231 -17.6224 15.2120 -43.7674
# 2 79.1989 127.4903 12.6565 -23.3986 7.2520 -8.6116
# 3 36.0231 12.6565 31.4237 -20.0518 8.7479 -3.2911
# 4 -17.6224 -23.3986 -20.0518 43.3470 -7.1098 3.8629
# 5 15.2120 7.2520 8.7479 -7.1098 34.9313 -15.5653
# 6 -43.7674 -8.6116 -3.2911 3.8629 -15.5653 84.7869
#
#
#
# Elastic Compliance Matrix: (Units=1/GPa)
#
#
# Indices 1 2 3 4 5 6 
#
# 1 0.009923 -0.005602 -0.011930 -0.004767 0.000848 0.004463
# 2 -0.005602 0.011926 0.006182 0.007026 -0.001023 -0.001948
# 3 -0.011930 0.006182 0.061425 0.025983 -0.008835 -0.005952
# 4 -0.004767 0.007026 0.025983 0.037259 0.000662 -0.002314
# 5 0.000848 -0.001023 -0.008835 0.000662 0.033545 0.006119
# 6 0.004463 -0.001948 -0.005952 -0.002314 0.006119 0.014898
#
#
# Mechanical properties :
#
#
# Convention : Reuss Voigt Hill
#
# Bulk Modulus (GPa) = 16.50824 68.15375 42.33100
# Shear Modulus (GPa) = 23.59994 47.92958 35.76476
#
# Velocity S-wave (km/s) = 3.06994 4.37498 3.77922
# Velocity P-wave (km/s) = 4.37704 7.26206 5.99567
#
# Compressibility (1/GPa) = 0.06057580
#
# Stress axis : x y z
#
# Youngs Moduli (GPa) = 100.77614 83.85116 16.28004
#
# Poissons Ratio (x) = 0.46970 0.19421
# Poissons Ratio (y) = 0.56451 -0.10065
# Poissons Ratio (z) = 1.20221 -0.51838
#
# Static dielectric constant tensor:
#      x y z
#    x 2.057420 -0.091880 -0.013420 
#    y -0.091880 2.072950 -0.015540 
#    z -0.013420 -0.015540 2.076560 
# 
# From -- ./inp_files/426055.got.cif
#   From: 2010.05.17/outbox.cif.g08.bks.cpg/sg2_214_cif.got.tgz:426055.got - 2010.06.03 11:33:40.
