data_PCOD9094599
_publ_section_title
;
Structure prediction by ZEFSAII (Michael W. Deem and Ramdas Pophale) SiO2 
 PCOD9094599
Probable space group: P -1
;
_chemical_formula_sum "Si O2"
_cell_formula_units_Z 15
_cell_length_a 5.148966
_cell_length_b 17.807926
_cell_length_c 10.716033
_cell_angle_alpha 141.760410
_cell_angle_beta 113.996767
_cell_angle_gamma 76.671169
_cell_volume 548.696509
_symmetry_space_group_name_H-M "P -1"
_symmetry_group_IT_number 2
_symmetry_cell_setting 'triclinic'
loop_
_space_group_symop_operation_xyz
x,y,z
-x,-y,-z
loop_
_atom_site_type_symbol
_atom_site_label
_atom_site_fract_x
_atom_site_fract_y
_atom_site_fract_z
Si Si1 0.463948 0.221607 0.355722
Si Si2 0.825324 0.925816 0.687718
Si Si3 0.408357 0.861678 0.208667
Si Si4 0.500000 0.000000 0.000000
Si Si5 0.930005 0.664500 0.279125
Si Si6 0.111466 0.431151 0.602589
Si Si7 0.083447 0.262043 0.893635
Si Si8 0.616539 0.353552 0.245332
O O1 0.348850 0.088505 0.231602
O O2 0.731425 0.293362 0.575321
O O3 0.231675 0.309658 0.420336
O O4 0.548411 0.150075 0.159621
O O5 0.800931 0.785432 0.454837
O O6 0.673814 0.008449 0.672975
O O7 0.157464 0.976604 0.840315
O O8 0.742460 0.848330 0.254087
O O9 0.233342 0.796689 0.206672
O O10 0.291645 0.769523 0.953059
O O11 0.831611 0.561465 0.228714
O O12 0.885138 0.648947 0.103760
O O13 0.265793 0.544154 0.702025
O O14 0.772201 0.403353 0.466947
O O15 0.271663 0.328749 0.130936
#
# Coordination Sequence:
#
# PCOD9094599 Si02
#       8
#     2   2   2   1   2   2   2   2
#     4  10  22  36  61  94 131 171 214 272 330 396
#     4  10  22  38  61  92 131 174 218 271 329 393
#     4  10  24  42  68  93 136 173 226 267 331 390
#     4  10  20  34  58  92 130 168 214 266 326 396
#     4  10  24  40  65  95 133 171 224 269 335 397
#     4  10  21  44  66  98 127 173 220 282 329 394
#     4  10  25  44  66  99 134 179 221 272 333 395
#     4   9  23  42  69  96 131 171 227 274 335 392
#
# _framework density 27.337516999999998
#
# number of rings (size 3 to 8) (size 9 to 14) (size 15 to 20)
#    0.800    1.333    0.000    1.200    7.467    9.067 
#    0.000    4.000    0.000    0.000    0.000    0.000 
#    0.000    0.000    0.000    0.000    0.000    0.000 
#
# Total GULP energy -83776.148678 kJ/mol
# GULP energy per Si atom -5585.076579 kJ/mol
# Density = 2.727530 g / cm^3
# Si number density = 27.337517 Si / 1000 Ang^3
#
#
#
# Elastic Constant Matrix: (Units=GPa)
#
#
# Indices 1 2 3 4 5 6 
#
# 1 108.9709 20.8670 27.4146 -8.5280 8.3924 -5.6676
# 2 20.8670 88.0155 1.1752 -20.9723 -16.9837 6.4246
# 3 27.4146 1.1752 51.0854 1.4429 -4.2290 -22.9271
# 4 -8.5280 -20.9723 1.4429 42.4353 -9.8455 -5.3446
# 5 8.3924 -16.9837 -4.2290 -9.8455 45.8405 6.1000
# 6 -5.6676 6.4246 -22.9271 -5.3446 6.1000 33.7755
#
#
#
# Elastic Compliance Matrix: (Units=1/GPa)
#
#
# Indices 1 2 3 4 5 6 
#
# 1 0.011884 -0.003391 -0.007375 -0.000159 -0.003922 -0.001684
# 2 -0.003391 0.016351 0.000280 0.009044 0.009141 -0.003709
# 3 -0.007375 0.000280 0.033042 0.000594 0.001849 0.020898
# 4 -0.000159 0.009044 0.000594 0.030461 0.009748 0.001716
# 5 -0.003922 0.009141 0.001849 0.009748 0.028823 -0.004805
# 6 -0.001684 -0.003709 0.020898 0.001716 -0.004805 0.045355
#
#
# Mechanical properties :
#
#
# Convention : Reuss Voigt Hill
#
# Bulk Modulus (GPa) = 24.81069 38.55391 31.68230
# Shear Modulus (GPa) = 24.95976 37.65127 31.30552
#
# Velocity S-wave (km/s) = 3.02490 3.71519 3.38768
# Velocity P-wave (km/s) = 4.61470 5.70413 5.18809
#
# Compressibility (1/GPa) = 0.04030521
#
# Stress axis : x y z
#
# Youngs Moduli (GPa) = 84.15005 61.15754 30.26452
#
# Poissons Ratio (x) = 0.20737 0.22321
# Poissons Ratio (y) = 0.28533 -0.00848
# Poissons Ratio (z) = 0.62063 -0.01713
#
# Static dielectric constant tensor:
#      x y z
#    x 2.797700 0.143090 -0.583940 
#    y 0.143090 2.234150 -0.109860 
#    z -0.583940 -0.109860 2.475860 
# 
# From -- ./inp_files/368739.got.cif
#   From: 2010.05.17/outbox.cif.g08.bks.cpg/sg2_185_cif.got.tgz:368739.got - 2010.06.03 11:33:40.
