data_PCOD9094805
_publ_section_title
;
Structure prediction by ZEFSAII (Michael W. Deem and Ramdas Pophale) SiO2 
 PCOD9094805
Probable space group: P -1
;
_chemical_formula_sum "Si O2"
_cell_formula_units_Z 16
_cell_length_a 14.515787
_cell_length_b 12.948735
_cell_length_c 16.746387
_cell_angle_alpha 25.805993
_cell_angle_beta 42.658590
_cell_angle_gamma 58.423190
_cell_volume 819.949230
_symmetry_space_group_name_H-M "P -1"
_symmetry_group_IT_number 2
_symmetry_cell_setting 'triclinic'
loop_
_space_group_symop_operation_xyz
x,y,z
-x,-y,-z
loop_
_atom_site_type_symbol
_atom_site_label
_atom_site_fract_x
_atom_site_fract_y
_atom_site_fract_z
Si Si1 0.399485 0.550986 0.463410
Si Si2 0.856247 0.000481 0.997564
Si Si3 0.611004 0.933474 0.421953
Si Si4 0.439616 0.336123 0.880062
Si Si5 0.281286 0.738842 0.211981
Si Si6 0.860087 0.784920 0.431378
Si Si7 0.193569 0.794632 0.410845
Si Si8 0.873201 0.415696 0.822501
O O1 0.500000 0.500000 0.500000
O O2 0.519380 0.691349 0.218511
O O3 0.302213 0.695041 0.456534
O O4 0.261616 0.287900 0.693485
O O5 0.748439 0.074252 0.959324
O O6 0.915391 0.218547 0.878816
O O7 0.977849 0.991256 0.863514
O O8 0.503611 0.649136 0.642970
O O9 0.730586 0.877764 0.438531
O O10 0.500000 0.000000 0.500000
O O11 0.716459 0.194534 0.118258
O O12 0.551600 0.238938 0.919329
O O13 0.264032 0.112534 0.162769
O O14 0.172843 0.444010 0.453626
O O15 0.233287 0.771684 0.308314
O O16 0.860075 0.634261 0.618924
O O17 0.011981 0.595861 0.668907
#
# Coordination Sequence:
#
# PCOD9094805 Si02
#       8
#     2   2   2   2   2   2   2   2
#     4  11  21  29  51  87 127 156 182 217 291 361
#     4  11  17  32  55  91 124 145 184 231 290 364
#     4  11  25  44  61  81 110 155 210 247 275 328
#     4  10  21  36  53  79 120 156 187 232 283 339
#     4   9  16  30  52  82 121 152 171 218 286 356
#     4  10  20  34  61  88 121 145 187 243 291 343
#     4  11  19  33  54  83 121 150 182 225 295 357
#     4  11  21  37  62  89 115 154 189 235 298 348
#
# _framework density 19.513403
#
# number of rings (size 3 to 8) (size 9 to 14) (size 15 to 20)
#    0.000    1.500    3.750    4.500    0.000    1.500 
#    0.000    0.625    0.000    0.750    0.000    0.000 
#    0.000    0.000    0.000    0.000    0.000    0.000 
#
# Total GULP energy -89080.891203 kJ/mol
# GULP energy per Si atom -5567.555700 kJ/mol
# Density = 1.946899 g / cm^3
# Si number density = 19.513403 Si / 1000 Ang^3
#
#
#
# Elastic Constant Matrix: (Units=GPa)
#
#
# Indices 1 2 3 4 5 6 
#
# 1 64.9459 11.5625 34.3577 -0.3728 -1.4690 1.3633
# 2 11.5625 53.3689 36.0152 10.3142 -5.8063 -11.8417
# 3 34.3577 36.0152 117.4469 -3.2046 -22.4543 -6.5109
# 4 -0.3728 10.3142 -3.2046 20.6075 5.1259 -4.2161
# 5 -1.4690 -5.8063 -22.4543 5.1259 22.3336 -7.6359
# 6 1.3633 -11.8417 -6.5109 -4.2161 -7.6359 12.1587
#
#
#
# Elastic Compliance Matrix: (Units=1/GPa)
#
#
# Indices 1 2 3 4 5 6 
#
# 1 0.021370 -0.005985 -0.009076 0.001534 -0.017726 -0.023686
# 2 -0.005985 0.038846 -0.002691 -0.016884 0.027437 0.048440
# 3 -0.009076 -0.002691 0.018173 0.002902 0.024745 0.024675
# 4 0.001534 -0.016884 0.002902 0.060711 -0.016881 -0.004611
# 5 -0.017726 0.027437 0.024745 -0.016881 0.116952 0.109554
# 6 -0.023686 0.048440 0.024675 -0.004611 0.109554 0.212495
#
#
# Mechanical properties :
#
#
# Convention : Reuss Voigt Hill
#
# Bulk Modulus (GPa) = 23.31919 44.40360 33.86140
# Shear Modulus (GPa) = 9.64606 21.27505 15.46055
#
# Velocity S-wave (km/s) = 2.22576 3.30552 2.81784
# Velocity P-wave (km/s) = 4.31065 6.11338 5.28938
#
# Compressibility (1/GPa) = 0.04288313
#
# Stress axis : x y z
#
# Youngs Moduli (GPa) = 46.79540 25.74257 55.02723
#
# Poissons Ratio (x) = 0.15408 0.49944
# Poissons Ratio (y) = 0.28009 0.14808
# Poissons Ratio (z) = 0.42473 0.06927
#
# Static dielectric constant tensor:
#      x y z
#    x 1.773080 -0.040090 -0.009700 
#    y -0.040090 1.734960 -0.118010 
#    z -0.009700 -0.118010 1.845640 
# 
# From -- ./inp_files/423827.got.cif
#   From: 2010.05.17/outbox.cif.g08.bks.cpg/sg2_212_cif.got.tgz:423827.got - 2010.06.03 11:33:40.
