data_PCOD9094925
_publ_section_title
;
Structure prediction by ZEFSAII (Michael W. Deem and Ramdas Pophale) SiO2 
 PCOD9094925
Probable space group: P -1
;
_chemical_formula_sum "Si O2"
_cell_formula_units_Z 16
_cell_length_a 5.166434
_cell_length_b 20.463986
_cell_length_c 17.673913
_cell_angle_alpha 20.422626
_cell_angle_beta 79.443615
_cell_angle_gamma 78.947800
_cell_volume 639.901922
_symmetry_space_group_name_H-M "P -1"
_symmetry_group_IT_number 2
_symmetry_cell_setting 'triclinic'
loop_
_space_group_symop_operation_xyz
x,y,z
-x,-y,-z
loop_
_atom_site_type_symbol
_atom_site_label
_atom_site_fract_x
_atom_site_fract_y
_atom_site_fract_z
Si Si1 0.164394 0.351486 0.420561
Si Si2 0.530252 0.358242 0.264836
Si Si3 0.161092 0.651989 0.873328
Si Si4 0.383702 0.839683 0.946686
Si Si5 0.150623 0.990261 0.178953
Si Si6 0.478000 0.467948 0.418670
Si Si7 0.821574 0.660734 0.293543
Si Si8 0.168361 0.356147 0.967086
O O1 0.318197 0.271094 0.424535
O O2 0.376013 0.369163 0.456637
O O3 0.042990 0.554107 0.178691
O O4 0.934314 0.219624 0.601679
O O5 0.685646 0.243718 0.314400
O O6 0.729656 0.454236 0.206154
O O7 0.375646 0.531434 0.042262
O O8 0.000000 0.500000 0.000000
O O9 0.969756 0.746997 0.843833
O O10 0.095973 0.926309 0.847375
O O11 0.571006 0.978422 0.830948
O O12 0.325010 0.672524 0.190273
O O13 0.581309 0.752971 0.966027
O O14 0.135951 0.123924 0.961079
O O15 0.749434 0.557864 0.330568
O O16 0.419744 0.339481 0.632839
O O17 0.000000 0.500000 0.500000
#
# Coordination Sequence:
#
# PCOD9094925 Si02
#       8
#     2   2   2   2   2   2   2   2
#     4  11  23  38  60  96 126 161 205 267 319 370
#     4   9  17  32  58  89 124 155 205 260 308 356
#     4   8  16  31  53  93 121 156 201 265 298 356
#     4  11  22  41  62  90 121 167 212 256 302 379
#     4  11  26  40  61  92 133 163 205 263 330 371
#     4  10  21  38  65  86 118 161 216 254 308 375
#     4  10  21  41  63  88 119 168 207 262 310 379
#     4  10  20  34  64  90 119 162 216 257 300 370
#
# _framework density 25.003831000000002
#
# number of rings (size 3 to 8) (size 9 to 14) (size 15 to 20)
#    0.000    2.000    2.500    0.750    5.250    0.500 
#    0.000    0.625    0.000    1.500    0.000    0.000 
#    0.000    0.000    0.000    0.000    0.000    0.000 
#
# Total GULP energy -89153.256935 kJ/mol
# GULP energy per Si atom -5572.078558 kJ/mol
# Density = 2.494692 g / cm^3
# Si number density = 25.003831 Si / 1000 Ang^3
#
#
#
# Elastic Constant Matrix: (Units=GPa)
#
#
# Indices 1 2 3 4 5 6 
#
# 1 81.6016 7.2598 16.1776 7.8915 -2.0411 17.0556
# 2 7.2598 90.0314 24.6920 24.3438 -2.6947 5.7037
# 3 16.1776 24.6920 61.6891 -4.1863 -20.5872 14.8437
# 4 7.8915 24.3438 -4.1863 28.6409 -7.4698 -2.8939
# 5 -2.0411 -2.6947 -20.5872 -7.4698 36.6267 2.7073
# 6 17.0556 5.7037 14.8437 -2.8939 2.7073 37.5325
#
#
#
# Elastic Compliance Matrix: (Units=1/GPa)
#
#
# Indices 1 2 3 4 5 6 
#
# 1 0.015029 0.002993 -0.005593 -0.008974 -0.003509 -0.005511
# 2 0.002993 0.020921 -0.014610 -0.023680 -0.011353 0.000232
# 3 -0.005593 -0.014610 0.035472 0.024542 0.024231 -0.009122
# 4 -0.008974 -0.023680 0.024542 0.067836 0.025285 0.001377
# 5 -0.003509 -0.011353 0.024231 0.025285 0.045610 -0.007604
# 6 -0.005511 0.000232 -0.009122 0.001377 -0.007604 0.033375
#
#
# Mechanical properties :
#
#
# Convention : Reuss Voigt Hill
#
# Bulk Modulus (GPa) = 27.02612 36.62011 31.82311
# Shear Modulus (GPa) = 18.86791 32.90620 25.88706
#
# Velocity S-wave (km/s) = 2.74998 3.63167 3.22114
# Velocity P-wave (km/s) = 4.57334 5.68005 5.15647
#
# Compressibility (1/GPa) = 0.03700124
#
# Stress axis : x y z
#
# Youngs Moduli (GPa) = 66.53667 47.79788 28.19105
#
# Poissons Ratio (x) = -0.14305 0.15768
# Poissons Ratio (y) = -0.19913 0.41189
# Poissons Ratio (z) = 0.37216 0.69835
#
# Static dielectric constant tensor:
#      x y z
#    x 2.218720 -0.115480 -0.028570 
#    y -0.115480 2.164670 -0.003290 
#    z -0.028570 -0.003290 1.990330 
# 
# From -- ./inp_files/550967.got.cif
#   From: 2010.05.17/outbox.cif.g08.bks.cpg/sg2_276_cif.got.tgz:550967.got - 2010.06.03 11:33:40.
