data_PCOD9094530
_publ_section_title
;
Structure prediction by ZEFSAII (Michael W. Deem and Ramdas Pophale) SiO2 
 PCOD9094530
Probable space group: P -1
;
_chemical_formula_sum "Si O2"
_cell_formula_units_Z 14
_cell_length_a 27.341628
_cell_length_b 10.314715
_cell_length_c 9.102738
_cell_angle_alpha 119.874279
_cell_angle_beta 27.612550
_cell_angle_gamma 141.395729
_cell_volume 549.707133
_symmetry_space_group_name_H-M "P -1"
_symmetry_group_IT_number 2
_symmetry_cell_setting 'triclinic'
loop_
_space_group_symop_operation_xyz
x,y,z
-x,-y,-z
loop_
_atom_site_type_symbol
_atom_site_label
_atom_site_fract_x
_atom_site_fract_y
_atom_site_fract_z
Si Si1 0.923188 0.212840 0.547675
Si Si2 0.701431 0.668330 0.403337
Si Si3 0.908412 0.396917 0.428754
Si Si4 0.566592 0.231947 0.030866
Si Si5 0.483070 0.828788 0.540119
Si Si6 0.812945 0.097280 0.248716
Si Si7 0.732151 0.687811 0.668091
O O1 0.988990 0.356026 0.293918
O O2 0.073100 0.455784 0.407548
O O3 0.872149 0.976933 0.537937
O O4 0.706991 0.029230 0.054023
O O5 0.655517 0.460580 0.327707
O O6 0.774388 0.722071 0.403043
O O7 0.844858 0.961845 0.114958
O O8 0.488127 0.499407 0.864822
O O9 0.767752 0.125719 0.542184
O O10 0.020198 0.619214 0.127150
O O11 0.601578 0.238462 0.110798
O O12 0.375013 0.107750 0.470954
O O13 0.716794 0.511673 0.694507
O O14 0.500000 0.000000 0.000000
O O15 0.500000 0.000000 0.500000
#
# Coordination Sequence:
#
# PCOD9094530 Si02
#       7
#     2   2   2   2   2   2   2
#     4  10  20  36  59  86 110 142 190 221 276 317
#     4   9  18  33  56  82 110 140 180 231 274 318
#     4  10  20  34  58  84 112 146 182 232 254 330
#     4  11  23  36  57  83 113 144 179 232 283 328
#     4  11  23  36  57  83 113 144 179 232 283 328
#     4  10  20  36  59  86 110 142 190 221 276 317
#     4   9  18  33  56  82 110 140 180 231 274 318
#
# _framework density 25.468107
#
# number of rings (size 3 to 8) (size 9 to 14) (size 15 to 20)
#    0.000    2.000    2.857    0.857    6.000    1.714 
#    0.000    0.000    0.000   10.286    0.000    0.000 
#    0.000    0.000    0.000    0.000    0.000    0.000 
#
# Total GULP energy -78143.353225 kJ/mol
# GULP energy per Si atom -5581.668088 kJ/mol
# Density = 2.541014 g / cm^3
# Si number density = 25.468107 Si / 1000 Ang^3
#
#
#
# Elastic Constant Matrix: (Units=GPa)
#
#
# Indices 1 2 3 4 5 6 
#
# 1 169.4159 94.3973 40.2695 -16.0477 43.5628 7.9565
# 2 94.3973 172.7347 51.8780 -43.0689 33.7701 -11.3557
# 3 40.2695 51.8780 65.7592 -12.2255 6.8206 -15.9616
# 4 -16.0477 -43.0689 -12.2255 44.6109 -8.9223 5.2810
# 5 43.5628 33.7701 6.8206 -8.9223 54.1998 -10.9966
# 6 7.9565 -11.3557 -15.9616 5.2810 -10.9966 50.3713
#
#
#
# Elastic Compliance Matrix: (Units=1/GPa)
#
#
# Indices 1 2 3 4 5 6 
#
# 1 0.011311 -0.004279 -0.004535 -0.002112 -0.007332 -0.005568
# 2 -0.004279 0.012169 -0.005100 0.008349 -0.002029 0.000485
# 3 -0.004535 -0.005100 0.023423 0.000001 0.005538 0.008198
# 4 -0.002112 0.008349 0.000001 0.030056 0.001312 -0.000649
# 5 -0.007332 -0.002029 0.005538 0.001312 0.026783 0.008165
# 6 -0.005568 0.000485 0.008198 -0.000649 0.008165 0.025290
#
#
# Mechanical properties :
#
#
# Convention : Reuss Voigt Hill
#
# Bulk Modulus (GPa) = 52.42013 86.77773 69.59893
# Shear Modulus (GPa) = 30.63374 44.59408 37.61391
#
# Velocity S-wave (km/s) = 3.47194 4.18901 3.84722
# Velocity P-wave (km/s) = 6.05804 7.58578 6.86455
#
# Compressibility (1/GPa) = 0.01907664
#
# Stress axis : x y z
#
# Youngs Moduli (GPa) = 88.40637 82.17380 42.69276
#
# Poissons Ratio (x) = 0.35160 0.19361
# Poissons Ratio (y) = 0.37826 0.21773
# Poissons Ratio (z) = 0.40092 0.41909
#
# Static dielectric constant tensor:
#      x y z
#    x 2.010380 -0.074730 -0.097860 
#    y -0.074730 2.025260 0.057920 
#    z -0.097860 0.057920 2.153230 
# 
# From -- ./inp_files/168451.got.cif
#   From: 2010.05.17/outbox.cif.g08.bks.cpg/sg2_85_cif.got.tgz:168451.got - 2010.06.03 11:33:40.
