data_PCOD9094408
_publ_section_title
;
Structure prediction by ZEFSAII (Michael W. Deem and Ramdas Pophale) SiO2 
 PCOD9094408
Probable space group: P -1
;
_chemical_formula_sum "Si O2"
_cell_formula_units_Z 14
_cell_length_a 14.191560
_cell_length_b 8.452356
_cell_length_c 14.722294
_cell_angle_alpha 87.559019
_cell_angle_beta 139.168827
_cell_angle_gamma 124.736409
_cell_volume 655.393830
_symmetry_space_group_name_H-M "P -1"
_symmetry_group_IT_number 2
_symmetry_cell_setting 'triclinic'
loop_
_space_group_symop_operation_xyz
x,y,z
-x,-y,-z
loop_
_atom_site_type_symbol
_atom_site_label
_atom_site_fract_x
_atom_site_fract_y
_atom_site_fract_z
Si Si1 0.311936 0.658684 0.796454
Si Si2 0.668464 0.260323 0.840583
Si Si3 0.376199 0.695655 0.570514
Si Si4 0.713310 0.862893 0.958484
Si Si5 0.445158 0.620472 0.077074
Si Si6 0.849173 0.528863 0.776322
Si Si7 0.086605 0.794665 0.633714
O O1 0.567888 0.849516 0.922959
O O2 0.269594 0.807314 0.772107
O O3 0.087894 0.388527 0.576825
O O4 0.304001 0.565841 0.889075
O O5 0.578774 0.287965 0.855947
O O6 0.729461 0.416227 0.791286
O O7 0.460296 0.941222 0.667106
O O8 0.925804 0.400318 0.055211
O O9 0.578052 0.761972 0.764004
O O10 0.351179 0.683497 0.444670
O O11 0.105107 0.393976 0.418019
O O12 0.659869 0.643741 0.965554
O O13 0.000721 0.175319 0.145994
O O14 0.740886 0.894653 0.256082
#
# Coordination Sequence:
#
# PCOD9094408 Si02
#       7
#     2   2   2   2   2   2   2
#     4  10  20  36  55  79 111 147 181 219 267 321
#     4  10  22  36  59  85 103 138 192 227 267 319
#     4  10  20  39  59  80 108 142 183 229 268 316
#     4  10  23  36  54  83 113 146 182 212 270 337
#     4  12  22  35  54  84 118 143 173 223 272 327
#     4  10  20  40  60  77 106 145 184 231 268 308
#     4  10  20  34  57  82 107 140 185 224 264 318
#
# _framework density 21.361204000000001
#
# number of rings (size 3 to 8) (size 9 to 14) (size 15 to 20)
#    0.000    1.714    0.000    6.429    0.000    4.000 
#    0.000    0.714    0.000    0.000    0.000    0.000 
#    0.000    0.000    0.000    0.000    0.000    0.000 
#
# Total GULP energy -78268.635728 kJ/mol
# GULP energy per Si atom -5590.616838 kJ/mol
# Density = 2.131258 g / cm^3
# Si number density = 21.361204 Si / 1000 Ang^3
#
#
#
# Elastic Constant Matrix: (Units=GPa)
#
#
# Indices 1 2 3 4 5 6 
#
# 1 34.4924 27.6890 27.5974 -15.5227 -16.0193 25.1613
# 2 27.6890 149.7168 30.4007 1.3445 -18.4501 15.4865
# 3 27.5974 30.4007 68.1522 -13.3732 -28.1193 13.8071
# 4 -15.5227 1.3445 -13.3732 26.6582 15.7285 -7.3612
# 5 -16.0193 -18.4501 -28.1193 15.7285 24.8557 -6.4289
# 6 25.1613 15.4865 13.8071 -7.3612 -6.4289 26.1148
#
#
#
# Elastic Compliance Matrix: (Units=1/GPa)
#
#
# Indices 1 2 3 4 5 6 
#
# 1 0.226836 -0.016450 -0.031400 0.060507 0.015883 -0.171232
# 2 -0.016450 0.009643 0.001776 -0.011739 0.008025 0.007859
# 3 -0.031400 0.001776 0.034802 -0.017856 0.035504 0.014508
# 4 0.060507 -0.011739 -0.017856 0.087261 -0.052984 -0.030342
# 5 0.015883 0.008025 0.035504 -0.052984 0.124115 -0.023214
# 6 -0.171232 0.007859 0.014508 -0.030342 -0.023214 0.176673
#
#
# Mechanical properties :
#
#
# Convention : Reuss Voigt Hill
#
# Bulk Modulus (GPa) = 5.58248 47.08172 26.33210
# Shear Modulus (GPa) = 6.16378 26.63736 16.40057
#
# Velocity S-wave (km/s) = 1.70052 3.53512 2.77388
# Velocity P-wave (km/s) = 2.54455 6.22506 4.75532
#
# Compressibility (1/GPa) = 0.17913176
#
# Stress axis : x y z
#
# Youngs Moduli (GPa) = 4.40847 103.70745 28.73408
#
# Poissons Ratio (x) = 1.70596 0.90226
# Poissons Ratio (y) = 0.07252 -0.05102
# Poissons Ratio (z) = 0.13843 -0.18413
#
# Static dielectric constant tensor:
#      x y z
#    x 1.766470 -0.001330 -0.002290 
#    y -0.001330 1.778640 0.009370 
#    z -0.002290 0.009370 1.803840 
# 
# From -- ./inp_files/272541.got.cif
#   From: 2010.05.17/outbox.cif.g08.bks.cpg/sg2_137_cif.got.tgz:272541.got - 2010.06.03 11:33:40.
