data_PCOD9094849
_publ_section_title
;
Structure prediction by ZEFSAII (Michael W. Deem and Ramdas Pophale) SiO2 
 PCOD9094849
Probable space group: P -1
;
_chemical_formula_sum "Si O2"
_cell_formula_units_Z 15
_cell_length_a 11.711061
_cell_length_b 14.097238
_cell_length_c 13.214783
_cell_angle_alpha 30.811239
_cell_angle_beta 36.232272
_cell_angle_gamma 53.220627
_cell_volume 627.821915
_symmetry_space_group_name_H-M "P -1"
_symmetry_group_IT_number 2
_symmetry_cell_setting 'triclinic'
loop_
_space_group_symop_operation_xyz
x,y,z
-x,-y,-z
loop_
_atom_site_type_symbol
_atom_site_label
_atom_site_fract_x
_atom_site_fract_y
_atom_site_fract_z
Si Si1 0.607455 0.297609 0.228865
Si Si2 0.072836 0.519282 0.688269
Si Si3 0.000000 0.500000 0.000000
Si Si4 0.967304 0.825203 0.758273
Si Si5 0.283742 0.096658 0.484482
Si Si6 0.599533 0.095542 0.947212
Si Si7 0.846038 0.857929 0.042202
Si Si8 0.351113 0.342935 0.009892
O O1 0.445309 0.248883 0.298994
O O2 0.547103 0.441028 0.219591
O O3 0.632326 0.086079 0.429559
O O4 0.835313 0.430606 0.912638
O O5 0.184480 0.737706 0.376480
O O6 0.089711 0.517321 0.799050
O O7 0.174940 0.363472 0.712714
O O8 0.853265 0.266452 0.286922
O O9 0.875878 0.859035 0.896941
O O10 0.822180 0.641627 0.961771
O O11 0.000000 0.000000 0.500000
O O12 0.261628 0.204032 0.297497
O O13 0.067843 0.001828 0.782415
O O14 0.468435 0.219360 0.978147
O O15 0.659464 0.938753 0.117687
O O16 0.500000 0.000000 0.000000
#
# Coordination Sequence:
#
# PCOD9094849 Si02
#       8
#     2   2   1   2   2   2   2   2
#     4  10  22  43  67  94 116 152 215 262 301 352
#     4  10  22  39  62  87 120 160 205 254 298 359
#     4  10  20  34  62  88 110 158 202 254 304 346
#     4  11  19  33  58  88 120 151 202 251 300 358
#     4  10  22  42  70  90 116 157 208 265 303 354
#     4  12  26  39  55  89 136 167 195 241 307 374
#     4  10  21  40  59  86 120 163 200 244 305 356
#     4  12  23  36  60  93 123 161 200 251 307 364
#
# _framework density 23.892126999999999
#
# number of rings (size 3 to 8) (size 9 to 14) (size 15 to 20)
#    0.000    1.333    4.000    2.000    0.000    1.600 
#    0.000    2.667    0.000    4.800    0.000    0.000 
#    0.000    0.000    0.000    0.000    0.000    0.000 
#
# Total GULP energy -83589.181948 kJ/mol
# GULP energy per Si atom -5572.612130 kJ/mol
# Density = 2.383775 g / cm^3
# Si number density = 23.892127 Si / 1000 Ang^3
#
#
#
# Elastic Constant Matrix: (Units=GPa)
#
#
# Indices 1 2 3 4 5 6 
#
# 1 77.0694 23.6770 22.5002 -9.0734 -33.9255 -3.1119
# 2 23.6770 169.3624 40.7607 -27.4307 -16.9074 -28.8651
# 3 22.5002 40.7607 79.2559 -28.5533 -12.3997 7.8719
# 4 -9.0734 -27.4307 -28.5533 35.6785 0.8319 0.7425
# 5 -33.9255 -16.9074 -12.3997 0.8319 38.5518 -21.2555
# 6 -3.1119 -28.8651 7.8719 0.7425 -21.2555 36.3022
#
#
#
# Elastic Compliance Matrix: (Units=1/GPa)
#
#
# Indices 1 2 3 4 5 6 
#
# 1 0.081353 0.033196 -0.021009 0.023400 0.146982 0.123507
# 2 0.033196 0.026142 -0.012608 0.015253 0.074808 0.069856
# 3 -0.021009 -0.012608 0.025704 0.007241 -0.037777 -0.039667
# 4 0.023400 0.015253 0.007241 0.049430 0.051557 0.041741
# 5 0.146982 0.074808 -0.037777 0.051557 0.322673 0.268150
# 6 0.123507 0.069856 -0.039667 0.041741 0.268150 0.258433
#
#
# Mechanical properties :
#
#
# Convention : Reuss Voigt Hill
#
# Bulk Modulus (GPa) = 7.55534 55.50704 31.53119
# Shear Modulus (GPa) = 6.18278 38.02316 22.10297
#
# Velocity S-wave (km/s) = 1.61041 3.99363 3.04487
# Velocity P-wave (km/s) = 2.57430 6.67444 5.05842
#
# Compressibility (1/GPa) = 0.13235675
#
# Stress axis : x y z
#
# Youngs Moduli (GPa) = 12.29209 38.25190 38.90390
#
# Poissons Ratio (x) = -1.26981 0.81734
# Poissons Ratio (y) = -0.40805 0.49052
# Poissons Ratio (z) = 0.25825 0.48230
#
# Static dielectric constant tensor:
#      x y z
#    x 2.040990 -0.104290 0.086090 
#    y -0.104290 2.001520 -0.068560 
#    z 0.086090 -0.068560 2.116740 
# 
# From -- ./inp_files/414003.got.cif
#   From: 2010.05.17/outbox.cif.g08.bks.cpg/sg2_208_cif.got.tgz:414003.got - 2010.06.03 11:33:40.
