data_PCOD9094505
_publ_section_title
;
Structure prediction by ZEFSAII (Michael W. Deem and Ramdas Pophale) SiO2 
 PCOD9094505
Probable space group: P -1
;
_chemical_formula_sum "Si O2"
_cell_formula_units_Z 15
_cell_length_a 28.593194
_cell_length_b 13.530143
_cell_length_c 6.693535
_cell_angle_alpha 133.431893
_cell_angle_beta 41.456226
_cell_angle_gamma 159.801650
_cell_volume 590.499604
_symmetry_space_group_name_H-M "P -1"
_symmetry_group_IT_number 2
_symmetry_cell_setting 'triclinic'
loop_
_space_group_symop_operation_xyz
x,y,z
-x,-y,-z
loop_
_atom_site_type_symbol
_atom_site_label
_atom_site_fract_x
_atom_site_fract_y
_atom_site_fract_z
Si Si1 0.377308 0.923870 0.615571
Si Si2 0.806383 0.557500 0.142094
Si Si3 0.939804 0.196265 0.313161
Si Si4 0.322982 0.587502 0.058643
Si Si5 0.479241 0.566876 0.976861
Si Si6 0.652516 0.655262 0.280146
Si Si7 0.095703 0.614267 0.036883
Si Si8 0.000000 0.000000 0.500000
O O1 0.405677 0.856347 0.268381
O O2 0.307051 0.722651 0.748107
O O3 0.248378 0.799559 0.757750
O O4 0.488944 0.226909 0.767806
O O5 0.717830 0.472138 0.126039
O O6 0.927197 0.655965 0.802447
O O7 0.911039 0.826755 0.324909
O O8 0.878295 0.211240 0.666203
O O9 0.005466 0.361813 0.122629
O O10 0.800362 0.877481 0.240934
O O11 0.421215 0.617636 0.830848
O O12 0.160854 0.309985 0.305080
O O13 0.587883 0.684482 0.622686
O O14 0.328061 0.299320 0.958270
O O15 0.500000 0.500000 0.000000
O O16 0.000000 0.500000 0.000000
#
# Coordination Sequence:
#
# PCOD9094505 Si02
#       8
#     2   2   2   2   2   2   2   1
#     4  10  23  42  63  97 128 167 221 267 316 396
#     4  10  21  39  63  98 140 170 202 265 331 392
#     4  10  20  36  60  95 131 165 211 259 319 393
#     4  11  23  41  67  99 138 173 202 266 330 387
#     4  11  27  49  68  91 123 175 230 278 318 367
#     4  11  25  44  66  94 130 169 223 270 314 386
#     4  10  20  35  60  95 130 170 204 257 326 389
#     4  10  20  34  58 100 138 168 204 238 314 412
#
# _framework density 25.402217
#
# number of rings (size 3 to 8) (size 9 to 14) (size 15 to 20)
#    0.000    1.600    2.667    1.200    1.867    4.800 
#    0.000    1.333    0.000    0.000    0.000    0.000 
#    0.000    0.000    0.000    0.000    0.000    0.000 
#
# Total GULP energy -83562.703117 kJ/mol
# GULP energy per Si atom -5570.846874 kJ/mol
# Density = 2.534440 g / cm^3
# Si number density = 25.402217 Si / 1000 Ang^3
#
#
#
# Elastic Constant Matrix: (Units=GPa)
#
#
# Indices 1 2 3 4 5 6 
#
# 1 150.5206 23.2249 62.6183 32.7410 17.5946 10.8354
# 2 23.2249 87.3438 61.8955 32.2921 5.5817 -0.1810
# 3 62.6183 61.8955 148.3652 36.5043 -4.4467 1.1144
# 4 32.7410 32.2921 36.5043 51.9810 14.2969 3.7143
# 5 17.5946 5.5817 -4.4467 14.2969 40.1679 8.0997
# 6 10.8354 -0.1810 1.1144 3.7143 8.0997 25.6824
#
#
#
# Elastic Compliance Matrix: (Units=1/GPa)
#
#
# Indices 1 2 3 4 5 6 
#
# 1 0.009207 0.001637 -0.003895 -0.003053 -0.003147 -0.002270
# 2 0.001637 0.018645 -0.006661 -0.007588 -0.001614 0.001336
# 3 -0.003895 -0.006661 0.012145 -0.003359 0.005188 -0.000081
# 4 -0.003053 -0.007588 -0.003359 0.030687 -0.008849 -0.000267
# 5 -0.003147 -0.001614 0.005188 -0.008849 0.031764 -0.007647
# 6 -0.002270 0.001336 -0.000081 -0.000267 -0.007647 0.042358
#
#
# Mechanical properties :
#
#
# Convention : Reuss Voigt Hill
#
# Bulk Modulus (GPa) = 45.12619 75.74523 60.43571
# Shear Modulus (GPa) = 29.40670 39.46565 34.43617
#
# Velocity S-wave (km/s) = 3.40611 3.94589 3.68589
# Velocity P-wave (km/s) = 5.76819 7.11640 6.47746
#
# Compressibility (1/GPa) = 0.02216008
#
# Stress axis : x y z
#
# Youngs Moduli (GPa) = 108.61750 53.63334 82.33592
#
# Poissons Ratio (x) = -0.08780 0.32068
# Poissons Ratio (y) = -0.17782 0.54843
# Poissons Ratio (z) = 0.42304 0.35724
#
# Static dielectric constant tensor:
#      x y z
#    x 2.058580 -0.016740 -0.059740 
#    y -0.016740 2.080990 -0.018440 
#    z -0.059740 -0.018440 2.022560 
# 
# From -- ./inp_files/128625.got.cif
#   From: 2010.05.17/outbox.cif.g08.bks.cpg/sg2_65_cif.got.tgz:128625.got - 2010.06.03 11:33:40.
