data_PCOD9094533
_publ_section_title
;
Structure prediction by ZEFSAII (Michael W. Deem and Ramdas Pophale) SiO2 
 PCOD9094533
Probable space group: P -1
;
_chemical_formula_sum "Si O2"
_cell_formula_units_Z 16
_cell_length_a 10.041759
_cell_length_b 16.441295
_cell_length_c 6.909664
_cell_angle_alpha 39.569897
_cell_angle_beta 113.407460
_cell_angle_gamma 105.889926
_cell_volume 665.866993
_symmetry_space_group_name_H-M "P -1"
_symmetry_group_IT_number 2
_symmetry_cell_setting 'triclinic'
loop_
_space_group_symop_operation_xyz
x,y,z
-x,-y,-z
loop_
_atom_site_type_symbol
_atom_site_label
_atom_site_fract_x
_atom_site_fract_y
_atom_site_fract_z
Si Si1 0.582123 0.846475 0.658408
Si Si2 0.569237 0.358496 0.786988
Si Si3 0.118796 0.217339 0.664914
Si Si4 0.805443 0.643492 0.189356
Si Si5 0.631954 0.416458 0.329157
Si Si6 0.094724 0.746255 0.204660
Si Si7 0.696927 0.018039 0.752033
Si Si8 0.861927 0.231669 0.236681
O O1 0.720232 0.763295 0.809395
O O2 0.643194 0.947545 0.656669
O O3 0.445341 0.917611 0.342735
O O4 0.504145 0.739155 0.936775
O O5 0.500000 0.500000 0.500000
O O6 0.559755 0.327822 0.610459
O O7 0.739416 0.346644 0.958124
O O8 0.006520 0.174006 0.848983
O O9 0.014704 0.269969 0.339714
O O10 0.204418 0.319935 0.651882
O O11 0.217359 0.095875 0.877322
O O12 0.726725 0.520977 0.299414
O O13 0.977860 0.643914 0.258295
O O14 0.761625 0.322618 0.488360
O O15 0.500000 0.500000 0.000000
O O16 0.131416 0.812167 0.903518
O O17 0.800264 0.121861 0.535978
#
# Coordination Sequence:
#
# PCOD9094533 Si02
#       8
#     2   2   2   2   2   2   2   2
#     4   9  17  35  58  84 115 152 194 241 294 339
#     4  10  20  34  58  84 114 148 201 240 283 355
#     4   9  20  36  59  83 115 158 186 245 293 332
#     4   9  19  38  56  82 119 154 187 238 299 343
#     4  11  22  37  58  82 119 160 193 244 291 344
#     4   9  22  38  56  88 121 150 200 237 292 356
#     4   9  18  33  60  85 114 154 198 240 286 348
#     4  10  20  37  59  88 115 155 202 235 290 351
#
# _framework density 24.028822000000002
#
# number of rings (size 3 to 8) (size 9 to 14) (size 15 to 20)
#    0.750    1.750    1.250    0.750    1.750    0.500 
#    4.500    2.500    0.000    0.750    0.000    0.000 
#    0.000    0.000    0.000    0.000    0.000    0.000 
#
# Total GULP energy -89078.145510 kJ/mol
# GULP energy per Si atom -5567.384094 kJ/mol
# Density = 2.397413 g / cm^3
# Si number density = 24.028822 Si / 1000 Ang^3
#
#
#
# Elastic Constant Matrix: (Units=GPa)
#
#
# Indices 1 2 3 4 5 6 
#
# 1 71.4144 1.1327 31.1894 9.2007 35.2195 6.5356
# 2 1.1327 71.9798 30.7856 -0.8762 10.8352 13.0748
# 3 31.1894 30.7856 103.3084 21.3635 39.1772 8.6774
# 4 9.2007 -0.8762 21.3635 32.3314 3.8863 7.1802
# 5 35.2195 10.8352 39.1772 3.8863 42.1098 3.6627
# 6 6.5356 13.0748 8.6774 7.1802 3.6627 22.1089
#
#
#
# Elastic Compliance Matrix: (Units=1/GPa)
#
#
# Indices 1 2 3 4 5 6 
#
# 1 0.025491 0.003365 0.001025 -0.004066 -0.022337 -0.004907
# 2 0.003365 0.019059 -0.006682 0.006691 -0.001107 -0.011633
# 3 0.001025 -0.006682 0.020112 -0.012293 -0.016937 0.002553
# 4 -0.004066 0.006691 -0.012293 0.042101 0.010389 -0.013324
# 5 -0.022337 -0.001107 -0.016937 0.010389 0.057425 0.001018
# 6 -0.004907 -0.011633 0.002553 -0.013324 0.001018 0.056717
#
#
# Mechanical properties :
#
#
# Convention : Reuss Voigt Hill
#
# Bulk Modulus (GPa) = 16.64516 41.43533 29.04025
# Shear Modulus (GPa) = 20.36543 31.54967 25.95755
#
# Velocity S-wave (km/s) = 2.91442 3.62746 3.29031
# Velocity P-wave (km/s) = 4.27403 5.90136 5.15235
#
# Compressibility (1/GPa) = 0.06007751
#
# Stress axis : x y z
#
# Youngs Moduli (GPa) = 39.23030 52.46928 49.72116
#
# Poissons Ratio (x) = -0.17653 -0.05098
# Poissons Ratio (y) = -0.13199 0.33223
# Poissons Ratio (z) = -0.04023 0.35059
#
# Static dielectric constant tensor:
#      x y z
#    x 2.034000 -0.022470 0.020840 
#    y -0.022470 1.965120 0.031010 
#    z 0.020840 0.031010 1.950270 
# 
# From -- ./inp_files/283983.got.cif
#   From: 2010.05.17/outbox.cif.g08.bks.cpg/sg2_142_cif.got.tgz:283983.got - 2010.06.03 11:33:40.
