data_PCOD9094994
_publ_section_title
;
Structure prediction by ZEFSAII (Michael W. Deem and Ramdas Pophale) SiO2 
 PCOD9094994
Probable space group: P -1
;
_chemical_formula_sum "Si O2"
_cell_formula_units_Z 16
_cell_length_a 25.138150
_cell_length_b 9.872432
_cell_length_c 7.705885
_cell_angle_alpha 60.331493
_cell_angle_beta 36.320840
_cell_angle_gamma 51.873126
_cell_volume 891.044298
_symmetry_space_group_name_H-M "P -1"
_symmetry_group_IT_number 2
_symmetry_cell_setting 'triclinic'
loop_
_space_group_symop_operation_xyz
x,y,z
-x,-y,-z
loop_
_atom_site_type_symbol
_atom_site_label
_atom_site_fract_x
_atom_site_fract_y
_atom_site_fract_z
Si Si1 0.558545 0.556003 0.951508
Si Si2 0.303844 0.750485 0.981059
Si Si3 0.729192 0.912609 0.964752
Si Si4 0.748669 0.616227 0.327227
Si Si5 0.389634 0.151955 0.977628
Si Si6 0.888811 0.561286 0.690908
Si Si7 0.209770 0.501594 0.325836
Si Si8 0.420330 0.872952 0.347736
O O1 0.651143 0.581209 0.609635
O O2 0.500000 0.500000 0.000000
O O3 0.605284 0.407823 0.067222
O O4 0.487354 0.730663 0.122711
O O5 0.341487 0.814590 0.673370
O O6 0.268711 0.909248 0.106332
O O7 0.225003 0.674961 0.192416
O O8 0.719651 0.814163 0.225938
O O9 0.641486 0.925302 0.058158
O O10 0.830171 0.770188 0.704728
O O11 0.798228 0.561123 0.419629
O O12 0.824535 0.518448 0.034615
O O13 0.501996 0.129695 0.706017
O O14 0.311543 0.351029 0.075145
O O15 0.378629 0.050913 0.240051
O O16 0.875158 0.487373 0.590060
O O17 0.000000 0.500000 0.500000
#
# Coordination Sequence:
#
# PCOD9094994 Si02
#       8
#     2   2   2   2   2   2   2   2
#     4  11  23  33  51  84 117 155 194 230 276 330
#     4  11  22  34  52  82 115 153 184 234 289 325
#     4   9  21  37  57  79 115 145 190 233 291 331
#     4   9  20  37  60  79 118 145 192 228 286 329
#     4  10  20  35  51  77 111 158 196 236 260 330
#     4   9  21  39  67  87 102 144 197 233 289 356
#     4  10  20  39  58  82 117 146 181 237 295 333
#     4  11  22  32  53  78 115 154 210 221 269 329
#
# _framework density 17.956458000000001
#
# number of rings (size 3 to 8) (size 9 to 14) (size 15 to 20)
#    0.750    1.250    2.500    1.875    5.250    1.000 
#    0.000    0.625    0.000    3.000    0.000    0.000 
#    0.000    0.000    0.000    0.000    0.000    0.000 
#
# Total GULP energy -89203.327863 kJ/mol
# GULP energy per Si atom -5575.207991 kJ/mol
# Density = 1.791559 g / cm^3
# Si number density = 17.956458 Si / 1000 Ang^3
#
#
#
# Elastic Constant Matrix: (Units=GPa)
#
#
# Indices 1 2 3 4 5 6 
#
# 1 133.7025 32.8993 22.4614 0.0267 -19.6658 17.2398
# 2 32.8993 79.2915 10.0718 -12.0743 -11.1180 21.7455
# 3 22.4614 10.0718 22.9887 1.1626 -0.8380 2.2031
# 4 0.0267 -12.0743 1.1626 18.6968 -1.9030 4.8610
# 5 -19.6658 -11.1180 -0.8380 -1.9030 20.1625 -2.0635
# 6 17.2398 21.7455 2.2031 4.8610 -2.0635 26.7484
#
#
#
# Elastic Compliance Matrix: (Units=1/GPa)
#
#
# Indices 1 2 3 4 5 6 
#
# 1 0.011644 0.000569 -0.010762 0.003937 0.010883 -0.006957
# 2 0.000569 0.026323 -0.010508 0.025478 0.014540 -0.024409
# 3 -0.010762 -0.010508 0.057680 -0.015003 -0.014044 0.012371
# 4 0.003937 0.025478 -0.015003 0.082225 0.021413 -0.035305
# 5 0.010883 0.014540 -0.014044 0.021413 0.067996 -0.016324
# 6 -0.006957 -0.024409 0.012371 -0.035305 -0.016324 0.065851
#
#
# Mechanical properties :
#
#
# Convention : Reuss Voigt Hill
#
# Bulk Modulus (GPa) = 18.43482 40.76086 29.59784
# Shear Modulus (GPa) = 13.46972 24.49156 18.98064
#
# Velocity S-wave (km/s) = 2.74183 3.69716 3.25474
# Velocity P-wave (km/s) = 4.50690 6.40113 5.53564
#
# Compressibility (1/GPa) = 0.05424518
#
# Stress axis : x y z
#
# Youngs Moduli (GPa) = 85.87878 37.98956 17.33706
#
# Poissons Ratio (x) = -0.02162 0.18658
# Poissons Ratio (y) = -0.04887 0.18218
# Poissons Ratio (z) = 0.92424 0.39919
#
# Static dielectric constant tensor:
#      x y z
#    x 1.628300 0.006480 0.021670 
#    y 0.006480 1.632220 0.015150 
#    z 0.021670 0.015150 1.607990 
# 
# From -- ./inp_files/215142.got.cif
#   From: 2010.05.17/outbox.cif.g08.bks.cpg/sg2_108_cif.got.tgz:215142.got - 2010.06.03 11:33:40.
