data_PCOD9094477
_publ_section_title
;
Structure prediction by ZEFSAII (Michael W. Deem and Ramdas Pophale) SiO2 
 PCOD9094477
Probable space group: P -1
;
_chemical_formula_sum "Si O2"
_cell_formula_units_Z 16
_cell_length_a 9.761714
_cell_length_b 11.169122
_cell_length_c 12.651404
_cell_angle_alpha 126.680377
_cell_angle_beta 86.463350
_cell_angle_gamma 59.620443
_cell_volume 811.771180
_symmetry_space_group_name_H-M "P -1"
_symmetry_group_IT_number 2
_symmetry_cell_setting 'triclinic'
loop_
_space_group_symop_operation_xyz
x,y,z
-x,-y,-z
loop_
_atom_site_type_symbol
_atom_site_label
_atom_site_fract_x
_atom_site_fract_y
_atom_site_fract_z
Si Si1 0.142008 0.515017 0.044395
Si Si2 0.700434 0.675878 0.673015
Si Si3 0.864079 0.204554 0.680550
Si Si4 0.112818 0.391129 0.596065
Si Si5 0.505468 0.871099 0.073024
Si Si6 0.671566 0.064095 0.659812
Si Si7 0.488835 0.404372 0.221197
Si Si8 0.320322 0.441280 0.773675
O O1 0.052982 0.720604 0.217976
O O2 0.278151 0.325563 0.018279
O O3 0.251973 0.502522 0.931067
O O4 0.000000 0.500000 0.000000
O O5 0.772079 0.637444 0.528636
O O6 0.582596 0.614728 0.675537
O O7 0.893966 0.545573 0.660765
O O8 0.568087 0.911331 0.837933
O O9 0.761547 0.157146 0.731847
O O10 0.700887 0.393790 0.716593
O O11 0.000000 0.000000 0.500000
O O12 0.172062 0.456195 0.721898
O O13 0.182957 0.171712 0.501117
O O14 0.422395 0.916561 0.217909
O O15 0.440939 0.786870 0.953820
O O16 0.515910 0.206235 0.652331
O O17 0.631648 0.436754 0.220296
#
# Coordination Sequence:
#
# PCOD9094477 Si02
#       8
#     2   2   2   2   2   2   2   2
#     4  10  22  37  60  90 119 144 189 248 294 341
#     4  10  21  37  58  80 111 161 203 225 276 349
#     4  10  20  34  57  89 115 152 186 233 292 352
#     4  10  21  36  59  84 116 152 195 241 280 337
#     4   9  19  37  59  80 109 156 192 230 283 350
#     4   9  18  35  58  84 114 146 189 233 293 350
#     4  10  20  36  58  82 114 155 189 234 284 349
#     4  10  21  36  58  86 117 146 186 247 301 327
#
# _framework density 19.709987000000002
#
# number of rings (size 3 to 8) (size 9 to 14) (size 15 to 20)
#    0.000    2.250    0.000    2.250    5.250    3.500 
#    4.500    0.625    8.250    0.000    0.000    0.000 
#    0.000    0.000    0.000    0.000    0.000    0.000 
#
# Total GULP energy -89167.290839 kJ/mol
# GULP energy per Si atom -5572.955677 kJ/mol
# Density = 1.966513 g / cm^3
# Si number density = 19.709987 Si / 1000 Ang^3
#
#
#
# Elastic Constant Matrix: (Units=GPa)
#
#
# Indices 1 2 3 4 5 6 
#
# 1 76.9384 25.7005 27.3280 10.4367 11.5406 15.0000
# 2 25.7005 57.7531 31.9842 11.9111 2.3225 16.5266
# 3 27.3280 31.9842 98.3246 12.5914 11.6876 0.2964
# 4 10.4367 11.9111 12.5914 27.2195 6.3149 5.5825
# 5 11.5406 2.3225 11.6876 6.3149 22.9199 -2.9562
# 6 15.0000 16.5266 0.2964 5.5825 -2.9562 32.7825
#
#
#
# Elastic Compliance Matrix: (Units=1/GPa)
#
#
# Indices 1 2 3 4 5 6 
#
# 1 0.017883 -0.004183 -0.002563 -0.000628 -0.007960 -0.006662
# 2 -0.004183 0.027274 -0.007358 -0.005523 0.003257 -0.010535
# 3 -0.002563 -0.007358 0.014023 -0.002382 -0.003837 0.004815
# 4 -0.000628 -0.005523 -0.002382 0.044097 -0.010754 -0.005386
# 5 -0.007960 0.003257 -0.003837 -0.010754 0.053347 0.008677
# 6 -0.006662 -0.010535 0.004815 -0.005386 0.008677 0.040519
#
#
# Mechanical properties :
#
#
# Convention : Reuss Voigt Hill
#
# Bulk Modulus (GPa) = 32.28650 44.78238 38.53444
# Shear Modulus (GPa) = 21.21582 26.45127 23.83355
#
# Velocity S-wave (km/s) = 3.28441 3.66734 3.48114
# Velocity P-wave (km/s) = 5.54973 6.37985 5.97921
#
# Compressibility (1/GPa) = 0.03097270
#
# Stress axis : x y z
#
# Youngs Moduli (GPa) = 55.91961 36.66527 71.31275
#
# Poissons Ratio (x) = 0.15336 0.18278
# Poissons Ratio (y) = 0.23389 0.52469
# Poissons Ratio (z) = 0.14333 0.26977
#
# Static dielectric constant tensor:
#      x y z
#    x 1.732020 0.030070 -0.040900 
#    y 0.030070 1.722140 -0.009430 
#    z -0.040900 -0.009430 1.718700 
# 
# From -- ./inp_files/501006.got.cif
#   From: 2010.05.17/outbox.cif.g08.bks.cpg/sg2_251_cif.got.tgz:501006.got - 2010.06.03 11:33:40.
