data_PCOD9094600
_publ_section_title
;
Structure prediction by ZEFSAII (Michael W. Deem and Ramdas Pophale) SiO2 
 PCOD9094600
Probable space group: P -1
;
_chemical_formula_sum "Si O2"
_cell_formula_units_Z 16
_cell_length_a 9.240724
_cell_length_b 9.161733
_cell_length_c 15.830981
_cell_angle_alpha 92.438502
_cell_angle_beta 51.187559
_cell_angle_gamma 126.060613
_cell_volume 722.057583
_symmetry_space_group_name_H-M "P -1"
_symmetry_group_IT_number 2
_symmetry_cell_setting 'triclinic'
loop_
_space_group_symop_operation_xyz
x,y,z
-x,-y,-z
loop_
_atom_site_type_symbol
_atom_site_label
_atom_site_fract_x
_atom_site_fract_y
_atom_site_fract_z
Si Si1 0.716548 0.685913 0.175378
Si Si2 0.739827 0.623949 0.792372
Si Si3 0.162921 0.901058 0.881354
Si Si4 0.880684 0.715918 0.310357
Si Si5 0.717055 0.113024 0.336302
Si Si6 0.513471 0.752025 0.498678
Si Si7 0.515787 0.030546 0.102056
Si Si8 0.509437 0.744076 0.992656
O O1 0.428405 0.479213 0.235540
O O2 0.776053 0.671169 0.249759
O O3 0.770070 0.890805 0.152394
O O4 0.925158 0.742667 0.030719
O O5 0.693904 0.748099 0.865388
O O6 0.053396 0.766112 0.672612
O O7 0.615255 0.430261 0.895506
O O8 0.108590 0.801467 0.808890
O O9 0.415268 0.958109 0.827139
O O10 0.778375 0.803300 0.397976
O O11 0.729220 0.498032 0.407431
O O12 0.197524 0.869629 0.203216
O O13 0.543883 0.159756 0.406861
O O14 0.533379 0.866583 0.411603
O O15 0.654622 0.250725 0.014561
O O16 0.615969 0.939495 0.016211
#
# Coordination Sequence:
#
# PCOD9094600 Si02
#       8
#     2   2   2   2   2   2   2   2
#     4  11  23  39  66 101 132 163 206 260 325 393
#     4  11  22  38  62  96 131 172 207 254 325 384
#     4  11  23  39  66 101 132 163 206 260 325 393
#     4  11  23  44  66  92 130 171 216 268 315 371
#     4  11  23  44  66  92 130 171 216 268 315 371
#     4  10  24  44  66  88 124 178 224 266 308 362
#     4  11  22  38  62  96 131 172 207 254 325 384
#     4  10  20  34  58  92 134 168 198 244 316 400
#
# _framework density 22.158898000000001
#
# number of rings (size 3 to 8) (size 9 to 14) (size 15 to 20)
#    0.000    1.250    2.500    4.500    3.500    1.000 
#    0.000   10.000    0.000    0.000    0.000    0.000 
#    0.000    0.000    0.000    0.000    0.000    0.000 
#
# Total GULP energy -89196.894646 kJ/mol
# GULP energy per Si atom -5574.805915 kJ/mol
# Density = 2.210846 g / cm^3
# Si number density = 22.158898 Si / 1000 Ang^3
#
#
#
# Elastic Constant Matrix: (Units=GPa)
#
#
# Indices 1 2 3 4 5 6 
#
# 1 107.1007 37.5340 21.8950 -3.5466 -11.7541 11.1896
# 2 37.5340 62.9003 23.5540 10.5124 -15.2613 -18.1368
# 3 21.8950 23.5540 73.5881 5.3738 -17.4315 6.3746
# 4 -3.5466 10.5124 5.3738 31.1407 -4.4446 1.0519
# 5 -11.7541 -15.2613 -17.4315 -4.4446 16.5668 -5.7308
# 6 11.1896 -18.1368 6.3746 1.0519 -5.7308 46.1013
#
#
#
# Elastic Compliance Matrix: (Units=1/GPa)
#
#
# Indices 1 2 3 4 5 6 
#
# 1 0.014894 -0.013330 -0.000778 0.006055 -0.004160 -0.009407
# 2 -0.013330 0.041240 -0.003303 -0.011355 0.030293 0.023941
# 3 -0.000778 -0.003303 0.018693 0.000070 0.015480 -0.001773
# 4 0.006055 -0.011355 0.000070 0.037070 0.001572 -0.006597
# 5 -0.004160 0.030293 0.015480 0.001572 0.110496 0.024486
# 6 -0.009407 0.023941 -0.001773 -0.006597 0.024486 0.036833
#
#
# Mechanical properties :
#
#
# Convention : Reuss Voigt Hill
#
# Bulk Modulus (GPa) = 24.99624 45.50613 35.25119
# Shear Modulus (GPa) = 16.26629 29.46883 22.86756
#
# Velocity S-wave (km/s) = 2.71232 3.65072 3.21593
# Velocity P-wave (km/s) = 4.59498 6.19283 5.45275
#
# Compressibility (1/GPa) = 0.04000601
#
# Stress axis : x y z
#
# Youngs Moduli (GPa) = 67.13913 24.24803 53.49577
#
# Poissons Ratio (x) = 0.32324 0.04159
# Poissons Ratio (y) = 0.89500 0.17669
# Poissons Ratio (z) = 0.05220 0.08009
#
# Static dielectric constant tensor:
#      x y z
#    x 1.865160 0.002500 0.007100 
#    y 0.002500 1.853910 0.004290 
#    z 0.007100 0.004290 1.841310 
# 
# From -- ./inp_files/557236.got.cif
#   From: 2010.05.17/outbox.cif.g08.bks.cpg/sg2_279_cif.got.tgz:557236.got - 2010.06.03 11:33:40.
