data_PCOD9094913
_publ_section_title
;
Structure prediction by ZEFSAII (Michael W. Deem and Ramdas Pophale) SiO2 
 PCOD9094913
Probable space group: P -1
;
_chemical_formula_sum "Si O2"
_cell_formula_units_Z 12
_cell_length_a 7.912010
_cell_length_b 13.972549
_cell_length_c 8.806012
_cell_angle_alpha 104.926818
_cell_angle_beta 117.969388
_cell_angle_gamma 37.193545
_cell_volume 507.339928
_symmetry_space_group_name_H-M "P -1"
_symmetry_group_IT_number 2
_symmetry_cell_setting 'triclinic'
loop_
_space_group_symop_operation_xyz
x,y,z
-x,-y,-z
loop_
_atom_site_type_symbol
_atom_site_label
_atom_site_fract_x
_atom_site_fract_y
_atom_site_fract_z
Si Si1 0.771394 0.951745 0.785129
Si Si2 0.842662 0.306432 0.928159
Si Si3 0.696822 0.751280 0.060466
Si Si4 0.271749 0.753374 0.450484
Si Si5 0.639238 0.068826 0.453023
Si Si6 0.386857 0.419055 0.193857
O O1 0.530520 0.112042 0.853363
O O2 0.626687 0.904241 0.659558
O O3 0.800710 0.996081 0.657049
O O4 0.080998 0.800049 0.949076
O O5 0.039424 0.571558 0.186544
O O6 0.647187 0.489045 0.922105
O O7 0.188828 0.206818 0.984412
O O8 0.563108 0.711996 0.898899
O O9 0.301482 0.688586 0.276693
O O10 0.369383 0.653841 0.601624
O O11 0.908261 0.931974 0.389947
O O12 0.465962 0.775613 0.547057
#
# Coordination Sequence:
#
# PCOD9094913 Si02
#       6
#     2   2   2   2   2   2
#     4  11  21  40  58  88 111 149 198 228 278 338
#     4  10  20  34  64  84 110 149 189 235 278 334
#     4   9  19  35  61  85 108 156 186 230 274 345
#     4  11  21  38  57  88 114 151 187 232 289 332
#     4  10  24  36  60  83 119 149 186 241 277 332
#     4   9  20  35  60  85 114 150 190 228 280 345
#
# _framework density 23.65278
#
# number of rings (size 3 to 8) (size 9 to 14) (size 15 to 20)
#    1.000    1.000    1.667    2.000    4.667    0.667 
#    0.000    1.667    3.667    0.000    0.000    0.000 
#    0.000    0.000    0.000    0.000    0.000    0.000 
#
# Total GULP energy -66980.591231 kJ/mol
# GULP energy per Si atom -5581.715936 kJ/mol
# Density = 2.359895 g / cm^3
# Si number density = 23.652780 Si / 1000 Ang^3
#
#
#
# Elastic Constant Matrix: (Units=GPa)
#
#
# Indices 1 2 3 4 5 6 
#
# 1 39.0735 22.8204 1.1809 5.8574 -5.2657 1.3700
# 2 22.8204 90.6456 37.4559 5.7457 -7.6606 -1.7285
# 3 1.1809 37.4559 85.3789 -14.8890 -5.2274 8.5026
# 4 5.8574 5.7457 -14.8890 38.8974 5.2578 -6.0197
# 5 -5.2657 -7.6606 -5.2274 5.2578 20.8968 -0.7373
# 6 1.3700 -1.7285 8.5026 -6.0197 -0.7373 36.4972
#
#
#
# Elastic Compliance Matrix: (Units=1/GPa)
#
#
# Indices 1 2 3 4 5 6 
#
# 1 0.032147 -0.008817 0.003495 -0.003530 0.006529 -0.002889
# 2 -0.008817 0.017274 -0.008274 -0.004457 0.003247 0.002407
# 3 0.003495 -0.008274 0.016789 0.006567 0.000277 -0.003346
# 4 -0.003530 -0.004457 0.006567 0.031091 -0.008585 0.003346
# 5 0.006529 0.003247 0.000277 -0.008585 0.052902 -0.000503
# 6 -0.002889 0.002407 -0.003346 0.003346 -0.000503 0.028943
#
#
# Mechanical properties :
#
#
# Convention : Reuss Voigt Hill
#
# Bulk Modulus (GPa) = 25.62916 37.55695 31.59305
# Shear Modulus (GPa) = 22.79531 29.50098 26.14814
#
# Velocity S-wave (km/s) = 3.10780 3.53548 3.32851
# Velocity P-wave (km/s) = 4.87206 5.70781 5.30641
#
# Compressibility (1/GPa) = 0.03901806
#
# Stress axis : x y z
#
# Youngs Moduli (GPa) = 31.10712 57.89193 59.56110
#
# Poissons Ratio (x) = 0.51043 -0.20818
# Poissons Ratio (y) = 0.27427 0.49282
# Poissons Ratio (z) = -0.10873 0.47901
#
# Static dielectric constant tensor:
#      x y z
#    x 1.930540 0.013620 0.006760 
#    y 0.013620 1.896090 -0.030500 
#    z 0.006760 -0.030500 1.908480 
# 
# From -- ./inp_files/189501.got.cif
#   From: 2010.05.17/outbox.cif.g08.bks.cpg/sg2_95_cif.got.tgz:189501.got - 2010.06.03 11:33:40.
