data_PCOD9094539
_publ_section_title
;
Structure prediction by ZEFSAII (Michael W. Deem and Ramdas Pophale) SiO2 
 PCOD9094539
Probable space group: P -1
;
_chemical_formula_sum "Si O2"
_cell_formula_units_Z 16
_cell_length_a 10.908370
_cell_length_b 7.094026
_cell_length_c 16.984972
_cell_angle_alpha 146.609481
_cell_angle_beta 52.475153
_cell_angle_gamma 120.416622
_cell_volume 573.676065
_symmetry_space_group_name_H-M "P -1"
_symmetry_group_IT_number 2
_symmetry_cell_setting 'triclinic'
loop_
_space_group_symop_operation_xyz
x,y,z
-x,-y,-z
loop_
_atom_site_type_symbol
_atom_site_label
_atom_site_fract_x
_atom_site_fract_y
_atom_site_fract_z
Si Si1 0.549611 0.018581 0.790844
Si Si2 0.704663 0.754096 0.402166
Si Si3 0.085079 0.171673 0.232571
Si Si4 0.234053 0.425368 0.522963
Si Si5 0.400017 0.594433 0.260419
Si Si6 0.266107 0.366857 0.994222
Si Si7 0.274986 0.562750 0.886919
Si Si8 0.054311 0.856801 0.307671
O O1 0.565485 0.219968 0.771315
O O2 0.366492 0.070737 0.892733
O O3 0.623922 0.641590 0.619081
O O4 0.639423 0.271513 0.903077
O O5 0.680713 0.521300 0.408378
O O6 0.726809 0.624296 0.260584
O O7 0.876799 0.869842 0.399231
O O8 0.600950 0.089195 0.568480
O O9 0.233416 0.421250 0.260594
O O10 0.914756 0.326383 0.337361
O O11 0.074420 0.042718 0.281374
O O12 0.145355 0.854976 0.046321
O O13 0.150640 0.064929 0.406168
O O14 0.542828 0.347922 0.141170
O O15 0.242473 0.334295 0.898876
O O16 0.111858 0.467027 0.136727
#
# Coordination Sequence:
#
# PCOD9094539 Si02
#       8
#     2   2   2   2   2   2   2   2
#     4   8  16  31  54  83 105 141 189 232 268 315
#     4  11  22  36  61  83 113 150 189 230 277 334
#     4  11  22  35  59  86 115 146 181 236 289 324
#     4  10  20  34  58  85 110 146 190 234 274 330
#     4  10  20  36  61  83 108 149 195 235 266 331
#     4   8  16  31  53  79 110 140 182 232 269 315
#     4  10  22  38  54  85 115 150 187 228 283 335
#     4  10  20  35  59  86 110 146 191 234 273 333
#
# _framework density 27.890305999999999
#
# number of rings (size 3 to 8) (size 9 to 14) (size 15 to 20)
#    0.000    2.250    1.250    1.500    3.500    2.500 
#    0.000    0.000    2.750    0.750    0.000    0.000 
#    0.000    0.000    0.000    0.000    0.000    0.000 
#
# Total GULP energy -89462.784283 kJ/mol
# GULP energy per Si atom -5591.424018 kJ/mol
# Density = 2.782683 g / cm^3
# Si number density = 27.890306 Si / 1000 Ang^3
#
#
#
# Elastic Constant Matrix: (Units=GPa)
#
#
# Indices 1 2 3 4 5 6 
#
# 1 126.3206 18.3214 80.1020 3.1126 -23.4484 -30.3009
# 2 18.3214 74.2312 35.5644 -10.9263 1.3933 -18.8924
# 3 80.1020 35.5644 213.9852 -29.0301 -13.5500 -35.3966
# 4 3.1126 -10.9263 -29.0301 36.4524 -15.3755 3.8073
# 5 -23.4484 1.3933 -13.5500 -15.3755 78.5529 -2.8332
# 6 -30.3009 -18.8924 -35.3966 3.8073 -2.8332 40.0393
#
#
#
# Elastic Compliance Matrix: (Units=1/GPa)
#
#
# Indices 1 2 3 4 5 6 
#
# 1 0.012587 -0.000173 -0.003979 -0.003899 0.002544 0.006476
# 2 -0.000173 0.016123 -0.001090 0.003492 0.000382 0.006208
# 3 -0.003979 -0.001090 0.007813 0.006600 0.001574 0.002865
# 4 -0.003899 0.003492 0.006600 0.036946 0.007199 0.001528
# 5 0.002544 0.000382 0.001574 0.007199 0.015304 0.003896
# 6 0.006476 0.006208 0.002865 0.001528 0.003896 0.035469
#
#
# Mechanical properties :
#
#
# Convention : Reuss Voigt Hill
#
# Bulk Modulus (GPa) = 38.40631 75.83473 57.12052
# Shear Modulus (GPa) = 34.86583 49.71222 42.28903
#
# Velocity S-wave (km/s) = 3.53952 4.22645 3.89815
# Velocity P-wave (km/s) = 5.52310 7.14609 6.38636
#
# Compressibility (1/GPa) = 0.02603739
#
# Stress axis : x y z
#
# Youngs Moduli (GPa) = 79.44834 62.02236 127.99162
#
# Poissons Ratio (x) = 0.01076 0.50933
# Poissons Ratio (y) = 0.01378 0.13950
# Poissons Ratio (z) = 0.31616 0.06760
#
# Static dielectric constant tensor:
#      x y z
#    x 2.179080 0.071160 -0.098460 
#    y 0.071160 2.350560 -0.032620 
#    z -0.098460 -0.032620 2.231830 
# 
# From -- ./inp_files/392529.got.cif
#   From: 2010.05.17/outbox.cif.g08.bks.cpg/sg2_197_cif.got.tgz:392529.got - 2010.06.03 11:33:40.
