data_PCOD9094064
_publ_section_title
;
Structure prediction by ZEFSAII (Michael W. Deem and Ramdas Pophale) SiO2 
 PCOD9094064
Probable space group: P -1
;
_chemical_formula_sum "Si O2"
_cell_formula_units_Z 16
_cell_length_a 8.557847
_cell_length_b 10.319401
_cell_length_c 22.106228
_cell_angle_alpha 37.629349
_cell_angle_beta 55.653670
_cell_angle_gamma 37.877418
_cell_volume 722.089150
_symmetry_space_group_name_H-M "P -1"
_symmetry_group_IT_number 2
_symmetry_cell_setting 'triclinic'
loop_
_space_group_symop_operation_xyz
x,y,z
-x,-y,-z
loop_
_atom_site_type_symbol
_atom_site_label
_atom_site_fract_x
_atom_site_fract_y
_atom_site_fract_z
Si Si1 0.262465 0.704566 0.930317
Si Si2 0.472506 0.430234 0.200748
Si Si3 0.965181 0.811983 0.117548
Si Si4 0.696542 0.172095 0.501339
Si Si5 0.259307 0.049866 0.057301
Si Si6 0.487352 0.151992 0.807466
Si Si7 0.273777 0.786954 0.650613
Si Si8 0.330461 0.858376 0.350961
O O1 0.333206 0.652993 0.864013
O O2 0.151187 0.017560 0.856874
O O3 0.500000 0.500000 0.000000
O O4 0.034277 0.707996 0.989975
O O5 0.343815 0.747094 0.134199
O O6 0.602181 0.235499 0.304433
O O7 0.236977 0.499962 0.190003
O O8 0.747967 0.825120 0.134127
O O9 0.000000 0.000000 0.000000
O O10 0.656846 0.131627 0.455346
O O11 0.520786 0.512778 0.426433
O O12 0.646212 0.078476 0.608316
O O13 0.000000 0.000000 0.500000
O O14 0.273435 0.067706 0.119468
O O15 0.500000 0.000000 0.000000
O O16 0.382061 0.468948 0.727893
O O17 0.582114 0.056097 0.753712
O O18 0.964759 0.995233 0.647609
#
# Coordination Sequence:
#
# PCOD9094064 Si02
#       8
#     2   2   2   2   2   2   2   2
#     4  11  22  36  54  72  99 144 189 226 278 333
#     4  10  21  36  52  74 105 143 183 226 274 334
#     4  11  22  39  54  72 108 149 191 233 279 322
#     4   8  15  29  54  83 112 141 161 209 274 333
#     4  10  22  36  53  75 106 138 183 239 281 319
#     4  10  20  34  53  79 107 140 182 234 273 316
#     4   9  18  33  54  82 109 137 175 221 276 324
#     4   9  16  30  52  84 113 131 173 218 268 328
#
# _framework density 22.157927000000001
#
# number of rings (size 3 to 8) (size 9 to 14) (size 15 to 20)
#    0.000    2.250    1.250    2.250    0.000    2.500 
#    2.250    0.000    0.000    0.750    0.000   30.625 
#    0.000    0.000    0.000    0.000    0.000    0.000 
#
# Total GULP energy -89123.907089 kJ/mol
# GULP energy per Si atom -5570.244193 kJ/mol
# Density = 2.210749 g / cm^3
# Si number density = 22.157927 Si / 1000 Ang^3
#
#
#
# Elastic Constant Matrix: (Units=GPa)
#
#
# Indices 1 2 3 4 5 6 
#
# 1 79.4138 31.2977 48.6236 8.5866 29.7682 -24.4258
# 2 31.2977 105.7266 47.0779 14.7330 22.7512 -20.3050
# 3 48.6236 47.0779 115.3016 29.7780 45.5022 -8.6763
# 4 8.5866 14.7330 29.7780 44.1623 8.3690 8.6403
# 5 29.7682 22.7512 45.5022 8.3690 38.6377 -6.7116
# 6 -24.4258 -20.3050 -8.6763 8.6403 -6.7116 35.7771
#
#
#
# Elastic Compliance Matrix: (Units=1/GPa)
#
#
# Indices 1 2 3 4 5 6 
#
# 1 0.023473 0.000130 -0.004221 -0.002509 -0.010257 0.013757
# 2 0.000130 0.013126 -0.003207 -0.003240 -0.002108 0.007147
# 3 -0.004221 -0.003207 0.020988 -0.008714 -0.017837 -0.000854
# 4 -0.002509 -0.003240 -0.008714 0.031524 0.005136 -0.012315
# 5 -0.010257 -0.002108 -0.017837 0.005136 0.054298 -0.003580
# 6 0.013757 0.007147 -0.000854 -0.012315 -0.003580 0.043495
#
#
# Mechanical properties :
#
#
# Convention : Reuss Voigt Hill
#
# Bulk Modulus (GPa) = 23.26099 61.60448 42.43274
# Shear Modulus (GPa) = 23.16634 35.27826 29.22230
#
# Velocity S-wave (km/s) = 3.23694 3.99448 3.63549
# Velocity P-wave (km/s) = 4.94884 7.00980 6.06747
#
# Compressibility (1/GPa) = 0.04299043
#
# Stress axis : x y z
#
# Youngs Moduli (GPa) = 42.60211 76.18445 47.64714
#
# Poissons Ratio (x) = -0.00989 0.20110
# Poissons Ratio (y) = -0.00553 0.15282
# Poissons Ratio (z) = 0.17980 0.24435
#
# Static dielectric constant tensor:
#      x y z
#    x 1.860960 -0.042880 0.044640 
#    y -0.042880 1.885360 -0.006530 
#    z 0.044640 -0.006530 1.911130 
# 
# From -- ./inp_files/56851.got.cif
#   From: 2010.05.17/outbox.cif.g08.bks.cpg/sg2_29_cif.got.tgz:56851.got - 2010.06.03 11:33:40.
