data_PCOD9094037
_publ_section_title
;
Structure prediction by ZEFSAII (Michael W. Deem and Ramdas Pophale) SiO2 
 PCOD9094037
Probable space group: P -1
;
_chemical_formula_sum "Si O2"
_cell_formula_units_Z 14
_cell_length_a 24.705011
_cell_length_b 8.536641
_cell_length_c 7.950560
_cell_angle_alpha 51.026224
_cell_angle_beta 35.597427
_cell_angle_gamma 34.340219
_cell_volume 545.959379
_symmetry_space_group_name_H-M "P -1"
_symmetry_group_IT_number 2
_symmetry_cell_setting 'triclinic'
loop_
_space_group_symop_operation_xyz
x,y,z
-x,-y,-z
loop_
_atom_site_type_symbol
_atom_site_label
_atom_site_fract_x
_atom_site_fract_y
_atom_site_fract_z
Si Si1 0.873590 0.579003 0.701756
Si Si2 0.753478 0.045976 0.942447
Si Si3 0.774122 0.456728 0.547507
Si Si4 0.536770 0.474865 0.675554
Si Si5 0.515610 0.825798 0.794884
Si Si6 0.294605 0.480397 0.926495
Si Si7 0.004876 0.749459 0.702435
O O1 0.903791 0.527345 0.460987
O O2 0.000000 0.500000 0.500000
O O3 0.768408 0.854212 0.891172
O O4 0.828683 0.412836 0.940144
O O5 0.786048 0.202051 0.649739
O O6 0.604217 0.276381 0.216189
O O7 0.862201 0.885516 0.922788
O O8 0.653412 0.714583 0.572065
O O9 0.911338 0.364040 0.261305
O O10 0.729090 0.510667 0.821078
O O11 0.537731 0.624581 0.732370
O O12 0.659182 0.368796 0.337376
O O13 0.538507 0.237088 0.877077
O O14 0.412977 0.153863 0.802513
O O15 0.000000 0.000000 0.500000
#
# Coordination Sequence:
#
# PCOD9094037 Si02
#       7
#     2   2   2   2   2   2   2
#     4   9  17  29  52  80 101 140 184 221 261 322
#     4   9  16  30  49  77 106 138 182 222 262 320
#     4   9  19  32  52  81 107 144 179 226 273 318
#     4  10  21  34  55  84 109 145 182 225 269 323
#     4  10  20  34  52  82 114 143 176 227 276 319
#     4  11  20  35  57  82 108 144 188 220 271 325
#     4   8  15  29  49  76 103 139 185 220 262 321
#
# _framework density 25.642931999999998
#
# number of rings (size 3 to 8) (size 9 to 14) (size 15 to 20)
#    0.000    2.571    1.429    0.857    0.000    2.286 
#    0.000    0.000    0.000    1.714    3.714    0.000 
#    0.000    0.000    0.000    0.000    0.000    0.000 
#
# Total GULP energy -77971.575254 kJ/mol
# GULP energy per Si atom -5569.398232 kJ/mol
# Density = 2.558457 g / cm^3
# Si number density = 25.642932 Si / 1000 Ang^3
#
#
#
# Elastic Constant Matrix: (Units=GPa)
#
#
# Indices 1 2 3 4 5 6 
#
# 1 125.4322 12.3528 29.5350 2.4455 -50.3119 3.1243
# 2 12.3528 59.9478 23.4666 -8.0005 1.1266 6.1574
# 3 29.5350 23.4666 76.2081 -3.5436 -24.3531 -18.5710
# 4 2.4455 -8.0005 -3.5436 28.0119 -2.3898 0.7597
# 5 -50.3119 1.1266 -24.3531 -2.3898 37.7991 20.7304
# 6 3.1243 6.1574 -18.5710 0.7597 20.7304 37.6601
#
#
#
# Elastic Compliance Matrix: (Units=1/GPa)
#
#
# Indices 1 2 3 4 5 6 
#
# 1 0.046550 -0.005342 0.000047 0.003696 0.091747 -0.053543
# 2 -0.005342 0.022116 -0.008754 0.004595 -0.012835 -0.000517
# 3 0.000047 -0.008754 0.020596 0.000836 0.010460 0.005809
# 4 0.003696 0.004595 0.000836 0.038054 0.012178 -0.008117
# 5 0.091747 -0.012835 0.010460 0.012178 0.224601 -0.124234
# 6 -0.053543 -0.000517 0.005809 -0.008117 -0.124234 0.102494
#
#
# Mechanical properties :
#
#
# Convention : Reuss Voigt Hill
#
# Bulk Modulus (GPa) = 16.34921 43.58853 29.96887
# Shear Modulus (GPa) = 9.94242 33.77647 21.85944
#
# Velocity S-wave (km/s) = 1.97121 3.63324 2.92285
# Velocity P-wave (km/s) = 3.40154 5.88521 4.80657
#
# Compressibility (1/GPa) = 0.06116505
#
# Stress axis : x y z
#
# Youngs Moduli (GPa) = 21.48249 45.21597 48.55209
#
# Poissons Ratio (x) = 0.24154 -0.00229
# Poissons Ratio (y) = 0.11476 0.42502
# Poissons Ratio (z) = -0.00101 0.39581
#
# Static dielectric constant tensor:
#      x y z
#    x 2.070210 -0.027350 0.035970 
#    y -0.027350 2.102320 0.075170 
#    z 0.035970 0.075170 2.159830 
# 
# From -- ./inp_files/178342.got.cif
#   From: 2010.05.17/outbox.cif.g08.bks.cpg/sg2_90_cif.got.tgz:178342.got - 2010.06.03 11:33:40.
