data_PCOD9094982
_publ_section_title
;
Structure prediction by ZEFSAII (Michael W. Deem and Ramdas Pophale) SiO2 
 PCOD9094982
Probable space group: P -1
;
_chemical_formula_sum "Si O2"
_cell_formula_units_Z 16
_cell_length_a 14.735878
_cell_length_b 15.175860
_cell_length_c 17.402418
_cell_angle_alpha 116.228398
_cell_angle_beta 53.800583
_cell_angle_gamma 159.938566
_cell_volume 983.744993
_symmetry_space_group_name_H-M "P -1"
_symmetry_group_IT_number 2
_symmetry_cell_setting 'triclinic'
loop_
_space_group_symop_operation_xyz
x,y,z
-x,-y,-z
loop_
_atom_site_type_symbol
_atom_site_label
_atom_site_fract_x
_atom_site_fract_y
_atom_site_fract_z
Si Si1 0.586279 0.989153 0.174230
Si Si2 0.385489 0.743628 0.466843
Si Si3 0.166103 0.984342 0.761380
Si Si4 0.781037 0.868712 0.920902
Si Si5 0.233230 0.783412 0.984237
Si Si6 0.352139 0.886257 0.408167
Si Si7 0.847077 0.632616 0.048776
Si Si8 0.622100 0.386808 0.835954
O O1 0.578992 0.053002 0.128091
O O2 0.519146 0.990812 0.286198
O O3 0.350094 0.701065 0.177930
O O4 0.938246 0.226485 0.078286
O O5 0.378805 0.818285 0.429430
O O6 0.028266 0.410852 0.528154
O O7 0.636075 0.868470 0.359197
O O8 0.495719 0.894185 0.543875
O O9 0.933197 0.887247 0.840670
O O10 0.947928 0.709409 0.777500
O O11 0.418212 0.205099 0.789794
O O12 0.520840 0.679194 0.911509
O O13 0.583892 0.717325 0.041021
O O14 0.054062 0.175518 0.908130
O O15 0.000000 0.500000 0.000000
O O16 0.995408 0.683561 0.059693
O O17 0.500000 0.000000 0.000000
#
# Coordination Sequence:
#
# PCOD9094982 Si02
#       8
#     2   2   2   2   2   2   2   2
#     4   9  21  34  56  72 107 136 169 206 261 308
#     4  10  22  32  47  71  97 139 185 219 231 285
#     4  12  22  33  48  71 106 140 190 213 240 273
#     4  11  20  34  48  73 102 142 177 209 242 299
#     4  10  21  36  56  79 106 128 160 211 265 325
#     4  10  20  35  49  67 100 138 179 209 260 279
#     4   9  21  34  53  76 103 134 165 199 264 313
#     4  11  21  32  49  72 102 145 175 210 240 306
#
# _framework density 16.264377
#
# number of rings (size 3 to 8) (size 9 to 14) (size 15 to 20)
#    0.750    1.000    1.250    4.500    3.500    2.000 
#    0.000    0.000    0.000    0.000    0.000    0.000 
#    0.000   20.000    0.000    0.000    0.000    0.000 
#
# Total GULP energy -89219.354163 kJ/mol
# GULP energy per Si atom -5576.209635 kJ/mol
# Density = 1.622736 g / cm^3
# Si number density = 16.264377 Si / 1000 Ang^3
#
#
#
# Elastic Constant Matrix: (Units=GPa)
#
#
# Indices 1 2 3 4 5 6 
#
# 1 56.4019 40.1910 38.6351 3.8546 8.7617 -1.6844
# 2 40.1910 112.1459 43.8960 6.3207 0.8646 11.7526
# 3 38.6351 43.8960 97.2600 12.1326 -4.1579 -0.1048
# 4 3.8546 6.3207 12.1326 14.1527 2.4558 2.5652
# 5 8.7617 0.8646 -4.1579 2.4558 15.6130 1.3885
# 6 -1.6844 11.7526 -0.1048 2.5652 1.3885 20.1126
#
#
#
# Elastic Compliance Matrix: (Units=1/GPa)
#
#
# Indices 1 2 3 4 5 6 
#
# 1 0.036606 -0.009536 -0.012240 0.007471 -0.025282 0.009366
# 2 -0.009536 0.014237 -0.002321 -0.000931 0.004922 -0.009351
# 3 -0.012240 -0.002321 0.018568 -0.014218 0.014066 0.001271
# 4 0.007471 -0.000931 -0.014218 0.086368 -0.020757 -0.008487
# 5 -0.025282 0.004922 0.014066 -0.020757 0.085703 -0.008189
# 6 0.009366 -0.009351 0.001271 -0.008487 -0.008189 0.057623
#
#
# Mechanical properties :
#
#
# Convention : Reuss Voigt Hill
#
# Bulk Modulus (GPa) = 47.13216 56.80578 51.96897
# Shear Modulus (GPa) = 14.10947 19.51471 16.81209
#
# Velocity S-wave (km/s) = 2.94854 3.46763 3.21857
# Velocity P-wave (km/s) = 6.37445 7.14388 6.77010
#
# Compressibility (1/GPa) = 0.02121693
#
# Stress axis : x y z
#
# Youngs Moduli (GPa) = 27.31812 70.23720 53.85614
#
# Poissons Ratio (x) = 0.66975 0.65921
# Poissons Ratio (y) = 0.26049 0.12502
# Poissons Ratio (z) = 0.33438 0.16305
#
# Static dielectric constant tensor:
#      x y z
#    x 1.558490 0.001270 0.004330 
#    y 0.001270 1.587030 -0.030040 
#    z 0.004330 -0.030040 1.580910 
# 
# From -- ./inp_files/573969.got.cif
#   From: 2010.05.17/outbox.cif.g08.bks.cpg/sg2_287_cif.got.tgz:573969.got - 2010.06.03 11:33:40.
