data_PCOD9094431
_publ_section_title
;
Structure prediction by ZEFSAII (Michael W. Deem and Ramdas Pophale) SiO2 
 PCOD9094431
Probable space group: P -1
;
_chemical_formula_sum "Si O2"
_cell_formula_units_Z 16
_cell_length_a 18.192498
_cell_length_b 7.842646
_cell_length_c 5.445865
_cell_angle_alpha 122.721292
_cell_angle_beta 94.798315
_cell_angle_gamma 71.871545
_cell_volume 617.767490
_symmetry_space_group_name_H-M "P -1"
_symmetry_group_IT_number 2
_symmetry_cell_setting 'triclinic'
loop_
_space_group_symop_operation_xyz
x,y,z
-x,-y,-z
loop_
_atom_site_type_symbol
_atom_site_label
_atom_site_fract_x
_atom_site_fract_y
_atom_site_fract_z
Si Si1 0.493278 0.254119 0.673798
Si Si2 0.313298 0.432026 0.784673
Si Si3 0.913388 0.177645 0.356934
Si Si4 0.072648 0.273316 0.502299
Si Si5 0.287114 0.210979 0.110347
Si Si6 0.169464 0.796466 0.147527
Si Si7 0.444819 0.847051 0.885121
Si Si8 0.888194 0.725616 0.988791
O O1 0.403282 0.381977 0.709460
O O2 0.543959 0.268784 0.463488
O O3 0.500000 0.000000 0.500000
O O4 0.524947 0.294632 0.977582
O O5 0.311367 0.309666 0.945776
O O6 0.258860 0.670775 0.016889
O O7 0.280219 0.347058 0.466056
O O8 0.876209 0.250898 0.137996
O O9 0.919458 0.927460 0.163435
O O10 0.858120 0.270722 0.649658
O O11 0.999074 0.189875 0.422402
O O12 0.082800 0.393174 0.842942
O O13 0.146806 0.053693 0.351874
O O14 0.077461 0.391491 0.343228
O O15 0.356303 0.992583 0.006658
O O16 0.203926 0.192612 0.001804
O O17 0.500000 0.000000 0.000000
#
# Coordination Sequence:
#
# PCOD9094431 Si02
#       8
#     2   2   2   2   2   2   2   2
#     4  10  16  30  48  69  98 135 182 201 228 293
#     4  12  21  32  50  78 118 136 160 215 259 315
#     4  10  19  38  62  75  93 130 188 228 242 295
#     4  10  19  38  62  75  93 130 188 228 242 295
#     4  12  21  32  50  78 118 136 160 215 259 315
#     4  10  20  32  54  84 100 131 171 223 262 290
#     4  10  16  30  48  69  98 135 182 201 228 293
#     4  10  20  32  54  84 100 131 171 223 262 290
#
# _framework density 25.899712000000001
#
# number of rings (size 3 to 8) (size 9 to 14) (size 15 to 20)
#    0.000    1.500    5.000    5.250    0.000    0.000 
#    0.000    0.000    0.000   25.500    0.000   21.000 
#    0.000    0.000    0.000    0.000    0.000    0.000 
#
# Total GULP energy -89650.520725 kJ/mol
# GULP energy per Si atom -5603.157545 kJ/mol
# Density = 2.584076 g / cm^3
# Si number density = 25.899712 Si / 1000 Ang^3
#
#
#
# Elastic Constant Matrix: (Units=GPa)
#
#
# Indices 1 2 3 4 5 6 
#
# 1 71.2409 28.1730 27.4947 1.5833 -3.9903 -12.9229
# 2 28.1730 97.0715 48.3648 -1.2288 -3.6618 -14.8797
# 3 27.4947 48.3648 200.4674 -32.7527 -30.0331 1.9824
# 4 1.5833 -1.2288 -32.7527 67.5838 -2.5179 -14.7559
# 5 -3.9903 -3.6618 -30.0331 -2.5179 48.4795 -0.3102
# 6 -12.9229 -14.8797 1.9824 -14.7559 -0.3102 38.5365
#
#
#
# Elastic Compliance Matrix: (Units=1/GPa)
#
#
# Indices 1 2 3 4 5 6 
#
# 1 0.016782 -0.003452 -0.001524 -0.000253 0.000191 0.004278
# 2 -0.003452 0.013377 -0.003011 -0.000295 -0.001129 0.004040
# 3 -0.001524 -0.003011 0.007128 0.003443 0.004237 -0.000688
# 4 -0.000253 -0.000295 0.003443 0.018009 0.003067 0.006544
# 5 0.000191 -0.001129 0.004237 0.003067 0.023347 0.000773
# 6 0.004278 0.004040 -0.000688 0.006544 0.000773 0.031492
#
#
# Mechanical properties :
#
#
# Convention : Reuss Voigt Hill
#
# Bulk Modulus (GPa) = 46.91893 64.09386 55.50639
# Shear Modulus (GPa) = 37.53400 48.56979 43.05190
#
# Velocity S-wave (km/s) = 3.81097 4.33517 4.08150
# Velocity P-wave (km/s) = 6.12533 7.06109 6.60979
#
# Compressibility (1/GPa) = 0.02131336
#
# Stress axis : x y z
#
# Youngs Moduli (GPa) = 59.58614 74.75673 140.29196
#
# Poissons Ratio (x) = 0.25803 0.21383
# Poissons Ratio (y) = 0.20567 0.42244
# Poissons Ratio (z) = 0.09082 0.22510
#
# Static dielectric constant tensor:
#      x y z
#    x 1.994960 0.062860 -0.031710 
#    y 0.062860 2.065580 -0.004110 
#    z -0.031710 -0.004110 2.177320 
# 
# From -- ./inp_files/109874.got.cif
#   From: 2010.05.17/outbox.cif.g08.bks.cpg/sg2_55_cif.got.tgz:109874.got - 2010.06.03 11:33:40.
