data_PCOD9094540
_publ_section_title
;
Structure prediction by ZEFSAII (Michael W. Deem and Ramdas Pophale) SiO2 
 PCOD9094540
Probable space group: P -1
;
_chemical_formula_sum "Si O2"
_cell_formula_units_Z 12
_cell_length_a 26.568165
_cell_length_b 15.077481
_cell_length_c 6.277791
_cell_angle_alpha 62.642114
_cell_angle_beta 54.274626
_cell_angle_gamma 17.921299
_cell_volume 579.941393
_symmetry_space_group_name_H-M "P -1"
_symmetry_group_IT_number 2
_symmetry_cell_setting 'triclinic'
loop_
_space_group_symop_operation_xyz
x,y,z
-x,-y,-z
loop_
_atom_site_type_symbol
_atom_site_label
_atom_site_fract_x
_atom_site_fract_y
_atom_site_fract_z
Si Si1 0.494553 0.857208 0.086797
Si Si2 0.112286 0.729554 0.462085
Si Si3 0.195295 0.167405 0.252546
Si Si4 0.038221 0.214333 0.505401
Si Si5 0.746974 0.618239 0.142437
Si Si6 0.255393 0.211582 0.676100
O O1 0.371471 0.957445 0.163696
O O2 0.448409 0.912941 0.388124
O O3 0.719758 0.508706 0.863312
O O4 0.415934 0.083765 0.937765
O O5 0.969763 0.862484 0.563525
O O6 0.228823 0.515062 0.621683
O O7 0.000000 0.000000 0.500000
O O8 0.000000 0.500000 0.500000
O O9 0.212665 0.020549 0.360965
O O10 0.201385 0.197350 0.960345
O O11 0.898890 0.511488 0.417025
O O12 0.935701 0.333049 0.841824
O O13 0.739415 0.712507 0.241660
#
# Coordination Sequence:
#
# PCOD9094540 Si02
#       6
#     2   2   2   2   2   2
#     4  10  21  35  59  88 114 145 187 234 285 330
#     4  11  25  41  55  78 116 159 195 229 273 331
#     4  11  18  33  56  94 118 140 175 237 293 338
#     4  10  20  34  58  85 113 151 184 230 284 333
#     4   9  19  36  59  85 114 143 189 234 284 330
#     4   9  17  31  57  88 121 136 178 233 294 331
#
# _framework density 20.691745000000001
#
# number of rings (size 3 to 8) (size 9 to 14) (size 15 to 20)
#    0.000    2.000    5.000    1.000    0.000    9.333 
#    0.000    0.833    0.000    2.000    0.000    0.000 
#    0.000    0.000    0.000    0.000    0.000    0.000 
#
# Total GULP energy -66808.272905 kJ/mol
# GULP energy per Si atom -5567.356075 kJ/mol
# Density = 2.064465 g / cm^3
# Si number density = 20.691745 Si / 1000 Ang^3
#
#
#
# Elastic Constant Matrix: (Units=GPa)
#
#
# Indices 1 2 3 4 5 6 
#
# 1 146.8066 33.8028 26.1923 -10.8513 -10.5774 4.3195
# 2 33.8028 36.5361 15.5633 7.8376 -5.3812 19.7116
# 3 26.1923 15.5633 130.6115 -5.0341 11.5671 12.8405
# 4 -10.8513 7.8376 -5.0341 2.7734 -11.3360 4.4119
# 5 -10.5774 -5.3812 11.5671 -11.3360 34.6434 -5.1346
# 6 4.3195 19.7116 12.8405 4.4119 -5.1346 31.5171
#
#
#
# Elastic Compliance Matrix: (Units=1/GPa)
#
#
# Indices 1 2 3 4 5 6 
#
# 1 0.003557 0.002051 -0.001680 -0.032660 -0.008408 0.002117
# 2 0.002051 0.025896 -0.000757 0.072914 0.025466 -0.022227
# 3 -0.001680 -0.000757 0.008773 -0.000996 -0.004397 -0.003448
# 4 -0.032660 0.072914 -0.000996 -0.170918 -0.058134 -0.026266
# 5 -0.008408 0.025466 -0.004397 -0.058134 0.012278 -0.002845
# 6 0.002117 -0.022227 -0.003448 -0.026266 -0.002845 0.049958
#
#
# Mechanical properties :
#
#
# Convention : Reuss Voigt Hill
#
# Bulk Modulus (GPa) = 26.69905 51.67453 39.18679
# Shear Modulus (GPa) = -87.41442 29.67984 -28.86729
#
# Velocity S-wave (km/s) = -6.50675 3.79143 -3.73917
# Velocity P-wave (km/s) = 6.59690 6.64788 0.58105
#
# Compressibility (1/GPa) = 0.03745451
#
# Stress axis : x y z
#
# Youngs Moduli (GPa) = 281.13165 38.61547 113.98214
#
# Poissons Ratio (x) = -0.07919 0.19148
# Poissons Ratio (y) = -0.57650 0.08626
# Poissons Ratio (z) = 0.47229 0.02922
#
# Static dielectric constant tensor:
#      x y z
#    x 1.872560 -0.075730 -0.038180 
#    y -0.075730 1.742900 -0.007070 
#    z -0.038180 -0.007070 1.787870 
# 
# From -- ./inp_files/33915.got.cif
#   From: 2010.05.17/outbox.cif.g08.bks.cpg/sg2_17_cif.got.tgz:33915.got - 2010.06.03 11:33:40.
