data_PCOD9094691
_publ_section_title
;
Structure prediction by ZEFSAII (Michael W. Deem and Ramdas Pophale) SiO2 
 PCOD9094691
Probable space group: P -1
;
_chemical_formula_sum "Si O2"
_cell_formula_units_Z 13
_cell_length_a 13.966244
_cell_length_b 9.353376
_cell_length_c 5.149476
_cell_angle_alpha 77.073609
_cell_angle_beta 116.500720
_cell_angle_gamma 129.112801
_cell_volume 465.477792
_symmetry_space_group_name_H-M "P -1"
_symmetry_group_IT_number 2
_symmetry_cell_setting 'triclinic'
loop_
_space_group_symop_operation_xyz
x,y,z
-x,-y,-z
loop_
_atom_site_type_symbol
_atom_site_label
_atom_site_fract_x
_atom_site_fract_y
_atom_site_fract_z
Si Si1 0.131365 0.784130 0.266687
Si Si2 0.319629 0.400593 0.726893
Si Si3 0.580412 0.015566 0.341870
Si Si4 0.854757 0.020729 0.286399
Si Si5 0.845164 0.577062 0.118287
Si Si6 0.000000 0.000000 0.000000
Si Si7 0.430945 0.620184 0.272485
O O1 0.118521 0.918518 0.397976
O O2 0.980463 0.600059 0.205368
O O3 0.262268 0.814313 0.524663
O O4 0.165421 0.855640 0.981218
O O5 0.194941 0.411743 0.637675
O O6 0.391557 0.481811 0.510782
O O7 0.579296 0.459832 0.986233
O O8 0.268152 0.193721 0.780121
O O9 0.561190 0.824256 0.399840
O O10 0.500000 0.000000 0.500000
O O11 0.500000 0.000000 0.000000
O O12 0.963215 0.034404 0.227610
O O13 0.709138 0.399005 0.902044
O O14 0.875276 0.766127 0.966188
#
# Coordination Sequence:
#
# PCOD9094691 Si02
#       7
#     2   2   2   2   2   1   2
#     4  11  23  39  62  95 124 164 212 262 295 366
#     4   9  19  34  62  93 134 164 187 233 307 379
#     4  12  27  50  69  81 113 168 222 275 330 358
#     4  10  20  34  59  99 136 166 198 233 299 379
#     4   8  20  32  63  89 135 152 206 233 301 364
#     4   8  16  30  56  92 134 170 184 210 300 370
#     4  10  21  40  62  91 122 169 203 247 309 376
#
# _framework density 27.928296
#
# number of rings (size 3 to 8) (size 9 to 14) (size 15 to 20)
#    0.923    1.231    0.000    2.769    6.462    3.077 
#    0.000    6.154    0.000    0.000    0.000    0.000 
#    0.000    0.000    0.000    0.000    0.000    0.000 
#
# Total GULP energy -72430.620059 kJ/mol
# GULP energy per Si atom -5571.586158 kJ/mol
# Density = 2.786473 g / cm^3
# Si number density = 27.928296 Si / 1000 Ang^3
#
#
#
# Elastic Constant Matrix: (Units=GPa)
#
#
# Indices 1 2 3 4 5 6 
#
# 1 121.5573 25.1005 21.3147 3.2679 -16.6664 40.8104
# 2 25.1005 79.1449 22.0230 -3.1804 -6.6303 8.2791
# 3 21.3147 22.0230 104.9431 -1.7952 -25.6307 17.7527
# 4 3.2679 -3.1804 -1.7952 49.3594 14.2085 -0.2166
# 5 -16.6664 -6.6303 -25.6307 14.2085 62.4341 7.8214
# 6 40.8104 8.2791 17.7527 -0.2166 7.8214 46.7963
#
#
#
# Elastic Compliance Matrix: (Units=1/GPa)
#
#
# Indices 1 2 3 4 5 6 
#
# 1 0.014039 -0.003072 0.001575 -0.002978 0.006422 -0.013384
# 2 -0.003072 0.014217 -0.002798 0.001290 -0.000926 0.001386
# 3 0.001575 -0.002798 0.012484 -0.001726 0.006481 -0.006706
# 4 -0.002978 0.001290 -0.001726 0.022520 -0.007030 0.004302
# 5 0.006422 -0.000926 0.006481 -0.007030 0.023376 -0.011835
# 6 -0.013384 0.001386 -0.006706 0.004302 -0.011835 0.037338
#
#
# Mechanical properties :
#
#
# Convention : Reuss Voigt Hill
#
# Bulk Modulus (GPa) = 31.10484 49.16907 40.13695
# Shear Modulus (GPa) = 34.89641 47.53177 41.21409
#
# Velocity S-wave (km/s) = 3.53866 4.12991 3.84567
# Velocity P-wave (km/s) = 5.27804 6.35494 5.84136
#
# Compressibility (1/GPa) = 0.03214934
#
# Stress axis : x y z
#
# Youngs Moduli (GPa) = 71.23084 70.33695 80.10227
#
# Poissons Ratio (x) = 0.21609 -0.12617
# Poissons Ratio (y) = 0.21884 0.22415
# Poissons Ratio (z) = -0.11219 0.19682
#
# Static dielectric constant tensor:
#      x y z
#    x 2.356870 -0.070400 0.349260 
#    y -0.070400 2.305010 -0.292270 
#    z 0.349260 -0.292270 2.638200 
# 
# From -- ./inp_files/92409.got.cif
#   From: 2010.05.17/outbox.cif.g08.bks.cpg/sg2_47_cif.got.tgz:92409.got - 2010.06.03 11:33:40.
