data_PCOD9094390
_publ_section_title
;
Structure prediction by ZEFSAII (Michael W. Deem and Ramdas Pophale) SiO2 
 PCOD9094390
Probable space group: P -1
;
_chemical_formula_sum "Si O2"
_cell_formula_units_Z 14
_cell_length_a 7.353219
_cell_length_b 9.054427
_cell_length_c 10.021203
_cell_angle_alpha 57.707888
_cell_angle_beta 120.012073
_cell_angle_gamma 101.624891
_cell_volume 486.416289
_symmetry_space_group_name_H-M "P -1"
_symmetry_group_IT_number 2
_symmetry_cell_setting 'triclinic'
loop_
_space_group_symop_operation_xyz
x,y,z
-x,-y,-z
loop_
_atom_site_type_symbol
_atom_site_label
_atom_site_fract_x
_atom_site_fract_y
_atom_site_fract_z
Si Si1 0.323695 0.342488 0.883701
Si Si2 0.484840 0.004818 0.226843
Si Si3 0.719032 0.537429 0.903702
Si Si4 0.266862 0.337053 0.578488
Si Si5 0.277018 0.692892 0.335817
Si Si6 0.236508 0.852009 0.532730
Si Si7 0.984182 0.768289 0.743055
O O1 0.479513 0.494601 0.851282
O O2 0.194820 0.329214 0.707765
O O3 0.222093 0.371395 0.978056
O O4 0.461436 0.155617 0.037000
O O5 0.689521 0.862914 0.359004
O O6 0.275822 0.899224 0.192804
O O7 0.547802 0.098246 0.341520
O O8 0.781222 0.660206 0.747789
O O9 0.853254 0.347199 0.045165
O O10 0.165143 0.512213 0.385517
O O11 0.517440 0.367926 0.650859
O O12 0.285662 0.735073 0.477339
O O13 0.101854 0.766278 0.642678
O O14 0.095251 0.030989 0.353760
#
# Coordination Sequence:
#
# PCOD9094390 Si02
#       7
#     2   2   2   2   2   2   2
#     4  11  20  36  62  87 114 147 189 244 280 335
#     4  10  20  34  56  94 111 145 184 242 279 337
#     4  10  22  36  58  89 114 147 197 232 287 329
#     4   9  21  34  56  88 123 140 184 242 294 327
#     4   9  20  35  55  90 114 146 186 239 280 338
#     4  11  20  36  62  80 120 147 195 229 286 333
#     4  10  22  37  54  86 119 152 184 241 278 340
#
# _framework density 28.781929999999999
#
# number of rings (size 3 to 8) (size 9 to 14) (size 15 to 20)
#    0.857    1.143    1.429    2.571    4.000    0.000 
#    0.000    0.000    0.000   20.571    0.000    0.000 
#    0.000    0.000    0.000    0.000    0.000    0.000 
#
# Total GULP energy -78042.485330 kJ/mol
# GULP energy per Si atom -5574.463238 kJ/mol
# Density = 2.871642 g / cm^3
# Si number density = 28.781930 Si / 1000 Ang^3
#
#
#
# Elastic Constant Matrix: (Units=GPa)
#
#
# Indices 1 2 3 4 5 6 
#
# 1 98.4278 31.0019 58.0695 -8.4272 -9.1520 -30.7121
# 2 31.0019 156.5188 37.8022 -2.5832 -18.7748 -28.2847
# 3 58.0695 37.8022 137.6848 -42.4002 -38.5783 2.6150
# 4 -8.4272 -2.5832 -42.4002 45.7143 1.1775 -19.0611
# 5 -9.1520 -18.7748 -38.5783 1.1775 46.6661 0.5516
# 6 -30.7121 -28.2847 2.6150 -19.0611 0.5516 48.4106
#
#
#
# Elastic Compliance Matrix: (Units=1/GPa)
#
#
# Indices 1 2 3 4 5 6 
#
# 1 0.019536 0.000374 -0.009671 0.000308 -0.004178 0.013304
# 2 0.000374 0.007912 -0.001459 0.001391 0.001951 0.005464
# 3 -0.009671 -0.001459 0.020810 0.016291 0.014331 -0.001861
# 4 0.000308 0.001391 0.016291 0.044009 0.012772 0.017310
# 5 -0.004178 0.001951 0.014331 0.012772 0.032891 0.002369
# 6 0.013304 0.005464 -0.001861 0.017310 0.002369 0.039178
#
#
# Mechanical properties :
#
#
# Convention : Reuss Voigt Hill
#
# Bulk Modulus (GPa) = 37.38784 71.81984 54.60384
# Shear Modulus (GPa) = 25.67224 45.87538 35.77381
#
# Velocity S-wave (km/s) = 2.98980 3.99669 3.52934
# Velocity P-wave (km/s) = 4.99368 6.80480 5.96834
#
# Compressibility (1/GPa) = 0.02674666
#
# Stress axis : x y z
#
# Youngs Moduli (GPa) = 51.18638 126.39645 48.05439
#
# Poissons Ratio (x) = -0.04729 0.46473
# Poissons Ratio (y) = -0.01915 0.07010
# Poissons Ratio (z) = 0.49502 0.18439
#
# Static dielectric constant tensor:
#      x y z
#    x 2.291740 0.106050 0.059260 
#    y 0.106050 2.269630 0.002250 
#    z 0.059260 0.002250 2.215910 
# 
# From -- ./inp_files/252345.got.cif
#   From: 2010.05.17/outbox.cif.g08.bks.cpg/sg2_127_cif.got.tgz:252345.got - 2010.06.03 11:33:40.
