data_PCOD9094844
_publ_section_title
;
Structure prediction by ZEFSAII (Michael W. Deem and Ramdas Pophale) SiO2 
 PCOD9094844
Probable space group: P -1
;
_chemical_formula_sum "Si O2"
_cell_formula_units_Z 14
_cell_length_a 10.935475
_cell_length_b 10.078010
_cell_length_c 8.808457
_cell_angle_alpha 135.480777
_cell_angle_beta 66.635445
_cell_angle_gamma 115.998416
_cell_volume 606.307074
_symmetry_space_group_name_H-M "P -1"
_symmetry_group_IT_number 2
_symmetry_cell_setting 'triclinic'
loop_
_space_group_symop_operation_xyz
x,y,z
-x,-y,-z
loop_
_atom_site_type_symbol
_atom_site_label
_atom_site_fract_x
_atom_site_fract_y
_atom_site_fract_z
Si Si1 0.191647 0.879790 0.315056
Si Si2 0.142687 0.625128 0.604340
Si Si3 0.999022 0.980993 0.725155
Si Si4 0.146964 0.529786 0.878151
Si Si5 0.806980 0.907803 0.043085
Si Si6 0.649027 0.715770 0.463458
Si Si7 0.382341 0.410503 0.272314
O O1 0.097353 0.939431 0.276979
O O2 0.087368 0.854633 0.487791
O O3 0.321398 0.060901 0.417823
O O4 0.237005 0.695113 0.077173
O O5 0.140197 0.598056 0.765195
O O6 0.180888 0.860611 0.757376
O O7 0.266529 0.533353 0.413840
O O8 0.000000 0.500000 0.500000
O O9 0.113215 0.142544 0.890421
O O10 0.897410 0.882772 0.829776
O O11 0.209618 0.344593 0.689142
O O12 0.000000 0.500000 0.000000
O O13 0.659856 0.767765 0.969854
O O14 0.527012 0.565233 0.317692
O O15 0.623186 0.682534 0.630281
#
# Coordination Sequence:
#
# PCOD9094844 Si02
#       7
#     2   2   2   2   2   2   2
#     4  11  21  38  58  89 121 158 193 248 299 347
#     4  11  23  36  62  93 117 152 201 248 296 348
#     4  10  20  34  62  86 122 154 192 248 304 342
#     4  11  23  36  62  93 117 152 201 248 296 348
#     4  11  21  38  58  89 121 158 193 248 299 347
#     4  10  22  40  61  87 121 159 199 241 292 356
#     4  10  22  40  61  87 121 159 199 241 292 356
#
# _framework density 23.090609000000001
#
# number of rings (size 3 to 8) (size 9 to 14) (size 15 to 20)
#    0.000    1.429    2.857    3.429    6.000    1.143 
#    0.000    5.000    0.000    1.714    0.000    0.000 
#    0.000    0.000    0.000    0.000    0.000    0.000 
#
# Total GULP energy -78250.365798 kJ/mol
# GULP energy per Si atom -5589.311843 kJ/mol
# Density = 2.303805 g / cm^3
# Si number density = 23.090609 Si / 1000 Ang^3
#
#
#
# Elastic Constant Matrix: (Units=GPa)
#
#
# Indices 1 2 3 4 5 6 
#
# 1 64.2829 12.8218 12.9308 14.5438 23.2214 16.8077
# 2 12.8218 63.2108 28.7004 22.7070 8.8771 12.1036
# 3 12.9308 28.7004 105.4890 22.9567 19.4663 4.3234
# 4 14.5438 22.7070 22.9567 53.3720 4.9627 14.0347
# 5 23.2214 8.8771 19.4663 4.9627 40.6853 12.3813
# 6 16.8077 12.1036 4.3234 14.0347 12.3813 29.2593
#
#
#
# Elastic Compliance Matrix: (Units=1/GPa)
#
#
# Indices 1 2 3 4 5 6 
#
# 1 0.021642 -0.000802 0.000347 -0.003082 -0.010008 -0.006438
# 2 -0.000802 0.020796 -0.004164 -0.005558 0.000080 -0.004894
# 3 0.000347 -0.004164 0.012426 -0.004229 -0.006016 0.004261
# 4 -0.003082 -0.005558 -0.004229 0.025877 0.004806 -0.009752
# 5 -0.010008 0.000080 -0.006016 0.004806 0.035877 -0.010882
# 6 -0.006438 -0.004894 0.004261 -0.009752 -0.010882 0.048553
#
#
# Mechanical properties :
#
#
# Convention : Reuss Voigt Hill
#
# Bulk Modulus (GPa) = 21.91766 37.98762 29.95264
# Shear Modulus (GPa) = 26.36854 36.56528 31.46691
#
# Velocity S-wave (km/s) = 3.38296 3.98371 3.69556
# Velocity P-wave (km/s) = 4.97713 6.13573 5.58655
#
# Compressibility (1/GPa) = 0.04562531
#
# Stress axis : x y z
#
# Youngs Moduli (GPa) = 46.20539 48.08575 80.47762
#
# Poissons Ratio (x) = 0.03856 -0.02790
# Poissons Ratio (y) = 0.03706 0.33513
# Poissons Ratio (z) = -0.01602 0.20024
#
# Static dielectric constant tensor:
#      x y z
#    x 1.877170 0.002470 0.042670 
#    y 0.002470 1.938350 0.062080 
#    z 0.042670 0.062080 1.942830 
# 
# From -- ./inp_files/260903.got.cif
#   From: 2010.05.17/outbox.cif.g08.bks.cpg/sg2_131_cif.got.tgz:260903.got - 2010.06.03 11:33:40.
