data_PCOD9094028
_publ_section_title
;
Structure prediction by ZEFSAII (Michael W. Deem and Ramdas Pophale) SiO2 
 PCOD9094028
Probable space group: P -1
;
_chemical_formula_sum "Si O2"
_cell_formula_units_Z 14
_cell_length_a 10.672207
_cell_length_b 12.520783
_cell_length_c 8.743530
_cell_angle_alpha 61.641086
_cell_angle_beta 83.071699
_cell_angle_gamma 35.501910
_cell_volume 509.765205
_symmetry_space_group_name_H-M "P -1"
_symmetry_group_IT_number 2
_symmetry_cell_setting 'triclinic'
loop_
_space_group_symop_operation_xyz
x,y,z
-x,-y,-z
loop_
_atom_site_type_symbol
_atom_site_label
_atom_site_fract_x
_atom_site_fract_y
_atom_site_fract_z
Si Si1 0.880332 0.953601 0.726722
Si Si2 0.207318 0.488027 0.109020
Si Si3 0.369042 0.699847 0.742399
Si Si4 0.987308 0.759597 0.278430
Si Si5 0.425397 0.118937 0.133066
Si Si6 0.223230 0.366318 0.668175
Si Si7 0.314437 0.708656 0.256167
O O1 0.121686 0.842638 0.746463
O O2 0.710685 0.135664 0.487049
O O3 0.747546 0.105421 0.801579
O O4 0.993140 0.725651 0.872464
O O5 0.452680 0.367749 0.132998
O O6 0.114039 0.593475 0.222029
O O7 0.283010 0.290708 0.183389
O O8 0.540030 0.452980 0.806740
O O9 0.145430 0.571158 0.526743
O O10 0.059720 0.839847 0.207799
O O11 0.694780 0.966693 0.185794
O O12 0.522944 0.899012 0.266485
O O13 0.264226 0.285897 0.890545
O O14 0.000000 0.500000 0.500000
O O15 0.500000 0.500000 0.500000
#
# Coordination Sequence:
#
# PCOD9094028 Si02
#       7
#     2   2   2   2   2   2   2
#     4  10  20  34  52  79 118 158 198 238 280 336
#     4  11  23  35  57  91 117 150 197 240 290 348
#     4   9  20  35  51  78 116 158 198 238 283 333
#     4  10  22  39  61  89 120 156 197 241 292 345
#     4  10  22  41  64  88 116 151 194 245 298 352
#     4   9  21  44  66  86 115 151 193 244 302 357
#     4   9  19  35  55  82 118 159 196 232 279 336
#
# _framework density 27.463622999999998
#
# number of rings (size 3 to 8) (size 9 to 14) (size 15 to 20)
#    0.000    2.286    0.000    1.286    0.000   13.143 
#    0.000    6.429    0.000    0.000    0.000    0.000 
#    0.000    0.000    0.000    0.000    0.000    0.000 
#
# Total GULP energy -78360.684895 kJ/mol
# GULP energy per Si atom -5597.191778 kJ/mol
# Density = 2.740111 g / cm^3
# Si number density = 27.463623 Si / 1000 Ang^3
#
#
#
# Elastic Constant Matrix: (Units=GPa)
#
#
# Indices 1 2 3 4 5 6 
#
# 1 82.8441 19.8380 11.7249 -13.5456 20.5089 -4.0346
# 2 19.8380 120.0132 -2.5814 -25.8629 6.3838 24.5147
# 3 11.7249 -2.5814 156.1240 -20.6327 4.8058 0.2318
# 4 -13.5456 -25.8629 -20.6327 24.2839 -6.3029 1.7128
# 5 20.5089 6.3838 4.8058 -6.3029 49.1637 -14.4282
# 6 -4.0346 24.5147 0.2318 1.7128 -14.4282 52.3483
#
#
#
# Elastic Compliance Matrix: (Units=1/GPa)
#
#
# Indices 1 2 3 4 5 6 
#
# 1 0.014524 -0.000898 -0.000201 0.005623 -0.005226 -0.000083
# 2 -0.000898 0.013661 0.002506 0.016249 -0.001760 -0.007495
# 3 -0.000201 0.002506 0.007678 0.009117 -0.000293 -0.001602
# 4 0.005623 0.016249 0.009117 0.070266 0.000946 -0.009255
# 5 -0.005226 -0.001760 -0.000293 0.000946 0.025039 0.007293
# 6 -0.000083 -0.007495 -0.001602 -0.009255 0.007293 0.024926
#
#
# Mechanical properties :
#
#
# Convention : Reuss Voigt Hill
#
# Bulk Modulus (GPa) = 25.85638 46.32716 36.09177
# Shear Modulus (GPa) = 30.08905 47.15916 38.62410
#
# Velocity S-wave (km/s) = 3.31357 4.14835 3.75423
# Velocity P-wave (km/s) = 4.90662 6.31270 5.65354
#
# Compressibility (1/GPa) = 0.03867517
#
# Stress axis : x y z
#
# Youngs Moduli (GPa) = 68.85380 73.20062 130.24185
#
# Poissons Ratio (x) = 0.06576 0.02624
# Poissons Ratio (y) = 0.06185 -0.32640
# Poissons Ratio (z) = 0.01387 -0.18345
#
# Static dielectric constant tensor:
#      x y z
#    x 2.277500 -0.034320 -0.071360 
#    y -0.034320 2.076750 -0.009180 
#    z -0.071360 -0.009180 2.170400 
# 
# From -- ./inp_files/314900.got.cif
#   From: 2010.05.17/outbox.cif.g08.bks.cpg/sg2_158_cif.got.tgz:314900.got - 2010.06.03 11:33:40.
