data_PCOD9094455
_publ_section_title
;
Structure prediction by ZEFSAII (Michael W. Deem and Ramdas Pophale) SiO2 
 PCOD9094455
Probable space group: P -1
;
_chemical_formula_sum "Si O2"
_cell_formula_units_Z 16
_cell_length_a 13.039665
_cell_length_b 9.789687
_cell_length_c 11.190907
_cell_angle_alpha 119.772754
_cell_angle_beta 105.593890
_cell_angle_gamma 40.193215
_cell_volume 784.532758
_symmetry_space_group_name_H-M "P -1"
_symmetry_group_IT_number 2
_symmetry_cell_setting 'triclinic'
loop_
_space_group_symop_operation_xyz
x,y,z
-x,-y,-z
loop_
_atom_site_type_symbol
_atom_site_label
_atom_site_fract_x
_atom_site_fract_y
_atom_site_fract_z
Si Si1 0.538782 0.221038 0.133353
Si Si2 0.652624 0.347205 0.892271
Si Si3 0.132135 0.364188 0.654153
Si Si4 0.863720 0.320278 0.124162
Si Si5 0.963734 0.413620 0.845969
Si Si6 0.111164 0.012362 0.877564
Si Si7 0.613403 0.868255 0.819723
Si Si8 0.222735 0.138780 0.338718
O O1 0.407906 0.497864 0.178254
O O2 0.498426 0.159757 0.208999
O O3 0.713126 0.109207 0.140933
O O4 0.538342 0.097679 0.969244
O O5 0.726014 0.096065 0.776225
O O6 0.500000 0.500000 0.000000
O O7 0.771179 0.325917 0.996021
O O8 0.217987 0.426178 0.756050
O O9 0.224612 0.174316 0.495102
O O10 0.082375 0.314808 0.729689
O O11 0.961384 0.620433 0.657690
O O12 0.880484 0.183070 0.181108
O O13 0.034458 0.163886 0.043313
O O14 0.781520 0.639650 0.841728
O O15 0.998665 0.204232 0.821333
O O16 0.000000 0.500000 0.000000
O O17 0.662537 0.872559 0.706558
#
# Coordination Sequence:
#
# PCOD9094455 Si02
#       8
#     2   2   2   2   2   2   2   2
#     4  11  21  34  56  88 118 158 197 251 300 347
#     4  12  22  37  62  89 124 156 202 252 297 358
#     4  10  22  38  67  89 122 159 201 251 300 355
#     4  11  21  36  61  92 116 157 203 251 295 350
#     4  11  19  35  58  92 119 151 201 257 292 348
#     4  11  20  34  57  88 121 146 205 254 292 343
#     4  10  20  34  57  86 119 154 198 247 300 356
#     4  10  21  43  60  91 123 160 200 247 305 360
#
# _framework density 20.394303000000001
#
# number of rings (size 3 to 8) (size 9 to 14) (size 15 to 20)
#    0.000    1.250    5.000    3.000    0.000    0.000 
#    0.000    1.875    0.000    6.750    0.000    0.000 
#    0.000    0.000    0.000    0.000    0.000    0.000 
#
# Total GULP energy -89403.087498 kJ/mol
# GULP energy per Si atom -5587.692969 kJ/mol
# Density = 2.034788 g / cm^3
# Si number density = 20.394303 Si / 1000 Ang^3
#
#
#
# Elastic Constant Matrix: (Units=GPa)
#
#
# Indices 1 2 3 4 5 6 
#
# 1 123.8808 38.6790 49.5207 -0.0453 -14.7089 19.9498
# 2 38.6790 87.5081 25.5876 5.8319 -5.6909 23.9615
# 3 49.5207 25.5876 114.8921 4.0486 -14.2674 12.1850
# 4 -0.0453 5.8319 4.0486 20.4061 5.5381 -2.1661
# 5 -14.7089 -5.6909 -14.2674 5.5381 21.9687 -4.0621
# 6 19.9498 23.9615 12.1850 -2.1661 -4.0621 33.8916
#
#
#
# Elastic Compliance Matrix: (Units=1/GPa)
#
#
# Indices 1 2 3 4 5 6 
#
# 1 0.011297 -0.002969 -0.003415 0.000162 0.004012 -0.002831
# 2 -0.002969 0.016082 -0.000933 -0.005771 0.001270 -0.009504
# 3 -0.003415 -0.000933 0.011299 -0.003587 0.005537 -0.000958
# 4 0.000162 -0.005771 -0.003587 0.056635 -0.016719 0.006890
# 5 0.004012 0.001270 0.005537 -0.016719 0.056428 0.000444
# 6 -0.002831 -0.009504 -0.000958 0.006890 0.000444 0.038730
#
#
# Mechanical properties :
#
#
# Convention : Reuss Voigt Hill
#
# Bulk Modulus (GPa) = 41.59076 61.53951 51.56514
# Shear Modulus (GPa) = 23.46098 29.41953 26.44026
#
# Velocity S-wave (km/s) = 3.39539 3.80219 3.60454
# Velocity P-wave (km/s) = 5.98407 7.03676 6.53166
#
# Compressibility (1/GPa) = 0.02404380
#
# Stress axis : x y z
#
# Youngs Moduli (GPa) = 88.51940 62.18066 88.50206
#
# Poissons Ratio (x) = 0.18463 0.30224
# Poissons Ratio (y) = 0.26284 0.08256
# Poissons Ratio (z) = 0.30230 0.05801
#
# Static dielectric constant tensor:
#      x y z
#    x 1.787540 -0.025900 0.000630 
#    y -0.025900 1.787280 0.001120 
#    z 0.000630 0.001120 1.697780 
# 
# From -- ./inp_files/418158.got.cif
#   From: 2010.05.17/outbox.cif.g08.bks.cpg/sg2_210_cif.got.tgz:418158.got - 2010.06.03 11:33:40.
