data_PCOD9094222
_publ_section_title
;
Structure prediction by ZEFSAII (Michael W. Deem and Ramdas Pophale) SiO2 
 PCOD9094222
Probable space group: P -1
;
_chemical_formula_sum "Si O2"
_cell_formula_units_Z 16
_cell_length_a 31.554382
_cell_length_b 5.142460
_cell_length_c 15.917287
_cell_angle_alpha 74.747242
_cell_angle_beta 18.846828
_cell_angle_gamma 76.102040
_cell_volume 804.652743
_symmetry_space_group_name_H-M "P -1"
_symmetry_group_IT_number 2
_symmetry_cell_setting 'triclinic'
loop_
_space_group_symop_operation_xyz
x,y,z
-x,-y,-z
loop_
_atom_site_type_symbol
_atom_site_label
_atom_site_fract_x
_atom_site_fract_y
_atom_site_fract_z
Si Si1 0.115705 0.284070 0.808783
Si Si2 0.526829 0.108888 0.345987
Si Si3 0.168929 0.394401 0.875441
Si Si4 0.374003 0.633123 0.597699
Si Si5 0.003585 0.057645 0.689161
Si Si6 0.941832 0.792860 0.249269
Si Si7 0.167058 0.911743 0.236321
Si Si8 0.149078 0.501163 0.156128
O O1 0.208300 0.364112 0.706361
O O2 0.161056 0.250230 0.630085
O O3 0.000000 0.500000 0.000000
O O4 0.045991 0.010407 0.996424
O O5 0.487868 0.419071 0.391460
O O6 0.500000 0.000000 0.500000
O O7 0.433438 0.930437 0.474928
O O8 0.677064 0.069557 0.043679
O O9 0.272520 0.574394 0.717375
O O10 0.027342 0.531954 0.126137
O O11 0.128073 0.117435 0.023558
O O12 0.291139 0.552162 0.843285
O O13 0.949877 0.339359 0.731320
O O14 0.089809 0.102754 0.607754
O O15 0.088213 0.920919 0.470078
O O16 0.130272 0.182912 0.231340
O O17 0.144421 0.655209 0.240433
#
# Coordination Sequence:
#
# PCOD9094222 Si02
#       8
#     2   2   2   2   2   2   2   2
#     4   8  16  31  51  83 116 141 171 214 284 355
#     4  12  23  40  57  77 105 152 204 243 279 315
#     4  10  20  34  55  85 115 141 180 234 285 344
#     4  12  22  38  60  81 107 149 196 242 283 319
#     4  11  23  35  53  85 116 150 186 230 290 344
#     4   9  17  31  55  79 116 145 173 218 284 354
#     4  12  26  38  56  77 114 157 198 239 276 334
#     4  12  22  38  56  80 111 150 193 242 289 329
#
# _framework density 19.884353999999998
#
# number of rings (size 3 to 8) (size 9 to 14) (size 15 to 20)
#    0.000    1.250    3.750    3.375    3.500    0.000 
#    0.000    0.000    0.000    0.000    0.000    1.750 
#    0.000    0.000    0.000    0.000    0.000    0.000 
#
# Total GULP energy -89351.844008 kJ/mol
# GULP energy per Si atom -5584.490251 kJ/mol
# Density = 1.983910 g / cm^3
# Si number density = 19.884354 Si / 1000 Ang^3
#
#
#
# Elastic Constant Matrix: (Units=GPa)
#
#
# Indices 1 2 3 4 5 6 
#
# 1 163.1415 13.4851 47.0371 2.8415 20.3414 19.5938
# 2 13.4851 86.1548 10.7286 0.5891 4.6302 4.2732
# 3 47.0371 10.7286 72.4569 13.0298 1.6147 3.3183
# 4 2.8415 0.5891 13.0298 23.1576 6.1066 2.6962
# 5 20.3414 4.6302 1.6147 6.1066 18.0718 1.9631
# 6 19.5938 4.2732 3.3183 2.6962 1.9631 28.1321
#
#
#
# Elastic Compliance Matrix: (Units=1/GPa)
#
#
# Indices 1 2 3 4 5 6 
#
# 1 0.010542 0.000254 -0.007586 0.007120 -0.012979 -0.006263
# 2 0.000254 0.012106 -0.002167 0.002054 -0.003704 -0.001699
# 3 -0.007586 -0.002167 0.021218 -0.014463 0.011685 0.003680
# 4 0.007120 0.002054 -0.014463 0.058127 -0.026095 -0.007315
# 5 -0.012979 -0.003704 0.011685 -0.026095 0.078094 0.005276
# 6 -0.006263 -0.001699 0.003680 -0.007315 0.005276 0.040066
#
#
# Mechanical properties :
#
#
# Convention : Reuss Voigt Hill
#
# Bulk Modulus (GPa) = 40.20821 51.58385 45.89603
# Shear Modulus (GPa) = 20.20692 30.57245 25.38968
#
# Velocity S-wave (km/s) = 3.19128 3.92537 3.57720
# Velocity P-wave (km/s) = 5.81756 6.82224 6.33983
#
# Compressibility (1/GPa) = 0.02487054
#
# Stress axis : x y z
#
# Youngs Moduli (GPa) = 94.85628 82.60148 47.12903
#
# Poissons Ratio (x) = -0.02098 0.35750
# Poissons Ratio (y) = -0.02410 0.10211
# Poissons Ratio (z) = 0.71955 0.17896
#
# Static dielectric constant tensor:
#      x y z
#    x 1.806190 0.018310 -0.002160 
#    y 0.018310 1.824960 -0.003950 
#    z -0.002160 -0.003950 1.703890 
# 
# From -- ./inp_files/77562.got.cif
#   From: 2010.05.17/outbox.cif.g08.bks.cpg/sg2_39_cif.got.tgz:77562.got - 2010.06.03 11:33:40.
