data_PCOD9094033
_publ_section_title
;
Structure prediction by ZEFSAII (Michael W. Deem and Ramdas Pophale) SiO2 
 PCOD9094033
Probable space group: P -1
;
_chemical_formula_sum "Si O2"
_cell_formula_units_Z 16
_cell_length_a 5.079399
_cell_length_b 11.560268
_cell_length_c 11.413590
_cell_angle_alpha 93.763015
_cell_angle_beta 81.802750
_cell_angle_gamma 74.232483
_cell_volume 634.545282
_symmetry_space_group_name_H-M "P -1"
_symmetry_group_IT_number 2
_symmetry_cell_setting 'triclinic'
loop_
_space_group_symop_operation_xyz
x,y,z
-x,-y,-z
loop_
_atom_site_type_symbol
_atom_site_label
_atom_site_fract_x
_atom_site_fract_y
_atom_site_fract_z
Si Si1 0.495595 0.292836 0.130002
Si Si2 0.140102 0.123722 0.921938
Si Si3 0.261939 0.072222 0.170084
Si Si4 0.872825 0.442777 0.182101
Si Si5 0.965210 0.949232 0.328931
Si Si6 0.399200 0.314778 0.886223
Si Si7 0.270447 0.438534 0.552017
Si Si8 0.507202 0.814737 0.381649
O O1 0.407729 0.179748 0.178887
O O2 0.725210 0.336388 0.186601
O O3 0.202511 0.396465 0.149413
O O4 0.584516 0.271029 0.986727
O O5 0.144275 0.261885 0.928480
O O6 0.988955 0.102304 0.812444
O O7 0.463857 0.042775 0.871463
O O8 0.095941 0.091447 0.057350
O O9 0.062122 0.067070 0.292215
O O10 0.706665 0.541307 0.105938
O O11 0.811649 0.517574 0.309474
O O12 0.184905 0.886696 0.410613
O O13 0.686617 0.911463 0.374164
O O14 0.485773 0.255599 0.749038
O O15 0.500000 0.500000 0.500000
O O16 0.377732 0.292286 0.539692
O O17 0.000000 0.500000 0.500000
#
# Coordination Sequence:
#
# PCOD9094033 Si02
#       8
#     2   2   2   2   2   2   2   2
#     4  11  24  36  55  84 128 176 192 223 280 361
#     4   9  19  33  51  83 115 167 218 258 268 320
#     4  10  20  34  52  80 122 170 214 239 283 324
#     4  11  24  40  58  88 120 153 202 236 294 377
#     4  11  18  34  51  83 121 151 196 257 291 326
#     4   9  19  37  55  83 125 163 201 240 283 335
#     4  11  23  44  70  93 115 143 191 265 324 357
#     4  10  22  34  59  92 119 146 197 254 306 349
#
# _framework density 25.214905999999999
#
# number of rings (size 3 to 8) (size 9 to 14) (size 15 to 20)
#    0.000    1.750    2.500    2.625    1.750    8.000 
#    0.000    0.000    0.000    0.000    0.000   17.500 
#    0.000    0.000    0.000    0.000    0.000    0.000 
#
# Total GULP energy -89292.488704 kJ/mol
# GULP energy per Si atom -5580.780544 kJ/mol
# Density = 2.515752 g / cm^3
# Si number density = 25.214906 Si / 1000 Ang^3
#
#
#
# Elastic Constant Matrix: (Units=GPa)
#
#
# Indices 1 2 3 4 5 6 
#
# 1 139.4109 24.8711 15.1265 -9.8371 15.2012 7.4370
# 2 24.8711 100.2682 19.0749 -26.3817 1.1653 10.7302
# 3 15.1265 19.0749 37.6358 -23.6905 0.7685 -5.4744
# 4 -9.8371 -26.3817 -23.6905 37.4190 -9.7793 -2.6727
# 5 15.2012 1.1653 0.7685 -9.7793 36.6687 -0.7233
# 6 7.4370 10.7302 -5.4744 -2.6727 -0.7233 20.3517
#
#
#
# Elastic Compliance Matrix: (Units=1/GPa)
#
#
# Indices 1 2 3 4 5 6 
#
# 1 0.008518 -0.001532 -0.005697 -0.003947 -0.004505 -0.004516
# 2 -0.001532 0.013451 -0.002174 0.007858 0.002231 -0.006006
# 3 -0.005697 -0.002174 0.057063 0.037897 0.011814 0.023974
# 4 -0.003947 0.007858 0.037897 0.060848 0.017138 0.016093
# 5 -0.004505 0.002231 0.011814 0.017138 0.033531 0.007091
# 6 -0.004516 -0.006006 0.023974 0.016093 0.007091 0.062767
#
#
# Mechanical properties :
#
#
# Convention : Reuss Voigt Hill
#
# Bulk Modulus (GPa) = 16.60418 43.93996 30.27207
# Shear Modulus (GPa) = 18.17790 33.43737 25.80763
#
# Velocity S-wave (km/s) = 2.68791 3.64551 3.20270
# Velocity P-wave (km/s) = 4.02896 5.93158 5.07031
#
# Compressibility (1/GPa) = 0.06022578
#
# Stress axis : x y z
#
# Youngs Moduli (GPa) = 117.39773 74.34213 17.52458
#
# Poissons Ratio (x) = 0.11390 0.09983
# Poissons Ratio (y) = 0.17987 0.03810
# Poissons Ratio (z) = 0.66877 0.16165
#
# Static dielectric constant tensor:
#      x y z
#    x 2.030600 0.000630 -0.019010 
#    y 0.000630 2.178970 -0.009740 
#    z -0.019010 -0.009740 2.069750 
# 
# From -- ./inp_files/364527.got.cif
#   From: 2010.05.17/outbox.cif.g08.bks.cpg/sg2_183_cif.got.tgz:364527.got - 2010.06.03 11:33:40.
