data_PCOD9094640
_publ_section_title
;
Structure prediction by ZEFSAII (Michael W. Deem and Ramdas Pophale) SiO2 
 PCOD9094640
Probable space group: P -1
;
_chemical_formula_sum "Si O2"
_cell_formula_units_Z 16
_cell_length_a 19.712539
_cell_length_b 15.793187
_cell_length_c 8.808460
_cell_angle_alpha 138.265146
_cell_angle_beta 149.449493
_cell_angle_gamma 32.738496
_cell_volume 751.441215
_symmetry_space_group_name_H-M "P -1"
_symmetry_group_IT_number 2
_symmetry_cell_setting 'triclinic'
loop_
_space_group_symop_operation_xyz
x,y,z
-x,-y,-z
loop_
_atom_site_type_symbol
_atom_site_label
_atom_site_fract_x
_atom_site_fract_y
_atom_site_fract_z
Si Si1 0.769316 0.846159 0.920715
Si Si2 0.258915 0.585376 0.773259
Si Si3 0.071925 0.832219 0.991599
Si Si4 0.374604 0.722514 0.977772
Si Si5 0.821649 0.733650 0.410802
Si Si6 0.146257 0.933279 0.571209
Si Si7 0.954462 0.533241 0.707854
Si Si8 0.418166 0.963116 0.498452
O O1 0.920638 0.670227 0.935311
O O2 0.613619 0.866639 0.726189
O O3 0.684920 0.938135 0.720581
O O4 0.834437 0.929937 0.251966
O O5 0.249465 0.685762 0.747310
O O6 0.139870 0.532252 0.487059
O O7 0.218769 0.693170 0.987247
O O8 0.443997 0.430876 0.908046
O O9 0.121925 0.851316 0.278683
O O10 0.944382 0.786472 0.703896
O O11 0.000000 0.000000 0.000000
O O12 0.311713 0.808984 0.813275
O O13 0.377683 0.836081 0.257645
O O14 0.864961 0.626914 0.502518
O O15 0.866317 0.616387 0.199390
O O16 0.647515 0.900653 0.321261
O O17 0.000000 0.000000 0.500000
#
# Coordination Sequence:
#
# PCOD9094640 Si02
#       8
#     2   2   2   2   2   2   2   2
#     4   9  17  29  53  77 109 143 185 230 277 333
#     4  10  20  34  59  87 117 154 190 232 289 344
#     4  11  22  39  60  84 112 156 194 240 289 344
#     4  10  20  35  58  90 115 151 192 241 282 341
#     4   9  18  29  55  81 111 143 192 232 277 343
#     4  11  22  36  58  85 116 149 196 242 282 339
#     4   9  16  31  50  85 111 145 188 228 280 342
#     4   9  15  29  51  82 105 146 187 224 277 343
#
# _framework density 21.292418000000001
#
# number of rings (size 3 to 8) (size 9 to 14) (size 15 to 20)
#    0.000    2.250    1.250    3.750    1.750    0.500 
#    0.000    0.000    2.750   18.000    0.000    0.000 
#    0.000    0.000    0.000    0.000    0.000    0.000 
#
# Total GULP energy -89241.014125 kJ/mol
# GULP energy per Si atom -5577.563383 kJ/mol
# Density = 2.124396 g / cm^3
# Si number density = 21.292418 Si / 1000 Ang^3
#
#
#
# Elastic Constant Matrix: (Units=GPa)
#
#
# Indices 1 2 3 4 5 6 
#
# 1 66.9497 26.6753 -0.5321 7.4098 11.3066 1.3913
# 2 26.6753 121.0640 14.1652 22.1259 -11.9684 -16.6344
# 3 -0.5321 14.1652 24.5596 11.5588 -0.7858 4.1417
# 4 7.4098 22.1259 11.5588 23.1358 -0.8243 2.7746
# 5 11.3066 -11.9684 -0.7858 -0.8243 23.4029 16.1405
# 6 1.3913 -16.6344 4.1417 2.7746 16.1405 35.0067
#
#
#
# Elastic Compliance Matrix: (Units=1/GPa)
#
#
# Indices 1 2 3 4 5 6 
#
# 1 0.019873 -0.005013 0.004530 -0.004752 -0.014491 0.003350
# 2 -0.005013 0.012651 -0.003878 -0.008994 0.004917 0.005115
# 3 0.004530 -0.003878 0.056067 -0.024757 0.002134 -0.007678
# 4 -0.004752 -0.008994 -0.024757 0.066982 0.005400 -0.008955
# 5 -0.014491 0.004917 0.002134 0.005400 0.074731 -0.032225
# 6 0.003350 0.005115 -0.007678 -0.008955 -0.032225 0.047340
#
#
# Mechanical properties :
#
#
# Convention : Reuss Voigt Hill
#
# Bulk Modulus (GPa) = 12.52033 32.57670 22.54851
# Shear Modulus (GPa) = 15.97504 27.79340 21.88422
#
# Velocity S-wave (km/s) = 2.74208 3.61684 3.20940
# Velocity P-wave (km/s) = 3.98977 5.72494 4.93423
#
# Compressibility (1/GPa) = 0.07987011
#
# Stress axis : x y z
#
# Youngs Moduli (GPa) = 50.31856 79.04491 17.83592
#
# Poissons Ratio (x) = 0.39622 -0.08079
# Poissons Ratio (y) = 0.25223 0.06916
# Poissons Ratio (z) = -0.22793 0.30650
#
# Static dielectric constant tensor:
#      x y z
#    x 1.802760 0.019810 -0.013440 
#    y 0.019810 1.825690 0.013250 
#    z -0.013440 0.013250 1.751210 
# 
# From -- ./inp_files/269645.got.cif
#   From: 2010.05.17/outbox.cif.g08.bks.cpg/sg2_135_cif.got.tgz:269645.got - 2010.06.03 11:33:40.
