data_PCOD9094684
_publ_section_title
;
Structure prediction by ZEFSAII (Michael W. Deem and Ramdas Pophale) SiO2 
 PCOD9094684
Probable space group: P -1
;
_chemical_formula_sum "Si O2"
_cell_formula_units_Z 14
_cell_length_a 15.174908
_cell_length_b 8.770179
_cell_length_c 9.117530
_cell_angle_alpha 134.272214
_cell_angle_beta 125.672394
_cell_angle_gamma 40.570678
_cell_volume 561.429309
_symmetry_space_group_name_H-M "P -1"
_symmetry_group_IT_number 2
_symmetry_cell_setting 'triclinic'
loop_
_space_group_symop_operation_xyz
x,y,z
-x,-y,-z
loop_
_atom_site_type_symbol
_atom_site_label
_atom_site_fract_x
_atom_site_fract_y
_atom_site_fract_z
Si Si1 0.580781 0.845316 0.625132
Si Si2 0.268541 0.644744 0.162796
Si Si3 0.248042 0.790403 0.917108
Si Si4 0.680772 0.863414 0.254546
Si Si5 0.585373 0.339326 0.275599
Si Si6 0.197347 0.377764 0.501264
Si Si7 0.989229 0.961294 0.633881
O O1 0.609152 0.559680 0.478876
O O2 0.728600 0.769569 0.678606
O O3 0.500000 0.000000 0.500000
O O4 0.474134 0.017868 0.767080
O O5 0.425905 0.494881 0.251805
O O6 0.156902 0.828289 0.297940
O O7 0.246094 0.805242 0.098939
O O8 0.254656 0.412228 0.951467
O O9 0.365442 0.754772 0.908279
O O10 0.269509 0.511505 0.718519
O O11 0.096938 0.992501 0.839952
O O12 0.764242 0.812244 0.450740
O O13 0.667900 0.080137 0.282741
O O14 0.047735 0.651591 0.512782
O O15 0.000000 0.000000 0.500000
#
# Coordination Sequence:
#
# PCOD9094684 Si02
#       7
#     2   2   2   2   2   2   2
#     4   9  18  36  60  88 122 167 202 255 308 368
#     4  11  22  38  64  95 130 161 205 260 319 371
#     4   8  19  38  59  85 119 166 201 250 310 359
#     4  10  20  34  59  95 130 160 205 260 318 360
#     4  11  21  35  62  99 125 161 208 261 306 378
#     4   7  17  35  58  83 118 165 206 239 313 362
#     4  10  21  38  66  89 119 172 216 252 308 377
#
# _framework density 24.936354999999999
#
# number of rings (size 3 to 8) (size 9 to 14) (size 15 to 20)
#    0.857    1.714    0.000    2.571    2.000    1.143 
#    0.000    0.714    0.000    4.286    0.000    0.000 
#    0.000    0.000    0.000    0.000    0.000    0.000 
#
# Total GULP energy -78199.169888 kJ/mol
# GULP energy per Si atom -5585.654992 kJ/mol
# Density = 2.487960 g / cm^3
# Si number density = 24.936355 Si / 1000 Ang^3
#
#
#
# Elastic Constant Matrix: (Units=GPa)
#
#
# Indices 1 2 3 4 5 6 
#
# 1 154.6154 90.8123 60.3294 13.8813 -43.4502 2.5507
# 2 90.8123 160.2481 56.2588 -0.8458 -28.9787 12.6479
# 3 60.3294 56.2588 81.3194 15.7239 -32.9354 -1.3151
# 4 13.8813 -0.8458 15.7239 31.8312 -4.2726 -15.7396
# 5 -43.4502 -28.9787 -32.9354 -4.2726 48.5007 8.7319
# 6 2.5507 12.6479 -1.3151 -15.7396 8.7319 53.9676
#
#
#
# Elastic Compliance Matrix: (Units=1/GPa)
#
#
# Indices 1 2 3 4 5 6 
#
# 1 0.012639 -0.004998 -0.002381 -0.004501 0.006661 -0.001874
# 2 -0.004998 0.010749 -0.004905 0.004272 -0.000826 -0.001023
# 3 -0.002381 -0.004905 0.023881 -0.010977 0.010743 -0.003096
# 4 -0.004501 0.004272 -0.010977 0.044395 -0.007379 0.013086
# 5 0.006661 -0.000826 0.010743 -0.007379 0.034092 -0.007528
# 6 -0.001874 -0.001023 -0.003096 0.013086 -0.007528 0.023817
#
#
# Mechanical properties :
#
#
# Convention : Reuss Voigt Hill
#
# Bulk Modulus (GPa) = 44.05372 90.10931 67.08151
# Shear Modulus (GPa) = 27.51663 39.44539 33.48101
#
# Velocity S-wave (km/s) = 3.32546 3.98155 3.66821
# Velocity P-wave (km/s) = 5.69647 7.57306 6.70078
#
# Compressibility (1/GPa) = 0.02269956
#
# Stress axis : x y z
#
# Youngs Moduli (GPa) = 79.11948 93.03484 41.87421
#
# Poissons Ratio (x) = 0.46497 0.09972
# Poissons Ratio (y) = 0.39542 0.20541
# Poissons Ratio (z) = 0.18842 0.45637
#
# Static dielectric constant tensor:
#      x y z
#    x 1.999020 0.009170 0.019700 
#    y 0.009170 1.977330 0.001920 
#    z 0.019700 0.001920 2.072070 
# 
# From -- ./inp_files/296949.got.cif
#   From: 2010.05.17/outbox.cif.g08.bks.cpg/sg2_149_cif.got.tgz:296949.got - 2010.06.03 11:33:40.
