data_PCOD9094667
_publ_section_title
;
Structure prediction by ZEFSAII (Michael W. Deem and Ramdas Pophale) SiO2 
 PCOD9094667
Probable space group: P -1
;
_chemical_formula_sum "Si O2"
_cell_formula_units_Z 16
_cell_length_a 11.811979
_cell_length_b 4.982047
_cell_length_c 15.334889
_cell_angle_alpha 111.419224
_cell_angle_beta 128.886074
_cell_angle_gamma 79.001332
_cell_volume 653.006174
_symmetry_space_group_name_H-M "P -1"
_symmetry_group_IT_number 2
_symmetry_cell_setting 'triclinic'
loop_
_space_group_symop_operation_xyz
x,y,z
-x,-y,-z
loop_
_atom_site_type_symbol
_atom_site_label
_atom_site_fract_x
_atom_site_fract_y
_atom_site_fract_z
Si Si1 0.861919 0.815898 0.280270
Si Si2 0.212523 0.685087 0.018741
Si Si3 0.207759 0.146990 0.210697
Si Si4 0.063675 0.717548 0.221527
Si Si5 0.495085 0.515023 0.818566
Si Si6 0.671850 0.093308 0.344010
Si Si7 0.484934 0.823490 0.559411
Si Si8 0.299817 0.789664 0.878592
O O1 0.807693 0.486861 0.234922
O O2 0.016770 0.804026 0.306370
O O3 0.827308 0.025623 0.368994
O O4 0.759075 0.938960 0.168344
O O5 0.333714 0.514980 0.109516
O O6 0.169459 0.964647 0.084303
O O7 0.284815 0.790430 0.974837
O O8 0.074587 0.469631 0.907347
O O9 0.187168 0.487393 0.244311
O O10 0.375041 0.092454 0.304101
O O11 0.107999 0.999540 0.221035
O O12 0.408168 0.649345 0.712201
O O13 0.454403 0.709150 0.904740
O O14 0.424808 0.195648 0.761092
O O15 0.655467 0.134348 0.443851
O O16 0.500000 0.500000 0.500000
O O17 0.500000 0.000000 0.500000
#
# Coordination Sequence:
#
# PCOD9094667 Si02
#       8
#     2   2   2   2   2   2   2   2
#     4   9  19  38  61  86 128 168 212 250 297 368
#     4  11  22  37  60  91 139 177 215 239 295 378
#     4  12  26  42  64  90 132 168 213 260 308 378
#     4  11  24  41  60  94 133 182 207 236 297 378
#     4  10  20  34  59  90 134 167 207 255 304 361
#     4  10  21  40  65  94 121 161 208 269 323 360
#     4  12  26  47  73  95 120 154 209 278 339 373
#     4   9  19  33  53  89 127 176 210 251 294 350
#
# _framework density 24.502064000000001
#
# number of rings (size 3 to 8) (size 9 to 14) (size 15 to 20)
#    0.000    1.500    1.250    4.125    1.750    5.000 
#    0.000    7.500    0.000    4.500    0.000    0.000 
#    0.000    0.000    0.000    0.000    0.000    0.000 
#
# Total GULP energy -89580.430522 kJ/mol
# GULP energy per Si atom -5598.776908 kJ/mol
# Density = 2.444630 g / cm^3
# Si number density = 24.502064 Si / 1000 Ang^3
#
#
#
# Elastic Constant Matrix: (Units=GPa)
#
#
# Indices 1 2 3 4 5 6 
#
# 1 111.6713 9.3176 35.1481 4.0760 -38.3044 -22.5496
# 2 9.3176 88.9310 6.9176 -5.1504 -9.0921 1.4361
# 3 35.1481 6.9176 42.3412 7.5199 -15.8894 -13.3334
# 4 4.0760 -5.1504 7.5199 27.8780 -11.0112 -4.7147
# 5 -38.3044 -9.0921 -15.8894 -11.0112 51.9293 7.5682
# 6 -22.5496 1.4361 -13.3334 -4.7147 7.5682 49.9121
#
#
#
# Elastic Compliance Matrix: (Units=1/GPa)
#
#
# Indices 1 2 3 4 5 6 
#
# 1 0.015496 0.000216 -0.009145 0.004438 0.009087 0.003593
# 2 0.000216 0.011857 -0.002084 0.003556 0.002474 -0.000839
# 3 -0.009145 -0.002084 0.034686 -0.007137 0.001361 0.004314
# 4 0.004438 0.003556 -0.007137 0.042293 0.010327 0.002425
# 5 0.009087 0.002474 0.001361 0.010327 0.028853 0.000998
# 6 0.003593 -0.000839 0.004314 0.002425 0.000998 0.022913
#
#
# Mechanical properties :
#
#
# Convention : Reuss Voigt Hill
#
# Bulk Modulus (GPa) = 24.99236 38.41223 31.70230
# Shear Modulus (GPa) = 26.11494 38.71456 32.41475
#
# Velocity S-wave (km/s) = 3.26824 3.97930 3.64117
# Velocity P-wave (km/s) = 4.94612 6.06830 5.53572
#
# Compressibility (1/GPa) = 0.04001223
#
# Stress axis : x y z
#
# Youngs Moduli (GPa) = 64.53416 84.34120 28.82986
#
# Poissons Ratio (x) = -0.01821 0.26365
# Poissons Ratio (y) = -0.01393 0.06008
# Poissons Ratio (z) = 0.59018 0.17575
#
# Static dielectric constant tensor:
#      x y z
#    x 2.013710 -0.039900 -0.018150 
#    y -0.039900 1.899920 -0.000980 
#    z -0.018150 -0.000980 1.952290 
# 
# From -- ./inp_files/510517.got.cif
#   From: 2010.05.17/outbox.cif.g08.bks.cpg/sg2_256_cif.got.tgz:510517.got - 2010.06.03 11:33:40.
