data_PCOD9094228
_publ_section_title
;
Structure prediction by ZEFSAII (Michael W. Deem and Ramdas Pophale) SiO2 
 PCOD9094228
Probable space group: P -1
;
_chemical_formula_sum "Si O2"
_cell_formula_units_Z 16
_cell_length_a 11.740053
_cell_length_b 5.474827
_cell_length_c 21.120275
_cell_angle_alpha 103.278659
_cell_angle_beta 133.015659
_cell_angle_gamma 106.840443
_cell_volume 752.316417
_symmetry_space_group_name_H-M "P -1"
_symmetry_group_IT_number 2
_symmetry_cell_setting 'triclinic'
loop_
_space_group_symop_operation_xyz
x,y,z
-x,-y,-z
loop_
_atom_site_type_symbol
_atom_site_label
_atom_site_fract_x
_atom_site_fract_y
_atom_site_fract_z
Si Si1 0.121944 0.470427 0.097697
Si Si2 0.191064 0.154819 0.534280
Si Si3 0.022729 0.702749 0.178178
Si Si4 0.720611 0.075778 0.222384
Si Si5 0.385688 0.945240 0.016270
Si Si6 0.783790 0.762805 0.984055
Si Si7 0.037972 0.199286 0.702184
Si Si8 0.757535 0.247843 0.391964
O O1 0.274452 0.474194 0.111430
O O2 0.176676 0.712859 0.190588
O O3 0.000000 0.500000 0.000000
O O4 0.960309 0.114754 0.042779
O O5 0.304001 0.028512 0.598205
O O6 0.107635 0.015449 0.424367
O O7 0.308485 0.536218 0.604167
O O8 0.000000 0.000000 0.500000
O O9 0.071339 0.859703 0.275124
O O10 0.844678 0.328329 0.103077
O O11 0.898474 0.761834 0.088023
O O12 0.839655 0.427891 0.253329
O O13 0.715475 0.131088 0.297576
O O14 0.491900 0.864401 0.100006
O O15 0.824579 0.910826 0.241447
O O16 0.394353 0.232810 0.063628
O O17 0.500000 0.000000 0.000000
O O18 0.000000 0.500000 0.500000
#
# Coordination Sequence:
#
# PCOD9094228 Si02
#       8
#     2   2   2   2   2   2   2   2
#     4   8  16  34  54  68  84 125 170 215 254 281
#     4  10  16  30  47  64  87 127 165 212 247 283
#     4  10  21  32  48  71 101 132 169 209 245 293
#     4  12  22  31  47  67  99 143 171 199 241 297
#     4  11  22  32  43  69 107 143 168 196 239 299
#     4   9  18  34  51  66  94 132 169 209 245 288
#     4  12  21  31  48  70 100 135 168 202 251 297
#     4  10  16  31  46  63  86 127 173 209 240 280
#
# _framework density 21.267648999999999
#
# number of rings (size 3 to 8) (size 9 to 14) (size 15 to 20)
#    0.000    1.750    6.250    0.750    3.500    1.000 
#    0.000    0.000    0.000    0.000    0.000    0.000 
#    0.000    2.000    0.000    0.000    0.000    0.000 
#
# Total GULP energy -89111.684649 kJ/mol
# GULP energy per Si atom -5569.480291 kJ/mol
# Density = 2.121924 g / cm^3
# Si number density = 21.267649 Si / 1000 Ang^3
#
#
#
# Elastic Constant Matrix: (Units=GPa)
#
#
# Indices 1 2 3 4 5 6 
#
# 1 105.4102 43.9132 50.1375 -6.8090 -51.4203 -17.7545
# 2 43.9132 120.0610 12.4992 -10.1819 -17.8048 -29.9551
# 3 50.1375 12.4992 110.4257 -20.7142 -49.1270 -4.8246
# 4 -6.8090 -10.1819 -20.7142 19.0983 5.1834 2.3566
# 5 -51.4203 -17.8048 -49.1270 5.1834 44.1358 4.0570
# 6 -17.7545 -29.9551 -4.8246 2.3566 4.0570 28.4529
#
#
#
# Elastic Compliance Matrix: (Units=1/GPa)
#
#
# Indices 1 2 3 4 5 6 
#
# 1 0.026687 -0.002713 0.003592 0.001856 0.032899 0.009560
# 2 -0.002713 0.013006 0.003332 0.007110 0.003909 0.011418
# 3 0.003592 0.003332 0.024487 0.021004 0.029961 0.003889
# 4 0.001856 0.007110 0.021004 0.073914 0.019425 0.003313
# 5 0.032899 0.003909 0.029961 0.019425 0.092256 0.014962
# 6 0.009560 0.011418 0.003889 0.003313 0.014962 0.051385
#
#
# Mechanical properties :
#
#
# Convention : Reuss Voigt Hill
#
# Bulk Modulus (GPa) = 13.77380 60.99961 37.38671
# Shear Modulus (GPa) = 16.80590 33.62719 25.21655
#
# Velocity S-wave (km/s) = 2.81412 3.98067 3.44710
# Velocity P-wave (km/s) = 4.12910 7.06200 5.78452
#
# Compressibility (1/GPa) = 0.07260158
#
# Stress axis : x y z
#
# Youngs Moduli (GPa) = 37.47115 76.88551 40.83789
#
# Poissons Ratio (x) = 0.20863 -0.14670
# Poissons Ratio (y) = 0.10168 -0.13606
# Poissons Ratio (z) = -0.13461 -0.25616
#
# Static dielectric constant tensor:
#      x y z
#    x 1.809170 -0.028030 -0.007340 
#    y -0.028030 2.016380 0.097060 
#    z -0.007340 0.097060 1.796480 
# 
# From -- ./inp_files/74077.got.cif
#   From: 2010.05.17/outbox.cif.g08.bks.cpg/sg2_38_cif.got.tgz:74077.got - 2010.06.03 11:33:40.
