data_PCOD9094359
_publ_section_title
;
Structure prediction by ZEFSAII (Michael W. Deem and Ramdas Pophale) SiO2 
 PCOD9094359
Probable space group: P -1
;
_chemical_formula_sum "Si O2"
_cell_formula_units_Z 11
_cell_length_a 9.410826
_cell_length_b 5.085848
_cell_length_c 10.257804
_cell_angle_alpha 75.714526
_cell_angle_beta 58.289015
_cell_angle_gamma 71.167250
_cell_volume 393.489167
_symmetry_space_group_name_H-M "P -1"
_symmetry_group_IT_number 2
_symmetry_cell_setting 'triclinic'
loop_
_space_group_symop_operation_xyz
x,y,z
-x,-y,-z
loop_
_atom_site_type_symbol
_atom_site_label
_atom_site_fract_x
_atom_site_fract_y
_atom_site_fract_z
Si Si1 0.802434 0.138047 0.118339
Si Si2 0.616017 0.414000 0.581486
Si Si3 0.259544 0.238127 0.020948
Si Si4 0.629302 0.795067 0.753013
Si Si5 0.000000 0.500000 0.500000
Si Si6 0.075714 0.883054 0.667409
O O1 0.794649 0.080917 0.282703
O O2 0.695554 0.992802 0.086925
O O3 0.777366 0.463681 0.065120
O O4 0.000000 0.000000 0.000000
O O5 0.500000 0.500000 0.500000
O O6 0.548178 0.636803 0.699290
O O7 0.819324 0.371404 0.445006
O O8 0.616546 0.111502 0.675085
O O9 0.388367 0.233990 0.079681
O O10 0.914694 0.808210 0.824080
O O11 0.825362 0.617453 0.657427
O O12 0.020300 0.174721 0.588397
#
# Coordination Sequence:
#
# PCOD9094359 Si02
#       6
#     2   2   2   2   1   2
#     4  10  20  34  56  87 121 151 184 232 295 355
#     4  11  24  39  58  82 115 159 196 235 283 341
#     4  11  21  36  59  89 117 148 188 239 299 347
#     4  11  21  37  58  83 116 147 192 243 290 343
#     4  10  20  34  58  92 118 148 184 240 306 344
#     4  10  21  37  60  90 124 152 191 239 293 352
#
# _framework density 27.955027000000001
#
# number of rings (size 3 to 8) (size 9 to 14) (size 15 to 20)
#    0.000    1.455    0.000    8.182    0.000    8.727 
#    0.000    0.000    0.000    6.545    0.000    0.000 
#    0.000    4.364    0.000    0.000    0.000    0.000 
#
# Total GULP energy -61554.968170 kJ/mol
# GULP energy per Si atom -5595.906197 kJ/mol
# Density = 2.789140 g / cm^3
# Si number density = 27.955027 Si / 1000 Ang^3
#
#
#
# Elastic Constant Matrix: (Units=GPa)
#
#
# Indices 1 2 3 4 5 6 
#
# 1 89.7333 6.2637 24.6672 -7.3649 18.3730 0.6105
# 2 6.2637 240.6681 91.1547 16.0071 34.3772 16.5845
# 3 24.6672 91.1547 159.8479 26.1550 49.0964 0.8075
# 4 -7.3649 16.0071 26.1550 56.5264 -1.1857 12.1328
# 5 18.3730 34.3772 49.0964 -1.1857 82.7443 -1.3990
# 6 0.6105 16.5845 0.8075 12.1328 -1.3990 37.2620
#
#
#
# Elastic Compliance Matrix: (Units=1/GPa)
#
#
# Indices 1 2 3 4 5 6 
#
# 1 0.012275 0.000668 -0.002189 0.002686 -0.001689 -0.001389
# 2 0.000668 0.005569 -0.003159 0.000519 -0.000624 -0.002614
# 3 -0.002189 -0.003159 0.010574 -0.004947 -0.004502 0.002654
# 4 0.002686 0.000519 -0.004947 0.021770 0.002314 -0.007170
# 5 -0.001689 -0.000624 -0.004502 0.002314 0.015428 0.000229
# 6 -0.001389 -0.002614 0.002654 -0.007170 0.000229 0.030309
#
#
# Mechanical properties :
#
#
# Convention : Reuss Voigt Hill
#
# Bulk Modulus (GPa) = 52.46967 81.60228 67.03598
# Shear Modulus (GPa) = 44.78833 59.85079 52.31956
#
# Velocity S-wave (km/s) = 4.00704 4.63208 4.33085
# Velocity P-wave (km/s) = 6.34181 7.60672 7.00288
#
# Compressibility (1/GPa) = 0.01905863
#
# Stress axis : x y z
#
# Youngs Moduli (GPa) = 81.46686 179.56951 94.57390
#
# Poissons Ratio (x) = -0.11993 0.20698
# Poissons Ratio (y) = -0.05441 0.29874
# Poissons Ratio (z) = 0.17830 0.56722
#
# Static dielectric constant tensor:
#      x y z
#    x 2.164280 -0.039460 -0.008960 
#    y -0.039460 2.065610 0.176680 
#    z -0.008960 0.176680 2.135070 
# 
# From -- ./inp_files/64753.got.cif
#   From: 2010.05.17/outbox.cif.g08.bks.cpg/sg2_33_cif.got.tgz:64753.got - 2010.06.03 11:33:40.
