data_PCOD9094032
_publ_section_title
;
Structure prediction by ZEFSAII (Michael W. Deem and Ramdas Pophale) SiO2 
 PCOD9094032
Probable space group: P -1
;
_chemical_formula_sum "Si O2"
_cell_formula_units_Z 13
_cell_length_a 12.809968
_cell_length_b 12.806228
_cell_length_c 10.824836
_cell_angle_alpha 110.977589
_cell_angle_beta 70.862442
_cell_angle_gamma 158.106560
_cell_volume 618.222155
_symmetry_space_group_name_H-M "P -1"
_symmetry_group_IT_number 2
_symmetry_cell_setting 'triclinic'
loop_
_space_group_symop_operation_xyz
x,y,z
-x,-y,-z
loop_
_atom_site_type_symbol
_atom_site_label
_atom_site_fract_x
_atom_site_fract_y
_atom_site_fract_z
Si Si1 0.185942 0.271717 0.322210
Si Si2 0.587850 0.762866 0.736412
Si Si3 0.000000 0.000000 0.000000
Si Si4 0.789446 0.206564 0.488552
Si Si5 0.031258 0.268053 0.609115
Si Si6 0.579996 0.429296 0.017695
Si Si7 0.649705 0.851476 0.257756
O O1 0.340005 0.302097 0.313407
O O2 0.022891 0.165211 0.461515
O O3 0.421100 0.579509 0.319168
O O4 0.930002 0.031193 0.215263
O O5 0.356650 0.579556 0.646825
O O6 0.456306 0.666702 0.879358
O O7 0.869851 0.081952 0.715410
O O8 0.868551 0.762355 0.024911
O O9 0.681030 0.726747 0.951557
O O10 0.000000 0.500000 0.500000
O O11 0.887075 0.241875 0.594019
O O12 0.500000 0.000000 0.500000
O O13 0.767578 0.078640 0.353255
O O14 0.507218 0.284548 0.867859
#
# Coordination Sequence:
#
# PCOD9094032 Si02
#       7
#     2   2   1   2   2   2   2
#     4  11  21  36  57  87 124 162 194 234 279 335
#     4  12  22  35  57  86 130 164 182 220 286 367
#     4  10  20  34  52  80 120 166 208 218 248 334
#     4  11  23  43  66  84 105 144 200 264 309 331
#     4  11  23  38  57  87 117 153 199 237 290 356
#     4  11  21  35  55  85 121 161 196 232 281 332
#     4  11  22  37  61  89 117 149 205 250 280 341
#
# _framework density 21.028040000000001
#
# number of rings (size 3 to 8) (size 9 to 14) (size 15 to 20)
#    0.000    0.923    0.000   11.077    0.000    0.000 
#    0.000    0.000    0.000    5.538    0.000    0.000 
#    0.000    0.000    0.000    0.000    0.000    0.000 
#
# Total GULP energy -72456.755152 kJ/mol
# GULP energy per Si atom -5573.596550 kJ/mol
# Density = 2.098018 g / cm^3
# Si number density = 21.028040 Si / 1000 Ang^3
#
#
#
# Elastic Constant Matrix: (Units=GPa)
#
#
# Indices 1 2 3 4 5 6 
#
# 1 96.3665 30.3152 24.3698 6.5144 8.4579 0.2208
# 2 30.3152 164.4100 30.7115 -6.0331 -1.4324 -3.5584
# 3 24.3698 30.7115 74.7405 -8.7020 17.2011 -14.0208
# 4 6.5144 -6.0331 -8.7020 38.3488 -4.4245 6.8714
# 5 8.4579 -1.4324 17.2011 -4.4245 23.6062 5.3064
# 6 0.2208 -3.5584 -14.0208 6.8714 5.3064 46.6432
#
#
#
# Elastic Compliance Matrix: (Units=1/GPa)
#
#
# Indices 1 2 3 4 5 6 
#
# 1 0.012190 -0.001839 -0.003004 -0.003319 -0.002848 -0.000288
# 2 -0.001839 0.007094 -0.003277 0.001337 0.003972 -0.001084
# 3 -0.003004 -0.003277 0.020960 0.001558 -0.015820 0.007635
# 4 -0.003319 0.001337 0.001558 0.028741 0.006509 -0.004389
# 5 -0.002848 0.003972 -0.015820 0.006509 0.059095 -0.012121
# 6 -0.000288 -0.001084 0.007635 -0.004389 -0.012121 0.025679
#
#
# Mechanical properties :
#
#
# Convention : Reuss Voigt Hill
#
# Bulk Modulus (GPa) = 41.66019 56.25666 48.95842
# Shear Modulus (GPa) = 28.08974 38.39434 33.24204
#
# Velocity S-wave (km/s) = 3.65886 4.27765 3.98030
# Velocity P-wave (km/s) = 6.14039 7.15604 6.66758
#
# Compressibility (1/GPa) = 0.02400373
#
# Stress axis : x y z
#
# Youngs Moduli (GPa) = 82.03234 140.96726 47.70969
#
# Poissons Ratio (x) = 0.25930 0.14332
# Poissons Ratio (y) = 0.15089 0.15634
# Poissons Ratio (z) = 0.24643 0.46193
#
# Static dielectric constant tensor:
#      x y z
#    x 1.796520 0.025020 0.011050 
#    y 0.025020 1.716060 0.008480 
#    z 0.011050 0.008480 1.868160 
# 
# From -- ./inp_files/425985.got.cif
#   From: 2010.05.17/outbox.cif.g08.bks.cpg/sg2_213_cif.got.tgz:425985.got - 2010.06.03 11:33:40.
