data_PCOD9094670
_publ_section_title
;
Structure prediction by ZEFSAII (Michael W. Deem and Ramdas Pophale) SiO2 
 PCOD9094670
Probable space group: P -1
;
_chemical_formula_sum "Si O2"
_cell_formula_units_Z 12
_cell_length_a 15.467068
_cell_length_b 6.810230
_cell_length_c 13.156606
_cell_angle_alpha 116.815774
_cell_angle_beta 26.465103
_cell_angle_gamma 126.336966
_cell_volume 485.213928
_symmetry_space_group_name_H-M "P -1"
_symmetry_group_IT_number 2
_symmetry_cell_setting 'triclinic'
loop_
_space_group_symop_operation_xyz
x,y,z
-x,-y,-z
loop_
_atom_site_type_symbol
_atom_site_label
_atom_site_fract_x
_atom_site_fract_y
_atom_site_fract_z
Si Si1 0.567504 0.557244 0.607321
Si Si2 0.699538 0.984522 0.841998
Si Si3 0.887639 0.211059 0.076009
Si Si4 0.424635 0.200480 0.844954
Si Si5 0.857777 0.626286 0.479948
Si Si6 0.310928 0.120585 0.616267
O O1 0.418338 0.421467 0.832285
O O2 0.811194 0.639169 0.413040
O O3 0.477319 0.338810 0.567792
O O4 0.582656 0.796280 0.588680
O O5 0.896515 0.265033 0.716044
O O6 0.776038 0.814741 0.657226
O O7 0.500000 0.000000 0.000000
O O8 0.664934 0.864971 0.963122
O O9 0.702627 0.037341 0.149171
O O10 0.770208 0.130811 0.291839
O O11 0.000000 0.500000 0.000000
O O12 0.087319 0.143746 0.849473
O O13 0.689600 0.340699 0.616642
#
# Coordination Sequence:
#
# PCOD9094670 Si02
#       6
#     2   2   2   2   2   2
#     4   8  17  35  61  81 120 164 205 242 315 379
#     4  11  22  38  64  93 124 160 216 265 312 384
#     4  10  20  34  59  91 125 164 208 256 308 372
#     4   9  20  39  61  85 128 167 203 262 319 367
#     4   9  21  40  63  88 125 171 198 261 329 357
#     4   9  17  35  58  86 121 165 205 249 307 384
#
# _framework density 24.731358
#
# number of rings (size 3 to 8) (size 9 to 14) (size 15 to 20)
#    1.000    1.667    0.000    1.500    0.000    2.000 
#    0.000    9.167    0.000    0.000    0.000    0.000 
#    0.000    0.000    0.000    0.000    0.000    0.000 
#
# Total GULP energy -66878.181615 kJ/mol
# GULP energy per Si atom -5573.181801 kJ/mol
# Density = 2.467507 g / cm^3
# Si number density = 24.731358 Si / 1000 Ang^3
#
#
#
# Elastic Constant Matrix: (Units=GPa)
#
#
# Indices 1 2 3 4 5 6 
#
# 1 141.6676 77.3002 58.6787 -18.9952 -12.9167 1.6304
# 2 77.3002 144.9682 58.8192 -43.7242 -6.2246 -16.7477
# 3 58.6787 58.8192 86.7245 -21.6919 -20.9602 0.3733
# 4 -18.9952 -43.7242 -21.6919 51.1260 0.1631 -7.9177
# 5 -12.9167 -6.2246 -20.9602 0.1631 64.3981 -20.2241
# 6 1.6304 -16.7477 0.3733 -7.9177 -20.2241 45.5711
#
#
#
# Elastic Compliance Matrix: (Units=1/GPa)
#
#
# Indices 1 2 3 4 5 6 
#
# 1 0.011762 -0.005515 -0.005188 -0.003061 -0.000903 -0.003337
# 2 -0.005515 0.015903 -0.003786 0.011320 0.001970 0.008914
# 3 -0.005188 -0.003786 0.019822 0.003492 0.005574 0.001712
# 4 -0.003061 0.011320 0.003492 0.031437 0.005327 0.012067
# 5 -0.000903 0.001970 0.005574 0.005327 0.020743 0.010842
# 6 -0.003337 0.008914 0.001712 0.012067 0.010842 0.032233
#
#
# Mechanical properties :
#
#
# Convention : Reuss Voigt Hill
#
# Bulk Modulus (GPa) = 54.02208 84.77294 69.39751
# Shear Modulus (GPa) = 29.93177 44.12317 37.02747
#
# Velocity S-wave (km/s) = 3.48268 4.22844 3.87355
# Velocity P-wave (km/s) = 6.16952 7.62834 6.93738
#
# Compressibility (1/GPa) = 0.01851095
#
# Stress axis : x y z
#
# Youngs Moduli (GPa) = 85.01809 62.88077 50.44953
#
# Poissons Ratio (x) = 0.34676 0.26172
# Poissons Ratio (y) = 0.46884 0.19099
# Poissons Ratio (z) = 0.44105 0.23805
#
# Static dielectric constant tensor:
#      x y z
#    x 1.952470 0.002970 0.036150 
#    y 0.002970 1.979710 0.037190 
#    z 0.036150 0.037190 2.093350 
# 
# From -- ./inp_files/524817.got.cif
#   From: 2010.05.17/outbox.cif.g08.bks.cpg/sg2_263_cif.got.tgz:524817.got - 2010.06.03 11:33:40.
