data_PCOD9094329
_publ_section_title
;
Structure prediction by ZEFSAII (Michael W. Deem and Ramdas Pophale) SiO2 
 PCOD9094329
Probable space group: P -1
;
_chemical_formula_sum "Si O2"
_cell_formula_units_Z 14
_cell_length_a 6.364008
_cell_length_b 11.777628
_cell_length_c 10.470230
_cell_angle_alpha 122.790454
_cell_angle_beta 112.477004
_cell_angle_gamma 82.292100
_cell_volume 606.916198
_symmetry_space_group_name_H-M "P -1"
_symmetry_group_IT_number 2
_symmetry_cell_setting 'triclinic'
loop_
_space_group_symop_operation_xyz
x,y,z
-x,-y,-z
loop_
_atom_site_type_symbol
_atom_site_label
_atom_site_fract_x
_atom_site_fract_y
_atom_site_fract_z
Si Si1 0.540704 0.693061 0.065350
Si Si2 0.463321 0.660301 0.747343
Si Si3 0.923598 0.907943 0.304471
Si Si4 0.687949 0.636648 0.508526
Si Si5 0.121755 0.509043 0.896381
Si Si6 0.871379 0.158517 0.306396
Si Si7 0.776517 0.291249 0.628528
O O1 0.598744 0.663034 0.912517
O O2 0.269906 0.650630 0.989676
O O3 0.663728 0.840165 0.215619
O O4 0.681462 0.594251 0.122361
O O5 0.607677 0.652463 0.646579
O O6 0.294749 0.521120 0.615821
O O7 0.324361 0.793360 0.800577
O O8 0.093723 0.788386 0.281422
O O9 0.930264 0.004477 0.241010
O O10 0.000000 0.000000 0.500000
O O11 0.482311 0.678787 0.395192
O O12 0.904921 0.740827 0.602481
O O13 0.922477 0.434714 0.718311
O O14 0.000000 0.500000 0.000000
O O15 0.778938 0.199152 0.448105
#
# Coordination Sequence:
#
# PCOD9094329 Si02
#       7
#     2   2   2   2   2   2   2
#     4  10  21  37  55  79 114 144 177 231 274 319
#     4  10  21  35  55  83 112 146 185 222 276 327
#     4   9  20  38  57  79 109 148 188 223 273 329
#     4  10  20  35  58  84 113 144 181 230 273 321
#     4  10  20  34  56  85 109 138 180 227 281 327
#     4  10  20  36  56  80 112 151 186 220 266 327
#     4   9  19  35  56  83 110 140 184 228 274 327
#
# _framework density 23.067433999999999
#
# number of rings (size 3 to 8) (size 9 to 14) (size 15 to 20)
#    0.000    2.286    0.000    2.143    0.000    9.143 
#    0.000    7.857    0.000    0.000    0.000    0.000 
#    0.000    0.000    0.000    0.000    0.000    0.000 
#
# Total GULP energy -78075.657794 kJ/mol
# GULP energy per Si atom -5576.832700 kJ/mol
# Density = 2.301493 g / cm^3
# Si number density = 23.067434 Si / 1000 Ang^3
#
#
#
# Elastic Constant Matrix: (Units=GPa)
#
#
# Indices 1 2 3 4 5 6 
#
# 1 47.2402 32.0382 9.9217 0.0547 1.1383 0.0054
# 2 32.0382 112.9310 12.3987 -0.7755 10.3051 3.5538
# 3 9.9217 12.3987 75.7387 10.4665 5.5107 2.6204
# 4 0.0547 -0.7755 10.4665 33.4999 2.7583 15.4866
# 5 1.1383 10.3051 5.5107 2.7583 26.5532 -0.2892
# 6 0.0054 3.5538 2.6204 15.4866 -0.2892 21.8495
#
#
#
# Elastic Compliance Matrix: (Units=1/GPa)
#
#
# Indices 1 2 3 4 5 6 
#
# 1 0.026786 -0.007616 -0.002426 -0.000562 0.002391 0.001953
# 2 -0.007616 0.011635 -0.000824 0.002604 -0.004329 -0.003694
# 3 -0.002426 -0.000824 0.014469 -0.005383 -0.001996 0.002188
# 4 -0.000562 0.002604 -0.005383 0.047518 -0.005170 -0.033526
# 5 0.002391 -0.004329 -0.001996 -0.005170 0.040245 0.005140
# 6 0.001953 -0.003694 0.002188 -0.033526 0.005140 0.069937
#
#
# Mechanical properties :
#
#
# Convention : Reuss Voigt Hill
#
# Bulk Modulus (GPa) = 32.09427 38.29189 35.19308
# Shear Modulus (GPa) = 20.60077 28.48395 24.54236
#
# Velocity S-wave (km/s) = 2.99166 3.51780 3.26535
# Velocity P-wave (km/s) = 5.08693 5.75638 5.43198
#
# Compressibility (1/GPa) = 0.03115821
#
# Stress axis : x y z
#
# Youngs Moduli (GPa) = 37.33282 85.94554 69.11128
#
# Poissons Ratio (x) = 0.65458 0.16766
# Poissons Ratio (y) = 0.28434 0.05695
# Poissons Ratio (z) = 0.09057 0.07082
#
# Static dielectric constant tensor:
#      x y z
#    x 1.883260 -0.014590 0.013010 
#    y -0.014590 2.003430 -0.026670 
#    z 0.013010 -0.026670 1.875660 
# 
# From -- ./inp_files/82674.got.cif
#   From: 2010.05.17/outbox.cif.g08.bks.cpg/sg2_42_cif.got.tgz:82674.got - 2010.06.03 11:33:40.
