data_PCOD9094616
_publ_section_title
;
Structure prediction by ZEFSAII (Michael W. Deem and Ramdas Pophale) SiO2 
 PCOD9094616
Probable space group: P -1
;
_chemical_formula_sum "Si O2"
_cell_formula_units_Z 16
_cell_length_a 9.278600
_cell_length_b 19.563330
_cell_length_c 9.133810
_cell_angle_alpha 52.492366
_cell_angle_beta 85.560205
_cell_angle_gamma 46.536563
_cell_volume 768.660483
_symmetry_space_group_name_H-M "P -1"
_symmetry_group_IT_number 2
_symmetry_cell_setting 'triclinic'
loop_
_space_group_symop_operation_xyz
x,y,z
-x,-y,-z
loop_
_atom_site_type_symbol
_atom_site_label
_atom_site_fract_x
_atom_site_fract_y
_atom_site_fract_z
Si Si1 0.523072 0.361247 0.941869
Si Si2 0.283657 0.240802 0.483520
Si Si3 0.133641 0.628793 0.836425
Si Si4 0.105161 0.531202 0.535858
Si Si5 0.115684 0.061562 0.551701
Si Si6 0.547816 0.951092 0.731537
Si Si7 0.287999 0.865424 0.537685
Si Si8 0.870611 0.345599 0.876980
O O1 0.346962 0.508878 0.859767
O O2 0.344466 0.401450 0.787559
O O3 0.734254 0.319532 0.910716
O O4 0.629730 0.241058 0.204031
O O5 0.480239 0.220282 0.465384
O O6 0.091804 0.324256 0.254265
O O7 0.115906 0.331323 0.520054
O O8 0.436991 0.078465 0.676939
O O9 0.030435 0.776842 0.646391
O O10 0.215953 0.571955 0.069108
O O11 0.178206 0.570289 0.365547
O O12 0.000000 0.500000 0.500000
O O13 0.934872 0.074354 0.605454
O O14 0.370444 0.953967 0.757119
O O15 0.189191 0.995266 0.468091
O O16 0.500000 0.000000 0.500000
O O17 0.833544 0.801914 0.934652
#
# Coordination Sequence:
#
# PCOD9094616 Si02
#       8
#     2   2   2   2   2   2   2   2
#     4  11  25  40  65  94 123 167 216 256 310 373
#     4  10  22  40  63  95 125 161 207 260 312 375
#     4  10  20  39  64  96 120 161 213 257 312 373
#     4  11  29  43  58  87 133 173 210 252 311 375
#     4  10  20  34  59 104 124 150 192 273 321 356
#     4  11  18  38  67  96 121 159 210 259 314 376
#     4  11  20  34  64  99 127 150 203 268 314 358
#     4  12  22  41  66  90 126 170 202 257 313 378
#
# _framework density 20.815432999999999
#
# number of rings (size 3 to 8) (size 9 to 14) (size 15 to 20)
#    0.000    1.250    5.000    0.750    7.000    1.500 
#    0.000    1.250    0.000    1.500    0.000    0.000 
#    0.000    0.000    0.000    0.000    0.000    0.000 
#
# Total GULP energy -89374.056279 kJ/mol
# GULP energy per Si atom -5585.878517 kJ/mol
# Density = 2.076806 g / cm^3
# Si number density = 20.815433 Si / 1000 Ang^3
#
#
#
# Elastic Constant Matrix: (Units=GPa)
#
#
# Indices 1 2 3 4 5 6 
#
# 1 168.5274 34.8948 22.8017 1.3386 19.9541 -16.9505
# 2 34.8948 68.3241 13.4390 -2.7783 5.7206 8.2938
# 3 22.8017 13.4390 37.9403 -6.8135 10.6906 -0.8982
# 4 1.3386 -2.7783 -6.8135 25.7426 -3.8967 1.3304
# 5 19.9541 5.7206 10.6906 -3.8967 32.1032 -3.4618
# 6 -16.9505 8.2938 -0.8982 1.3304 -3.4618 32.7683
#
#
#
# Elastic Compliance Matrix: (Units=1/GPa)
#
#
# Indices 1 2 3 4 5 6 
#
# 1 0.008006 -0.003952 -0.002843 -0.002312 -0.003085 0.004832
# 2 -0.003952 0.018339 -0.004008 0.001473 -0.000038 -0.006859
# 3 -0.002843 -0.004008 0.032945 0.007308 -0.007673 -0.000661
# 4 -0.002312 0.001473 0.007308 0.041731 0.003516 -0.002691
# 5 -0.003085 -0.000038 -0.007673 0.003516 0.036260 0.001891
# 6 0.004832 -0.006859 -0.000661 -0.002691 0.001891 0.035044
#
#
# Mechanical properties :
#
#
# Convention : Reuss Voigt Hill
#
# Bulk Modulus (GPa) = 26.53740 46.34034 36.43887
# Shear Modulus (GPa) = 24.21403 31.69992 27.95698
#
# Velocity S-wave (km/s) = 3.41438 3.90667 3.66879
# Velocity P-wave (km/s) = 5.32171 6.53148 5.95738
#
# Compressibility (1/GPa) = 0.03768266
#
# Stress axis : x y z
#
# Youngs Moduli (GPa) = 124.90025 54.52991 30.35393
#
# Poissons Ratio (x) = 0.21550 0.08631
# Poissons Ratio (y) = 0.49361 0.12166
# Poissons Ratio (z) = 0.35515 0.21855
#
# Static dielectric constant tensor:
#      x y z
#    x 1.807150 -0.004910 0.009780 
#    y -0.004910 1.753930 -0.022660 
#    z 0.009780 -0.022660 1.751760 
# 
# From -- ./inp_files/214758.got.cif
#   From: 2010.05.17/outbox.cif.g08.bks.cpg/sg2_108_cif.got.tgz:214758.got - 2010.06.03 11:33:40.
