data_PCOD9094606
_publ_section_title
;
Structure prediction by ZEFSAII (Michael W. Deem and Ramdas Pophale) SiO2 
 PCOD9094606
Probable space group: P -1
;
_chemical_formula_sum "Si O2"
_cell_formula_units_Z 15
_cell_length_a 5.289479
_cell_length_b 20.434474
_cell_length_c 5.348011
_cell_angle_alpha 97.539670
_cell_angle_beta 96.842711
_cell_angle_gamma 98.414585
_cell_volume 561.218609
_symmetry_space_group_name_H-M "P -1"
_symmetry_group_IT_number 2
_symmetry_cell_setting 'triclinic'
loop_
_space_group_symop_operation_xyz
x,y,z
-x,-y,-z
loop_
_atom_site_type_symbol
_atom_site_label
_atom_site_fract_x
_atom_site_fract_y
_atom_site_fract_z
Si Si1 0.527095 0.422316 0.446081
Si Si2 0.664809 0.802672 0.695550
Si Si3 0.273953 0.546169 0.012911
Si Si4 0.934995 0.691558 0.759473
Si Si5 0.790419 0.257043 0.707302
Si Si6 0.461164 0.058035 0.212287
Si Si7 0.000000 0.000000 0.500000
Si Si8 0.059034 0.877878 0.411781
O O1 0.500000 0.500000 0.500000
O O2 0.715662 0.418335 0.235058
O O3 0.256047 0.377744 0.332287
O O4 0.647456 0.406675 0.716265
O O5 0.745228 0.744845 0.843280
O O6 0.499902 0.761514 0.434247
O O7 0.524191 0.862430 0.808531
O O8 0.918162 0.840760 0.612273
O O9 0.500000 0.500000 0.000000
O O10 0.000000 0.500000 0.000000
O O11 0.060235 0.712827 0.513459
O O12 0.131154 0.699264 0.017763
O O13 0.845106 0.181972 0.746430
O O14 0.199033 0.034071 0.318179
O O15 0.719954 0.062558 0.425497
O O16 0.500000 0.000000 0.000000
O O17 0.097212 0.072267 0.720601
#
# Coordination Sequence:
#
# PCOD9094606 Si02
#       8
#     2   2   2   2   2   2   1   2
#     4  10  22  43  68 103 141 180 231 294 361 430
#     4   9  22  43  63  98 135 183 233 290 353 426
#     4  10  21  42  69 101 144 187 232 293 362 438
#     4  11  23  45  69  97 139 183 239 287 355 431
#     4  10  23  42  66  95 133 183 233 294 349 421
#     4  10  21  38  62  97 135 180 229 295 356 424
#     4  10  20  34  58  94 126 174 228 278 352 418
#     4   9  20  38  60  89 137 171 229 289 347 417
#
# _framework density 26.727550000000001
#
# number of rings (size 3 to 8) (size 9 to 14) (size 15 to 20)
#    0.000    2.133    0.000    1.600    0.000    8.533 
#   14.400    4.000    0.000    0.000    0.000    0.000 
#    0.000    0.000    0.000    0.000    0.000    0.000 
#
# Total GULP energy -83670.735127 kJ/mol
# GULP energy per Si atom -5578.049008 kJ/mol
# Density = 2.666672 g / cm^3
# Si number density = 26.727550 Si / 1000 Ang^3
#
#
#
# Elastic Constant Matrix: (Units=GPa)
#
#
# Indices 1 2 3 4 5 6 
#
# 1 103.6916 46.1891 52.8019 12.6130 -13.7216 4.5660
# 2 46.1891 144.7856 68.0266 15.3146 3.5522 10.5830
# 3 52.8019 68.0266 194.3175 27.8676 3.4369 15.5120
# 4 12.6130 15.3146 27.8676 35.6969 19.8589 5.3376
# 5 -13.7216 3.5522 3.4369 19.8589 36.8115 -12.0166
# 6 4.5660 10.5830 15.5120 5.3376 -12.0166 43.5713
#
#
#
# Elastic Compliance Matrix: (Units=1/GPa)
#
#
# Indices 1 2 3 4 5 6 
#
# 1 0.015016 -0.003429 -0.002014 -0.010429 0.013354 0.004937
# 2 -0.003429 0.009153 -0.002209 0.001140 -0.003261 -0.002116
# 3 -0.002014 -0.002209 0.007133 -0.004103 0.000647 -0.001111
# 4 -0.010429 0.001140 -0.004103 0.059813 -0.041244 -0.016425
# 5 0.013354 -0.003261 0.000647 -0.041244 0.061566 0.021194
# 6 0.004937 -0.002116 -0.001111 -0.016425 0.021194 0.031200
#
#
# Mechanical properties :
#
#
# Convention : Reuss Voigt Hill
#
# Bulk Modulus (GPa) = 62.51834 86.31442 74.41638
# Shear Modulus (GPa) = 24.44777 41.60108 33.02442
#
# Velocity S-wave (km/s) = 3.02769 3.94951 3.51892
# Velocity P-wave (km/s) = 5.97196 7.29126 6.66434
#
# Compressibility (1/GPa) = 0.01599531
#
# Stress axis : x y z
#
# Youngs Moduli (GPa) = 66.59767 109.25561 140.20149
#
# Poissons Ratio (x) = 0.37465 0.28241
# Poissons Ratio (y) = 0.22837 0.30975
# Poissons Ratio (z) = 0.13415 0.24138
#
# Static dielectric constant tensor:
#      x y z
#    x 1.898670 0.162960 -0.190370 
#    y 0.162960 1.822670 0.184660 
#    z -0.190370 0.184660 2.105380 
# 
# From -- ./inp_files/9917.got.cif
#   From: 2010.05.17/outbox.cif.g08.bks.cpg/sg2_5_cif.got.tgz:9917.got - 2010.06.03 11:33:40.
