data_PCOD9094094
_publ_section_title
;
Structure prediction by ZEFSAII (Michael W. Deem and Ramdas Pophale) SiO2 
 PCOD9094094
Probable space group: P -1
;
_chemical_formula_sum "Si O2"
_cell_formula_units_Z 15
_cell_length_a 12.243392
_cell_length_b 8.410275
_cell_length_c 13.514021
_cell_angle_alpha 37.476338
_cell_angle_beta 136.897713
_cell_angle_gamma 122.482351
_cell_volume 575.509958
_symmetry_space_group_name_H-M "P -1"
_symmetry_group_IT_number 2
_symmetry_cell_setting 'triclinic'
loop_
_space_group_symop_operation_xyz
x,y,z
-x,-y,-z
loop_
_atom_site_type_symbol
_atom_site_label
_atom_site_fract_x
_atom_site_fract_y
_atom_site_fract_z
Si Si1 0.753687 0.346178 0.767014
Si Si2 0.224660 0.414544 0.129662
Si Si3 0.572212 0.439477 0.304048
Si Si4 0.578737 0.799431 0.297598
Si Si5 0.907091 0.497267 0.541853
Si Si6 0.500000 0.500000 0.000000
Si Si7 0.160607 0.937233 0.700950
Si Si8 0.172081 0.211344 0.995097
O O1 0.820249 0.501977 0.828303
O O2 0.701675 0.571274 0.541595
O O3 0.588160 0.232780 0.746413
O O4 0.839733 0.079726 0.911024
O O5 0.416809 0.317662 0.304977
O O6 0.157120 0.224004 0.098642
O O7 0.181476 0.685967 0.906811
O O8 0.544351 0.723569 0.199569
O O9 0.751836 0.338117 0.504882
O O10 0.572720 0.459853 0.178032
O O11 0.667925 0.060811 0.245989
O O12 0.845495 0.802723 0.366244
O O13 0.000000 0.500000 0.500000
O O14 0.030475 0.399921 0.756876
O O15 0.338345 0.331196 0.013778
O O16 0.000000 0.000000 0.500000
#
# Coordination Sequence:
#
# PCOD9094094 Si02
#       8
#     2   2   2   2   2   1   2   2
#     4  10  22  43  67  89 128 177 206 261 320 381
#     4  10  22  40  65  95 124 163 219 266 307 380
#     4   9  20  36  59  85 126 161 203 263 310 366
#     4   9  22  41  64  91 126 169 215 252 326 382
#     4  11  20  34  56  90 128 159 202 258 322 374
#     4  10  20  34  54 100 120 152 212 264 304 370
#     4  11  22  38  64  92 129 161 206 274 315 363
#     4  11  22  36  64  94 129 162 215 262 316 379
#
# _framework density 26.063842000000001
#
# number of rings (size 3 to 8) (size 9 to 14) (size 15 to 20)
#    0.000    1.867    2.667    0.800    5.600    2.667 
#    0.000   14.000    2.933    0.000    0.000    0.000 
#    0.000    0.000    0.000    0.000    0.000    0.000 
#
# Total GULP energy -83561.062811 kJ/mol
# GULP energy per Si atom -5570.737521 kJ/mol
# Density = 2.600452 g / cm^3
# Si number density = 26.063842 Si / 1000 Ang^3
#
#
#
# Elastic Constant Matrix: (Units=GPa)
#
#
# Indices 1 2 3 4 5 6 
#
# 1 86.5268 48.2605 9.3189 17.3742 3.0252 -5.4161
# 2 48.2605 139.5988 57.5552 24.9878 -4.7319 -10.4575
# 3 9.3189 57.5552 104.0348 15.6274 12.0434 -5.6319
# 4 17.3742 24.9878 15.6274 53.6841 -0.8791 2.0013
# 5 3.0252 -4.7319 12.0434 -0.8791 35.3258 16.2818
# 6 -5.4161 -10.4575 -5.6319 2.0013 16.2818 49.0570
#
#
#
# Elastic Compliance Matrix: (Units=1/GPa)
#
#
# Indices 1 2 3 4 5 6 
#
# 1 0.015543 -0.006019 0.003062 -0.003279 -0.004352 0.002363
# 2 -0.006019 0.012427 -0.006585 -0.001839 0.004461 -0.000177
# 3 0.003062 -0.006585 0.014386 -0.002357 -0.007582 0.003198
# 4 -0.003279 -0.001839 -0.002357 0.021378 0.002650 -0.002776
# 5 -0.004352 0.004461 -0.007582 0.002650 0.037971 -0.013111
# 6 0.002363 -0.000177 0.003198 -0.002776 -0.013111 0.025439
#
#
# Mechanical properties :
#
#
# Convention : Reuss Voigt Hill
#
# Bulk Modulus (GPa) = 42.97297 62.26999 52.62148
# Shear Modulus (GPa) = 32.47041 41.94842 37.20941
#
# Velocity S-wave (km/s) = 3.53342 4.01615 3.78249
# Velocity P-wave (km/s) = 5.75935 6.74160 6.26974
#
# Compressibility (1/GPa) = 0.02327044
#
# Stress axis : x y z
#
# Youngs Moduli (GPa) = 64.33693 80.47266 69.51252
#
# Poissons Ratio (x) = 0.48440 -0.21286
# Poissons Ratio (y) = 0.38727 0.45776
# Poissons Ratio (z) = -0.19701 0.52994
#
# Static dielectric constant tensor:
#      x y z
#    x 2.287330 0.137000 0.022670 
#    y 0.137000 2.118010 0.062320 
#    z 0.022670 0.062320 1.903030 
# 
# From -- ./inp_files/527178.got.cif
#   From: 2010.05.17/outbox.cif.g08.bks.cpg/sg2_264_cif.got.tgz:527178.got - 2010.06.03 11:33:40.
