data_PCOD9094260
_publ_section_title
;
Structure prediction by ZEFSAII (Michael W. Deem and Ramdas Pophale) SiO2 
 PCOD9094260
Probable space group: P -1
;
_chemical_formula_sum "Si O2"
_cell_formula_units_Z 16
_cell_length_a 9.364080
_cell_length_b 17.956864
_cell_length_c 11.651084
_cell_angle_alpha 27.580314
_cell_angle_beta 42.037366
_cell_angle_gamma 44.011162
_cell_volume 595.547714
_symmetry_space_group_name_H-M "P -1"
_symmetry_group_IT_number 2
_symmetry_cell_setting 'triclinic'
loop_
_space_group_symop_operation_xyz
x,y,z
-x,-y,-z
loop_
_atom_site_type_symbol
_atom_site_label
_atom_site_fract_x
_atom_site_fract_y
_atom_site_fract_z
Si Si1 0.874133 0.402671 0.798228
Si Si2 0.701594 0.261890 0.409625
Si Si3 0.305470 0.978724 0.913687
Si Si4 0.955638 0.894551 0.391916
Si Si5 0.694368 0.816205 0.150965
Si Si6 0.609770 0.163424 0.350733
Si Si7 0.072727 0.468829 0.156198
Si Si8 0.603827 0.655099 0.189739
O O1 0.047801 0.230044 0.926249
O O2 0.893351 0.501273 0.769449
O O3 0.000000 0.500000 0.500000
O O4 0.647255 0.332622 0.034799
O O5 0.858470 0.147207 0.561735
O O6 0.450677 0.299818 0.543740
O O7 0.724972 0.180146 0.382420
O O8 0.763928 0.435881 0.130554
O O9 0.384959 0.031566 0.922562
O O10 0.385190 0.110169 0.601730
O O11 0.066719 0.958735 0.125997
O O12 0.425363 0.798413 0.043583
O O13 0.908641 0.717610 0.630761
O O14 0.742749 0.012212 0.406396
O O15 0.668936 0.762649 0.109197
O O16 0.837480 0.571923 0.117880
O O17 0.500000 0.500000 0.500000
#
# Coordination Sequence:
#
# PCOD9094260 Si02
#       8
#     2   2   2   2   2   2   2   2
#     4  10  22  44  64  79 107 148 201 259 297 329
#     4  10  20  34  55  90 122 155 189 224 277 355
#     4  11  21  34  57  88 120 157 189 221 281 352
#     4  12  20  36  58  85 132 159 175 229 285 347
#     4  10  20  34  58  81 110 150 191 232 285 338
#     4  10  23  36  57  87 114 155 202 234 276 347
#     4  10  22  36  55  88 118 157 197 228 286 343
#     4  11  19  32  51  85 122 157 182 216 274 347
#
# _framework density 26.866025
#
# number of rings (size 3 to 8) (size 9 to 14) (size 15 to 20)
#    0.000    1.500    3.750    1.875    1.750    1.000 
#    0.000    6.250    0.000    0.750    0.000    0.000 
#    0.000    0.000    0.000    0.000    0.000    0.000 
#
# Total GULP energy -89228.899780 kJ/mol
# GULP energy per Si atom -5576.806236 kJ/mol
# Density = 2.680488 g / cm^3
# Si number density = 26.866025 Si / 1000 Ang^3
#
#
#
# Elastic Constant Matrix: (Units=GPa)
#
#
# Indices 1 2 3 4 5 6 
#
# 1 37.7548 36.4482 18.7868 3.7741 15.7382 0.1678
# 2 36.4482 168.4050 82.9810 -4.9954 -12.5085 3.3492
# 3 18.7868 82.9810 253.3359 47.2062 -41.6863 -6.4380
# 4 3.7741 -4.9954 47.2062 46.1956 -7.5039 -10.2334
# 5 15.7382 -12.5085 -41.6863 -7.5039 47.7469 13.6461
# 6 0.1678 3.3492 -6.4380 -10.2334 13.6461 31.7758
#
#
#
# Elastic Compliance Matrix: (Units=1/GPa)
#
#
# Indices 1 2 3 4 5 6 
#
# 1 0.050506 -0.011607 -0.003210 -0.004077 -0.026040 0.010176
# 2 -0.011607 0.010360 -0.002604 0.005138 0.005752 -0.002374
# 3 -0.003210 -0.002604 0.007401 -0.007254 0.006673 -0.003411
# 4 -0.004077 0.005138 -0.007254 0.031691 -0.001153 0.008712
# 5 -0.026040 0.005752 0.006673 -0.001153 0.041643 -0.017372
# 6 0.010176 -0.002374 -0.003411 0.008712 -0.017372 0.041242
#
#
# Mechanical properties :
#
#
# Convention : Reuss Voigt Hill
#
# Bulk Modulus (GPa) = 29.91693 81.76975 55.84334
# Shear Modulus (GPa) = 21.85043 46.56233 34.20638
#
# Velocity S-wave (km/s) = 2.85495 4.16760 3.57209
# Velocity P-wave (km/s) = 4.69334 7.32535 6.15176
#
# Compressibility (1/GPa) = 0.03342589
#
# Stress axis : x y z
#
# Youngs Moduli (GPa) = 19.79943 96.52404 135.11006
#
# Poissons Ratio (x) = 1.12034 0.43374
# Poissons Ratio (y) = 0.22981 0.35182
# Poissons Ratio (z) = 0.06356 0.25134
#
# Static dielectric constant tensor:
#      x y z
#    x 2.211000 -0.197020 0.025310 
#    y -0.197020 1.741850 -0.038170 
#    z 0.025310 -0.038170 2.172810 
# 
# From -- ./inp_files/217331.got.cif
#   From: 2010.05.17/outbox.cif.g08.bks.cpg/sg2_109_cif.got.tgz:217331.got - 2010.06.03 11:33:40.
