data_PCOD9094991
_publ_section_title
;
Structure prediction by ZEFSAII (Michael W. Deem and Ramdas Pophale) SiO2 
 PCOD9094991
Probable space group: P -1
;
_chemical_formula_sum "Si O2"
_cell_formula_units_Z 16
_cell_length_a 9.183461
_cell_length_b 29.759179
_cell_length_c 5.324063
_cell_angle_alpha 112.281994
_cell_angle_beta 104.223292
_cell_angle_gamma 26.724570
_cell_volume 590.166635
_symmetry_space_group_name_H-M "P -1"
_symmetry_group_IT_number 2
_symmetry_cell_setting 'triclinic'
loop_
_space_group_symop_operation_xyz
x,y,z
-x,-y,-z
loop_
_atom_site_type_symbol
_atom_site_label
_atom_site_fract_x
_atom_site_fract_y
_atom_site_fract_z
Si Si1 0.668215 0.031841 0.244738
Si Si2 0.620259 0.628350 0.055720
Si Si3 0.891844 0.364587 0.698864
Si Si4 0.628004 0.687762 0.678388
Si Si5 0.118440 0.219539 0.822032
Si Si6 0.758863 0.910424 0.206846
Si Si7 0.468921 0.834150 0.731316
Si Si8 0.360876 0.482458 0.329772
O O1 0.410215 0.121675 0.541069
O O2 0.787075 0.050205 0.230968
O O3 0.904276 0.920632 0.209533
O O4 0.449449 0.061689 0.023298
O O5 0.598978 0.672650 0.908527
O O6 0.515746 0.607143 0.847387
O O7 0.532514 0.678145 0.393725
O O8 0.000000 0.500000 0.000000
O O9 0.671911 0.414104 0.469777
O O10 0.751282 0.459344 0.857650
O O11 0.872292 0.326820 0.805723
O O12 0.285204 0.253568 0.574307
O O13 0.415072 0.798979 0.777416
O O14 0.020620 0.584650 0.567304
O O15 0.001395 0.199885 0.818882
O O16 0.297928 0.199383 0.067365
O O17 0.500000 0.000000 0.500000
#
# Coordination Sequence:
#
# PCOD9094991 Si02
#       8
#     2   2   2   2   2   2   2   2
#     4   8  14  24  40  60  93 120 148 183 221 280
#     4  10  20  35  51  68  87 122 161 210 245 281
#     4   9  18  32  43  66  92 124 156 195 236 286
#     4  10  21  34  52  68  91 123 164 203 246 278
#     4   9  16  26  41  62  92 124 151 184 229 281
#     4   8  13  23  39  62  86 124 149 176 222 276
#     4   9  18  28  44  67  93 126 152 192 236 283
#     4   9  18  34  47  64  90 121 163 197 243 282
#
# _framework density 27.110983000000001
#
# number of rings (size 3 to 8) (size 9 to 14) (size 15 to 20)
#    0.000    3.000    0.000    1.500    7.000    0.000 
#    6.750    1.875    0.000    0.000    0.000    0.000 
#    0.000    2.000    0.000    4.125    0.000    0.875 
#
# Total GULP energy -89216.124800 kJ/mol
# GULP energy per Si atom -5576.007800 kJ/mol
# Density = 2.704928 g / cm^3
# Si number density = 27.110983 Si / 1000 Ang^3
#
#
#
# Elastic Constant Matrix: (Units=GPa)
#
#
# Indices 1 2 3 4 5 6 
#
# 1 94.6152 55.1341 14.1276 9.5108 -14.2187 55.3645
# 2 55.1341 132.1090 25.1733 9.0105 -8.8916 85.8985
# 3 14.1276 25.1733 83.4745 8.4125 4.1219 9.8894
# 4 9.5108 9.0105 8.4125 43.2479 2.0869 9.1266
# 5 -14.2187 -8.8916 4.1219 2.0869 43.3190 -5.6348
# 6 55.3645 85.8985 9.8894 9.1266 -5.6348 78.5836
#
#
#
# Elastic Compliance Matrix: (Units=1/GPa)
#
#
# Indices 1 2 3 4 5 6 
#
# 1 0.019782 0.004135 -0.002650 -0.001242 0.005365 -0.017595
# 2 0.004135 0.029189 -0.005760 0.001135 0.003422 -0.033981
# 3 -0.002650 -0.005760 0.013729 -0.002146 -0.002408 0.006512
# 4 -0.001242 0.001135 -0.002146 0.024289 -0.001534 -0.003027
# 5 0.005365 0.003422 -0.002408 -0.001534 0.025170 -0.005234
# 6 -0.017595 -0.033981 0.006512 -0.003027 -0.005234 0.061422
#
#
# Mechanical properties :
#
#
# Convention : Reuss Voigt Hill
#
# Bulk Modulus (GPa) = 18.46731 55.45210 36.95971
# Shear Modulus (GPa) = 24.97744 47.41435 36.19589
#
# Velocity S-wave (km/s) = 3.03859 4.18652 3.65787
# Velocity P-wave (km/s) = 4.37461 6.62325 5.61269
#
# Compressibility (1/GPa) = 0.05414972
#
# Stress axis : x y z
#
# Youngs Moduli (GPa) = 50.55125 34.25981 72.83893
#
# Poissons Ratio (x) = -0.14168 0.19305
# Poissons Ratio (y) = -0.20905 0.41955
# Poissons Ratio (z) = 0.13398 0.19733
#
# Static dielectric constant tensor:
#      x y z
#    x 2.066840 -0.308030 -0.265080 
#    y -0.308030 2.285690 -0.043110 
#    z -0.265080 -0.043110 2.060270 
# 
# From -- ./inp_files/56502.got.cif
#   From: 2010.05.17/outbox.cif.g08.bks.cpg/sg2_29_cif.got.tgz:56502.got - 2010.06.03 11:33:40.
