data_PCOD9094715
_publ_section_title
;
Structure prediction by ZEFSAII (Michael W. Deem and Ramdas Pophale) SiO2 
 PCOD9094715
Probable space group: P -1
;
_chemical_formula_sum "Si O2"
_cell_formula_units_Z 16
_cell_length_a 16.127380
_cell_length_b 15.520139
_cell_length_c 13.416755
_cell_angle_alpha 124.563495
_cell_angle_beta 25.556929
_cell_angle_gamma 140.975265
_cell_volume 794.366290
_symmetry_space_group_name_H-M "P -1"
_symmetry_group_IT_number 2
_symmetry_cell_setting 'triclinic'
loop_
_space_group_symop_operation_xyz
x,y,z
-x,-y,-z
loop_
_atom_site_type_symbol
_atom_site_label
_atom_site_fract_x
_atom_site_fract_y
_atom_site_fract_z
Si Si1 0.716223 0.283292 0.586013
Si Si2 0.502209 0.829503 0.033326
Si Si3 0.607079 0.681292 0.679324
Si Si4 0.180892 0.344233 0.995661
Si Si5 0.119485 0.830830 0.354917
Si Si6 0.921695 0.028290 0.002476
Si Si7 0.862040 0.933093 0.417646
Si Si8 0.644246 0.492058 0.751417
O O1 0.685420 0.244525 0.710916
O O2 0.739304 0.417349 0.636508
O O3 0.973742 0.330519 0.280536
O O4 0.412293 0.125285 0.762882
O O5 0.405612 0.876815 0.088620
O O6 0.503097 0.718445 0.903875
O O7 0.826840 0.974468 0.815286
O O8 0.637248 0.762539 0.600512
O O9 0.927723 0.773074 0.425874
O O10 0.374674 0.494262 0.810541
O O11 0.996002 0.180438 0.034813
O O12 0.408595 0.381704 0.847453
O O13 0.892703 0.665629 0.552006
O O14 0.172466 0.962412 0.438528
O O15 0.110527 0.061922 0.727272
O O16 0.000000 0.000000 0.000000
O O17 0.500000 0.500000 0.000000
#
# Coordination Sequence:
#
# PCOD9094715 Si02
#       8
#     2   2   2   2   2   2   2   2
#     4  11  22  37  60  90 120 152 197 239 292 350
#     4  10  20  35  60  92 118 153 188 237 293 352
#     4  10  22  39  58  87 122 151 193 235 289 356
#     4  11  23  38  60  85 118 159 192 243 291 338
#     4  10  20  34  60  86 118 153 185 236 292 344
#     4  11  23  42  63  82 113 156 201 247 290 337
#     4  10  23  40  58  86 117 155 199 238 283 345
#     4  11  20  33  55  88 123 152 186 233 295 348
#
# _framework density 20.141843000000001
#
# number of rings (size 3 to 8) (size 9 to 14) (size 15 to 20)
#    0.000    1.500    1.250    6.375    1.750    4.000 
#    0.000    0.000    0.000    0.750    0.000    0.000 
#    0.000    0.000    0.000    0.000    0.000    0.000 
#
# Total GULP energy -89379.424896 kJ/mol
# GULP energy per Si atom -5586.214056 kJ/mol
# Density = 2.009600 g / cm^3
# Si number density = 20.141843 Si / 1000 Ang^3
#
#
#
# Elastic Constant Matrix: (Units=GPa)
#
#
# Indices 1 2 3 4 5 6 
#
# 1 96.0685 38.1055 26.9617 -10.3193 2.2942 -11.5520
# 2 38.1055 114.5445 35.1648 -10.8264 9.4622 -19.8535
# 3 26.9617 35.1648 65.4552 1.7290 4.4178 -0.2199
# 4 -10.3193 -10.8264 1.7290 24.0752 -8.8202 -2.7202
# 5 2.2942 9.4622 4.4178 -8.8202 33.9414 1.5891
# 6 -11.5520 -19.8535 -0.2199 -2.7202 1.5891 26.5829
#
#
#
# Elastic Compliance Matrix: (Units=1/GPa)
#
#
# Indices 1 2 3 4 5 6 
#
# 1 0.013809 -0.001594 -0.005107 0.006794 0.001690 0.005362
# 2 -0.001594 0.013943 -0.006864 0.006657 -0.001645 0.010443
# 3 -0.005107 -0.006864 0.021430 -0.008584 -0.002391 -0.007904
# 4 0.006794 0.006657 -0.008584 0.053970 0.012235 0.012644
# 5 0.001690 -0.001645 -0.002391 0.012235 0.033356 -0.001256
# 6 0.005362 0.010443 -0.007904 0.012644 -0.001256 0.049052
#
#
# Mechanical properties :
#
#
# Convention : Reuss Voigt Hill
#
# Bulk Modulus (GPa) = 45.34674 52.94801 49.14738
# Shear Modulus (GPa) = 22.72307 28.64233 25.68270
#
# Velocity S-wave (km/s) = 3.36244 3.77507 3.57472
# Velocity P-wave (km/s) = 6.13492 6.73396 6.44141
#
# Compressibility (1/GPa) = 0.02205230
#
# Stress axis : x y z
#
# Youngs Moduli (GPa) = 72.41598 71.72157 46.66274
#
# Poissons Ratio (x) = 0.11432 0.23832
# Poissons Ratio (y) = 0.11543 0.32028
# Poissons Ratio (z) = 0.36985 0.49228
#
# Static dielectric constant tensor:
#      x y z
#    x 1.724160 -0.012660 -0.022350 
#    y -0.012660 1.694410 -0.035910 
#    z -0.022350 -0.035910 1.767410 
# 
# From -- ./inp_files/272487.got.cif
#   From: 2010.05.17/outbox.cif.g08.bks.cpg/sg2_137_cif.got.tgz:272487.got - 2010.06.03 11:33:40.
