data_PCOD9094557
_publ_section_title
;
Structure prediction by ZEFSAII (Michael W. Deem and Ramdas Pophale) SiO2 
 PCOD9094557
Probable space group: P -1
;
_chemical_formula_sum "Si O2"
_cell_formula_units_Z 14
_cell_length_a 22.513751
_cell_length_b 8.804629
_cell_length_c 10.136050
_cell_angle_alpha 30.842786
_cell_angle_beta 139.490259
_cell_angle_gamma 140.309707
_cell_volume 626.672460
_symmetry_space_group_name_H-M "P -1"
_symmetry_group_IT_number 2
_symmetry_cell_setting 'triclinic'
loop_
_space_group_symop_operation_xyz
x,y,z
-x,-y,-z
loop_
_atom_site_type_symbol
_atom_site_label
_atom_site_fract_x
_atom_site_fract_y
_atom_site_fract_z
Si Si1 0.943617 0.627802 0.701111
Si Si2 0.729479 0.203974 0.675644
Si Si3 0.092284 0.621152 0.470793
Si Si4 0.598462 0.268142 0.804817
Si Si5 0.785524 0.750298 0.900961
Si Si6 0.607611 0.589001 0.054723
Si Si7 0.519982 0.627676 0.235871
O O1 0.830823 0.489300 0.662517
O O2 0.939701 0.491905 0.647963
O O3 0.000000 0.000000 0.500000
O O4 0.000000 0.500000 0.000000
O O5 0.754739 0.983062 0.772816
O O6 0.677808 0.954700 0.889684
O O7 0.658574 0.367655 0.372075
O O8 0.000000 0.500000 0.500000
O O9 0.138985 0.001238 0.255689
O O10 0.168157 0.461394 0.775185
O O11 0.695369 0.527639 0.829470
O O12 0.564412 0.358342 0.540964
O O13 0.509236 0.260877 0.757142
O O14 0.599980 0.919432 0.081666
O O15 0.577338 0.485047 0.929920
O O16 0.500000 0.500000 0.000000
#
# Coordination Sequence:
#
# PCOD9094557 Si02
#       7
#     2   2   2   2   2   2   2
#     4  11  23  43  69  97 123 167 219 270 325 391
#     4  11  23  41  65  91 121 167 224 255 303 387
#     4  11  24  42  65  97 130 163 204 268 333 382
#     4  10  20  34  58  87 114 152 199 252 288 348
#     4  11  21  39  66  91 123 163 215 253 306 389
#     4  12  24  41  60  88 130 172 211 257 307 369
#     4  10  21  34  55  85 121 151 196 250 298 341
#
# _framework density 22.340219999999999
#
# number of rings (size 3 to 8) (size 9 to 14) (size 15 to 20)
#    0.000    1.143    1.429    6.857    4.000    0.000 
#    0.000    8.571    0.000    0.000    0.000    0.000 
#    0.000    0.000    0.000    0.000    0.000    0.000 
#
# Total GULP energy -78211.604022 kJ/mol
# GULP energy per Si atom -5586.543144 kJ/mol
# Density = 2.228937 g / cm^3
# Si number density = 22.340220 Si / 1000 Ang^3
#
#
#
# Elastic Constant Matrix: (Units=GPa)
#
#
# Indices 1 2 3 4 5 6 
#
# 1 50.4873 12.0920 20.0572 -2.4788 -12.5280 22.1049
# 2 12.0920 149.3354 53.1862 -21.6794 -12.5980 21.6783
# 3 20.0572 53.1862 187.7165 5.3383 -16.9081 10.7904
# 4 -2.4788 -21.6794 5.3383 50.5668 15.2266 -6.9683
# 5 -12.5280 -12.5980 -16.9081 15.2266 28.6846 -6.2876
# 6 22.1049 21.6783 10.7904 -6.9683 -6.2876 25.0252
#
#
#
# Elastic Compliance Matrix: (Units=1/GPa)
#
#
# Indices 1 2 3 4 5 6 
#
# 1 0.036647 0.002567 -0.001589 -0.004921 0.011721 -0.032334
# 2 0.002567 0.008989 -0.002419 0.003043 0.000252 -0.008100
# 3 -0.001589 -0.002419 0.006557 -0.002835 0.003797 0.000836
# 4 -0.004921 0.003043 -0.002835 0.026608 -0.015177 0.006529
# 5 0.011721 0.000252 0.003797 -0.015177 0.049511 -0.003995
# 6 -0.032334 -0.008100 0.000836 0.006529 -0.003995 0.075991
#
#
# Mechanical properties :
#
#
# Convention : Reuss Voigt Hill
#
# Bulk Modulus (GPa) = 20.27967 62.02334 41.15151
# Shear Modulus (GPa) = 22.35909 41.00224 31.68067
#
# Velocity S-wave (km/s) = 3.16705 4.28875 3.76985
# Velocity P-wave (km/s) = 4.74035 7.23518 6.11632
#
# Compressibility (1/GPa) = 0.04931046
#
# Stress axis : x y z
#
# Youngs Moduli (GPa) = 27.28733 111.24657 152.50920
#
# Poissons Ratio (x) = -0.28553 0.24227
# Poissons Ratio (y) = -0.07004 0.36897
# Poissons Ratio (z) = 0.04335 0.26914
#
# Static dielectric constant tensor:
#      x y z
#    x 1.919370 -0.025570 -0.033410 
#    y -0.025570 1.865630 -0.048530 
#    z -0.033410 -0.048530 1.865550 
# 
# From -- ./inp_files/434038.got.cif
#   From: 2010.05.17/outbox.cif.g08.bks.cpg/sg2_218_cif.got.tgz:434038.got - 2010.06.03 11:33:40.
