data_PCOD9094627
_publ_section_title
;
Structure prediction by ZEFSAII (Michael W. Deem and Ramdas Pophale) SiO2 
 PCOD9094627
Probable space group: P -1
;
_chemical_formula_sum "Si O2"
_cell_formula_units_Z 16
_cell_length_a 9.183887
_cell_length_b 24.559987
_cell_length_c 7.960624
_cell_angle_alpha 74.388919
_cell_angle_beta 86.587023
_cell_angle_gamma 33.946477
_cell_volume 919.864769
_symmetry_space_group_name_H-M "P -1"
_symmetry_group_IT_number 2
_symmetry_cell_setting 'triclinic'
loop_
_space_group_symop_operation_xyz
x,y,z
-x,-y,-z
loop_
_atom_site_type_symbol
_atom_site_label
_atom_site_fract_x
_atom_site_fract_y
_atom_site_fract_z
Si Si1 0.017063 0.271653 0.562738
Si Si2 0.377297 0.466112 0.366283
Si Si3 0.725583 0.598658 0.832457
Si Si4 0.191325 0.112787 0.868099
Si Si5 0.969575 0.416199 0.397050
Si Si6 0.185833 0.763255 0.901918
Si Si7 0.801881 0.886642 0.512715
Si Si8 0.573209 0.437230 0.888417
O O1 0.140391 0.196681 0.772628
O O2 0.154595 0.194338 0.459496
O O3 0.691350 0.365133 0.492944
O O4 0.068391 0.320671 0.509921
O O5 0.355355 0.431543 0.238742
O O6 0.169211 0.513894 0.483463
O O7 0.309632 0.553708 0.254111
O O8 0.481864 0.692172 0.900272
O O9 0.798679 0.622245 0.671459
O O10 0.000000 0.500000 0.000000
O O11 0.146920 0.105101 0.685803
O O12 0.975126 0.164566 0.980518
O O13 0.500000 0.000000 0.000000
O O14 0.710460 0.493171 0.225978
O O15 0.007547 0.834623 0.689812
O O16 0.240189 0.677746 0.988920
O O17 0.500000 0.000000 0.500000
O O18 0.500000 0.500000 0.000000
#
# Coordination Sequence:
#
# PCOD9094627 Si02
#       8
#     2   2   2   2   2   2   2   2
#     4   9  19  35  57  85 108 146 189 237 292 320
#     4  11  20  36  53  81 112 156 193 229 274 332
#     4  12  23  34  50  81 122 161 188 214 276 349
#     4  10  20  34  59  85 105 136 190 248 288 323
#     4  11  21  35  52  79 121 151 191 223 269 355
#     4  12  19  36  55  82 117 150 181 235 283 331
#     4  10  20  35  58  87 107 134 189 242 294 326
#     4  11  19  33  55  81 114 148 190 233 276 330
#
# _framework density 17.393861999999999
#
# number of rings (size 3 to 8) (size 9 to 14) (size 15 to 20)
#    0.750    0.500    5.000    4.125    0.000    0.000 
#    2.250    0.000    0.000    3.000    0.000    4.375 
#    0.000    0.000    0.000    0.000    0.000    0.000 
#
# Total GULP energy -89131.536884 kJ/mol
# GULP energy per Si atom -5570.721055 kJ/mol
# Density = 1.735427 g / cm^3
# Si number density = 17.393862 Si / 1000 Ang^3
#
#
#
# Elastic Constant Matrix: (Units=GPa)
#
#
# Indices 1 2 3 4 5 6 
#
# 1 60.1793 25.5595 20.7049 2.7343 -15.5844 -13.9554
# 2 25.5595 128.9983 49.9015 18.3966 -10.6229 -20.0910
# 3 20.7049 49.9015 105.6457 1.8247 -3.3936 -13.0446
# 4 2.7343 18.3966 1.8247 42.2554 -0.4336 -0.3600
# 5 -15.5844 -10.6229 -3.3936 -0.4336 25.6341 7.7261
# 6 -13.9554 -20.0910 -13.0446 -0.3600 7.7261 22.1243
#
#
#
# Elastic Compliance Matrix: (Units=1/GPa)
#
#
# Indices 1 2 3 4 5 6 
#
# 1 0.022613 -0.001343 -0.002473 -0.000597 0.010466 0.007921
# 2 -0.001343 0.011432 -0.004209 -0.004639 0.001321 0.006515
# 3 -0.002473 -0.004209 0.012164 0.001465 -0.002413 0.002656
# 4 -0.000597 -0.004639 0.001465 0.025627 -0.000738 -0.003051
# 5 0.010466 0.001321 -0.002413 -0.000738 0.048807 -0.010677
# 6 0.007921 0.006515 0.002656 -0.003051 -0.010677 0.061357
#
#
# Mechanical properties :
#
#
# Convention : Reuss Voigt Hill
#
# Bulk Modulus (GPa) = 33.15961 54.12833 43.64397
# Shear Modulus (GPa) = 24.02668 31.24659 27.63663
#
# Velocity S-wave (km/s) = 3.72066 4.24301 3.99039
# Velocity P-wave (km/s) = 6.12887 7.42906 6.81007
#
# Compressibility (1/GPa) = 0.03015717
#
# Stress axis : x y z
#
# Youngs Moduli (GPa) = 44.22319 87.47631 82.21216
#
# Poissons Ratio (x) = 0.11750 0.20328
# Poissons Ratio (y) = 0.05940 0.34607
# Poissons Ratio (z) = 0.10935 0.36823
#
# Static dielectric constant tensor:
#      x y z
#    x 1.572130 0.008030 -0.014430 
#    y 0.008030 1.618180 0.044340 
#    z -0.014430 0.044340 1.674070 
# 
# From -- ./inp_files/227447.got.cif
#   From: 2010.05.17/outbox.cif.g08.bks.cpg/sg2_114_cif.got.tgz:227447.got - 2010.06.03 11:33:40.
