data_PCOD9094383
_publ_section_title
;
Structure prediction by ZEFSAII (Michael W. Deem and Ramdas Pophale) SiO2 
 PCOD9094383
Probable space group: P -1
;
_chemical_formula_sum "Si O2"
_cell_formula_units_Z 16
_cell_length_a 15.587952
_cell_length_b 12.413244
_cell_length_c 23.681452
_cell_angle_alpha 154.271934
_cell_angle_beta 24.080546
_cell_angle_gamma 151.687411
_cell_volume 767.020941
_symmetry_space_group_name_H-M "P -1"
_symmetry_group_IT_number 2
_symmetry_cell_setting 'triclinic'
loop_
_space_group_symop_operation_xyz
x,y,z
-x,-y,-z
loop_
_atom_site_type_symbol
_atom_site_label
_atom_site_fract_x
_atom_site_fract_y
_atom_site_fract_z
Si Si1 0.030020 0.290543 0.099110
Si Si2 0.041723 0.981928 0.165116
Si Si3 0.863410 0.228341 0.533905
Si Si4 0.644865 0.172594 0.182153
Si Si5 0.253434 0.409180 0.911586
Si Si6 0.114322 0.318343 0.768677
Si Si7 0.680389 0.342208 0.815422
Si Si8 0.264164 0.481598 0.343716
O O1 0.100091 0.489031 0.202593
O O2 0.813480 0.261497 0.176780
O O3 0.242001 0.389674 0.976483
O O4 0.000000 0.000000 0.000000
O O5 0.937239 0.770915 0.177817
O O6 0.847027 0.889371 0.192248
O O7 0.133996 0.253283 0.270097
O O8 0.245043 0.954417 0.993053
O O9 0.750942 0.303272 0.691152
O O10 0.727089 0.258222 0.573386
O O11 0.113270 0.421834 0.461559
O O12 0.882756 0.939208 0.387974
O O13 0.660916 0.446864 0.271878
O O14 0.430540 0.944505 0.224990
O O15 0.494516 0.535635 0.801326
O O16 0.087920 0.572314 0.073433
O O17 0.500000 0.500000 0.000000
#
# Coordination Sequence:
#
# PCOD9094383 Si02
#       8
#     2   2   2   2   2   2   2   2
#     4  10  20  34  56  92 114 143 202 255 277 346
#     4   9  18  36  63  91 119 151 204 248 291 348
#     4  10  23  39  59  88 128 155 199 252 305 344
#     4  10  20  35  59  88 119 154 200 244 289 353
#     4  10  20  36  65  88 116 159 207 234 298 362
#     4   9  20  40  60  91 125 159 193 250 297 357
#     4  12  22  37  62  85 112 163 201 239 304 355
#     4  10  21  40  60  89 122 157 197 258 290 353
#
# _framework density 20.859925
#
# number of rings (size 3 to 8) (size 9 to 14) (size 15 to 20)
#    0.000    2.250    1.250    3.750    1.750    2.500 
#    0.000   15.625    0.000    0.750    0.000    0.000 
#    0.000    0.000    0.000    0.000    0.000    0.000 
#
# Total GULP energy -89092.308231 kJ/mol
# GULP energy per Si atom -5568.269264 kJ/mol
# Density = 2.081245 g / cm^3
# Si number density = 20.859925 Si / 1000 Ang^3
#
#
#
# Elastic Constant Matrix: (Units=GPa)
#
#
# Indices 1 2 3 4 5 6 
#
# 1 26.0566 11.6298 12.5419 -4.9609 8.8251 -2.0447
# 2 11.6298 109.0084 36.9672 1.4166 3.8089 -13.1628
# 3 12.5419 36.9672 94.0790 -22.9378 11.3190 4.5980
# 4 -4.9609 1.4166 -22.9378 5.6658 -18.1745 17.2509
# 5 8.8251 3.8089 11.3190 -18.1745 23.9985 -1.0810
# 6 -2.0447 -13.1628 4.5980 17.2509 -1.0810 29.6426
#
#
#
# Elastic Compliance Matrix: (Units=1/GPa)
#
#
# Indices 1 2 3 4 5 6 
#
# 1 0.045751 -0.004303 -0.001565 0.005692 -0.011193 -0.002233
# 2 -0.004303 0.010019 -0.002225 0.008262 0.007296 -0.000045
# 3 -0.001565 -0.002225 0.010159 -0.011874 -0.012685 0.003776
# 4 0.005692 0.008262 -0.011874 -0.039810 -0.026687 0.028098
# 5 -0.011193 0.007296 -0.012685 -0.026687 0.031351 0.021110
# 6 -0.002233 -0.000045 0.003776 0.028098 0.021110 0.017394
#
#
# Mechanical properties :
#
#
# Convention : Reuss Voigt Hill
#
# Bulk Modulus (GPa) = 20.10262 39.04686 29.57474
# Shear Modulus (GPa) = 46.45501 23.06172 34.75837
#
# Velocity S-wave (km/s) = 4.72423 3.32859 4.08643
# Velocity P-wave (km/s) = 6.27819 5.79068 6.03935
#
# Compressibility (1/GPa) = 0.04974475
#
# Stress axis : x y z
#
# Youngs Moduli (GPa) = 21.85729 99.80660 98.43704
#
# Poissons Ratio (x) = 0.42945 0.15404
# Poissons Ratio (y) = 0.09405 0.21899
# Poissons Ratio (z) = 0.03420 0.22203
#
# Static dielectric constant tensor:
#      x y z
#    x 1.773850 -0.012430 -0.009780 
#    y -0.012430 1.796380 0.007680 
#    z -0.009780 0.007680 1.802820 
# 
# From -- ./inp_files/597879.got.cif
#   From: 2010.05.17/outbox.cif.g08.bks.cpg/sg2_299_cif.got.tgz:597879.got - 2010.06.03 11:33:40.
