data_PCOD9094163
_publ_section_title
;
Structure prediction by ZEFSAII (Michael W. Deem and Ramdas Pophale) SiO2 
 PCOD9094163
Probable space group: P -1
;
_chemical_formula_sum "Si O2"
_cell_formula_units_Z 15
_cell_length_a 12.254219
_cell_length_b 8.085229
_cell_length_c 15.319352
_cell_angle_alpha 103.099221
_cell_angle_beta 148.198676
_cell_angle_gamma 92.786215
_cell_volume 687.637389
_symmetry_space_group_name_H-M "P -1"
_symmetry_group_IT_number 2
_symmetry_cell_setting 'triclinic'
loop_
_space_group_symop_operation_xyz
x,y,z
-x,-y,-z
loop_
_atom_site_type_symbol
_atom_site_label
_atom_site_fract_x
_atom_site_fract_y
_atom_site_fract_z
Si Si1 0.151087 0.971987 0.271143
Si Si2 0.523137 0.050160 0.383654
Si Si3 0.414286 0.496115 0.695382
Si Si4 0.675675 0.965788 0.930626
Si Si5 0.500000 0.000000 0.000000
Si Si6 0.895694 0.488130 0.654577
Si Si7 0.682475 0.458498 0.174208
Si Si8 0.099266 0.487894 0.970718
O O1 0.317330 0.035392 0.476388
O O2 0.014325 0.740298 0.152849
O O3 0.324693 0.029121 0.314390
O O4 0.951129 0.033328 0.133089
O O5 0.400471 0.965792 0.199515
O O6 0.693305 0.275033 0.512922
O O7 0.545906 0.731125 0.808377
O O8 0.233695 0.421131 0.482613
O O9 0.285317 0.447078 0.696183
O O10 0.622797 0.439692 0.828195
O O11 0.595114 0.034737 0.968506
O O12 0.425473 0.769104 0.912425
O O13 0.083131 0.472113 0.715205
O O14 0.015585 0.567101 0.839818
O O15 0.500000 0.500000 0.000000
O O16 0.000000 0.500000 0.000000
#
# Coordination Sequence:
#
# PCOD9094163 Si02
#       8
#     2   2   2   2   1   2   2   2
#     4   9  18  34  57  80 116 158 198 249 297 356
#     4   9  18  33  57  85 109 158 206 236 303 363
#     4   9  19  37  60  84 115 162 204 246 310 364
#     4   9  18  36  58  80 120 153 194 251 298 351
#     4  10  24  38  62 100 118 154 218 246 298 388
#     4  10  20  36  62  85 115 163 201 252 310 366
#     4  11  21  41  69  88 123 165 201 257 317 365
#     4  10  20  34  54  87 120 161 207 249 303 369
#
# _framework density 21.813824
#
# number of rings (size 3 to 8) (size 9 to 14) (size 15 to 20)
#    0.000    2.400    1.333    0.800    1.867    1.600 
#    0.000    4.667    2.933    0.000    0.000    0.000 
#    0.000    0.000    0.000    0.000    0.000    0.000 
#
# Total GULP energy -83506.004951 kJ/mol
# GULP energy per Si atom -5567.066997 kJ/mol
# Density = 2.176417 g / cm^3
# Si number density = 21.813824 Si / 1000 Ang^3
#
#
#
# Elastic Constant Matrix: (Units=GPa)
#
#
# Indices 1 2 3 4 5 6 
#
# 1 909.4403 572.6961 566.1072 -39.3541 472.2777 44.4933
# 2 572.6961 448.9013 362.8418 -2.3058 353.2790 20.3325
# 3 566.1072 362.8418 458.1493 -39.0584 283.7013 14.7811
# 4 -39.3541 -2.3058 -39.0584 36.2065 14.5030 -2.2162
# 5 472.2777 353.2790 283.7013 14.5030 429.8936 3.7932
# 6 44.4933 20.3325 14.7811 -2.2162 3.7932 34.3231
#
#
#
# Elastic Compliance Matrix: (Units=1/GPa)
#
#
# Indices 1 2 3 4 5 6 
#
# 1 0.011319 -0.007112 -0.005751 0.006382 -0.002946 -0.007245
# 2 -0.007112 0.015628 -0.002234 -0.007775 -0.003300 0.000786
# 3 -0.005751 -0.002234 0.010929 0.005373 0.000722 0.004339
# 4 0.006382 -0.007775 0.005373 0.041922 -0.005559 -0.002661
# 5 -0.002946 -0.003300 0.000722 -0.005559 0.007949 0.004226
# 6 -0.007245 0.000786 0.004339 -0.002661 0.004226 0.035554
#
#
# Mechanical properties :
#
#
# Convention : Reuss Voigt Hill
#
# Bulk Modulus (GPa) = 130.16437 535.53122 332.84780
# Shear Modulus (GPa) = 32.03967 121.07437 76.55702
#
# Velocity S-wave (km/s) = 3.83662 7.45815 5.93058
# Velocity P-wave (km/s) = 8.91215 17.89411 14.13551
#
# Compressibility (1/GPa) = 0.00768259
#
# Stress axis : x y z
#
# Youngs Moduli (GPa) = 88.34852 63.98593 91.49646
#
# Poissons Ratio (x) = 0.45508 0.52621
# Poissons Ratio (y) = 0.62835 0.20438
# Poissons Ratio (z) = 0.50810 0.14293
#
# Static dielectric constant tensor:
#      x y z
#    x 1.685530 0.054290 0.009230 
#    y 0.054290 1.789980 -0.007160 
#    z 0.009230 -0.007160 1.818840 
# 
# From -- ./inp_files/455127.got.cif
#   From: 2010.05.17/outbox.cif.g08.bks.cpg/sg2_228_cif.got.tgz:455127.got - 2010.06.03 11:33:40.
