data_PCOD9094556
_publ_section_title
;
Structure prediction by ZEFSAII (Michael W. Deem and Ramdas Pophale) SiO2 
 PCOD9094556
Probable space group: P -1
;
_chemical_formula_sum "Si O2"
_cell_formula_units_Z 14
_cell_length_a 10.685232
_cell_length_b 7.018604
_cell_length_c 12.515188
_cell_angle_alpha 109.658693
_cell_angle_beta 116.772970
_cell_angle_gamma 37.239132
_cell_volume 506.659938
_symmetry_space_group_name_H-M "P -1"
_symmetry_group_IT_number 2
_symmetry_cell_setting 'triclinic'
loop_
_space_group_symop_operation_xyz
x,y,z
-x,-y,-z
loop_
_atom_site_type_symbol
_atom_site_label
_atom_site_fract_x
_atom_site_fract_y
_atom_site_fract_z
Si Si1 0.567980 0.616889 0.729367
Si Si2 0.544024 0.784857 0.227599
Si Si3 0.005522 0.774577 0.103578
Si Si4 0.594139 0.606301 0.441694
Si Si5 0.047033 0.300770 0.148460
Si Si6 0.491474 0.765569 0.971943
Si Si7 0.131744 0.347729 0.412044
O O1 0.494094 0.928611 0.733233
O O2 0.829702 0.278188 0.770932
O O3 0.437514 0.598476 0.606896
O O4 0.521399 0.648067 0.843110
O O5 0.300321 0.964943 0.187148
O O6 0.662801 0.582224 0.341156
O O7 0.609358 0.630050 0.107356
O O8 0.049066 0.508550 0.123519
O O9 0.747382 0.062302 0.061508
O O10 0.068700 0.709049 0.988636
O O11 0.776882 0.528641 0.562041
O O12 0.357385 0.971346 0.440000
O O13 0.992129 0.413405 0.271304
O O14 0.500000 0.000000 0.000000
O O15 0.000000 0.500000 0.500000
#
# Coordination Sequence:
#
# PCOD9094556 Si02
#       7
#     2   2   2   2   2   2   2
#     4  10  20  34  58  87 113 147 188 232 285 341
#     4   8  17  35  55  80 116 149 182 229 283 338
#     4   9  17  32  56  84 115 141 178 238 287 333
#     4  10  22  40  57  80 114 150 192 236 280 332
#     4   8  15  33  57  80 108 147 187 225 283 337
#     4   9  17  30  53  86 117 148 186 227 283 347
#     4  10  22  39  58  79 112 155 194 234 279 333
#
# _framework density 27.631947
#
# number of rings (size 3 to 8) (size 9 to 14) (size 15 to 20)
#    0.000    2.857    0.000    2.571    0.000    5.143 
#    0.000   17.857    0.000    9.429    0.000    0.000 
#    0.000    0.000    0.000    0.000    0.000    0.000 
#
# Total GULP energy -78148.518859 kJ/mol
# GULP energy per Si atom -5582.037061 kJ/mol
# Density = 2.756906 g / cm^3
# Si number density = 27.631947 Si / 1000 Ang^3
#
#
#
# Elastic Constant Matrix: (Units=GPa)
#
#
# Indices 1 2 3 4 5 6 
#
# 1 94.0097 42.3151 62.7349 20.2970 -10.4712 8.0118
# 2 42.3151 37.5381 33.8915 18.1363 9.2485 22.9959
# 3 62.7349 33.8915 117.4223 -15.5913 -32.2064 6.6564
# 4 20.2970 18.1363 -15.5913 33.1668 -8.0282 8.0273
# 5 -10.4712 9.2485 -32.2064 -8.0282 71.4822 22.1929
# 6 8.0118 22.9959 6.6564 8.0273 22.1929 35.4283
#
#
#
# Elastic Compliance Matrix: (Units=1/GPa)
#
#
# Indices 1 2 3 4 5 6 
#
# 1 0.033170 -0.073867 0.008070 0.020307 0.012011 0.026803
# 2 -0.073867 -0.355201 0.253168 0.412122 0.201709 -0.020040
# 3 0.008070 0.253168 -0.125324 -0.221012 -0.104446 -0.027102
# 4 0.020307 0.412122 -0.221012 -0.343512 -0.175147 -0.043021
# 5 0.012011 0.201709 -0.104446 -0.175147 -0.067037 -0.032340
# 6 0.026803 -0.020040 -0.027102 -0.043021 -0.032340 0.070270
#
#
# Mechanical properties :
#
#
# Convention : Reuss Voigt Hill
#
# Bulk Modulus (GPa) = -13.77161 58.53924 22.38381
# Shear Modulus (GPa) = -4.21379 35.35070 15.56845
#
# Velocity S-wave (km/s) = -1.23624 3.58067 2.37623
# Velocity P-wave (km/s) = 2.65188 6.19082 3.95562
#
# Compressibility (1/GPa) = -0.07261316
#
# Stress axis : x y z
#
# Youngs Moduli (GPa) = 30.14799 -2.81531 -7.97933
#
# Poissons Ratio (x) = -0.20796 0.06439
# Poissons Ratio (y) = 2.22695 2.02011
# Poissons Ratio (z) = -0.24330 0.71275
#
# Static dielectric constant tensor:
#      x y z
#    x 2.258130 -0.015540 0.014840 
#    y -0.015540 2.238860 0.023980 
#    z 0.014840 0.023980 2.184650 
# 
# From -- ./inp_files/513581.got.cif
#   From: 2010.05.17/outbox.cif.g08.bks.cpg/sg2_257_cif.got.tgz:513581.got - 2010.06.03 11:33:40.
