data_PCOD9094513
_publ_section_title
;
Structure prediction by ZEFSAII (Michael W. Deem and Ramdas Pophale) SiO2 
 PCOD9094513
Probable space group: P -1
;
_chemical_formula_sum "Si O2"
_cell_formula_units_Z 15
_cell_length_a 17.829642
_cell_length_b 7.527544
_cell_length_c 5.560533
_cell_angle_alpha 118.759159
_cell_angle_beta 66.866068
_cell_angle_gamma 117.347811
_cell_volume 566.790325
_symmetry_space_group_name_H-M "P -1"
_symmetry_group_IT_number 2
_symmetry_cell_setting 'triclinic'
loop_
_space_group_symop_operation_xyz
x,y,z
-x,-y,-z
loop_
_atom_site_type_symbol
_atom_site_label
_atom_site_fract_x
_atom_site_fract_y
_atom_site_fract_z
Si Si1 0.793070 0.858610 0.292913
Si Si2 0.107085 0.385088 0.308594
Si Si3 0.072444 0.798697 0.380741
Si Si4 0.334355 0.900427 0.909937
Si Si5 0.500000 0.000000 0.000000
Si Si6 0.443062 0.711836 0.328009
Si Si7 0.837621 0.272580 0.173462
Si Si8 0.385315 0.312299 0.785148
O O1 0.689098 0.727872 0.348663
O O2 0.854538 0.968372 0.510331
O O3 0.803377 0.078888 0.278135
O O4 0.836049 0.715435 0.990544
O O5 0.087066 0.584838 0.336358
O O6 0.153654 0.504319 0.569172
O O7 0.017428 0.209496 0.392991
O O8 0.075238 0.747368 0.061419
O O9 0.393226 0.937940 0.094453
O O10 0.367621 0.748353 0.596304
O O11 0.233066 0.779930 0.984443
O O12 0.347416 0.121940 0.900218
O O13 0.503563 0.094875 0.787011
O O14 0.516447 0.680710 0.398672
O O15 0.405821 0.523535 0.059252
#
# Coordination Sequence:
#
# PCOD9094513 Si02
#       8
#     2   2   2   2   1   2   2   2
#     4  10  21  37  58  85 116 151 189 237 288 339
#     4  10  21  39  60  84 117 152 187 236 293 342
#     4  10  22  38  59  88 116 147 192 239 285 343
#     4  10  21  37  55  79 113 149 186 234 282 330
#     4  10  20  34  58  82 104 144 188 224 276 332
#     4  10  20  38  57  79 113 150 186 232 282 333
#     4  10  22  37  57  85 116 151 194 236 282 343
#     4   9  19  36  56  79 112 147 184 230 280 331
#
# _framework density 26.464811999999998
#
# number of rings (size 3 to 8) (size 9 to 14) (size 15 to 20)
#    0.000    2.133    0.000    3.200    0.000    6.933 
#    0.000   13.333    0.000    0.000    0.000    0.000 
#    0.000    0.000    0.000    0.000    0.000    0.000 
#
# Total GULP energy -83630.748550 kJ/mol
# GULP energy per Si atom -5575.383237 kJ/mol
# Density = 2.640458 g / cm^3
# Si number density = 26.464812 Si / 1000 Ang^3
#
#
#
# Elastic Constant Matrix: (Units=GPa)
#
#
# Indices 1 2 3 4 5 6 
#
# 1 75.9107 17.2959 24.3087 12.4024 -3.3548 9.6009
# 2 17.2959 67.0121 28.7455 11.0788 -2.3122 1.7697
# 3 24.3087 28.7455 115.1074 30.7722 -29.5507 11.0779
# 4 12.4024 11.0788 30.7722 43.2654 0.7118 1.0260
# 5 -3.3548 -2.3122 -29.5507 0.7118 41.0217 -4.3273
# 6 9.6009 1.7697 11.0779 1.0260 -4.3273 18.2816
#
#
#
# Elastic Compliance Matrix: (Units=1/GPa)
#
#
# Indices 1 2 3 4 5 6 
#
# 1 0.015543 -0.002839 -0.001342 -0.002597 -0.000555 -0.007060
# 2 -0.002839 0.017495 -0.004362 -0.000574 -0.002172 0.001959
# 3 -0.001342 -0.004362 0.016006 -0.009930 0.010770 -0.005465
# 4 -0.002597 -0.000574 -0.009930 0.031098 -0.007525 0.003910
# 5 -0.000555 -0.002172 0.010770 -0.007525 0.032314 0.002047
# 6 -0.007060 0.001959 -0.005465 0.003910 0.002047 0.061795
#
#
# Mechanical properties :
#
#
# Convention : Reuss Voigt Hill
#
# Bulk Modulus (GPa) = 31.29196 44.30339 37.79768
# Shear Modulus (GPa) = 24.75372 33.02574 28.88973
#
# Velocity S-wave (km/s) = 3.06166 3.53641 3.30756
# Velocity P-wave (km/s) = 4.93437 5.78375 5.37586
#
# Compressibility (1/GPa) = 0.03195709
#
# Stress axis : x y z
#
# Youngs Moduli (GPa) = 64.33840 57.15979 62.47747
#
# Poissons Ratio (x) = 0.16229 0.08385
# Poissons Ratio (y) = 0.18267 0.27252
# Poissons Ratio (z) = 0.08635 0.24932
#
# Static dielectric constant tensor:
#      x y z
#    x 2.399060 0.175050 0.022750 
#    y 0.175050 2.168090 0.066520 
#    z 0.022750 0.066520 2.073220 
# 
# From -- ./inp_files/47244.got.cif
#   From: 2010.05.17/outbox.cif.g08.bks.cpg/sg2_24_cif.got.tgz:47244.got - 2010.06.03 11:33:40.
