data_PCOD9094226
_publ_section_title
;
Structure prediction by ZEFSAII (Michael W. Deem and Ramdas Pophale) SiO2 
 PCOD9094226
Probable space group: P -1
;
_chemical_formula_sum "Si O2"
_cell_formula_units_Z 16
_cell_length_a 5.285901
_cell_length_b 21.822245
_cell_length_c 15.893762
_cell_angle_alpha 20.589983
_cell_angle_beta 93.763645
_cell_angle_gamma 93.951277
_cell_volume 643.212589
_symmetry_space_group_name_H-M "P -1"
_symmetry_group_IT_number 2
_symmetry_cell_setting 'triclinic'
loop_
_space_group_symop_operation_xyz
x,y,z
-x,-y,-z
loop_
_atom_site_type_symbol
_atom_site_label
_atom_site_fract_x
_atom_site_fract_y
_atom_site_fract_z
Si Si1 0.875315 0.170502 0.156438
Si Si2 0.745521 0.533630 0.076552
Si Si3 0.736206 0.114137 0.402356
Si Si4 0.429458 0.291769 0.602753
Si Si5 0.358405 0.333366 0.910678
Si Si6 0.375841 0.279523 0.315358
Si Si7 0.787456 0.985567 0.941919
Si Si8 0.921771 0.790343 0.453324
O O1 0.830094 0.233813 0.171957
O O2 0.035062 0.000002 0.407526
O O3 0.072751 0.264616 0.975902
O O4 0.590251 0.200288 0.076941
O O5 0.685661 0.627459 0.041248
O O6 0.478940 0.445554 0.155066
O O7 0.916815 0.368234 0.305940
O O8 0.818003 0.653639 0.844828
O O9 0.597973 0.199581 0.368060
O O10 0.500000 0.000000 0.500000
O O11 0.559728 0.481148 0.366207
O O12 0.604847 0.144119 0.755774
O O13 0.206460 0.290500 0.529998
O O14 0.341551 0.202721 0.802956
O O15 0.264982 0.158840 0.541261
O O16 0.915448 0.040527 0.787414
O O17 0.000000 0.000000 0.000000
#
# Coordination Sequence:
#
# PCOD9094226 Si02
#       8
#     2   2   2   2   2   2   2   2
#     4  11  24  38  62  80 114 159 210 251 296 340
#     4  11  22  34  51  91 123 163 196 243 304 372
#     4  11  23  44  57  81 116 165 214 262 292 350
#     4  10  20  34  55  85 125 155 201 241 309 364
#     4  12  21  38  62  87 122 158 198 256 299 364
#     4  11  23  36  56  86 121 166 204 247 305 361
#     4   9  19  33  53  84 121 163 191 242 295 382
#     4  11  19  35  55  82 129 162 201 237 303 373
#
# _framework density 24.875133999999999
#
# number of rings (size 3 to 8) (size 9 to 14) (size 15 to 20)
#    0.000    1.250    5.000    1.125    1.750    3.000 
#    0.000    0.000    0.000    0.000    0.000    1.750 
#    0.000    0.125    0.000    0.000    0.000    0.000 
#
# Total GULP energy -89340.682536 kJ/mol
# GULP energy per Si atom -5583.792658 kJ/mol
# Density = 2.481852 g / cm^3
# Si number density = 24.875134 Si / 1000 Ang^3
#
#
#
# Elastic Constant Matrix: (Units=GPa)
#
#
# Indices 1 2 3 4 5 6 
#
# 1 108.2094 18.3214 46.4713 7.5580 -0.3878 -30.3617
# 2 18.3214 49.6080 24.2729 -1.0772 -2.3405 -32.4648
# 3 46.4713 24.2729 157.0699 27.3162 -20.4964 -38.9465
# 4 7.5580 -1.0772 27.3162 33.9846 -13.4037 -14.7627
# 5 -0.3878 -2.3405 -20.4964 -13.4037 49.6313 7.9651
# 6 -30.3617 -32.4648 -38.9465 -14.7627 7.9651 44.0089
#
#
#
# Elastic Compliance Matrix: (Units=1/GPa)
#
#
# Indices 1 2 3 4 5 6 
#
# 1 0.012321 0.003164 -0.002373 0.003019 -0.001528 0.010023
# 2 0.003164 0.049134 -0.001140 0.021277 0.000480 0.044470
# 3 -0.002373 -0.001140 0.009228 -0.004510 0.001906 0.003830
# 4 0.003019 0.021277 -0.004510 0.048537 0.007670 0.028681
# 5 -0.001528 0.000480 0.001906 0.007670 0.023118 -0.000624
# 6 0.010023 0.044470 0.003830 0.028681 -0.000624 0.075566
#
#
# Mechanical properties :
#
#
# Convention : Reuss Voigt Hill
#
# Bulk Modulus (GPa) = 14.28916 54.77982 34.53449
# Shear Modulus (GPa) = 20.66705 40.57974 30.62339
#
# Velocity S-wave (km/s) = 2.88554 4.04336 3.51249
# Velocity P-wave (km/s) = 4.10593 6.62330 5.51030
#
# Compressibility (1/GPa) = 0.06998314
#
# Stress axis : x y z
#
# Youngs Moduli (GPa) = 81.16330 20.35232 108.36970
#
# Poissons Ratio (x) = -0.06439 0.25720
# Poissons Ratio (y) = -0.25676 0.12355
# Poissons Ratio (z) = 0.19263 0.02320
#
# Static dielectric constant tensor:
#      x y z
#    x 4.845830 0.691910 1.906400 
#    y 0.691910 2.118440 0.464280 
#    z 1.906400 0.464280 3.517820 
# 
# From -- ./inp_files/551197.got.cif
#   From: 2010.05.17/outbox.cif.g08.bks.cpg/sg2_276_cif.got.tgz:551197.got - 2010.06.03 11:33:40.
