data_PCOD9094878
_publ_section_title
;
Structure prediction by ZEFSAII (Michael W. Deem and Ramdas Pophale) SiO2 
 PCOD9094878
Probable space group: P -1
;
_chemical_formula_sum "Si O2"
_cell_formula_units_Z 11
_cell_length_a 11.524957
_cell_length_b 11.448857
_cell_length_c 7.578676
_cell_angle_alpha 129.362489
_cell_angle_beta 143.897023
_cell_angle_gamma 38.088756
_cell_volume 363.481921
_symmetry_space_group_name_H-M "P -1"
_symmetry_group_IT_number 2
_symmetry_cell_setting 'triclinic'
loop_
_space_group_symop_operation_xyz
x,y,z
-x,-y,-z
loop_
_atom_site_type_symbol
_atom_site_label
_atom_site_fract_x
_atom_site_fract_y
_atom_site_fract_z
Si Si1 0.000000 0.000000 0.500000
Si Si2 0.908705 0.853218 0.590988
Si Si3 0.421187 0.236522 0.979584
Si Si4 0.809215 0.327782 0.886066
Si Si5 0.640678 0.538121 0.353411
Si Si6 0.183800 0.286507 0.091253
O O1 0.102690 0.009124 0.433152
O O2 0.702545 0.152912 0.217062
O O3 0.047249 0.810920 0.905955
O O4 0.090728 0.653993 0.520400
O O5 0.666920 0.864566 0.342679
O O6 0.365663 0.192707 0.062819
O O7 0.246926 0.465582 0.954818
O O8 0.999200 0.232819 0.860926
O O9 0.526895 0.402350 0.619131
O O10 0.682214 0.699322 0.561901
O O11 0.500000 0.500000 0.000000
O O12 0.000000 0.500000 0.000000
#
# Coordination Sequence:
#
# PCOD9094878 Si02
#       6
#     1   2   2   2   2   2
#     4  12  26  40  58  90 138 172 212 246 318 400
#     4  11  22  39  63  93 122 171 212 260 309 381
#     4  11  23  40  64  94 125 167 211 263 322 371
#     4  10  21  37  68  94 121 155 217 269 315 363
#     4  10  20  34  63 101 124 158 205 265 322 370
#     4  10  21  37  62 100 129 155 207 280 323 359
#
# _framework density 30.262854000000001
#
# number of rings (size 3 to 8) (size 9 to 14) (size 15 to 20)
#    0.000    1.455    5.455    1.091    2.545    4.364 
#    0.000    0.909    0.000    8.727    0.000    0.000 
#    0.000    0.000    0.000    0.000    0.000    0.000 
#
# Total GULP energy -61339.057142 kJ/mol
# GULP energy per Si atom -5576.277922 kJ/mol
# Density = 3.019397 g / cm^3
# Si number density = 30.262854 Si / 1000 Ang^3
#
#
#
# Elastic Constant Matrix: (Units=GPa)
#
#
# Indices 1 2 3 4 5 6 
#
# 1 210.3752 23.8852 44.8921 -7.2729 21.3374 17.3735
# 2 23.8852 105.4871 22.5550 -12.2490 -7.6188 11.9304
# 3 44.8921 22.5550 161.5195 12.1168 25.0463 13.4824
# 4 -7.2729 -12.2490 12.1168 35.2631 5.1048 -1.9490
# 5 21.3374 -7.6188 25.0463 5.1048 81.2262 -1.1536
# 6 17.3735 11.9304 13.4824 -1.9490 -1.1536 67.2421
#
#
#
# Elastic Compliance Matrix: (Units=1/GPa)
#
#
# Indices 1 2 3 4 5 6 
#
# 1 0.005350 -0.000768 -0.001214 0.001374 -0.001203 -0.000984
# 2 -0.000768 0.010710 -0.001698 0.003865 0.001470 -0.001224
# 3 -0.001214 -0.001698 0.007385 -0.003152 -0.001933 -0.000990
# 4 0.001374 0.003865 -0.003152 0.031236 -0.000983 0.000480
# 5 -0.001203 0.001470 -0.001933 -0.000983 0.013432 0.000640
# 6 -0.000984 -0.001224 -0.000990 0.000480 0.000640 0.015566
#
#
# Mechanical properties :
#
#
# Convention : Reuss Voigt Hill
#
# Bulk Modulus (GPa) = 62.16845 73.33851 67.75348
# Shear Modulus (GPa) = 51.86629 62.48292 57.17460
#
# Velocity S-wave (km/s) = 4.14437 4.54880 4.35128
# Velocity P-wave (km/s) = 6.59458 7.20244 6.90520
#
# Compressibility (1/GPa) = 0.01608533
#
# Stress axis : x y z
#
# Youngs Moduli (GPa) = 186.89883 93.36969 135.41530
#
# Poissons Ratio (x) = 0.07171 0.16442
# Poissons Ratio (y) = 0.14355 0.22990
# Poissons Ratio (z) = 0.22693 0.15852
#
# Static dielectric constant tensor:
#      x y z
#    x 2.316110 -0.007220 -0.023940 
#    y -0.007220 2.209720 -0.054290 
#    z -0.023940 -0.054290 2.360700 
# 
# From -- ./inp_files/250107.got.cif
#   From: 2010.05.17/outbox.cif.g08.bks.cpg/sg2_126_cif.got.tgz:250107.got - 2010.06.03 11:33:40.
