data_PCOD9094553
_publ_section_title
;
Structure prediction by ZEFSAII (Michael W. Deem and Ramdas Pophale) SiO2 
 PCOD9094553
Probable space group: P -1
;
_chemical_formula_sum "Si O2"
_cell_formula_units_Z 16
_cell_length_a 8.991114
_cell_length_b 9.102940
_cell_length_c 10.304367
_cell_angle_alpha 91.717735
_cell_angle_beta 91.509583
_cell_angle_gamma 59.121919
_cell_volume 723.444774
_symmetry_space_group_name_H-M "P -1"
_symmetry_group_IT_number 2
_symmetry_cell_setting 'triclinic'
loop_
_space_group_symop_operation_xyz
x,y,z
-x,-y,-z
loop_
_atom_site_type_symbol
_atom_site_label
_atom_site_fract_x
_atom_site_fract_y
_atom_site_fract_z
Si Si1 0.672003 0.510694 0.860025
Si Si2 0.240408 0.010835 0.535951
Si Si3 0.119979 0.853518 0.140672
Si Si4 0.603766 0.853700 0.824097
Si Si5 0.057595 0.837883 0.672404
Si Si6 0.539292 0.837471 0.349689
Si Si7 0.323851 0.504568 0.829765
Si Si8 0.257514 0.998623 0.962913
O O1 0.793875 0.326623 0.794125
O O2 0.693692 0.655081 0.795124
O O3 0.480921 0.541551 0.839080
O O4 0.713140 0.507087 0.016935
O O5 0.176488 0.913158 0.626872
O O6 0.410674 0.855522 0.463158
O O7 0.308160 0.130753 0.599373
O O8 0.072003 0.135257 0.447351
O O9 0.256061 0.846651 0.038734
O O10 0.069308 0.020343 0.224446
O O11 0.939860 0.888766 0.080313
O O12 0.589484 0.984733 0.721313
O O13 0.691147 0.887115 0.949204
O O14 0.405564 0.915760 0.857782
O O15 0.168232 0.658625 0.746845
O O16 0.608530 0.675121 0.251193
#
# Coordination Sequence:
#
# PCOD9094553 Si02
#       8
#     2   2   2   2   2   2   2   2
#     4  11  22  35  60  97 128 160 198 234 302 389
#     4  10  24  44  64  86 116 162 216 260 302 348
#     4  11  21  38  60  88 127 163 197 245 301 363
#     4  11  21  38  60  88 127 163 197 245 301 363
#     4  11  23  42  65  89 122 162 207 258 304 349
#     4  11  23  42  65  89 122 162 207 258 304 349
#     4  11  22  38  64  94 124 159 198 248 308 370
#     4  10  20  34  58  86 122 164 196 236 302 372
#
# _framework density 22.116409000000001
#
# number of rings (size 3 to 8) (size 9 to 14) (size 15 to 20)
#    0.000    1.250    0.000    9.000    0.000    1.500 
#    0.000   10.000    0.000    0.000    0.000    0.000 
#    0.000    0.000    0.000    0.000    0.000    0.000 
#
# Total GULP energy -89331.951354 kJ/mol
# GULP energy per Si atom -5583.246960 kJ/mol
# Density = 2.206607 g / cm^3
# Si number density = 22.116409 Si / 1000 Ang^3
#
#
#
# Elastic Constant Matrix: (Units=GPa)
#
#
# Indices 1 2 3 4 5 6 
#
# 1 118.1274 21.0546 32.5680 -1.6125 12.5606 6.0642
# 2 21.0546 144.5464 17.9821 -5.9210 13.9389 2.5365
# 3 32.5680 17.9821 49.0993 -0.5352 12.5118 -1.8241
# 4 -1.6125 -5.9210 -0.5352 27.8615 -2.5201 4.1549
# 5 12.5606 13.9389 12.5118 -2.5201 44.5064 0.0023
# 6 6.0642 2.5365 -1.8241 4.1549 0.0023 12.8756
#
#
#
# Elastic Compliance Matrix: (Units=1/GPa)
#
#
# Indices 1 2 3 4 5 6 
#
# 1 0.010948 -0.000461 -0.007096 0.001287 -0.000877 -0.006486
# 2 -0.000461 0.007502 -0.002112 0.001703 -0.001529 -0.002110
# 3 -0.007096 -0.002112 0.027451 -0.002038 -0.005169 0.008306
# 4 0.001287 0.001703 -0.002038 0.038493 0.001857 -0.013653
# 5 -0.000877 -0.001529 -0.005169 0.001857 0.024753 -0.000621
# 6 -0.006486 -0.002110 0.008306 -0.013653 -0.000621 0.086719
#
#
# Mechanical properties :
#
#
# Convention : Reuss Voigt Hill
#
# Bulk Modulus (GPa) = 37.64695 50.55359 44.10027
# Shear Modulus (GPa) = 22.31546 33.05993 27.68769
#
# Velocity S-wave (km/s) = 3.17992 3.87048 3.54207
# Velocity P-wave (km/s) = 5.52645 6.54841 6.05902
#
# Compressibility (1/GPa) = 0.02656257
#
# Stress axis : x y z
#
# Youngs Moduli (GPa) = 91.34180 133.29194 36.42845
#
# Poissons Ratio (x) = 0.06141 0.25851
# Poissons Ratio (y) = 0.04208 0.07694
# Poissons Ratio (z) = 0.64821 0.28153
#
# Static dielectric constant tensor:
#      x y z
#    x 1.804160 0.001940 0.005720 
#    y 0.001940 1.847140 -0.039580 
#    z 0.005720 -0.039580 1.950080 
# 
# From -- ./inp_files/382318.got.cif
#   From: 2010.05.17/outbox.cif.g08.bks.cpg/sg2_192_cif.got.tgz:382318.got - 2010.06.03 11:33:40.
