data_PCOD9094319
_publ_section_title
;
Structure prediction by ZEFSAII (Michael W. Deem and Ramdas Pophale) SiO2 
 PCOD9094319
Probable space group: P -1
;
_chemical_formula_sum "Si O2"
_cell_formula_units_Z 16
_cell_length_a 28.835269
_cell_length_b 18.146692
_cell_length_c 28.842885
_cell_angle_alpha 159.825203
_cell_angle_beta 169.880537
_cell_angle_gamma 21.015159
_cell_volume 903.382155
_symmetry_space_group_name_H-M "P -1"
_symmetry_group_IT_number 2
_symmetry_cell_setting 'triclinic'
loop_
_space_group_symop_operation_xyz
x,y,z
-x,-y,-z
loop_
_atom_site_type_symbol
_atom_site_label
_atom_site_fract_x
_atom_site_fract_y
_atom_site_fract_z
Si Si1 0.228617 0.524286 0.275756
Si Si2 0.785328 0.903406 0.699699
Si Si3 0.117487 0.591579 0.473161
Si Si4 0.541572 0.214085 0.224676
Si Si5 0.851598 0.161003 0.826499
Si Si6 0.628610 0.702940 0.624578
Si Si7 0.979047 0.932645 0.330360
Si Si8 0.349229 0.405673 0.057868
O O1 0.500000 0.500000 0.500000
O O2 0.276234 0.343081 0.256161
O O3 0.140302 0.757668 0.351032
O O4 0.000000 0.500000 0.000000
O O5 0.847363 0.642845 0.607114
O O6 0.500000 0.000000 0.500000
O O7 0.817175 0.979508 0.723144
O O8 0.000000 0.000000 0.000000
O O9 0.383052 0.585559 0.701142
O O10 0.076573 0.819238 0.594849
O O11 0.876069 0.609726 0.210201
O O12 0.601822 0.458648 0.437497
O O13 0.823689 0.077134 0.436413
O O14 0.426400 0.224097 0.065403
O O15 0.300221 0.148409 0.979344
O O16 0.657638 0.163395 0.592437
O O17 0.748460 0.376817 0.881665
O O18 0.147154 0.189974 0.118401
#
# Coordination Sequence:
#
# PCOD9094319 Si02
#       8
#     2   2   2   2   2   2   2   2
#     4  11  21  38  61  84 107 135 172 222 283 350
#     4  12  22  37  54  79 106 154 201 235 259 296
#     4  12  23  35  50  77 110 146 194 225 263 309
#     4  10  20  35  52  74 113 149 183 214 260 321
#     4  11  19  34  55  76 113 145 187 233 260 299
#     4  10  20  34  56  84 106 138 178 225 277 327
#     4  11  23  37  52  79 112 142 176 226 270 333
#     4  11  20  32  52  74 107 154 188 219 256 305
#
# _framework density 17.711220999999998
#
# number of rings (size 3 to 8) (size 9 to 14) (size 15 to 20)
#    0.000    1.000    2.500    9.000    0.000    3.000 
#    0.000    0.000    0.000    0.000    0.000    5.250 
#    0.000    0.000    0.000    0.000    0.000    0.000 
#
# Total GULP energy -89218.208992 kJ/mol
# GULP energy per Si atom -5576.138062 kJ/mol
# Density = 1.767091 g / cm^3
# Si number density = 17.711221 Si / 1000 Ang^3
#
#
#
# Elastic Constant Matrix: (Units=GPa)
#
#
# Indices 1 2 3 4 5 6 
#
# 1 93.4481 79.7938 40.9075 -6.0324 -2.8884 3.7588
# 2 79.7938 177.8509 44.1972 -9.3754 -3.5804 -8.7262
# 3 40.9075 44.1972 139.5490 -23.0951 10.1993 5.7161
# 4 -6.0324 -9.3754 -23.0951 32.2060 9.1586 11.0020
# 5 -2.8884 -3.5804 10.1993 9.1586 32.3514 -1.6063
# 6 3.7588 -8.7262 5.7161 11.0020 -1.6063 33.6236
#
#
#
# Elastic Compliance Matrix: (Units=1/GPa)
#
#
# Indices 1 2 3 4 5 6 
#
# 1 0.018967 -0.007894 -0.003081 -0.000244 0.001687 -0.003485
# 2 -0.007894 0.009624 -0.001216 -0.001318 0.001319 0.004081
# 3 -0.003081 -0.001216 0.011060 0.011071 -0.007320 -0.005824
# 4 -0.000244 -0.001318 0.011071 0.050684 -0.018984 -0.019688
# 5 0.001687 0.001319 -0.007320 -0.018984 0.039360 0.009490
# 6 -0.003485 0.004081 -0.005824 -0.019688 0.009490 0.039075
#
#
# Mechanical properties :
#
#
# Convention : Reuss Voigt Hill
#
# Bulk Modulus (GPa) = 65.48922 82.29386 73.89154
# Shear Modulus (GPa) = 25.22188 36.03285 30.62736
#
# Velocity S-wave (km/s) = 3.77777 4.51540 4.16295
# Velocity P-wave (km/s) = 7.48900 8.58779 8.05715
#
# Compressibility (1/GPa) = 0.01526969
#
# Stress axis : x y z
#
# Youngs Moduli (GPa) = 52.72399 103.91004 90.41728
#
# Poissons Ratio (x) = 0.82024 0.27855
# Poissons Ratio (y) = 0.41619 0.10992
# Poissons Ratio (z) = 0.16243 0.12633
#
# Static dielectric constant tensor:
#      x y z
#    x 1.621510 0.013690 -0.031150 
#    y 0.013690 1.662660 0.024500 
#    z -0.031150 0.024500 1.641080 
# 
# From -- ./inp_files/533971.got.cif
#   From: 2010.05.17/outbox.cif.g08.bks.cpg/sg2_267_cif.got.tgz:533971.got - 2010.06.03 11:33:40.
