data_PCOD9094522
_publ_section_title
;
Structure prediction by ZEFSAII (Michael W. Deem and Ramdas Pophale) SiO2 
 PCOD9094522
Probable space group: P -1
;
_chemical_formula_sum "Si O2"
_cell_formula_units_Z 16
_cell_length_a 7.935931
_cell_length_b 12.097825
_cell_length_c 13.742193
_cell_angle_alpha 70.904831
_cell_angle_beta 28.998750
_cell_angle_gamma 80.190761
_cell_volume 584.803225
_symmetry_space_group_name_H-M "P -1"
_symmetry_group_IT_number 2
_symmetry_cell_setting 'triclinic'
loop_
_space_group_symop_operation_xyz
x,y,z
-x,-y,-z
loop_
_atom_site_type_symbol
_atom_site_label
_atom_site_fract_x
_atom_site_fract_y
_atom_site_fract_z
Si Si1 0.479986 0.340840 0.288195
Si Si2 0.233006 0.081357 0.553997
Si Si3 0.143886 0.634542 0.525949
Si Si4 0.894997 0.228497 0.970671
Si Si5 0.874321 0.817611 0.731698
Si Si6 0.990123 0.944784 0.883567
Si Si7 0.750541 0.608759 0.416921
Si Si8 0.471931 0.726396 0.138830
O O1 0.220581 0.204126 0.472188
O O2 0.818446 0.318186 0.067448
O O3 0.251846 0.407105 0.315062
O O4 0.540783 0.391912 0.351591
O O5 0.661102 0.091809 0.330787
O O6 0.069779 0.071835 0.748941
O O7 0.048142 0.958384 0.625869
O O8 0.415661 0.660899 0.289962
O O9 0.117250 0.754164 0.562112
O O10 0.206879 0.524558 0.589573
O O11 0.509339 0.189825 0.122974
O O12 0.980557 0.109940 0.008573
O O13 0.198059 0.303680 0.725883
O O14 0.778787 0.733566 0.900586
O O15 0.603224 0.868572 0.062821
O O16 0.113084 0.668067 0.278863
#
# Coordination Sequence:
#
# PCOD9094522 Si02
#       8
#     2   2   2   2   2   2   2   2
#     4   9  18  33  55  81 107 137 178 223 266 312
#     4   9  18  36  59  80 109 146 176 220 272 321
#     4  10  20  34  58  83 106 141 184 228 266 311
#     4   9  19  34  55  82 109 141 181 222 266 319
#     4   9  19  35  57  82 108 139 184 224 262 318
#     4   9  18  35  55  79 114 143 175 218 273 329
#     4  10  20  36  58  81 107 140 185 229 264 311
#     4   9  18  35  55  80 108 140 179 220 269 320
#
# _framework density 27.359629999999999
#
# number of rings (size 3 to 8) (size 9 to 14) (size 15 to 20)
#    0.000    2.750    0.000    1.500    0.000   10.000 
#    0.000   28.750    0.000   32.250    0.000    0.000 
#    0.000    0.000    0.000    0.000    0.000    0.000 
#
# Total GULP energy -89344.584487 kJ/mol
# GULP energy per Si atom -5584.036530 kJ/mol
# Density = 2.729736 g / cm^3
# Si number density = 27.359630 Si / 1000 Ang^3
#
#
#
# Elastic Constant Matrix: (Units=GPa)
#
#
# Indices 1 2 3 4 5 6 
#
# 1 96.1182 33.6242 29.0509 -0.7752 20.4840 -8.8614
# 2 33.6242 139.0642 33.0211 4.4706 12.5449 4.8793
# 3 29.0509 33.0211 70.1704 -4.3439 -0.3875 11.1148
# 4 -0.7752 4.4706 -4.3439 27.2951 -0.4685 6.7429
# 5 20.4840 12.5449 -0.3875 -0.4685 66.0603 -7.5343
# 6 -8.8614 4.8793 11.1148 6.7429 -7.5343 39.7420
#
#
#
# Elastic Compliance Matrix: (Units=1/GPa)
#
#
# Indices 1 2 3 4 5 6 
#
# 1 0.013917 -0.001801 -0.005733 -0.001394 -0.003504 0.004500
# 2 -0.001801 0.008605 -0.003364 -0.001914 -0.001156 -0.000412
# 3 -0.005733 -0.003364 0.019637 0.005251 0.001781 -0.006910
# 4 -0.001394 -0.001914 0.005251 0.039791 0.000166 -0.008264
# 5 -0.003504 -0.001156 0.001781 0.000166 0.016683 0.001997
# 6 0.004500 -0.000412 -0.006910 -0.008264 0.001997 0.029930
#
#
# Mechanical properties :
#
#
# Convention : Reuss Voigt Hill
#
# Bulk Modulus (GPa) = 49.10431 55.19392 52.14911
# Shear Modulus (GPa) = 31.81795 40.59656 36.20726
#
# Velocity S-wave (km/s) = 3.41391 3.85621 3.64178
# Velocity P-wave (km/s) = 5.79020 6.32806 6.06510
#
# Compressibility (1/GPa) = 0.02036481
#
# Stress axis : x y z
#
# Youngs Moduli (GPa) = 71.85633 116.20761 50.92498
#
# Poissons Ratio (x) = 0.20925 0.29193
# Poissons Ratio (y) = 0.12939 0.17130
# Poissons Ratio (z) = 0.41192 0.39089
#
# Static dielectric constant tensor:
#      x y z
#    x 2.366920 0.059950 0.030020 
#    y 0.059950 2.169780 0.027270 
#    z 0.030020 0.027270 2.115220 
# 
# From -- ./inp_files/500232.got.cif
#   From: 2010.05.17/outbox.cif.g08.bks.cpg/sg2_251_cif.got.tgz:500232.got - 2010.06.03 11:33:40.
