data_PCOD9094205
_publ_section_title
;
Structure prediction by ZEFSAII (Michael W. Deem and Ramdas Pophale) SiO2 
 PCOD9094205
Probable space group: P -1
;
_chemical_formula_sum "Si O2"
_cell_formula_units_Z 16
_cell_length_a 10.180173
_cell_length_b 9.097675
_cell_length_c 13.106936
_cell_angle_alpha 36.739874
_cell_angle_beta 58.230023
_cell_angle_gamma 66.129059
_cell_volume 616.987054
_symmetry_space_group_name_H-M "P -1"
_symmetry_group_IT_number 2
_symmetry_cell_setting 'triclinic'
loop_
_space_group_symop_operation_xyz
x,y,z
-x,-y,-z
loop_
_atom_site_type_symbol
_atom_site_label
_atom_site_fract_x
_atom_site_fract_y
_atom_site_fract_z
Si Si1 0.204880 0.523615 0.414526
Si Si2 0.461749 0.828636 0.852115
Si Si3 0.927738 0.903513 0.412892
Si Si4 0.655465 0.668434 0.350417
Si Si5 0.157503 0.620062 0.911691
Si Si6 0.660573 0.038198 0.974824
Si Si7 0.509969 0.295326 0.315861
Si Si8 0.199080 0.180702 0.271170
O O1 0.084315 0.360578 0.487949
O O2 0.215911 0.465440 0.562872
O O3 0.374360 0.426181 0.358733
O O4 0.214069 0.814219 0.225663
O O5 0.360505 0.779214 0.020869
O O6 0.487017 0.673516 0.826842
O O7 0.631454 0.885697 0.795323
O O8 0.391769 0.087622 0.704859
O O9 0.813825 0.878211 0.571478
O O10 0.872178 0.091643 0.244385
O O11 0.075129 0.022730 0.344690
O O12 0.500000 0.500000 0.500000
O O13 0.701262 0.786337 0.156149
O O14 0.315073 0.599262 0.792694
O O15 0.178415 0.468286 0.092022
O O16 0.000000 0.500000 0.000000
O O17 0.500000 0.000000 0.000000
O O18 0.500000 0.000000 0.500000
#
# Coordination Sequence:
#
# PCOD9094205 Si02
#       8
#     2   2   2   2   2   2   2   2
#     4  12  20  34  57  83 113 145 182 238 281 338
#     4  10  20  34  55  83 110 143 182 233 286 331
#     4  10  21  33  53  79 117 158 181 219 284 349
#     4  10  21  37  55  79 106 142 188 238 283 330
#     4  10  21  34  48  73 117 161 181 213 269 342
#     4  10  22  36  55  79 105 144 189 234 290 321
#     4  12  19  32  56  88 117 140 188 228 287 347
#     4  10  20  36  50  79 121 151 185 223 276 354
#
# _framework density 25.932471
#
# number of rings (size 3 to 8) (size 9 to 14) (size 15 to 20)
#    0.750    0.750    5.000    0.750    1.750    1.000 
#    0.000    0.000    0.000    3.000    0.000    1.750 
#    0.000    0.000    0.000    0.000    0.000    0.000 
#
# Total GULP energy -89327.447534 kJ/mol
# GULP energy per Si atom -5582.965471 kJ/mol
# Density = 2.587345 g / cm^3
# Si number density = 25.932471 Si / 1000 Ang^3
#
#
#
# Elastic Constant Matrix: (Units=GPa)
#
#
# Indices 1 2 3 4 5 6 
#
# 1 109.0809 -6.9050 47.6987 -2.4684 0.5915 30.9156
# 2 -6.9050 97.4798 8.0463 0.7990 6.2524 12.6410
# 3 47.6987 8.0463 186.7319 -5.4808 25.6372 21.3113
# 4 -2.4684 0.7990 -5.4808 20.2827 4.3289 0.2375
# 5 0.5915 6.2524 25.6372 4.3289 54.4315 -0.5543
# 6 30.9156 12.6410 21.3113 0.2375 -0.5543 34.7748
#
#
#
# Elastic Compliance Matrix: (Units=1/GPa)
#
#
# Indices 1 2 3 4 5 6 
#
# 1 0.013681 0.002642 -0.002303 0.000983 0.000435 -0.011712
# 2 0.002642 0.011371 -0.000259 0.000153 -0.001290 -0.006345
# 3 -0.002303 -0.000259 0.006708 0.002272 -0.003306 -0.002038
# 4 0.000983 0.000153 0.002272 0.051172 -0.005196 -0.002754
# 5 0.000435 -0.001290 -0.003306 -0.005196 0.020511 0.002471
# 6 -0.011712 -0.006345 -0.002038 -0.002754 0.002471 0.042782
#
#
# Mechanical properties :
#
#
# Convention : Reuss Voigt Hill
#
# Bulk Modulus (GPa) = 31.32821 54.55249 42.94035
# Shear Modulus (GPa) = 31.90725 44.86130 38.38427
#
# Velocity S-wave (km/s) = 3.51151 4.16375 3.85146
# Velocity P-wave (km/s) = 5.34302 6.64814 6.03099
#
# Compressibility (1/GPa) = 0.03192011
#
# Stress axis : x y z
#
# Youngs Moduli (GPa) = 73.09506 87.94019 149.08067
#
# Poissons Ratio (x) = -0.23233 0.34329
# Poissons Ratio (y) = -0.19311 0.03863
# Poissons Ratio (z) = 0.16832 0.02279
#
# Static dielectric constant tensor:
#      x y z
#    x 2.093570 -0.066870 0.016800 
#    y -0.066870 2.019630 -0.039420 
#    z 0.016800 -0.039420 2.063760 
# 
# From -- ./inp_files/517458.got.cif
#   From: 2010.05.17/outbox.cif.g08.bks.cpg/sg2_259_cif.got.tgz:517458.got - 2010.06.03 11:33:40.
