data_PCOD9094816
_publ_section_title
;
Structure prediction by ZEFSAII (Michael W. Deem and Ramdas Pophale) SiO2 
 PCOD9094816
Probable space group: P -1
;
_chemical_formula_sum "Si O2"
_cell_formula_units_Z 16
_cell_length_a 6.782776
_cell_length_b 9.519729
_cell_length_c 11.770974
_cell_angle_alpha 93.739735
_cell_angle_beta 101.360125
_cell_angle_gamma 59.525309
_cell_volume 641.680598
_symmetry_space_group_name_H-M "P -1"
_symmetry_group_IT_number 2
_symmetry_cell_setting 'triclinic'
loop_
_space_group_symop_operation_xyz
x,y,z
-x,-y,-z
loop_
_atom_site_type_symbol
_atom_site_label
_atom_site_fract_x
_atom_site_fract_y
_atom_site_fract_z
Si Si1 0.153585 0.180349 0.981119
Si Si2 0.740982 0.719529 0.217431
Si Si3 0.193898 0.960586 0.425216
Si Si4 0.474208 0.271081 0.160949
Si Si5 0.394453 0.597436 0.110047
Si Si6 0.000387 0.896934 0.822479
Si Si7 0.115651 0.364874 0.286465
Si Si8 0.700465 0.758421 0.480191
O O1 0.262060 0.150879 0.865281
O O2 0.878672 0.287642 0.933762
O O3 0.281607 0.271765 0.054852
O O4 0.151257 0.065421 0.077231
O O5 0.527635 0.689479 0.167446
O O6 0.744202 0.759137 0.351480
O O7 0.972199 0.540447 0.219693
O O8 0.105862 0.976226 0.286409
O O9 0.264067 0.098762 0.455806
O O10 0.436315 0.794740 0.460975
O O11 0.000000 0.000000 0.500000
O O12 0.444541 0.447589 0.187948
O O13 0.381067 0.243184 0.267416
O O14 0.730890 0.153068 0.136343
O O15 0.500000 0.500000 0.000000
O O16 0.014879 0.731791 0.768323
O O17 0.135606 0.385475 0.423013
#
# Coordination Sequence:
#
# PCOD9094816 Si02
#       8
#     2   2   2   2   2   2   2   2
#     4  11  21  32  54  88 125 156 188 228 287 351
#     4  12  22  35  57  89 131 158 181 232 294 357
#     4  10  22  46  68  81 106 151 207 256 293 331
#     4  11  18  32  55  86 120 158 192 226 278 341
#     4  12  19  32  52  86 128 162 190 218 276 356
#     4  10  20  34  61  90 112 151 202 240 281 347
#     4  10  20  35  57  87 124 156 186 232 293 352
#     4  10  24  42  61  87 114 153 202 245 290 346
#
# _framework density 24.934525000000001
#
# number of rings (size 3 to 8) (size 9 to 14) (size 15 to 20)
#    0.000    1.250    5.000    2.250    0.000    2.000 
#    0.000    1.250    0.000    3.750    0.000    0.000 
#    0.000    0.000    0.000    0.000    0.000    0.000 
#
# Total GULP energy -89342.399318 kJ/mol
# GULP energy per Si atom -5583.899957 kJ/mol
# Density = 2.487777 g / cm^3
# Si number density = 24.934525 Si / 1000 Ang^3
#
#
#
# Elastic Constant Matrix: (Units=GPa)
#
#
# Indices 1 2 3 4 5 6 
#
# 1 166.0754 38.5755 61.4336 -12.9390 -5.5955 -12.7729
# 2 38.5755 41.3261 25.8277 -10.4779 6.5141 5.3033
# 3 61.4336 25.8277 165.4394 -8.4141 -13.3584 -1.5861
# 4 -12.9390 -10.4779 -8.4141 31.9817 -2.4608 -5.1237
# 5 -5.5955 6.5141 -13.3584 -2.4608 40.4976 -2.3800
# 6 -12.7729 5.3033 -1.5861 -5.1237 -2.3800 29.5058
#
#
#
# Elastic Compliance Matrix: (Units=1/GPa)
#
#
# Indices 1 2 3 4 5 6 
#
# 1 0.009275 -0.008231 -0.001817 0.001710 0.002456 0.005892
# 2 -0.008231 0.038203 -0.003400 0.005981 -0.008644 -0.010271
# 3 -0.001817 -0.003400 0.007505 0.000428 0.002829 0.000530
# 4 0.001710 0.005981 0.000428 0.035130 0.001899 0.005942
# 5 0.002456 -0.008644 0.002829 0.001899 0.027785 0.005340
# 6 0.005892 -0.010271 0.000530 0.005942 0.005340 0.039779
#
#
# Mechanical properties :
#
#
# Convention : Reuss Voigt Hill
#
# Bulk Modulus (GPa) = 35.60432 69.39049 52.49741
# Shear Modulus (GPa) = 25.78175 36.86398 31.32286
#
# Velocity S-wave (km/s) = 3.21904 3.84921 3.54814
# Velocity P-wave (km/s) = 5.30344 6.90251 6.15513
#
# Compressibility (1/GPa) = 0.02808648
#
# Stress axis : x y z
#
# Youngs Moduli (GPa) = 107.82085 26.17604 133.23902
#
# Poissons Ratio (x) = 0.21546 0.24212
# Poissons Ratio (y) = 0.88750 0.45298
# Poissons Ratio (z) = 0.19593 0.08899
#
# Static dielectric constant tensor:
#      x y z
#    x 1.982290 0.005540 -0.054250 
#    y 0.005540 2.035690 -0.040890 
#    z -0.054250 -0.040890 2.011870 
# 
# From -- ./inp_files/77662.got.cif
#   From: 2010.05.17/outbox.cif.g08.bks.cpg/sg2_39_cif.got.tgz:77662.got - 2010.06.03 11:33:40.
