data_PCOD9094993
_publ_section_title
;
Structure prediction by ZEFSAII (Michael W. Deem and Ramdas Pophale) SiO2 
 PCOD9094993
Probable space group: P -1
;
_chemical_formula_sum "Si O2"
_cell_formula_units_Z 16
_cell_length_a 13.212740
_cell_length_b 7.822014
_cell_length_c 7.857268
_cell_angle_alpha 106.467204
_cell_angle_beta 58.233610
_cell_angle_gamma 103.658019
_cell_volume 658.316914
_symmetry_space_group_name_H-M "P -1"
_symmetry_group_IT_number 2
_symmetry_cell_setting 'triclinic'
loop_
_space_group_symop_operation_xyz
x,y,z
-x,-y,-z
loop_
_atom_site_type_symbol
_atom_site_label
_atom_site_fract_x
_atom_site_fract_y
_atom_site_fract_z
Si Si1 0.740396 0.317814 0.349442
Si Si2 0.374510 0.418552 0.667125
Si Si3 0.999470 0.312534 0.050943
Si Si4 0.629904 0.382173 0.913229
Si Si5 0.678952 0.077092 0.012276
Si Si6 0.071693 0.904209 0.266219
Si Si7 0.496832 0.191913 0.711919
Si Si8 0.115003 0.521841 0.285516
O O1 0.719216 0.523325 0.372670
O O2 0.876440 0.293016 0.264240
O O3 0.726642 0.221196 0.151873
O O4 0.630997 0.215026 0.523065
O O5 0.500000 0.500000 0.500000
O O6 0.403783 0.224346 0.650787
O O7 0.363769 0.518139 0.883870
O O8 0.103522 0.360997 0.110362
O O9 0.995858 0.153076 0.869532
O O10 0.000000 0.500000 0.000000
O O11 0.518271 0.350958 0.877186
O O12 0.754883 0.461179 0.736284
O O13 0.642240 0.177058 0.904976
O O14 0.565916 0.970123 0.171081
O O15 0.798700 0.981682 0.844973
O O16 0.104010 0.712976 0.257803
O O17 0.000000 0.000000 0.500000
O O18 0.000000 0.500000 0.500000
#
# Coordination Sequence:
#
# PCOD9094993 Si02
#       8
#     2   2   2   2   2   2   2   2
#     4   9  18  34  54  77 107 137 178 227 269 329
#     4   9  19  33  49  73 104 135 172 220 267 312
#     4   9  17  34  59  80 104 148 185 218 278 335
#     4  10  20  35  51  76 110 139 179 227 262 323
#     4   9  19  34  52  75 107 145 177 212 272 337
#     4   9  19  36  55  80 112 141 180 233 277 324
#     4  11  19  31  54  79 105 141 176 219 276 324
#     4  10  20  35  58  82 105 144 190 226 271 332
#
# _framework density 24.304404999999999
#
# number of rings (size 3 to 8) (size 9 to 14) (size 15 to 20)
#    0.000    2.500    0.000    4.125    0.000    1.000 
#    0.000    6.875    0.000   13.500    0.000    2.625 
#    0.000    0.000    0.000    0.000    0.000    0.000 
#
# Total GULP energy -89069.749899 kJ/mol
# GULP energy per Si atom -5566.859369 kJ/mol
# Density = 2.424909 g / cm^3
# Si number density = 24.304405 Si / 1000 Ang^3
#
#
#
# Elastic Constant Matrix: (Units=GPa)
#
#
# Indices 1 2 3 4 5 6 
#
# 1 76.9386 27.6708 -14.9155 -4.1590 11.1010 15.3441
# 2 27.6708 43.4532 32.8772 -18.5025 -6.4337 13.8885
# 3 -14.9155 32.8772 96.6244 -12.2252 2.9366 2.8889
# 4 -4.1590 -18.5025 -12.2252 41.3004 6.6890 7.7962
# 5 11.1010 -6.4337 2.9366 6.6890 18.5233 0.1286
# 6 15.3441 13.8885 2.8889 7.7962 0.1286 18.0425
#
#
#
# Elastic Compliance Matrix: (Units=1/GPa)
#
#
# Indices 1 2 3 4 5 6 
#
# 1 0.055058 -0.085021 0.036836 -0.015155 -0.063031 0.019722
# 2 -0.085021 0.222726 -0.079934 0.070989 0.116169 -0.117845
# 3 0.036836 -0.079934 0.041595 -0.017588 -0.050302 0.031501
# 4 -0.015155 0.070989 -0.017588 0.058918 0.015699 -0.064511
# 5 -0.063031 0.116169 -0.050302 0.015699 0.134662 -0.035508
# 6 0.019722 -0.117845 0.031501 -0.064511 -0.035508 0.152450
#
#
# Mechanical properties :
#
#
# Convention : Reuss Voigt Hill
#
# Bulk Modulus (GPa) = 15.83709 34.25346 25.04528
# Shear Modulus (GPa) = 5.30396 26.99882 16.15139
#
# Velocity S-wave (km/s) = 1.47886 3.33657 2.58067
# Velocity P-wave (km/s) = 3.07349 5.38217 4.38258
#
# Compressibility (1/GPa) = 0.06314292
#
# Stress axis : x y z
#
# Youngs Moduli (GPa) = 18.16273 4.48983 24.04111
#
# Poissons Ratio (x) = 0.38173 -0.88559
# Poissons Ratio (y) = 1.54420 1.92170
# Poissons Ratio (z) = -0.66905 0.35889
#
# Static dielectric constant tensor:
#      x y z
#    x 1.966980 -0.018470 -0.090860 
#    y -0.018470 1.966290 0.070060 
#    z -0.090860 0.070060 2.034730 
# 
# From -- ./inp_files/299115.got.cif
#   From: 2010.05.17/outbox.cif.g08.bks.cpg/sg2_150_cif.got.tgz:299115.got - 2010.06.03 11:33:40.
