data_PCOD9094470
_publ_section_title
;
Structure prediction by ZEFSAII (Michael W. Deem and Ramdas Pophale) SiO2 
 PCOD9094470
Probable space group: P -1
;
_chemical_formula_sum "Si O2"
_cell_formula_units_Z 16
_cell_length_a 9.745666
_cell_length_b 10.315819
_cell_length_c 10.226041
_cell_angle_alpha 92.250933
_cell_angle_beta 44.212928
_cell_angle_gamma 93.174982
_cell_volume 715.800400
_symmetry_space_group_name_H-M "P -1"
_symmetry_group_IT_number 2
_symmetry_cell_setting 'triclinic'
loop_
_space_group_symop_operation_xyz
x,y,z
-x,-y,-z
loop_
_atom_site_type_symbol
_atom_site_label
_atom_site_fract_x
_atom_site_fract_y
_atom_site_fract_z
Si Si1 0.526838 0.349195 0.944112
Si Si2 0.168743 0.110569 0.545796
Si Si3 0.370142 0.111442 0.660590
Si Si4 0.673092 0.877340 0.006289
Si Si5 0.197794 0.539513 0.443990
Si Si6 0.626658 0.370696 0.425268
Si Si7 0.505716 0.307055 0.239742
Si Si8 0.784248 0.077926 0.718408
O O1 0.321533 0.275732 0.038311
O O2 0.681265 0.354475 0.721178
O O3 0.500000 0.500000 0.000000
O O4 0.594820 0.295912 0.035719
O O5 0.184252 0.111410 0.690354
O O6 0.368988 0.182290 0.362589
O O7 0.968930 0.171637 0.634838
O O8 0.172501 0.976663 0.457825
O O9 0.307450 0.090539 0.852897
O O10 0.491991 0.250018 0.570555
O O11 0.500000 0.000000 0.500000
O O12 0.441144 0.888372 0.133121
O O13 0.786335 0.968748 0.829069
O O14 0.344161 0.418980 0.350153
O O15 0.000000 0.500000 0.500000
O O16 0.804132 0.404495 0.404747
O O17 0.500000 0.500000 0.500000
O O18 0.662068 0.331289 0.249282
#
# Coordination Sequence:
#
# PCOD9094470 Si02
#       8
#     2   2   2   2   2   2   2   2
#     4  10  20  36  56  84 110 150 190 239 284 345
#     4  10  20  37  54  86 117 153 188 242 289 342
#     4  11  21  36  60  88 117 156 197 243 292 357
#     4  11  21  38  60  84 116 154 200 232 297 354
#     4  10  20  34  57  88 108 144 199 247 282 332
#     4   9  19  36  56  82 112 156 191 229 291 353
#     4   9  19  35  58  76 115 149 189 228 292 347
#     4  10  22  35  58  85 117 152 194 239 288 347
#
# _framework density 22.352599999999999
#
# number of rings (size 3 to 8) (size 9 to 14) (size 15 to 20)
#    0.000    2.000    3.750    0.000    1.750    0.500 
#    0.000    0.625    0.000    3.000    0.000    0.000 
#    0.000    0.000    0.000    0.000    0.000    0.000 
#
# Total GULP energy -89126.296386 kJ/mol
# GULP energy per Si atom -5570.393524 kJ/mol
# Density = 2.230172 g / cm^3
# Si number density = 22.352600 Si / 1000 Ang^3
#
#
#
# Elastic Constant Matrix: (Units=GPa)
#
#
# Indices 1 2 3 4 5 6 
#
# 1 144.4199 20.1853 37.1835 12.9149 41.3047 34.2589
# 2 20.1853 61.3243 9.7983 -2.7131 8.3701 10.0962
# 3 37.1835 9.7983 83.1712 1.4011 43.4066 11.1596
# 4 12.9149 -2.7131 1.4011 29.5558 4.1903 6.3186
# 5 41.3047 8.3701 43.4066 4.1903 47.6620 13.9354
# 6 34.2589 10.0962 11.1596 6.3186 13.9354 30.1609
#
#
#
# Elastic Compliance Matrix: (Units=1/GPa)
#
#
# Indices 1 2 3 4 5 6 
#
# 1 0.011372 -0.001452 -0.000250 -0.002271 -0.006596 -0.008816
# 2 -0.001452 0.017845 -0.000885 0.003317 0.000013 -0.004697
# 3 -0.000250 -0.000885 0.023099 0.001622 -0.021250 0.001511
# 4 -0.002271 0.003317 0.001622 0.036572 -0.001528 -0.006087
# 5 -0.006596 0.000013 -0.021250 -0.001528 0.048097 -0.006553
# 6 -0.008816 -0.004697 0.001511 -0.006087 -0.006553 0.048485
#
#
# Mechanical properties :
#
#
# Convention : Reuss Voigt Hill
#
# Bulk Modulus (GPa) = 21.21267 47.02771 34.12019
# Shear Modulus (GPa) = 24.22965 36.25896 30.24430
#
# Velocity S-wave (km/s) = 3.29595 4.03194 3.68238
# Velocity P-wave (km/s) = 4.89847 6.53912 5.77733
#
# Compressibility (1/GPa) = 0.04714164
#
# Stress axis : x y z
#
# Youngs Moduli (GPa) = 87.93345 56.03964 43.29141
#
# Poissons Ratio (x) = 0.08138 0.01081
# Poissons Ratio (y) = 0.12770 0.03832
# Poissons Ratio (z) = 0.02196 0.04961
#
# Static dielectric constant tensor:
#      x y z
#    x 1.992560 -0.304220 -0.118340 
#    y -0.304220 2.564810 0.302810 
#    z -0.118340 0.302810 1.981290 
# 
# From -- ./inp_files/178760.got.cif
#   From: 2010.05.17/outbox.cif.g08.bks.cpg/sg2_90_cif.got.tgz:178760.got - 2010.06.03 11:33:40.
