data_PCOD9094474
_publ_section_title
;
Structure prediction by ZEFSAII (Michael W. Deem and Ramdas Pophale) SiO2 
 PCOD9094474
Probable space group: P -1
;
_chemical_formula_sum "Si O2"
_cell_formula_units_Z 12
_cell_length_a 24.291594
_cell_length_b 22.311375
_cell_length_c 8.014525
_cell_angle_alpha 33.325621
_cell_angle_beta 147.793521
_cell_angle_gamma 168.276337
_cell_volume 469.397025
_symmetry_space_group_name_H-M "P -1"
_symmetry_group_IT_number 2
_symmetry_cell_setting 'triclinic'
loop_
_space_group_symop_operation_xyz
x,y,z
-x,-y,-z
loop_
_atom_site_type_symbol
_atom_site_label
_atom_site_fract_x
_atom_site_fract_y
_atom_site_fract_z
Si Si1 0.723092 0.611143 0.633510
Si Si2 0.881030 0.202476 0.272895
Si Si3 0.735838 0.818377 0.796244
Si Si4 0.670862 0.807315 0.094871
Si Si5 0.497788 0.148400 0.586332
Si Si6 0.744360 0.169562 0.650795
O O1 0.483426 0.338402 0.529940
O O2 0.751253 0.769240 0.314344
O O3 0.578435 0.452691 0.809620
O O4 0.031081 0.863220 0.829223
O O5 0.174770 0.546868 0.270294
O O6 0.899195 0.091533 0.625391
O O7 0.652984 0.033023 0.206924
O O8 0.828566 0.171166 0.014635
O O9 0.500000 0.500000 0.000000
O O10 0.000000 0.000000 0.000000
O O11 0.554371 0.772597 0.739680
O O12 0.365814 0.983853 0.453061
O O13 0.000000 0.500000 0.500000
O O14 0.500000 0.000000 0.500000
#
# Coordination Sequence:
#
# PCOD9094474 Si02
#       6
#     2   2   2   2   2   2
#     4  10  20  34  57  88 135 187 234 279 334 404
#     4  12  27  47  76 111 148 196 245 298 368 435
#     4  12  24  40  64 101 150 196 240 291 349 426
#     4  10  20  36  59  92 131 181 232 283 341 410
#     4  12  26  47  75 106 147 187 241 307 371 442
#     4  12  29  52  79 110 143 187 246 312 380 443
#
# _framework density 25.564713000000001
#
# number of rings (size 3 to 8) (size 9 to 14) (size 15 to 20)
#    0.000    0.667    0.000    8.000    0.000    9.333 
#    0.000    0.000    0.000    0.000    0.000    0.000 
#    0.000    0.000    0.000    0.000    0.000    0.000 
#
# Total GULP energy -66972.554688 kJ/mol
# GULP energy per Si atom -5581.046224 kJ/mol
# Density = 2.550653 g / cm^3
# Si number density = 25.564713 Si / 1000 Ang^3
#
#
#
# Elastic Constant Matrix: (Units=GPa)
#
#
# Indices 1 2 3 4 5 6 
#
# 1 109.1044 68.0996 19.8478 -11.6595 -21.8971 4.6532
# 2 68.0996 204.9985 36.3463 -2.7810 -5.9693 18.9908
# 3 19.8478 36.3463 90.8001 -16.6222 -13.4244 6.4441
# 4 -11.6595 -2.7810 -16.6222 39.5588 -2.5535 -5.1930
# 5 -21.8971 -5.9693 -13.4244 -2.5535 29.9569 11.9450
# 6 4.6532 18.9908 6.4441 -5.1930 11.9450 44.2264
#
#
#
# Elastic Compliance Matrix: (Units=1/GPa)
#
#
# Indices 1 2 3 4 5 6 
#
# 1 0.014773 -0.004521 0.001457 0.005098 0.011966 -0.002459
# 2 -0.004521 0.006863 -0.002427 -0.002257 -0.002541 -0.001696
# 3 0.001457 -0.002427 0.014329 0.006474 0.008663 -0.002778
# 4 0.005098 -0.002257 0.006474 0.029984 0.008443 0.000729
# 5 0.011966 -0.002541 0.008663 0.008443 0.051998 -0.014483
# 6 -0.002459 -0.001696 -0.002778 0.000729 -0.014483 0.028000
#
#
# Mechanical properties :
#
#
# Convention : Reuss Voigt Hill
#
# Bulk Modulus (GPa) = 40.02542 72.61006 56.31774
# Shear Modulus (GPa) = 30.25590 41.45569 35.85579
#
# Velocity S-wave (km/s) = 3.44394 4.03128 3.74913
# Velocity P-wave (km/s) = 5.61291 7.08042 6.38894
#
# Compressibility (1/GPa) = 0.02498412
#
# Stress axis : x y z
#
# Youngs Moduli (GPa) = 67.68967 145.71465 69.78662
#
# Poissons Ratio (x) = 0.65872 -0.10169
# Poissons Ratio (y) = 0.30600 0.16939
# Poissons Ratio (z) = -0.09864 0.35368
#
# Static dielectric constant tensor:
#      x y z
#    x 1.786330 -0.095670 0.061180 
#    y -0.095670 1.981680 -0.009500 
#    z 0.061180 -0.009500 2.013580 
# 
# From -- ./inp_files/357883.got.cif
#   From: 2010.05.17/outbox.cif.g08.bks.cpg/sg2_179_cif.got.tgz:357883.got - 2010.06.03 11:33:40.
