data_PCOD9094944
_publ_section_title
;
Structure prediction by ZEFSAII (Michael W. Deem and Ramdas Pophale) SiO2 
 PCOD9094944
Probable space group: P -1
;
_chemical_formula_sum "Si O2"
_cell_formula_units_Z 12
_cell_length_a 10.993899
_cell_length_b 7.061058
_cell_length_c 10.674825
_cell_angle_alpha 102.708825
_cell_angle_beta 104.406184
_cell_angle_gamma 37.384572
_cell_volume 486.966320
_symmetry_space_group_name_H-M "P -1"
_symmetry_group_IT_number 2
_symmetry_cell_setting 'triclinic'
loop_
_space_group_symop_operation_xyz
x,y,z
-x,-y,-z
loop_
_atom_site_type_symbol
_atom_site_label
_atom_site_fract_x
_atom_site_fract_y
_atom_site_fract_z
Si Si1 0.386486 0.249973 0.169119
Si Si2 0.438829 0.791317 0.993079
Si Si3 0.687909 0.405722 0.561902
Si Si4 0.887736 0.750045 0.176257
Si Si5 0.942581 0.288725 0.994927
Si Si6 0.999300 0.281885 0.516168
O O1 0.623542 0.050389 0.148956
O O2 0.382624 0.374339 0.312341
O O3 0.323871 0.425011 0.037855
O O4 0.432698 0.965096 0.124756
O O5 0.178175 0.068900 0.958855
O O6 0.500000 0.500000 0.000000
O O7 0.500000 0.500000 0.500000
O O8 0.781018 0.442422 0.490238
O O9 0.865250 0.032431 0.574089
O O10 0.917946 0.803653 0.331289
O O11 0.118007 0.553287 0.144363
O O12 0.935465 0.461800 0.127244
O O13 0.000000 0.000000 0.000000
O O14 0.000000 0.500000 0.500000
#
# Coordination Sequence:
#
# PCOD9094944 Si02
#       6
#     2   2   2   2   2   2
#     4  10  21  39  60  97 134 167 230 282 346 437
#     4  10  21  38  65  99 132 173 218 297 369 420
#     4  11  25  47  69  99 145 193 244 299 348 425
#     4  10  21  39  59  97 133 163 232 286 338 430
#     4  10  20  34  65  92 125 171 208 284 360 401
#     4  11  26  45  72 103 142 197 247 296 353 424
#
# _framework density 24.64236
#
# number of rings (size 3 to 8) (size 9 to 14) (size 15 to 20)
#    0.000    1.667    1.667    2.000    2.333    2.000 
#    0.000    8.333    0.000    0.000    0.000    0.000 
#    0.000    0.000    0.000    0.000    0.000    0.000 
#
# Total GULP energy -66902.707506 kJ/mol
# GULP energy per Si atom -5575.225625 kJ/mol
# Density = 2.458627 g / cm^3
# Si number density = 24.642360 Si / 1000 Ang^3
#
#
#
# Elastic Constant Matrix: (Units=GPa)
#
#
# Indices 1 2 3 4 5 6 
#
# 1 273.0003 54.6907 44.4262 12.0038 4.5203 -8.8439
# 2 54.6907 144.4552 54.9687 43.8036 -10.1265 2.3093
# 3 44.4262 54.9687 89.3806 31.6360 3.8267 3.1884
# 4 12.0038 43.8036 31.6360 31.9125 -17.8866 6.8072
# 5 4.5203 -10.1265 3.8267 -17.8866 51.5039 12.2324
# 6 -8.8439 2.3093 3.1884 6.8072 12.2324 78.0124
#
#
#
# Elastic Compliance Matrix: (Units=1/GPa)
#
#
# Indices 1 2 3 4 5 6 
#
# 1 0.004220 -0.001669 -0.002191 0.003080 0.000468 0.000275
# 2 -0.001669 0.013653 0.000312 -0.021834 -0.005280 0.002127
# 3 -0.002191 0.000312 0.023482 -0.030973 -0.013088 0.003537
# 4 0.003080 -0.021834 -0.030973 0.117508 0.042009 -0.014579
# 5 0.000468 -0.005280 -0.013088 0.042009 0.035930 -0.008555
# 6 0.000275 0.002127 0.003537 -0.014579 -0.008555 0.015256
#
#
# Mechanical properties :
#
#
# Convention : Reuss Voigt Hill
#
# Bulk Modulus (GPa) = 29.19024 90.55636 59.87330
# Shear Modulus (GPa) = 21.87571 55.80245 38.83908
#
# Velocity S-wave (km/s) = 2.98271 4.76383 3.97433
# Velocity P-wave (km/s) = 4.87169 8.19065 6.73870
#
# Compressibility (1/GPa) = 0.03425803
#
# Stress axis : x y z
#
# Youngs Moduli (GPa) = 236.98571 73.24563 42.58574
#
# Poissons Ratio (x) = 0.12228 0.09329
# Poissons Ratio (y) = 0.39563 -0.01328
# Poissons Ratio (z) = 0.51914 -0.02284
#
# Static dielectric constant tensor:
#      x y z
#    x 2.320600 -0.260910 -0.071570 
#    y -0.260910 1.943990 -0.091870 
#    z -0.071570 -0.091870 1.850680 
# 
# From -- ./inp_files/411086.got.cif
#   From: 2010.05.17/outbox.cif.g08.bks.cpg/sg2_206_cif.got.tgz:411086.got - 2010.06.03 11:33:40.
