data_PCOD9094601
_publ_section_title
;
Structure prediction by ZEFSAII (Michael W. Deem and Ramdas Pophale) SiO2 
 PCOD9094601
Probable space group: P -1
;
_chemical_formula_sum "Si O2"
_cell_formula_units_Z 14
_cell_length_a 7.349272
_cell_length_b 14.755914
_cell_length_c 9.358365
_cell_angle_alpha 140.688019
_cell_angle_beta 60.989527
_cell_angle_gamma 99.107677
_cell_volume 517.398580
_symmetry_space_group_name_H-M "P -1"
_symmetry_group_IT_number 2
_symmetry_cell_setting 'triclinic'
loop_
_space_group_symop_operation_xyz
x,y,z
-x,-y,-z
loop_
_atom_site_type_symbol
_atom_site_label
_atom_site_fract_x
_atom_site_fract_y
_atom_site_fract_z
Si Si1 0.867449 0.431535 0.858612
Si Si2 0.773671 0.035268 0.533824
Si Si3 0.885506 0.447710 0.312288
Si Si4 0.761059 0.867218 0.574667
Si Si5 0.563511 0.383246 0.122469
Si Si6 0.103677 0.142671 0.017383
Si Si7 0.674812 0.090212 0.123133
O O1 0.958070 0.471684 0.723189
O O2 0.992836 0.246656 0.611589
O O3 0.618647 0.467894 0.064436
O O4 0.000000 0.500000 0.000000
O O5 0.706065 0.903776 0.475008
O O6 0.605106 0.209125 0.843532
O O7 0.000000 0.000000 0.500000
O O8 0.817873 0.986989 0.295178
O O9 0.760996 0.381763 0.157938
O O10 0.671544 0.542771 0.611582
O O11 0.060413 0.305151 0.161319
O O12 0.581836 0.800561 0.619682
O O13 0.704590 0.028385 0.876152
O O14 0.852085 0.161451 0.181725
O O15 0.261181 0.066299 0.997432
#
# Coordination Sequence:
#
# PCOD9094601 Si02
#       7
#     2   2   2   2   2   2   2
#     4  10  20  34  58  93 123 158 210 259 299 375
#     4  12  19  37  65  90 123 162 207 261 308 365
#     4  10  21  34  61  88 125 167 206 249 316 376
#     4  11  22  39  65  92 117 163 214 253 308 376
#     4  10  20  34  58  96 121 162 213 253 306 377
#     4  11  22  43  61  93 126 162 203 263 318 362
#     4  10  24  38  66  90 122 158 211 261 306 372
#
# _framework density 27.058444000000001
#
# number of rings (size 3 to 8) (size 9 to 14) (size 15 to 20)
#    0.000    1.429    4.286    0.857   10.000    0.571 
#    0.000    0.714    3.143    2.571    0.000    0.000 
#    0.000    0.000    0.000    0.000    0.000    0.000 
#
# Total GULP energy -78277.158290 kJ/mol
# GULP energy per Si atom -5591.225592 kJ/mol
# Density = 2.699686 g / cm^3
# Si number density = 27.058444 Si / 1000 Ang^3
#
#
#
# Elastic Constant Matrix: (Units=GPa)
#
#
# Indices 1 2 3 4 5 6 
#
# 1 78.3007 19.1607 14.8352 -15.3870 -4.8751 -6.1926
# 2 19.1607 166.4817 54.0326 -25.1342 -9.6571 10.3420
# 3 14.8352 54.0326 140.8709 -21.8221 -17.2166 12.3115
# 4 -15.3870 -25.1342 -21.8221 46.8645 8.8009 -1.7744
# 5 -4.8751 -9.6571 -17.2166 8.8009 29.8997 -12.0769
# 6 -6.1926 10.3420 12.3115 -1.7744 -12.0769 27.5983
#
#
#
# Elastic Compliance Matrix: (Units=1/GPa)
#
#
# Indices 1 2 3 4 5 6 
#
# 1 0.014459 -0.001080 -0.000697 0.003532 0.002744 0.005388
# 2 -0.001080 0.007329 -0.002192 0.002607 -0.000708 -0.002153
# 3 -0.000697 -0.002192 0.008858 0.002105 0.002899 -0.001882
# 4 0.003532 0.002607 0.002105 0.025889 -0.005797 -0.001995
# 5 0.002744 -0.000708 0.002899 -0.005797 0.044606 0.018735
# 6 0.005388 -0.002153 -0.001882 -0.001995 0.018735 0.047160
#
#
# Mechanical properties :
#
#
# Convention : Reuss Voigt Hill
#
# Bulk Modulus (GPa) = 44.03839 62.41227 53.22533
# Shear Modulus (GPa) = 30.52389 40.71416 35.61902
#
# Velocity S-wave (km/s) = 3.36232 3.88322 3.63212
# Velocity P-wave (km/s) = 5.60216 6.57432 6.10762
#
# Compressibility (1/GPa) = 0.02270746
#
# Stress axis : x y z
#
# Youngs Moduli (GPa) = 69.16269 136.45253 112.89774
#
# Poissons Ratio (x) = 0.14740 0.07865
# Poissons Ratio (y) = 0.07471 0.24745
# Poissons Ratio (z) = 0.04818 0.29907
#
# Static dielectric constant tensor:
#      x y z
#    x 2.124570 0.145960 -0.068640 
#    y 0.145960 2.279370 -0.039220 
#    z -0.068640 -0.039220 2.194940 
# 
# From -- ./inp_files/204021.got.cif
#   From: 2010.05.17/outbox.cif.g08.bks.cpg/sg2_103_cif.got.tgz:204021.got - 2010.06.03 11:33:40.
