data_PCOD9094092
_publ_section_title
;
Structure prediction by ZEFSAII (Michael W. Deem and Ramdas Pophale) SiO2 
 PCOD9094092
Probable space group: P -1
;
_chemical_formula_sum "Si O2"
_cell_formula_units_Z 16
_cell_length_a 14.970902
_cell_length_b 5.218778
_cell_length_c 12.406785
_cell_angle_alpha 104.381846
_cell_angle_beta 91.240435
_cell_angle_gamma 125.095132
_cell_volume 751.537413
_symmetry_space_group_name_H-M "P -1"
_symmetry_group_IT_number 2
_symmetry_cell_setting 'triclinic'
loop_
_space_group_symop_operation_xyz
x,y,z
-x,-y,-z
loop_
_atom_site_type_symbol
_atom_site_label
_atom_site_fract_x
_atom_site_fract_y
_atom_site_fract_z
Si Si1 0.912127 0.156883 0.073211
Si Si2 0.854421 0.800691 0.684025
Si Si3 0.155192 0.742493 0.136712
Si Si4 0.870129 0.833077 0.453953
Si Si5 0.103662 0.264360 0.789426
Si Si6 0.308798 0.108223 0.527295
Si Si7 0.335508 0.843297 0.277037
Si Si8 0.440859 0.891527 0.604886
O O1 0.898242 0.432113 0.146834
O O2 0.047015 0.360089 0.083147
O O3 0.859364 0.852341 0.121801
O O4 0.859442 0.085770 0.945938
O O5 0.820304 0.654552 0.548727
O O6 0.756362 0.530395 0.727958
O O7 0.863744 0.130557 0.739024
O O8 0.978136 0.928932 0.729690
O O9 0.279555 0.855187 0.168089
O O10 0.840999 0.665868 0.319203
O O11 0.821251 0.046108 0.472222
O O12 0.000000 0.000000 0.500000
O O13 0.373959 0.502195 0.578589
O O14 0.333531 0.046533 0.399804
O O15 0.361325 0.004280 0.605727
O O16 0.457572 0.933832 0.289421
O O17 0.500000 0.000000 0.500000
#
# Coordination Sequence:
#
# PCOD9094092 Si02
#       8
#     2   2   2   2   2   2   2   2
#     4  10  22  38  53  81 116 153 192 232 278 331
#     4  10  20  34  53  87 116 145 186 232 283 343
#     4  10  21  33  57  81 117 152 184 235 287 336
#     4  10  21  37  59  83 115 153 192 228 280 344
#     4  10  22  38  53  79 115 156 190 227 273 335
#     4  11  22  38  52  82 118 151 184 230 279 343
#     4  11  20  33  58  84 117 153 186 229 293 345
#     4  10  22  35  54  78 118 153 183 225 285 346
#
# _framework density 21.28969
#
# number of rings (size 3 to 8) (size 9 to 14) (size 15 to 20)
#    0.000    1.750    2.500    3.000    3.500    3.500 
#    0.000    5.625    0.000    0.000    0.000    5.250 
#    0.000    0.000    0.000    0.000    0.000    0.000 
#
# Total GULP energy -89139.295778 kJ/mol
# GULP energy per Si atom -5571.205986 kJ/mol
# Density = 2.124123 g / cm^3
# Si number density = 21.289690 Si / 1000 Ang^3
#
#
#
# Elastic Constant Matrix: (Units=GPa)
#
#
# Indices 1 2 3 4 5 6 
#
# 1 139.4664 22.1158 41.2204 2.6527 34.9073 -15.8039
# 2 22.1158 69.6227 20.8618 9.3802 6.6759 -13.8396
# 3 41.2204 20.8618 105.0838 -11.4839 15.2508 -8.2976
# 4 2.6527 9.3802 -11.4839 22.9158 -4.2594 4.8546
# 5 34.9073 6.6759 15.2508 -4.2594 45.0272 0.0584
# 6 -15.8039 -13.8396 -8.2976 4.8546 0.0584 26.4955
#
#
#
# Elastic Compliance Matrix: (Units=1/GPa)
#
#
# Indices 1 2 3 4 5 6 
#
# 1 0.011001 0.000480 -0.003366 -0.006114 -0.008047 0.006896
# 2 0.000480 0.019947 -0.004218 -0.013438 -0.003188 0.011854
# 3 -0.003366 -0.004218 0.012506 0.008754 -0.000170 -0.001899
# 4 -0.006114 -0.013438 0.008754 0.060005 0.009468 -0.018940
# 5 -0.008047 -0.003188 -0.000170 0.009468 0.029883 -0.008318
# 6 0.006896 0.011854 -0.001899 -0.018940 -0.008318 0.050941
#
#
# Mechanical properties :
#
#
# Convention : Reuss Voigt Hill
#
# Bulk Modulus (GPa) = 34.19431 53.61876 43.90653
# Shear Modulus (GPa) = 24.01070 34.21937 29.11504
#
# Velocity S-wave (km/s) = 3.36193 4.01349 3.70207
# Velocity P-wave (km/s) = 5.58269 6.83502 6.24035
#
# Compressibility (1/GPa) = 0.02924463
#
# Stress axis : x y z
#
# Youngs Moduli (GPa) = 90.90349 50.13275 79.96438
#
# Poissons Ratio (x) = -0.02408 0.26918
# Poissons Ratio (y) = -0.04367 0.33732
# Poissons Ratio (z) = 0.30601 0.21148
#
# Static dielectric constant tensor:
#      x y z
#    x 1.913400 -0.039630 0.013070 
#    y -0.039630 1.840330 -0.007980 
#    z 0.013070 -0.007980 1.815890 
# 
# From -- ./inp_files/441321.got.cif
#   From: 2010.05.17/outbox.cif.g08.bks.cpg/sg2_221_cif.got.tgz:441321.got - 2010.06.03 11:33:40.
