data_PCOD9094767
_publ_section_title
;
Structure prediction by ZEFSAII (Michael W. Deem and Ramdas Pophale) SiO2 
 PCOD9094767
Probable space group: P -1
;
_chemical_formula_sum "Si O2"
_cell_formula_units_Z 14
_cell_length_a 10.777762
_cell_length_b 12.092301
_cell_length_c 5.207206
_cell_angle_alpha 85.743185
_cell_angle_beta 107.426129
_cell_angle_gamma 117.736945
_cell_volume 571.387554
_symmetry_space_group_name_H-M "P -1"
_symmetry_group_IT_number 2
_symmetry_cell_setting 'triclinic'
loop_
_space_group_symop_operation_xyz
x,y,z
-x,-y,-z
loop_
_atom_site_type_symbol
_atom_site_label
_atom_site_fract_x
_atom_site_fract_y
_atom_site_fract_z
Si Si1 0.560038 0.331081 0.113264
Si Si2 0.166438 0.278714 0.135069
Si Si3 0.841503 0.967876 0.788728
Si Si4 0.558623 0.959049 0.794692
Si Si5 0.031918 0.802556 0.479876
Si Si6 0.156780 0.617994 0.537103
Si Si7 0.631209 0.436619 0.646314
O O1 0.502510 0.190113 0.193455
O O2 0.734981 0.381192 0.174892
O O3 0.552930 0.416714 0.323088
O O4 0.514448 0.351082 0.801527
O O5 0.039886 0.238485 0.280088
O O6 0.278018 0.421844 0.229489
O O7 0.231502 0.181916 0.242178
O O8 0.094586 0.254325 0.810371
O O9 0.881668 0.048347 0.538615
O O10 0.734092 0.008370 0.867460
O O11 0.000000 0.000000 0.000000
O O12 0.500000 0.000000 0.500000
O O13 0.500000 0.000000 0.000000
O O14 0.137687 0.741195 0.505607
O O15 0.246857 0.607917 0.351924
O O16 0.000000 0.500000 0.500000
#
# Coordination Sequence:
#
# PCOD9094767 Si02
#       7
#     2   2   2   2   2   2   2
#     4  10  23  38  61  92 135 169 228 275 348 399
#     4  11  22  40  61  94 137 173 225 281 345 404
#     4  10  26  47  72 104 140 187 238 291 348 419
#     4  12  27  49  73 104 141 189 234 291 350 418
#     4  11  22  35  62  94 134 176 225 285 342 397
#     4  10  20  34  60  95 133 174 229 277 342 395
#     4  10  21  38  59  94 134 176 221 278 342 410
#
# _framework density 24.501756
#
# number of rings (size 3 to 8) (size 9 to 14) (size 15 to 20)
#    0.857    0.571    1.429    3.857    4.000    6.857 
#    0.000    1.429    0.000    0.000    0.000    0.000 
#    0.000    0.000    0.000    0.000    0.000    0.000 
#
# Total GULP energy -78225.072728 kJ/mol
# GULP energy per Si atom -5587.505195 kJ/mol
# Density = 2.444599 g / cm^3
# Si number density = 24.501756 Si / 1000 Ang^3
#
#
#
# Elastic Constant Matrix: (Units=GPa)
#
#
# Indices 1 2 3 4 5 6 
#
# 1 129.8868 15.5408 41.3909 -1.5391 11.6447 -12.2916
# 2 15.5408 100.7938 24.5540 -8.5493 0.4183 -22.0010
# 3 41.3909 24.5540 125.0283 -3.8732 -29.6116 -0.0839
# 4 -1.5391 -8.5493 -3.8732 34.3780 0.6356 -0.4290
# 5 11.6447 0.4183 -29.6116 0.6356 18.8767 -6.5386
# 6 -12.2916 -22.0010 -0.0839 -0.4290 -6.5386 37.7365
#
#
#
# Elastic Compliance Matrix: (Units=1/GPa)
#
#
# Indices 1 2 3 4 5 6 
#
# 1 0.012953 0.000645 -0.009972 0.000057 -0.023475 0.000506
# 2 0.000645 0.012413 -0.003471 0.002881 -0.003859 0.006803
# 3 -0.009972 -0.003471 0.021671 0.000400 0.040854 0.001859
# 4 0.000057 0.002881 0.000400 0.029874 0.000243 0.002081
# 5 -0.023475 -0.003859 0.040854 0.000243 0.136413 0.013834
# 6 0.000506 0.006803 0.001859 0.002081 0.013834 0.033056
#
#
# Mechanical properties :
#
#
# Convention : Reuss Voigt Hill
#
# Bulk Modulus (GPa) = 46.64427 57.63115 52.13771
# Shear Modulus (GPa) = 17.91323 36.47979 27.19651
#
# Velocity S-wave (km/s) = 2.70682 3.86277 3.33525
# Velocity P-wave (km/s) = 5.37100 6.59294 6.01309
#
# Compressibility (1/GPa) = 0.02143886
#
# Stress axis : x y z
#
# Youngs Moduli (GPa) = 77.20262 80.56177 46.14504
#
# Poissons Ratio (x) = -0.05196 0.46018
# Poissons Ratio (y) = -0.04979 0.16018
# Poissons Ratio (z) = 0.76990 0.27966
#
# Static dielectric constant tensor:
#      x y z
#    x 1.971860 0.034310 -0.002920 
#    y 0.034310 2.066330 -0.104710 
#    z -0.002920 -0.104710 2.108330 
# 
# From -- ./inp_files/27909.got.cif
#   From: 2010.05.17/outbox.cif.g08.bks.cpg/sg2_14_cif.got.tgz:27909.got - 2010.06.03 11:33:40.
