data_PCOD9094793
_publ_section_title
;
Structure prediction by ZEFSAII (Michael W. Deem and Ramdas Pophale) SiO2 
 PCOD9094793
Probable space group: P -1
;
_chemical_formula_sum "Si O2"
_cell_formula_units_Z 16
_cell_length_a 16.821200
_cell_length_b 21.974116
_cell_length_c 29.789580
_cell_angle_alpha 164.939203
_cell_angle_beta 17.054598
_cell_angle_gamma 156.464142
_cell_volume 836.192475
_symmetry_space_group_name_H-M "P -1"
_symmetry_group_IT_number 2
_symmetry_cell_setting 'triclinic'
loop_
_space_group_symop_operation_xyz
x,y,z
-x,-y,-z
loop_
_atom_site_type_symbol
_atom_site_label
_atom_site_fract_x
_atom_site_fract_y
_atom_site_fract_z
Si Si1 0.096789 0.876294 0.262154
Si Si2 0.033933 0.509554 0.109482
Si Si3 0.851845 0.697133 0.584632
Si Si4 0.562076 0.113954 0.682280
Si Si5 0.232891 0.394088 0.585996
Si Si6 0.109503 0.423946 0.175631
Si Si7 0.699680 0.231478 0.018994
Si Si8 0.532746 0.197829 0.658854
O O1 0.112105 0.726579 0.192187
O O2 0.208820 0.129452 0.392339
O O3 0.236766 0.735813 0.044414
O O4 0.783006 0.932103 0.455781
O O5 0.818794 0.586963 0.319776
O O6 0.898042 0.340515 0.026164
O O7 0.299018 0.398154 0.913781
O O8 0.609135 0.675865 0.735734
O O9 0.887815 0.489796 0.380463
O O10 0.160210 0.719516 0.451178
O O11 0.756128 0.948049 0.791944
O O12 0.711981 0.352018 0.761639
O O13 0.486765 0.069824 0.640278
O O14 0.308088 0.189579 0.905110
O O15 0.500000 0.500000 0.500000
O O16 0.008587 0.563059 0.801115
O O17 0.500000 0.000000 0.500000
#
# Coordination Sequence:
#
# PCOD9094793 Si02
#       8
#     2   2   2   2   2   2   2   2
#     4  11  23  41  60  91 124 160 198 248 313 366
#     4  12  24  37  63  95 124 154 200 265 306 345
#     4  10  20  34  61  86 115 156 213 243 289 354
#     4   9  17  33  58  80 111 156 200 241 284 361
#     4  11  22  37  61  91 122 155 204 251 302 359
#     4   9  16  33  56  83 108 148 204 242 280 345
#     4  11  21  38  61  85 120 164 198 248 298 371
#     4  11  19  34  56  94 116 153 211 251 287 358
#
# _framework density 19.134350000000001
#
# number of rings (size 3 to 8) (size 9 to 14) (size 15 to 20)
#    0.000    1.500    6.250    1.500    3.500    0.000 
#    0.000    0.625    2.750    1.500    0.000    0.000 
#    0.000    0.000    0.000    0.000    0.000    0.000 
#
# Total GULP energy -89102.567481 kJ/mol
# GULP energy per Si atom -5568.910468 kJ/mol
# Density = 1.909080 g / cm^3
# Si number density = 19.134350 Si / 1000 Ang^3
#
#
#
# Elastic Constant Matrix: (Units=GPa)
#
#
# Indices 1 2 3 4 5 6 
#
# 1 107.2081 32.3646 54.1208 -11.3059 14.7658 -8.5943
# 2 32.3646 48.3765 36.4607 -14.7826 3.8943 -6.2531
# 3 54.1208 36.4607 118.0646 -26.4151 18.2633 -10.1096
# 4 -11.3059 -14.7826 -26.4151 20.5688 -6.8892 2.3555
# 5 14.7658 3.8943 18.2633 -6.8892 26.5739 -4.4180
# 6 -8.5943 -6.2531 -10.1096 2.3555 -4.4180 20.7386
#
#
#
# Elastic Compliance Matrix: (Units=1/GPa)
#
#
# Indices 1 2 3 4 5 6 
#
# 1 0.013895 -0.006840 -0.004508 -0.004754 -0.004680 0.001041
# 2 -0.006840 0.033561 -0.004114 0.016826 0.006875 0.004833
# 3 -0.004508 -0.004114 0.015470 0.012906 -0.003820 0.002153
# 4 -0.004754 0.016826 0.012906 0.078385 0.012138 0.003078
# 5 -0.004680 0.006875 -0.003820 0.012138 0.046113 0.006716
# 6 0.001041 0.004833 0.002153 0.003078 0.006716 0.052239
#
#
# Mechanical properties :
#
#
# Convention : Reuss Voigt Hill
#
# Bulk Modulus (GPa) = 31.24780 57.72683 44.48732
# Shear Modulus (GPa) = 17.77772 23.62313 20.70042
#
# Velocity S-wave (km/s) = 3.05142 3.51749 3.29271
# Velocity P-wave (km/s) = 5.36480 6.83606 6.14462
#
# Compressibility (1/GPa) = 0.03200225
#
# Stress axis : x y z
#
# Youngs Moduli (GPa) = 71.96994 29.79688 64.64302
#
# Poissons Ratio (x) = 0.20380 0.29138
# Poissons Ratio (y) = 0.49225 0.26594
# Poissons Ratio (z) = 0.32441 0.12258
#
# Static dielectric constant tensor:
#      x y z
#    x 0.885320 -0.082270 0.522800 
#    y -0.082270 1.669070 0.032990 
#    z 0.522800 0.032990 1.417540 
# 
# From -- ./inp_files/562619.got.cif
#   From: 2010.05.17/outbox.cif.g08.bks.cpg/sg2_282_cif.got.tgz:562619.got - 2010.06.03 11:33:40.
