data_PCOD9094906
_publ_section_title
;
Structure prediction by ZEFSAII (Michael W. Deem and Ramdas Pophale) SiO2 
 PCOD9094906
Probable space group: P -1
;
_chemical_formula_sum "Si O2"
_cell_formula_units_Z 16
_cell_length_a 14.300913
_cell_length_b 9.241669
_cell_length_c 14.451845
_cell_angle_alpha 95.113827
_cell_angle_beta 123.722654
_cell_angle_gamma 133.032989
_cell_volume 741.230084
_symmetry_space_group_name_H-M "P -1"
_symmetry_group_IT_number 2
_symmetry_cell_setting 'triclinic'
loop_
_space_group_symop_operation_xyz
x,y,z
-x,-y,-z
loop_
_atom_site_type_symbol
_atom_site_label
_atom_site_fract_x
_atom_site_fract_y
_atom_site_fract_z
Si Si1 0.984382 0.342185 0.416723
Si Si2 0.805725 0.952743 0.447835
Si Si3 0.340389 0.920003 0.525432
Si Si4 0.233627 0.791329 0.248846
Si Si5 0.481689 0.884714 0.075867
Si Si6 0.418069 0.340024 0.081920
Si Si7 0.695266 0.074414 0.895961
Si Si8 0.175174 0.281049 0.820181
O O1 0.000000 0.500000 0.500000
O O2 0.169800 0.592746 0.450776
O O3 0.991173 0.209005 0.480023
O O4 0.710478 0.039677 0.213487
O O5 0.581669 0.613768 0.261206
O O6 0.711253 0.998403 0.437459
O O7 0.944320 0.033067 0.613045
O O8 0.285382 0.893631 0.387366
O O9 0.613902 0.179619 0.689075
O O10 0.325141 0.994856 0.226299
O O11 0.954774 0.442336 0.068825
O O12 0.479532 0.998486 0.165095
O O13 0.245738 0.515989 0.918346
O O14 0.500000 0.000000 0.000000
O O15 0.608699 0.509109 0.119033
O O16 0.321009 0.083688 0.058987
O O17 0.207317 0.195700 0.911682
#
# Coordination Sequence:
#
# PCOD9094906 Si02
#       8
#     2   2   2   2   2   2   2   2
#     4  10  20  34  64 101 127 160 209 269 328 385
#     4  11  22  43  66  96 134 173 205 266 342 402
#     4  10  22  40  66  96 126 167 226 271 314 379
#     4  10  23  42  63  92 126 171 233 271 302 373
#     4  12  20  37  67 100 128 165 218 268 329 392
#     4  11  25  42  60 100 140 166 206 266 339 404
#     4  11  23  41  67  92 129 175 215 272 325 376
#     4  11  24  40  63 100 136 169 204 262 342 404
#
# _framework density 21.585739
#
# number of rings (size 3 to 8) (size 9 to 14) (size 15 to 20)
#    0.000    1.250    2.500    4.875    1.750    0.000 
#    4.500    1.250    0.000    0.000    0.000    0.000 
#    0.000    0.000    0.000    0.000    0.000    0.000 
#
# Total GULP energy -89339.921058 kJ/mol
# GULP energy per Si atom -5583.745066 kJ/mol
# Density = 2.153661 g / cm^3
# Si number density = 21.585739 Si / 1000 Ang^3
#
#
#
# Elastic Constant Matrix: (Units=GPa)
#
#
# Indices 1 2 3 4 5 6 
#
# 1 77.8607 36.0649 17.6408 0.3520 -4.2077 3.2394
# 2 36.0649 68.7016 18.3585 -24.4358 -3.5074 -1.9237
# 3 17.6408 18.3585 100.0583 -21.1430 7.2687 -2.8811
# 4 0.3520 -24.4358 -21.1430 25.7674 4.1996 1.1567
# 5 -4.2077 -3.5074 7.2687 4.1996 36.8056 -3.1699
# 6 3.2394 -1.9237 -2.8811 1.1567 -3.1699 28.3006
#
#
#
# Elastic Compliance Matrix: (Units=1/GPa)
#
#
# Indices 1 2 3 4 5 6 
#
# 1 0.023644 -0.019238 -0.006187 -0.024250 0.004588 -0.003139
# 2 -0.019238 0.037651 0.005548 0.041048 -0.004116 0.003187
# 3 -0.006187 0.005548 0.014209 0.017748 -0.004902 0.001257
# 4 -0.024250 0.041048 0.017748 0.094655 -0.012989 0.002049
# 5 0.004588 -0.004116 -0.004902 -0.012989 0.029975 0.002584
# 6 -0.003139 0.003187 0.001257 0.002049 0.002584 0.036245
#
#
# Mechanical properties :
#
#
# Convention : Reuss Voigt Hill
#
# Bulk Modulus (GPa) = 27.97018 43.41657 35.69337
# Shear Modulus (GPa) = 17.35818 29.81180 23.58499
#
# Velocity S-wave (km/s) = 2.83883 3.72033 3.30906
# Velocity P-wave (km/s) = 4.87146 6.21383 5.58314
#
# Compressibility (1/GPa) = 0.03575236
#
# Stress axis : x y z
#
# Youngs Moduli (GPa) = 42.29380 26.55967 70.37566
#
# Poissons Ratio (x) = 0.51094 0.43540
# Poissons Ratio (y) = 0.81363 -0.39045
# Poissons Ratio (z) = 0.26166 -0.14736
#
# Static dielectric constant tensor:
#      x y z
#    x 1.785940 0.005930 -0.008750 
#    y 0.005930 1.809550 -0.037630 
#    z -0.008750 -0.037630 1.874800 
# 
# From -- ./inp_files/529793.got.cif
#   From: 2010.05.17/outbox.cif.g08.bks.cpg/sg2_265_cif.got.tgz:529793.got - 2010.06.03 11:33:40.
