data_PCOD9094678
_publ_section_title
;
Structure prediction by ZEFSAII (Michael W. Deem and Ramdas Pophale) SiO2 
 PCOD9094678
Probable space group: P -1
;
_chemical_formula_sum "Si O2"
_cell_formula_units_Z 15
_cell_length_a 8.781691
_cell_length_b 15.093965
_cell_length_c 8.378715
_cell_angle_alpha 130.860626
_cell_angle_beta 118.309900
_cell_angle_gamma 93.179580
_cell_volume 617.955513
_symmetry_space_group_name_H-M "P -1"
_symmetry_group_IT_number 2
_symmetry_cell_setting 'triclinic'
loop_
_space_group_symop_operation_xyz
x,y,z
-x,-y,-z
loop_
_atom_site_type_symbol
_atom_site_label
_atom_site_fract_x
_atom_site_fract_y
_atom_site_fract_z
Si Si1 0.697642 0.882340 0.589009
Si Si2 0.749322 0.109612 0.673205
Si Si3 0.135414 0.954551 0.804980
Si Si4 0.813222 0.264576 0.581912
Si Si5 0.594868 0.599667 0.312522
Si Si6 0.241408 0.492177 0.228973
Si Si7 0.034321 0.377307 0.323473
Si Si8 0.000000 0.000000 0.500000
O O1 0.887148 0.887759 0.592565
O O2 0.570233 0.725547 0.401178
O O3 0.060604 0.895733 0.319481
O O4 0.788914 0.973118 0.902421
O O5 0.689780 0.168474 0.561848
O O6 0.626934 0.957271 0.520389
O O7 0.836119 0.228804 0.993900
O O8 0.191088 0.841190 0.671611
O O9 0.193114 0.048286 0.784695
O O10 0.735912 0.358817 0.590112
O O11 0.049327 0.380531 0.889770
O O12 0.450933 0.518294 0.295389
O O13 0.829127 0.645929 0.511971
O O14 0.500000 0.500000 0.000000
O O15 0.171596 0.432775 0.298380
O O16 0.000000 0.500000 0.500000
#
# Coordination Sequence:
#
# PCOD9094678 Si02
#       8
#     2   2   2   2   2   2   2   1
#     4  10  20  34  59  93 127 162 210 271 321 380
#     4   9  19  36  63  96 127 158 225 264 317 387
#     4   9  16  30  56  85 119 157 216 255 311 373
#     4   9  19  37  65  92 124 168 216 265 318 385
#     4  12  26  42  64  96 136 170 215 268 335 388
#     4  10  23  40  63  92 135 169 216 264 328 383
#     4  11  25  42  70  97 129 176 220 270 322 391
#     4   8  14  28  50  86 114 154 196 274 300 356
#
# _framework density 24.273591
#
# number of rings (size 3 to 8) (size 9 to 14) (size 15 to 20)
#    0.000    2.133    0.000    3.600    9.333    1.067 
#    0.000    5.333    0.000    0.000    0.000    0.000 
#    0.000    0.000    0.000    0.000    0.000    0.000 
#
# Total GULP energy -83535.970846 kJ/mol
# GULP energy per Si atom -5569.064723 kJ/mol
# Density = 2.421834 g / cm^3
# Si number density = 24.273591 Si / 1000 Ang^3
#
#
#
# Elastic Constant Matrix: (Units=GPa)
#
#
# Indices 1 2 3 4 5 6 
#
# 1 39.8209 11.8566 24.5930 8.4084 -3.4457 0.5796
# 2 11.8566 118.0349 23.5064 8.9860 1.3494 -1.1992
# 3 24.5930 23.5064 78.1041 12.4509 -22.4904 -11.2671
# 4 8.4084 8.9860 12.4509 31.1919 -11.8336 5.8201
# 5 -3.4457 1.3494 -22.4904 -11.8336 29.4228 11.7868
# 6 0.5796 -1.1992 -11.2671 5.8201 11.7868 42.9052
#
#
#
# Elastic Compliance Matrix: (Units=1/GPa)
#
#
# Indices 1 2 3 4 5 6 
#
# 1 0.033116 -0.000447 -0.011385 -0.006986 -0.007429 -0.000461
# 2 -0.000447 0.009526 -0.003446 -0.003342 -0.004939 0.001178
# 3 -0.011385 -0.003446 0.021917 0.000848 0.015323 0.001488
# 4 -0.006986 -0.003342 0.000848 0.045735 0.023342 -0.012393
# 5 -0.007429 -0.004939 0.015323 0.023342 0.060808 -0.015885
# 6 -0.000461 0.001178 0.001488 -0.012393 -0.015885 0.029782
#
#
# Mechanical properties :
#
#
# Convention : Reuss Voigt Hill
#
# Bulk Modulus (GPa) = 29.40877 39.54135 34.47506
# Shear Modulus (GPa) = 20.59533 32.43758 26.51645
#
# Velocity S-wave (km/s) = 2.91600 3.65955 3.30873
# Velocity P-wave (km/s) = 4.84554 5.84651 5.36940
#
# Compressibility (1/GPa) = 0.03400346
#
# Stress axis : x y z
#
# Youngs Moduli (GPa) = 30.19714 104.97546 45.62688
#
# Poissons Ratio (x) = 0.04694 0.51945
# Poissons Ratio (y) = 0.01350 0.15722
# Poissons Ratio (z) = 0.34378 0.36172
#
# Static dielectric constant tensor:
#      x y z
#    x 2.187530 0.244950 0.056020 
#    y 0.244950 2.234220 -0.025830 
#    z 0.056020 -0.025830 1.890780 
# 
# From -- ./inp_files/176188.got.cif
#   From: 2010.05.17/outbox.cif.g08.bks.cpg/sg2_89_cif.got.tgz:176188.got - 2010.06.03 11:33:40.
