data_PCOD9094576
_publ_section_title
;
Structure prediction by ZEFSAII (Michael W. Deem and Ramdas Pophale) SiO2 
 PCOD9094576
Probable space group: P -1
;
_chemical_formula_sum "Si O2"
_cell_formula_units_Z 16
_cell_length_a 9.248287
_cell_length_b 13.347906
_cell_length_c 8.085418
_cell_angle_alpha 125.273350
_cell_angle_beta 104.066972
_cell_angle_gamma 112.989286
_cell_volume 586.483767
_symmetry_space_group_name_H-M "P -1"
_symmetry_group_IT_number 2
_symmetry_cell_setting 'triclinic'
loop_
_space_group_symop_operation_xyz
x,y,z
-x,-y,-z
loop_
_atom_site_type_symbol
_atom_site_label
_atom_site_fract_x
_atom_site_fract_y
_atom_site_fract_z
Si Si1 0.014468 0.398403 0.776955
Si Si2 0.917337 0.978865 0.268882
Si Si3 0.220806 0.862748 0.788534
Si Si4 0.599828 0.988859 0.678096
Si Si5 0.133673 0.458381 0.444380
Si Si6 0.943006 0.737318 0.048614
Si Si7 0.363117 0.258532 0.596164
Si Si8 0.572728 0.421569 0.128141
O O1 0.816593 0.262472 0.481765
O O2 0.051572 0.293122 0.787834
O O3 0.220325 0.516284 0.843127
O O4 0.000000 0.500000 0.000000
O O5 0.127103 0.118522 0.364642
O O6 0.776130 0.009804 0.194391
O O7 0.826532 0.795536 0.024132
O O8 0.000000 0.000000 0.500000
O O9 0.001543 0.726644 0.689901
O O10 0.377402 0.941796 0.062059
O O11 0.538405 0.812227 0.509317
O O12 0.500000 0.000000 0.500000
O O13 0.828866 0.114388 0.797981
O O14 0.364242 0.589587 0.686319
O O15 0.000000 0.500000 0.500000
O O16 0.129532 0.422013 0.218477
O O17 0.439027 0.436395 0.738647
O O18 0.406404 0.277497 0.824247
#
# Coordination Sequence:
#
# PCOD9094576 Si02
#       8
#     2   2   2   2   2   2   2   2
#     4  11  21  38  63  90 124 162 206 256 306 371
#     4  11  19  38  65  89 121 154 210 259 302 374
#     4  10  21  38  62  92 118 161 213 254 309 367
#     4  10  24  38  61  89 125 159 209 258 311 368
#     4  10  20  34  58  89 118 158 208 258 292 372
#     4  10  21  34  62  88 113 159 207 251 313 349
#     4  10  21  37  62  88 120 163 195 263 311 363
#     4  10  21  38  61  86 124 158 211 244 320 368
#
# _framework density 27.281231999999999
#
# number of rings (size 3 to 8) (size 9 to 14) (size 15 to 20)
#    0.000    1.750    3.750    1.500    7.000    1.500 
#    0.000    0.625    2.750    2.250    0.000    0.000 
#    0.000    0.000    0.000    0.000    0.000    0.000 
#
# Total GULP energy -89285.272402 kJ/mol
# GULP energy per Si atom -5580.329525 kJ/mol
# Density = 2.721914 g / cm^3
# Si number density = 27.281232 Si / 1000 Ang^3
#
#
#
# Elastic Constant Matrix: (Units=GPa)
#
#
# Indices 1 2 3 4 5 6 
#
# 1 91.1196 25.2539 55.9040 0.0593 3.8054 -31.9051
# 2 25.2539 114.1120 48.8633 -13.1818 -2.6496 -41.7919
# 3 55.9040 48.8633 187.0709 -4.2738 4.3823 -39.0198
# 4 0.0593 -13.1818 -4.2738 41.6411 -4.5428 3.4305
# 5 3.8054 -2.6496 4.3823 -4.5428 41.6271 1.9791
# 6 -31.9051 -41.7919 -39.0198 3.4305 1.9791 39.0678
#
#
#
# Elastic Compliance Matrix: (Units=1/GPa)
#
#
# Indices 1 2 3 4 5 6 
#
# 1 0.016906 0.002309 -0.002781 -0.000907 -0.001855 0.013673
# 2 0.002309 0.015285 -0.001110 0.003386 0.000449 0.016807
# 3 -0.002781 -0.001110 0.007290 -0.000001 -0.000768 0.003862
# 4 -0.000907 0.003386 -0.000001 0.025379 0.003045 0.000497
# 5 -0.001855 0.000449 -0.000768 0.003045 0.024792 -0.003324
# 6 0.013673 0.016807 0.003862 0.000497 -0.003324 0.058724
#
#
# Mechanical properties :
#
#
# Convention : Reuss Voigt Hill
#
# Bulk Modulus (GPa) = 27.53500 72.48278 50.00889
# Shear Modulus (GPa) = 30.55405 41.95262 36.25333
#
# Velocity S-wave (km/s) = 3.35022 3.92571 3.64933
# Velocity P-wave (km/s) = 5.00802 6.86838 6.01061
#
# Compressibility (1/GPa) = 0.03631742
#
# Stress axis : x y z
#
# Youngs Moduli (GPa) = 59.14984 65.42559 137.17614
#
# Poissons Ratio (x) = -0.15105 0.38144
# Poissons Ratio (y) = -0.13656 0.15223
# Poissons Ratio (z) = 0.16447 0.07261
#
# Static dielectric constant tensor:
#      x y z
#    x 2.513210 -0.086250 0.387940 
#    y -0.086250 2.264920 -0.220690 
#    z 0.387940 -0.220690 2.839960 
# 
# From -- ./inp_files/269061.got.cif
#   From: 2010.05.17/outbox.cif.g08.bks.cpg/sg2_135_cif.got.tgz:269061.got - 2010.06.03 11:33:40.
