data_PCOD9094630
_publ_section_title
;
Structure prediction by ZEFSAII (Michael W. Deem and Ramdas Pophale) SiO2 
 PCOD9094630
Probable space group: P -1
;
_chemical_formula_sum "Si O2"
_cell_formula_units_Z 16
_cell_length_a 13.948714
_cell_length_b 11.047218
_cell_length_c 8.548421
_cell_angle_alpha 47.610946
_cell_angle_beta 102.824372
_cell_angle_gamma 127.623514
_cell_volume 728.990524
_symmetry_space_group_name_H-M "P -1"
_symmetry_group_IT_number 2
_symmetry_cell_setting 'triclinic'
loop_
_space_group_symop_operation_xyz
x,y,z
-x,-y,-z
loop_
_atom_site_type_symbol
_atom_site_label
_atom_site_fract_x
_atom_site_fract_y
_atom_site_fract_z
Si Si1 0.036334 0.687895 0.953239
Si Si2 0.400508 0.728665 0.869150
Si Si3 0.832881 0.735880 0.721586
Si Si4 0.666836 0.978979 0.289063
Si Si5 0.066839 0.816682 0.162559
Si Si6 0.980915 0.915077 0.308505
Si Si7 0.363734 0.147545 0.966586
Si Si8 0.529479 0.420275 0.232342
O O1 0.934247 0.712005 0.843390
O O2 0.182200 0.887576 0.792372
O O3 0.024379 0.638287 0.176526
O O4 0.000000 0.500000 0.000000
O O5 0.405296 0.674200 0.736367
O O6 0.356305 0.863683 0.784213
O O7 0.304036 0.491662 0.114909
O O8 0.539288 0.846363 0.891859
O O9 0.873976 0.804759 0.498767
O O10 0.879944 0.928866 0.688639
O O11 0.615188 0.892096 0.169305
O O12 0.596293 0.775180 0.553517
O O13 0.985576 0.761194 0.335085
O O14 0.048004 0.962525 0.922980
O O15 0.216906 0.959546 0.122779
O O16 0.391581 0.372063 0.808036
O O17 0.500000 0.500000 0.000000
#
# Coordination Sequence:
#
# PCOD9094630 Si02
#       8
#     2   2   2   2   2   2   2   2
#     4  10  20  38  60  81 113 154 195 233 292 352
#     4  11  22  38  60  87 126 152 199 240 301 351
#     4  10  20  34  59  85 115 155 190 246 288 356
#     4  11  22  40  64  85 120 160 196 246 301 351
#     4   9  19  36  60  83 117 150 189 247 285 347
#     4   9  19  36  58  88 115 147 201 240 296 337
#     4  10  22  38  61  88 121 157 197 242 295 358
#     4  10  23  39  60  88 117 155 203 243 290 353
#
# _framework density 21.948157999999999
#
# number of rings (size 3 to 8) (size 9 to 14) (size 15 to 20)
#    0.000    2.000    1.250    1.875    0.000   11.000 
#    0.000    0.625    5.500    0.000    0.000    0.000 
#    0.000    0.000    0.000    0.000    0.000    0.000 
#
# Total GULP energy -89231.119199 kJ/mol
# GULP energy per Si atom -5576.944950 kJ/mol
# Density = 2.189820 g / cm^3
# Si number density = 21.948158 Si / 1000 Ang^3
#
#
#
# Elastic Constant Matrix: (Units=GPa)
#
#
# Indices 1 2 3 4 5 6 
#
# 1 81.4186 37.7360 -2.1854 16.3631 -0.4935 -26.0682
# 2 37.7360 95.8724 -1.6410 -0.2274 -3.6634 -28.2571
# 3 -2.1854 -1.6410 31.7221 2.4220 -7.7149 -6.7586
# 4 16.3631 -0.2274 2.4220 14.6121 -4.0851 -0.4875
# 5 -0.4935 -3.6634 -7.7149 -4.0851 21.5441 6.1229
# 6 -26.0682 -28.2571 -6.7586 -0.4875 6.1229 43.7194
#
#
#
# Elastic Compliance Matrix: (Units=1/GPa)
#
#
# Indices 1 2 3 4 5 6 
#
# 1 0.025965 -0.006833 0.004465 -0.031907 -0.008600 0.012605
# 2 -0.006833 0.014892 0.001536 0.008654 0.003014 0.005463
# 3 0.004465 0.001536 0.036558 -0.008064 0.009692 0.007859
# 4 -0.031907 0.008654 -0.008064 0.111733 0.023804 -0.016766
# 5 -0.008600 0.003014 0.009692 0.023804 0.057403 -0.009456
# 6 0.012605 0.005463 0.007859 -0.016766 -0.009456 0.036272
#
#
# Mechanical properties :
#
#
# Convention : Reuss Voigt Hill
#
# Bulk Modulus (GPa) = 13.20099 30.75913 21.98006
# Shear Modulus (GPa) = 16.14269 27.64869 21.89569
#
# Velocity S-wave (km/s) = 2.71494 3.55311 3.16192
# Velocity P-wave (km/s) = 3.98190 5.55677 4.83390
#
# Compressibility (1/GPa) = 0.07575187
#
# Stress axis : x y z
#
# Youngs Moduli (GPa) = 38.51346 67.14996 27.35366
#
# Poissons Ratio (x) = 0.45882 -0.12214
# Poissons Ratio (y) = 0.26315 -0.04201
# Poissons Ratio (z) = -0.17197 -0.10313
#
# Static dielectric constant tensor:
#      x y z
#    x 1.965530 -0.239580 0.060550 
#    y -0.239580 2.171090 -0.104210 
#    z 0.060550 -0.104210 1.865010 
# 
# From -- ./inp_files/201427.got.cif
#   From: 2010.05.17/outbox.cif.g08.bks.cpg/sg2_101_cif.got.tgz:201427.got - 2010.06.03 11:33:40.
