data_PCOD9094022
_publ_section_title
;
Structure prediction by ZEFSAII (Michael W. Deem and Ramdas Pophale) SiO2 
 PCOD9094022
Probable space group: P -1
;
_chemical_formula_sum "Si O2"
_cell_formula_units_Z 16
_cell_length_a 16.837834
_cell_length_b 14.029648
_cell_length_c 6.493261
_cell_angle_alpha 129.790571
_cell_angle_beta 67.253216
_cell_angle_gamma 145.596685
_cell_volume 629.643540
_symmetry_space_group_name_H-M "P -1"
_symmetry_group_IT_number 2
_symmetry_cell_setting 'triclinic'
loop_
_space_group_symop_operation_xyz
x,y,z
-x,-y,-z
loop_
_atom_site_type_symbol
_atom_site_label
_atom_site_fract_x
_atom_site_fract_y
_atom_site_fract_z
Si Si1 0.626205 0.982779 0.920891
Si Si2 0.032945 0.310810 0.438598
Si Si3 0.781308 0.827754 0.937575
Si Si4 0.742795 0.552037 0.840427
Si Si5 0.123463 0.229652 0.582709
Si Si6 0.397613 0.197825 0.665952
Si Si7 0.192154 0.760405 0.507207
Si Si8 0.390426 0.839036 0.192532
O O1 0.647834 0.877665 0.632596
O O2 0.616398 0.073646 0.874251
O O3 0.471975 0.816798 0.974566
O O4 0.756109 0.165213 0.205563
O O5 0.967955 0.371997 0.573598
O O6 0.188687 0.479631 0.400460
O O7 0.052558 0.257651 0.556925
O O8 0.906258 0.079032 0.131517
O O9 0.827810 0.772609 0.969787
O O10 0.772888 0.739805 0.615806
O O11 0.643846 0.728313 0.060345
O O12 0.569671 0.366364 0.725849
O O13 0.777503 0.591908 0.097344
O O14 0.000000 0.000000 0.500000
O O15 0.303336 0.986980 0.595142
O O16 0.232511 0.679381 0.242042
O O17 0.500000 0.000000 0.500000
#
# Coordination Sequence:
#
# PCOD9094022 Si02
#       8
#     2   2   2   2   2   2   2   2
#     4   9  17  33  57  77 112 141 160 212 277 308
#     4  10  20  34  52  78 102 133 188 227 255 316
#     4  10  20  35  50  73  99 134 191 228 257 318
#     4  11  21  34  51  71 106 145 178 222 272 309
#     4  11  19  34  55  69  96 145 181 224 275 294
#     4  10  22  33  48  80 109 136 177 221 263 320
#     4   9  19  33  53  84 109 131 178 218 254 319
#     4   8  15  31  55  86 107 132 168 210 259 320
#
# _framework density 25.411204999999999
#
# number of rings (size 3 to 8) (size 9 to 14) (size 15 to 20)
#    0.000    2.250    2.500    1.125    0.000    7.500 
#    0.000    0.000    0.000    0.750    0.000   30.625 
#    0.000    0.000    0.000    0.000    0.000    0.000 
#
# Total GULP energy -89290.595909 kJ/mol
# GULP energy per Si atom -5580.662244 kJ/mol
# Density = 2.535337 g / cm^3
# Si number density = 25.411205 Si / 1000 Ang^3
#
#
#
# Elastic Constant Matrix: (Units=GPa)
#
#
# Indices 1 2 3 4 5 6 
#
# 1 97.8056 57.5174 54.3759 -30.5285 -14.0662 19.7882
# 2 57.5174 117.7165 46.1324 -28.0918 -12.8556 29.9278
# 3 54.3759 46.1324 139.8526 -41.4504 -1.7776 9.7089
# 4 -30.5285 -28.0918 -41.4504 32.3960 1.3380 -14.9752
# 5 -14.0662 -12.8556 -1.7776 1.3380 37.0983 -13.2699
# 6 19.7882 29.9278 9.7089 -14.9752 -13.2699 46.7731
#
#
#
# Elastic Compliance Matrix: (Units=1/GPa)
#
#
# Indices 1 2 3 4 5 6 
#
# 1 0.018282 -0.005303 -0.002535 0.009457 0.004841 0.000586
# 2 -0.005303 0.013623 -0.001218 0.002873 0.000726 -0.005095
# 3 -0.002535 -0.001218 0.012531 0.014377 0.000086 0.003878
# 4 0.009457 0.002873 0.014377 0.067286 0.008228 0.015053
# 5 0.004841 0.000726 0.000086 0.008228 0.032038 0.009193
# 6 0.000586 -0.005095 0.003878 0.015053 0.009193 0.031015
#
#
# Mechanical properties :
#
#
# Convention : Reuss Voigt Hill
#
# Bulk Modulus (GPa) = 37.98653 74.60291 56.29472
# Shear Modulus (GPa) = 24.79420 36.41009 30.60214
#
# Velocity S-wave (km/s) = 3.12704 3.78939 3.47404
# Velocity P-wave (km/s) = 5.29330 6.96907 6.18817
#
# Compressibility (1/GPa) = 0.02632512
#
# Stress axis : x y z
#
# Youngs Moduli (GPa) = 54.69960 73.40350 79.80301
#
# Poissons Ratio (x) = 0.38923 0.20232
# Poissons Ratio (y) = 0.29005 0.09717
# Poissons Ratio (z) = 0.13867 0.08938
#
# Static dielectric constant tensor:
#      x y z
#    x 2.171990 -0.004580 -0.120220 
#    y -0.004580 2.045240 -0.008530 
#    z -0.120220 -0.008530 2.075580 
# 
# From -- ./inp_files/48640.got.cif
#   From: 2010.05.17/outbox.cif.g08.bks.cpg/sg2_25_cif.got.tgz:48640.got - 2010.06.03 11:33:40.
