data_PCOD9094194
_publ_section_title
;
Structure prediction by ZEFSAII (Michael W. Deem and Ramdas Pophale) SiO2 
 PCOD9094194
Probable space group: P -1
;
_chemical_formula_sum "Si O2"
_cell_formula_units_Z 16
_cell_length_a 9.236350
_cell_length_b 18.560306
_cell_length_c 13.266744
_cell_angle_alpha 151.263450
_cell_angle_beta 116.115080
_cell_angle_gamma 46.258234
_cell_volume 693.826150
_symmetry_space_group_name_H-M "P -1"
_symmetry_group_IT_number 2
_symmetry_cell_setting 'triclinic'
loop_
_space_group_symop_operation_xyz
x,y,z
-x,-y,-z
loop_
_atom_site_type_symbol
_atom_site_label
_atom_site_fract_x
_atom_site_fract_y
_atom_site_fract_z
Si Si1 0.840900 0.364295 0.583806
Si Si2 0.641809 0.817218 0.735228
Si Si3 0.292533 0.207742 0.581607
Si Si4 0.801445 0.816963 0.053560
Si Si5 0.720177 0.720710 0.110325
Si Si6 0.621087 0.263405 0.728200
Si Si7 0.152865 0.520596 0.472178
Si Si8 0.967401 0.022470 0.351862
O O1 0.082960 0.289979 0.553616
O O2 0.897107 0.173610 0.423114
O O3 0.753667 0.425355 0.516810
O O4 0.710508 0.561525 0.863337
O O5 0.692482 0.618269 0.552400
O O6 0.892693 0.718985 0.670731
O O7 0.462401 0.955412 0.759404
O O8 0.500000 0.000000 0.000000
O O9 0.193782 0.309223 0.787129
O O10 0.425585 0.268268 0.665652
O O11 0.468019 0.955742 0.329422
O O12 0.843283 0.743568 0.092192
O O13 0.840913 0.644599 0.786851
O O14 0.953814 0.856210 0.116244
O O15 0.781020 0.166773 0.560555
O O16 0.788770 0.108085 0.681604
O O17 0.500000 0.500000 0.000000
#
# Coordination Sequence:
#
# PCOD9094194 Si02
#       8
#     2   2   2   2   2   2   2   2
#     4  11  23  36  59  83 117 153 195 240 283 342
#     4   9  18  37  62  91 111 140 188 242 286 346
#     4  11  21  35  56  79 111 159 204 236 281 336
#     4  10  20  35  59  83 117 151 191 240 287 342
#     4  10  20  34  55  82 110 153 198 240 277 332
#     4  11  25  37  55  79 119 162 201 242 287 332
#     4   9  20  36  62  88 111 146 194 232 291 348
#     4  11  24  39  52  86 121 152 196 245 287 335
#
# _framework density 23.060533
#
# number of rings (size 3 to 8) (size 9 to 14) (size 15 to 20)
#    0.000    1.750    1.250    3.375    5.250    0.000 
#    0.000    0.625    0.000    6.750    0.000    0.000 
#    0.000    0.000    0.000    0.000    0.000    0.000 
#
# Total GULP energy -89360.934171 kJ/mol
# GULP energy per Si atom -5585.058386 kJ/mol
# Density = 2.300805 g / cm^3
# Si number density = 23.060533 Si / 1000 Ang^3
#
#
#
# Elastic Constant Matrix: (Units=GPa)
#
#
# Indices 1 2 3 4 5 6 
#
# 1 83.6613 25.1651 26.4382 10.2822 9.7178 17.4227
# 2 25.1651 78.5560 6.3603 12.4472 6.5937 38.6823
# 3 26.4382 6.3603 91.5784 8.0963 -10.7114 8.0078
# 4 10.2822 12.4472 8.0963 24.5753 7.1117 3.5691
# 5 9.7178 6.5937 -10.7114 7.1117 32.8469 10.2473
# 6 17.4227 38.6823 8.0078 3.5691 10.2473 42.6259
#
#
#
# Elastic Compliance Matrix: (Units=1/GPa)
#
#
# Indices 1 2 3 4 5 6 
#
# 1 0.015362 -0.003310 -0.004482 -0.001775 -0.004589 -0.001181
# 2 -0.003310 0.026639 0.002993 -0.011514 0.006589 -0.024004
# 3 -0.004482 0.002993 0.013897 -0.005834 0.008063 -0.004945
# 4 -0.001775 -0.011514 -0.005834 0.051527 -0.013734 0.011258
# 5 -0.004589 0.006589 0.008063 -0.013734 0.040515 -0.014209
# 6 -0.001181 -0.024004 -0.004945 0.011258 -0.014209 0.049128
#
#
# Mechanical properties :
#
#
# Convention : Reuss Voigt Hill
#
# Bulk Modulus (GPa) = 21.59803 41.08032 31.33917
# Shear Modulus (GPa) = 22.51250 33.06510 27.78880
#
# Velocity S-wave (km/s) = 3.12787 3.79071 3.47513
# Velocity P-wave (km/s) = 4.73612 6.08376 5.45174
#
# Compressibility (1/GPa) = 0.04630052
#
# Stress axis : x y z
#
# Youngs Moduli (GPa) = 65.09518 37.53883 71.95917
#
# Poissons Ratio (x) = 0.12426 0.32249
# Poissons Ratio (y) = 0.21548 -0.21538
# Poissons Ratio (z) = 0.29173 -0.11236
#
# Static dielectric constant tensor:
#      x y z
#    x 1.865520 0.034930 -0.015490 
#    y 0.034930 1.977770 0.012010 
#    z -0.015490 0.012010 1.870390 
# 
# From -- ./inp_files/507343.got.cif
#   From: 2010.05.17/outbox.cif.g08.bks.cpg/sg2_254_cif.got.tgz:507343.got - 2010.06.03 11:33:40.
