data_PCOD9094043
_publ_section_title
;
Structure prediction by ZEFSAII (Michael W. Deem and Ramdas Pophale) SiO2 
 PCOD9094043
Probable space group: P -1
;
_chemical_formula_sum "Si O2"
_cell_formula_units_Z 13
_cell_length_a 11.173028
_cell_length_b 11.161227
_cell_length_c 11.167619
_cell_angle_alpha 142.342293
_cell_angle_beta 82.570640
_cell_angle_gamma 71.131201
_cell_volume 600.186668
_symmetry_space_group_name_H-M "P -1"
_symmetry_group_IT_number 2
_symmetry_cell_setting 'triclinic'
loop_
_space_group_symop_operation_xyz
x,y,z
-x,-y,-z
loop_
_atom_site_type_symbol
_atom_site_label
_atom_site_fract_x
_atom_site_fract_y
_atom_site_fract_z
Si Si1 0.319018 0.167620 0.856196
Si Si2 0.000000 0.000000 0.000000
Si Si3 0.529370 0.261748 0.963685
Si Si4 0.920271 0.315946 0.877815
Si Si5 0.985927 0.417246 0.199552
Si Si6 0.680510 0.126693 0.571143
Si Si7 0.121673 0.032023 0.259664
O O1 0.452015 0.136166 0.891724
O O2 0.397498 0.941972 0.565085
O O3 0.202756 0.457359 0.027481
O O4 0.188224 0.188521 0.966104
O O5 0.948221 0.283894 0.187735
O O6 0.975733 0.947504 0.823191
O O7 0.610249 0.170346 0.747136
O O8 0.680813 0.155940 0.945702
O O9 0.382903 0.590164 0.241075
O O10 0.883267 0.884063 0.341583
O O11 0.885684 0.129074 0.765407
O O12 0.898554 0.464799 0.121213
O O13 0.943006 0.682623 0.462428
#
# Coordination Sequence:
#
# PCOD9094043 Si02
#       7
#     2   1   2   2   2   2   2
#     4  11  21  35  57  89 122 151 181 225 282 340
#     4  10  24  42  62  82 102 144 204 248 278 322
#     4  11  22  32  53  86 121 154 181 221 285 343
#     4  10  20  35  59  89 119 151 188 223 271 339
#     4  10  21  39  63  83 108 148 194 237 276 329
#     4  10  20  34  52  85 126 156 182 217 269 343
#     4  11  22  39  60  84 112 147 191 239 283 331
#
# _framework density 21.659928000000001
#
# number of rings (size 3 to 8) (size 9 to 14) (size 15 to 20)
#    0.000    1.538    0.000    7.385    0.000    4.308 
#    0.000    0.769    0.000   13.846    0.000    0.000 
#    0.000    0.000    0.000    0.000    0.000    0.000 
#
# Total GULP energy -72443.743393 kJ/mol
# GULP energy per Si atom -5572.595646 kJ/mol
# Density = 2.161063 g / cm^3
# Si number density = 21.659928 Si / 1000 Ang^3
#
#
#
# Elastic Constant Matrix: (Units=GPa)
#
#
# Indices 1 2 3 4 5 6 
#
# 1 63.9754 -7.4600 7.7684 9.9202 20.3911 7.5682
# 2 -7.4600 32.7585 14.0646 1.5711 3.3185 -1.3415
# 3 7.7684 14.0646 96.6146 4.5597 40.9381 3.3082
# 4 9.9202 1.5711 4.5597 10.0441 5.1654 9.5337
# 5 20.3911 3.3185 40.9381 5.1654 34.7185 4.6324
# 6 7.5682 -1.3415 3.3082 9.5337 4.6324 -1.4626
#
#
#
# Elastic Compliance Matrix: (Units=1/GPa)
#
#
# Indices 1 2 3 4 5 6 
#
# 1 0.024320 0.005111 0.006475 -0.012079 -0.019840 -0.005771
# 2 0.005111 0.033572 -0.005738 0.000355 0.001761 -0.009435
# 3 0.006475 -0.005738 0.024049 0.000889 -0.031596 -0.001112
# 4 -0.012079 0.000355 0.000889 0.028671 -0.010598 0.092511
# 5 -0.019840 0.001761 -0.031596 -0.010598 0.078578 0.004057
# 6 -0.005771 -0.009435 -0.001112 0.092511 0.004057 -0.091570
#
#
# Mechanical properties :
#
#
# Convention : Reuss Voigt Hill
#
# Bulk Modulus (GPa) = 10.67953 24.67718 17.67836
# Shear Modulus (GPa) = 42.68477 20.59172 31.63824
#
# Velocity S-wave (km/s) = 4.44405 3.08666 3.82603
# Velocity P-wave (km/s) = 5.59232 4.91132 5.26284
#
# Compressibility (1/GPa) = 0.09363709
#
# Stress axis : x y z
#
# Youngs Moduli (GPa) = 41.11829 29.78648 41.58162
#
# Poissons Ratio (x) = -0.15225 -0.26923
# Poissons Ratio (y) = -0.21017 0.23861
# Poissons Ratio (z) = -0.26623 0.17092
#
# Static dielectric constant tensor:
#      x y z
#    x 1.855440 0.023250 0.002030 
#    y 0.023250 1.656140 0.006770 
#    z 0.002030 0.006770 1.810200 
# 
# From -- ./inp_files/64596.got.cif
#   From: 2010.05.17/outbox.cif.g08.bks.cpg/sg2_33_cif.got.tgz:64596.got - 2010.06.03 11:33:40.
