data_PCOD9094781
_publ_section_title
;
Structure prediction by ZEFSAII (Michael W. Deem and Ramdas Pophale) SiO2 
 PCOD9094781
Probable space group: P -1
;
_chemical_formula_sum "Si O2"
_cell_formula_units_Z 16
_cell_length_a 8.115601
_cell_length_b 14.659252
_cell_length_c 9.781405
_cell_angle_alpha 37.590552
_cell_angle_beta 109.195976
_cell_angle_gamma 107.885571
_cell_volume 668.198449
_symmetry_space_group_name_H-M "P -1"
_symmetry_group_IT_number 2
_symmetry_cell_setting 'triclinic'
loop_
_space_group_symop_operation_xyz
x,y,z
-x,-y,-z
loop_
_atom_site_type_symbol
_atom_site_label
_atom_site_fract_x
_atom_site_fract_y
_atom_site_fract_z
Si Si1 0.208585 0.683874 0.419288
Si Si2 0.402235 0.113513 0.247196
Si Si3 0.714216 0.578664 0.066678
Si Si4 0.988969 0.007685 0.650691
Si Si5 0.123482 0.710770 0.063272
Si Si6 0.870279 0.736477 0.427918
Si Si7 0.201959 0.516980 0.088702
Si Si8 0.635406 0.976630 0.946419
O O1 0.311664 0.562034 0.671723
O O2 0.201261 0.650875 0.295167
O O3 0.278253 0.856400 0.260068
O O4 0.013213 0.674139 0.441211
O O5 0.199427 0.050324 0.276700
O O6 0.500000 0.000000 0.500000
O O7 0.456070 0.093999 0.129361
O O8 0.401231 0.283858 0.095801
O O9 0.918989 0.645785 0.065972
O O10 0.696291 0.519642 0.976675
O O11 0.000000 0.000000 0.500000
O O12 0.036365 0.168949 0.534853
O O13 0.119955 0.887592 0.877838
O O14 0.216705 0.671847 0.993438
O O15 0.767449 0.601789 0.641426
O O16 0.765750 0.854873 0.176141
O O17 0.000000 0.500000 0.000000
O O18 0.500000 0.000000 0.000000
#
# Coordination Sequence:
#
# PCOD9094781 Si02
#       8
#     2   2   2   2   2   2   2   2
#     4  12  22  42  70 100 132 170 230 286 330 404
#     4  11  26  46  68  97 140 179 222 274 346 410
#     4  10  22  40  67 100 137 170 223 273 349 393
#     4  11  22  37  70 103 132 172 231 277 329 397
#     4  10  20  34  61 105 132 165 212 280 341 384
#     4  12  21  41  71 100 135 172 234 282 332 396
#     4  10  20  36  62 105 139 164 207 287 343 390
#     4  12  29  46  66  97 141 187 226 279 346 400
#
# _framework density 23.944980000000001
#
# number of rings (size 3 to 8) (size 9 to 14) (size 15 to 20)
#    0.000    1.000    5.000    4.500    5.250    0.000 
#    0.000    1.250    5.500    0.000    0.000    0.000 
#    0.000    0.000    0.000    0.000    0.000    0.000 
#
# Total GULP energy -89578.908556 kJ/mol
# GULP energy per Si atom -5598.681785 kJ/mol
# Density = 2.389048 g / cm^3
# Si number density = 23.944980 Si / 1000 Ang^3
#
#
#
# Elastic Constant Matrix: (Units=GPa)
#
#
# Indices 1 2 3 4 5 6 
#
# 1 60.8521 33.7689 24.4559 -2.0350 4.2555 -21.9804
# 2 33.7689 158.6678 51.3648 15.3722 15.8998 -34.7352
# 3 24.4559 51.3648 168.3299 -5.1063 21.4275 -22.2161
# 4 -2.0350 15.3722 -5.1063 49.2310 -10.8542 -9.3963
# 5 4.2555 15.8998 21.4275 -10.8542 24.2251 -2.3026
# 6 -21.9804 -34.7352 -22.2161 -9.3963 -2.3026 42.7514
#
#
#
# Elastic Compliance Matrix: (Units=1/GPa)
#
#
# Indices 1 2 3 4 5 6 
#
# 1 0.021799 -0.002748 -0.001195 0.003755 0.001594 0.009266
# 2 -0.002748 0.009119 -0.001211 -0.003499 -0.005591 0.004297
# 3 -0.001195 -0.001211 0.007430 0.000341 -0.005219 0.002057
# 4 0.003755 -0.003499 0.000341 0.025608 0.013343 0.005612
# 5 0.001594 -0.005591 -0.005219 0.013343 0.055213 -0.000529
# 6 0.009266 0.004297 0.002057 0.005612 -0.000529 0.033920
#
#
# Mechanical properties :
#
#
# Convention : Reuss Voigt Hill
#
# Bulk Modulus (GPa) = 35.66110 67.44766 51.55438
# Shear Modulus (GPa) = 28.94450 41.79218 35.36834
#
# Velocity S-wave (km/s) = 3.48054 4.18226 3.84743
# Velocity P-wave (km/s) = 5.57472 7.17988 6.42760
#
# Compressibility (1/GPa) = 0.02804176
#
# Stress axis : x y z
#
# Youngs Moduli (GPa) = 45.87298 109.65824 134.59112
#
# Poissons Ratio (x) = 0.30132 0.16080
# Poissons Ratio (y) = 0.12605 0.16296
# Poissons Ratio (z) = 0.05481 0.13277
#
# Static dielectric constant tensor:
#      x y z
#    x 1.952070 0.028600 -0.020440 
#    y 0.028600 1.857760 -0.023540 
#    z -0.020440 -0.023540 1.925400 
# 
# From -- ./inp_files/188665.got.cif
#   From: 2010.05.17/outbox.cif.g08.bks.cpg/sg2_95_cif.got.tgz:188665.got - 2010.06.03 11:33:40.
