data_PCOD9094763
_publ_section_title
;
Structure prediction by ZEFSAII (Michael W. Deem and Ramdas Pophale) SiO2 
 PCOD9094763
Probable space group: P -1
;
_chemical_formula_sum "Si O2"
_cell_formula_units_Z 13
_cell_length_a 14.428460
_cell_length_b 11.731738
_cell_length_c 12.380511
_cell_angle_alpha 33.833887
_cell_angle_beta 35.305129
_cell_angle_gamma 29.728226
_cell_volume 543.477073
_symmetry_space_group_name_H-M "P -1"
_symmetry_group_IT_number 2
_symmetry_cell_setting 'triclinic'
loop_
_space_group_symop_operation_xyz
x,y,z
-x,-y,-z
loop_
_atom_site_type_symbol
_atom_site_label
_atom_site_fract_x
_atom_site_fract_y
_atom_site_fract_z
Si Si1 0.608863 0.612984 0.633127
Si Si2 0.734602 0.809997 0.945855
Si Si3 0.950518 0.789733 0.541280
Si Si4 0.500000 0.500000 0.000000
Si Si5 0.703265 0.810082 0.566834
Si Si6 0.874359 0.927718 0.115091
Si Si7 0.976090 0.243520 0.118297
O O1 0.458454 0.550291 0.858459
O O2 0.655184 0.616675 0.720159
O O3 0.811395 0.420539 0.531146
O O4 0.490717 0.896900 0.475841
O O5 0.857775 0.813847 0.726145
O O6 0.820050 0.858762 0.931456
O O7 0.809084 0.519283 0.107913
O O8 0.500000 0.000000 0.000000
O O9 0.832618 0.746344 0.598214
O O10 0.918193 0.051906 0.337115
O O11 0.312641 0.807071 0.960932
O O12 0.817355 0.808225 0.354851
O O13 0.985651 0.743941 0.053489
O O14 0.000000 0.000000 0.000000
#
# Coordination Sequence:
#
# PCOD9094763 Si02
#       7
#     2   2   2   1   2   2   2
#     4  10  21  37  59  99 137 176 215 267 331 407
#     4  11  29  48  70  98 130 184 238 289 336 390
#     4  12  23  45  70  96 135 180 223 282 343 394
#     4  10  20  34  60  94 134 172 210 252 330 406
#     4  10  22  36  62 101 138 175 217 268 331 415
#     4  11  20  38  64  97 135 167 214 269 333 403
#     4  11  25  47  71 100 136 178 232 287 331 408
#
# _framework density 23.920051999999998
#
# number of rings (size 3 to 8) (size 9 to 14) (size 15 to 20)
#    0.000    1.231    3.077    1.846    0.000   10.462 
#    0.000    0.000    0.000    0.000    0.000    0.000 
#    0.000    0.000    0.000    0.000    0.000    0.000 
#
# Total GULP energy -72594.890248 kJ/mol
# GULP energy per Si atom -5584.222327 kJ/mol
# Density = 2.386561 g / cm^3
# Si number density = 23.920052 Si / 1000 Ang^3
#
#
#
# Elastic Constant Matrix: (Units=GPa)
#
#
# Indices 1 2 3 4 5 6 
#
# 1 122.3202 28.4207 23.9856 10.9939 7.4012 3.1655
# 2 28.4207 100.9175 36.6138 10.7510 -3.6660 -11.5620
# 3 23.9856 36.6138 123.4450 2.2941 2.0820 4.2546
# 4 10.9939 10.7510 2.2941 45.3256 2.1755 -1.6129
# 5 7.4012 -3.6660 2.0820 2.1755 31.6520 2.8017
# 6 3.1655 -11.5620 4.2546 -1.6129 2.8017 27.6302
#
#
#
# Elastic Compliance Matrix: (Units=1/GPa)
#
#
# Indices 1 2 3 4 5 6 
#
# 1 0.009229 -0.002358 -0.000968 -0.001593 -0.002101 -0.001775
# 2 -0.002358 0.012831 -0.003541 -0.002175 0.001901 0.005865
# 3 -0.000968 -0.003541 0.009434 0.000529 -0.000599 -0.002732
# 4 -0.001593 -0.002175 0.000529 0.023037 -0.001559 0.000694
# 5 -0.002101 0.001901 -0.000599 -0.001559 0.032653 -0.002274
# 6 -0.001775 0.005865 -0.002732 0.000694 -0.002274 0.039541
#
#
# Mechanical properties :
#
#
# Convention : Reuss Voigt Hill
#
# Bulk Modulus (GPa) = 56.30792 58.30256 57.30524
# Shear Modulus (GPa) = 34.15801 38.09906 36.12854
#
# Velocity S-wave (km/s) = 3.78300 3.99528 3.89059
# Velocity P-wave (km/s) = 6.53243 6.76090 6.64765
#
# Compressibility (1/GPa) = 0.01775949
#
# Stress axis : x y z
#
# Youngs Moduli (GPa) = 108.35296 77.93875 106.00497
#
# Poissons Ratio (x) = 0.18379 0.10257
# Poissons Ratio (y) = 0.25551 0.37538
# Poissons Ratio (z) = 0.10484 0.27599
#
# Static dielectric constant tensor:
#      x y z
#    x 2.041980 0.010410 -0.129880 
#    y 0.010410 1.939580 -0.048530 
#    z -0.129880 -0.048530 2.165810 
# 
# From -- ./inp_files/236157.got.cif
#   From: 2010.05.17/outbox.cif.g08.bks.cpg/sg2_119_cif.got.tgz:236157.got - 2010.06.03 11:33:40.
