data_PCOD9094406
_publ_section_title
;
Structure prediction by ZEFSAII (Michael W. Deem and Ramdas Pophale) SiO2 
 PCOD9094406
Probable space group: P -1
;
_chemical_formula_sum "Si O2"
_cell_formula_units_Z 16
_cell_length_a 10.245544
_cell_length_b 11.707572
_cell_length_c 7.918404
_cell_angle_alpha 89.010329
_cell_angle_beta 117.474715
_cell_angle_gamma 120.338716
_cell_volume 697.817091
_symmetry_space_group_name_H-M "P -1"
_symmetry_group_IT_number 2
_symmetry_cell_setting 'triclinic'
loop_
_space_group_symop_operation_xyz
x,y,z
-x,-y,-z
loop_
_atom_site_type_symbol
_atom_site_label
_atom_site_fract_x
_atom_site_fract_y
_atom_site_fract_z
Si Si1 0.963521 0.467158 0.675271
Si Si2 0.997138 0.274859 0.130860
Si Si3 0.170935 0.252304 0.694574
Si Si4 0.812121 0.184858 0.664339
Si Si5 0.125223 0.010934 0.845414
Si Si6 0.275941 0.088175 0.291031
Si Si7 0.268075 0.445854 0.030922
Si Si8 0.572987 0.637162 0.435241
O O1 0.000000 0.500000 0.500000
O O2 0.960701 0.587842 0.759565
O O3 0.793476 0.308120 0.592633
O O4 0.123724 0.470633 0.866734
O O5 0.175859 0.328832 0.126985
O O6 0.912953 0.139284 0.199144
O O7 0.863657 0.222353 0.892105
O O8 0.178562 0.118706 0.724673
O O9 0.244323 0.314296 0.553782
O O10 0.978543 0.213842 0.643638
O O11 0.300996 0.370397 0.903792
O O12 0.686126 0.019731 0.602239
O O13 0.265005 0.082074 0.081096
O O14 0.931266 0.973920 0.786721
O O15 0.395589 0.236985 0.440324
O O16 0.427031 0.585575 0.201863
O O17 0.500000 0.500000 0.500000
#
# Coordination Sequence:
#
# PCOD9094406 Si02
#       8
#     2   2   2   2   2   2   2   2
#     4  10  20  34  57  82 103 136 183 229 263 297
#     4   9  17  33  58  81 104 137 177 224 269 302
#     4   9  19  34  52  78 110 142 174 217 266 313
#     4   8  17  34  55  78 106 135 178 226 261 308
#     4   9  16  32  56  78 105 135 178 224 259 309
#     4   9  18  32  52  80 106 138 174 215 270 316
#     4  10  21  36  53  78 112 142 175 218 263 322
#     4  12  23  33  51  79 116 148 171 206 269 335
#
# _framework density 22.928643999999998
#
# number of rings (size 3 to 8) (size 9 to 14) (size 15 to 20)
#    0.000    2.750    0.000    5.625    0.000    7.000 
#    0.000    0.000    0.000    9.750    0.000    3.500 
#    0.000    1.000    0.000    0.000    0.000    0.000 
#
# Total GULP energy -89181.014045 kJ/mol
# GULP energy per Si atom -5573.813378 kJ/mol
# Density = 2.287646 g / cm^3
# Si number density = 22.928644 Si / 1000 Ang^3
#
#
#
# Elastic Constant Matrix: (Units=GPa)
#
#
# Indices 1 2 3 4 5 6 
#
# 1 42.2556 42.9612 26.8942 -7.0016 -13.8014 -3.4659
# 2 42.9612 197.6463 56.1778 17.0070 -25.9201 -20.8145
# 3 26.8942 56.1778 104.9606 26.4346 -11.4045 -0.4346
# 4 -7.0016 17.0070 26.4346 41.2409 -3.5832 -9.7773
# 5 -13.8014 -25.9201 -11.4045 -3.5832 33.4565 1.3486
# 6 -3.4659 -20.8145 -0.4346 -9.7773 1.3486 24.8679
#
#
#
# Elastic Compliance Matrix: (Units=1/GPa)
#
#
# Indices 1 2 3 4 5 6 
#
# 1 0.045809 -0.005602 -0.012812 0.021555 0.012124 0.009289
# 2 -0.005602 0.007894 -0.002118 -0.001405 0.002727 0.005089
# 3 -0.012812 -0.002118 0.017382 -0.014754 -0.002221 -0.008935
# 4 0.021555 -0.001405 -0.014754 0.042796 0.006630 0.018037
# 5 0.012124 0.002727 -0.002221 0.006630 0.036773 0.004546
# 6 0.009289 0.005089 -0.008935 0.018037 0.004546 0.052455
#
#
# Mechanical properties :
#
#
# Convention : Reuss Voigt Hill
#
# Bulk Modulus (GPa) = 33.31220 66.32543 49.81881
# Shear Modulus (GPa) = 19.67102 34.50169 27.08636
#
# Velocity S-wave (km/s) = 2.93221 3.88331 3.44078
# Velocity P-wave (km/s) = 5.10137 7.00689 6.12864
#
# Compressibility (1/GPa) = 0.03001903
#
# Stress axis : x y z
#
# Youngs Moduli (GPa) = 21.82968 126.68167 57.53222
#
# Poissons Ratio (x) = 0.70969 0.73712
# Poissons Ratio (y) = 0.12229 0.12187
# Poissons Ratio (z) = 0.27969 0.26834
#
# Static dielectric constant tensor:
#      x y z
#    x 1.914400 -0.012050 0.030850 
#    y -0.012050 1.910880 -0.012870 
#    z 0.030850 -0.012870 1.939030 
# 
# From -- ./inp_files/259091.got.cif
#   From: 2010.05.17/outbox.cif.g08.bks.cpg/sg2_130_cif.got.tgz:259091.got - 2010.06.03 11:33:40.
