data_PCOD9094204
_publ_section_title
;
Structure prediction by ZEFSAII (Michael W. Deem and Ramdas Pophale) SiO2 
 PCOD9094204
Probable space group: P -1
;
_chemical_formula_sum "Si O2"
_cell_formula_units_Z 16
_cell_length_a 23.087675
_cell_length_b 7.585964
_cell_length_c 7.415908
_cell_angle_alpha 105.591442
_cell_angle_beta 67.424891
_cell_angle_gamma 51.094394
_cell_volume 657.612039
_symmetry_space_group_name_H-M "P -1"
_symmetry_group_IT_number 2
_symmetry_cell_setting 'triclinic'
loop_
_space_group_symop_operation_xyz
x,y,z
-x,-y,-z
loop_
_atom_site_type_symbol
_atom_site_label
_atom_site_fract_x
_atom_site_fract_y
_atom_site_fract_z
Si Si1 0.745487 0.354714 0.152339
Si Si2 0.187492 0.189848 0.066101
Si Si3 0.145985 0.587443 0.767471
Si Si4 0.901075 0.235012 0.530877
Si Si5 0.996105 0.671182 0.193323
Si Si6 0.576773 0.986719 0.353161
Si Si7 0.651893 0.109708 0.542544
Si Si8 0.551072 0.707870 0.754309
O O1 0.837270 0.252741 0.119358
O O2 0.696590 0.609246 0.132300
O O3 0.653802 0.536812 0.466755
O O4 0.773746 0.089556 0.963634
O O5 0.267259 0.017567 0.750974
O O6 0.182284 0.404152 0.212606
O O7 0.062130 0.448675 0.227708
O O8 0.089583 0.728699 0.680419
O O9 0.267043 0.197720 0.507344
O O10 0.075137 0.633778 0.998293
O O11 0.000000 0.000000 0.500000
O O12 0.886589 0.048754 0.473993
O O13 0.000000 0.500000 0.000000
O O14 0.500000 0.000000 0.500000
O O15 0.571265 0.159706 0.554609
O O16 0.538024 0.145081 0.247864
O O17 0.589067 0.446389 0.760714
O O18 0.500000 0.000000 0.000000
#
# Coordination Sequence:
#
# PCOD9094204 Si02
#       8
#     2   2   2   2   2   2   2   2
#     4   9  19  37  56  77 108 146 181 220 274 326
#     4   9  19  35  54  78 108 139 179 227 273 324
#     4  10  20  37  58  79 107 146 184 223 274 330
#     4  10  21  36  55  84 111 137 180 229 274 324
#     4  10  20  37  58  77 106 146 182 224 274 325
#     4   9  18  34  54  76 106 142 180 220 269 326
#     4   9  19  36  56  76 106 149 183 218 275 326
#     4  10  20  34  55  83 110 141 182 227 270 319
#
# _framework density 24.330454
#
# number of rings (size 3 to 8) (size 9 to 14) (size 15 to 20)
#    0.000    2.500    0.000    1.500    0.000    2.000 
#    0.000   15.000    0.000    0.000    0.000    0.000 
#    0.000    0.000    0.000    0.000    0.000    0.000 
#
# Total GULP energy -89176.969341 kJ/mol
# GULP energy per Si atom -5573.560584 kJ/mol
# Density = 2.427508 g / cm^3
# Si number density = 24.330454 Si / 1000 Ang^3
#
#
#
# Elastic Constant Matrix: (Units=GPa)
#
#
# Indices 1 2 3 4 5 6 
#
# 1 105.4905 45.5516 48.9860 20.1458 20.2174 14.7936
# 2 45.5516 85.0193 22.5672 7.4732 -0.2637 3.4961
# 3 48.9860 22.5672 92.8162 24.9301 36.3438 14.9198
# 4 20.1458 7.4732 24.9301 31.9923 18.1548 16.6006
# 5 20.2174 -0.2637 36.3438 18.1548 31.6134 15.1572
# 6 14.7936 3.4961 14.9198 16.6006 15.1572 36.8644
#
#
#
# Elastic Compliance Matrix: (Units=1/GPa)
#
#
# Indices 1 2 3 4 5 6 
#
# 1 0.015886 -0.006978 -0.004785 -0.002307 -0.002589 -0.001673
# 2 -0.006978 0.016775 -0.003849 -0.002232 0.010587 -0.000581
# 3 -0.004785 -0.003849 0.024155 -0.002787 -0.025099 0.004084
# 4 -0.002307 -0.002232 -0.002787 0.053679 -0.019508 -0.013886
# 5 -0.002589 0.010587 -0.025099 -0.019508 0.080132 -0.013969
# 6 -0.001673 -0.000581 0.004084 -0.013886 -0.013969 0.038197
#
#
# Mechanical properties :
#
#
# Convention : Reuss Voigt Hill
#
# Bulk Modulus (GPa) = 39.07270 57.50396 48.28833
# Shear Modulus (GPa) = 18.61653 31.17544 24.89598
#
# Velocity S-wave (km/s) = 2.76914 3.58346 3.20229
# Velocity P-wave (km/s) = 5.13013 6.38807 5.79334
#
# Compressibility (1/GPa) = 0.02559331
#
# Stress axis : x y z
#
# Youngs Moduli (GPa) = 62.94808 59.61229 41.39863
#
# Poissons Ratio (x) = 0.41596 0.19810
# Poissons Ratio (y) = 0.43923 0.15933
# Poissons Ratio (z) = 0.30122 0.22943
#
# Static dielectric constant tensor:
#      x y z
#    x 2.035970 -0.051770 -0.073870 
#    y -0.051770 1.989260 0.094980 
#    z -0.073870 0.094980 2.164300 
# 
# From -- ./inp_files/294548.got.cif
#   From: 2010.05.17/outbox.cif.g08.bks.cpg/sg2_148_cif.got.tgz:294548.got - 2010.06.03 11:33:40.
