data_PCOD9094250
_publ_section_title
;
Structure prediction by ZEFSAII (Michael W. Deem and Ramdas Pophale) SiO2 
 PCOD9094250
Probable space group: P -1
;
_chemical_formula_sum "Si O2"
_cell_formula_units_Z 14
_cell_length_a 17.969494
_cell_length_b 11.762147
_cell_length_c 10.621273
_cell_angle_alpha 26.824932
_cell_angle_beta 60.057577
_cell_angle_gamma 42.360390
_cell_volume 580.054438
_symmetry_space_group_name_H-M "P -1"
_symmetry_group_IT_number 2
_symmetry_cell_setting 'triclinic'
loop_
_space_group_symop_operation_xyz
x,y,z
-x,-y,-z
loop_
_atom_site_type_symbol
_atom_site_label
_atom_site_fract_x
_atom_site_fract_y
_atom_site_fract_z
Si Si1 0.713385 0.537806 0.296065
Si Si2 0.301565 0.021436 0.464584
Si Si3 0.133275 0.404299 0.743015
Si Si4 0.196532 0.463486 0.351343
Si Si5 0.064932 0.160200 0.876018
Si Si6 0.501405 0.698514 0.415837
Si Si7 0.843938 0.160021 0.320385
O O1 0.765165 0.684898 0.163920
O O2 0.642967 0.513220 0.480734
O O3 0.820613 0.174897 0.475211
O O4 0.597956 0.862588 0.975518
O O5 0.302317 0.105245 0.527227
O O6 0.439474 0.719865 0.573338
O O7 0.231855 0.905464 0.618312
O O8 0.216540 0.434452 0.064418
O O9 0.179983 0.382876 0.583912
O O10 0.100709 0.185019 0.957461
O O11 0.994065 0.813726 0.500051
O O12 0.060773 0.743439 0.109656
O O13 0.191758 0.767715 0.089667
O O14 0.000000 0.500000 0.500000
O O15 0.500000 0.500000 0.500000
#
# Coordination Sequence:
#
# PCOD9094250 Si02
#       7
#     2   2   2   2   2   2   2
#     4  10  23  41  61  89 120 158 207 257 310 359
#     4  11  22  38  67  90 123 162 213 249 298 367
#     4  11  22  36  58  92 131 158 193 252 313 374
#     4  10  20  34  55  88 121 165 197 243 299 371
#     4   9  17  31  52  79 120 160 196 226 292 362
#     4  10  21  43  65  83 111 163 214 256 299 358
#     4  11  22  39  62  95 125 163 199 256 307 371
#
# _framework density 24.135667000000002
#
# number of rings (size 3 to 8) (size 9 to 14) (size 15 to 20)
#    0.000    1.714    2.857    3.000    2.000    1.143 
#    0.000    2.857    0.000    1.714    0.000    0.000 
#    0.000    0.000    0.000    0.000    0.000    0.000 
#
# Total GULP energy -78045.006696 kJ/mol
# GULP energy per Si atom -5574.643335 kJ/mol
# Density = 2.408073 g / cm^3
# Si number density = 24.135667 Si / 1000 Ang^3
#
#
#
# Elastic Constant Matrix: (Units=GPa)
#
#
# Indices 1 2 3 4 5 6 
#
# 1 68.5096 8.5868 8.9300 -8.0048 -12.0826 14.0014
# 2 8.5868 166.2553 -2.4088 -22.5678 9.9879 21.6678
# 3 8.9300 -2.4088 23.8702 -7.7027 -6.5198 3.0900
# 4 -8.0048 -22.5678 -7.7027 20.7432 6.8487 -12.8859
# 5 -12.0826 9.9879 -6.5198 6.8487 30.2452 -6.1945
# 6 14.0014 21.6678 3.0900 -12.8859 -6.1945 36.6485
#
#
#
# Elastic Compliance Matrix: (Units=1/GPa)
#
#
# Indices 1 2 3 4 5 6 
#
# 1 0.017171 -0.000704 -0.004659 -0.000787 0.005212 -0.005147
# 2 -0.000704 0.008018 0.003220 0.009991 -0.004920 -0.002062
# 3 -0.004659 0.003220 0.051653 0.022000 0.004035 0.003939
# 4 -0.000787 0.009991 0.022000 0.083699 -0.013803 0.019635
# 5 0.005212 -0.004920 0.004035 -0.013803 0.041320 0.002708
# 6 -0.005147 -0.002062 0.003939 0.019635 0.002708 0.037501
#
#
# Mechanical properties :
#
#
# Convention : Reuss Voigt Hill
#
# Bulk Modulus (GPa) = 13.78247 32.09456 22.93852
# Shear Modulus (GPa) = 18.66835 33.76253 26.21544
#
# Velocity S-wave (km/s) = 2.78416 3.74420 3.29928
# Velocity P-wave (km/s) = 4.00727 5.65848 4.90289
#
# Compressibility (1/GPa) = 0.07255591
#
# Stress axis : x y z
#
# Youngs Moduli (GPa) = 58.23745 124.71442 19.36011
#
# Poissons Ratio (x) = 0.08774 0.09020
# Poissons Ratio (y) = 0.04097 -0.06233
# Poissons Ratio (z) = 0.27133 -0.40153
#
# Static dielectric constant tensor:
#      x y z
#    x 2.015860 -0.031120 -0.121050 
#    y -0.031120 2.061290 0.019710 
#    z -0.121050 0.019710 2.097830 
# 
# From -- ./inp_files/72207.got.cif
#   From: 2010.05.17/outbox.cif.g08.bks.cpg/sg2_37_cif.got.tgz:72207.got - 2010.06.03 11:33:40.
