data_PCOD9094434
_publ_section_title
;
Structure prediction by ZEFSAII (Michael W. Deem and Ramdas Pophale) SiO2 
 PCOD9094434
Probable space group: P -1
;
_chemical_formula_sum "Si O2"
_cell_formula_units_Z 14
_cell_length_a 11.824807
_cell_length_b 5.145966
_cell_length_c 17.798268
_cell_angle_alpha 84.501476
_cell_angle_beta 140.256404
_cell_angle_gamma 95.894275
_cell_volume 688.532851
_symmetry_space_group_name_H-M "P -1"
_symmetry_group_IT_number 2
_symmetry_cell_setting 'triclinic'
loop_
_space_group_symop_operation_xyz
x,y,z
-x,-y,-z
loop_
_atom_site_type_symbol
_atom_site_label
_atom_site_fract_x
_atom_site_fract_y
_atom_site_fract_z
Si Si1 0.897013 0.324581 0.185574
Si Si2 0.158188 0.003219 0.139002
Si Si3 0.303024 0.209697 0.884820
Si Si4 0.609189 0.490622 0.939025
Si Si5 0.556357 0.327677 0.462622
Si Si6 0.790139 0.998680 0.675754
Si Si7 0.616034 0.473256 0.770671
O O1 0.848628 0.577388 0.200698
O O2 0.783413 0.072948 0.165147
O O3 0.803741 0.375442 0.055505
O O4 0.096583 0.239822 0.286980
O O5 0.108424 0.898563 0.200500
O O6 0.306295 0.811076 0.190943
O O7 0.230371 0.303479 0.173631
O O8 0.000000 0.000000 0.000000
O O9 0.460568 0.303393 0.908083
O O10 0.376865 0.254205 0.006809
O O11 0.566043 0.522638 0.829805
O O12 0.500000 0.500000 0.500000
O O13 0.739846 0.199767 0.580307
O O14 0.534636 0.482632 0.369871
O O15 0.401748 0.098349 0.387887
#
# Coordination Sequence:
#
# PCOD9094434 Si02
#       7
#     2   2   2   2   2   2   2
#     4  10  20  34  57  85 107 147 179 222 283 326
#     4  11  23  35  51  86 116 142 174 232 276 334
#     4   9  21  34  56  83 114 142 177 228 278 342
#     4   9  21  35  57  82 115 141 184 221 287 326
#     4  10  21  40  55  77 111 153 194 227 264 321
#     4  10  22  36  58  79 114 149 191 225 272 331
#     4  11  23  35  57  79 110 150 185 219 277 334
#
# _framework density 20.333089000000001
#
# number of rings (size 3 to 8) (size 9 to 14) (size 15 to 20)
#    0.857    1.143    1.429    1.714    6.000    1.143 
#    0.000    0.000    0.000    1.714    0.000    0.000 
#    0.000    0.000    0.000    0.000    0.000    0.000 
#
# Total GULP energy -78041.432734 kJ/mol
# GULP energy per Si atom -5574.388052 kJ/mol
# Density = 2.028681 g / cm^3
# Si number density = 20.333089 Si / 1000 Ang^3
#
#
#
# Elastic Constant Matrix: (Units=GPa)
#
#
# Indices 1 2 3 4 5 6 
#
# 1 55.8749 7.5300 38.9877 -19.5314 -6.0354 -7.6802
# 2 7.5300 55.6568 24.4546 -11.5319 3.1275 -4.0017
# 3 38.9877 24.4546 131.3093 -36.7845 -14.1744 -7.5194
# 4 -19.5314 -11.5319 -36.7845 36.5274 2.3562 12.0583
# 5 -6.0354 3.1275 -14.1744 2.3562 30.3717 -3.1956
# 6 -7.6802 -4.0017 -7.5194 12.0583 -3.1956 18.1410
#
#
#
# Elastic Compliance Matrix: (Units=1/GPa)
#
#
# Indices 1 2 3 4 5 6 
#
# 1 0.024499 0.000424 -0.004990 0.006579 0.002455 0.004456
# 2 0.000424 0.020324 -0.003348 0.003403 -0.003799 0.000344
# 3 -0.004990 -0.003348 0.012780 0.010026 0.004174 -0.003482
# 4 0.006579 0.003403 0.010026 0.050805 -0.001069 -0.026267
# 5 0.002455 -0.003799 0.004174 -0.001069 0.036795 0.009123
# 6 0.004456 0.000344 -0.003482 -0.026267 0.009123 0.074709
#
#
# Mechanical properties :
#
#
# Convention : Reuss Voigt Hill
#
# Bulk Modulus (GPa) = 23.93758 42.75397 33.34578
# Shear Modulus (GPa) = 20.02667 28.46594 24.24631
#
# Velocity S-wave (km/s) = 3.14176 3.74569 3.45694
# Velocity P-wave (km/s) = 4.99592 6.30709 5.68940
#
# Compressibility (1/GPa) = 0.04177531
#
# Stress axis : x y z
#
# Youngs Moduli (GPa) = 40.81754 49.20217 78.24526
#
# Poissons Ratio (x) = -0.02084 0.39043
# Poissons Ratio (y) = -0.01729 0.26196
# Poissons Ratio (z) = 0.20367 0.16473
#
# Static dielectric constant tensor:
#      x y z
#    x 1.736760 0.008970 0.002540 
#    y 0.008970 1.795140 0.000390 
#    z 0.002540 0.000390 1.795200 
# 
# From -- ./inp_files/108571.got.cif
#   From: 2010.05.17/outbox.cif.g08.bks.cpg/sg2_55_cif.got.tgz:108571.got - 2010.06.03 11:33:40.
