data_PCOD9094946
_publ_section_title
;
Structure prediction by ZEFSAII (Michael W. Deem and Ramdas Pophale) SiO2 
 PCOD9094946
Probable space group: P -1
;
_chemical_formula_sum "Si O2"
_cell_formula_units_Z 16
_cell_length_a 8.902871
_cell_length_b 8.038462
_cell_length_c 11.675047
_cell_angle_alpha 113.291439
_cell_angle_beta 92.189300
_cell_angle_gamma 73.911844
_cell_volume 734.967295
_symmetry_space_group_name_H-M "P -1"
_symmetry_group_IT_number 2
_symmetry_cell_setting 'triclinic'
loop_
_space_group_symop_operation_xyz
x,y,z
-x,-y,-z
loop_
_atom_site_type_symbol
_atom_site_label
_atom_site_fract_x
_atom_site_fract_y
_atom_site_fract_z
Si Si1 0.572585 0.201501 0.185485
Si Si2 0.484052 0.809777 0.285913
Si Si3 0.039021 0.207399 0.185683
Si Si4 0.170401 0.448943 0.851031
Si Si5 0.859166 0.883610 0.093233
Si Si6 0.362128 0.687658 0.028805
Si Si7 0.592763 0.545302 0.408095
Si Si8 0.691047 0.781505 0.642436
O O1 0.583163 0.217959 0.053943
O O2 0.649265 0.356595 0.283352
O O3 0.405416 0.251526 0.255830
O O4 0.681545 0.993143 0.156032
O O5 0.663644 0.690183 0.227517
O O6 0.468363 0.697039 0.368407
O O7 0.433212 0.032324 0.363371
O O8 0.366441 0.794886 0.175288
O O9 0.148862 0.200667 0.295901
O O10 0.936417 0.423421 0.214962
O O11 0.133440 0.155968 0.053486
O O12 0.952882 0.041618 0.153276
O O13 0.097371 0.310058 0.885269
O O14 0.214242 0.614304 0.972442
O O15 0.500000 0.500000 0.000000
O O16 0.500000 0.500000 0.500000
O O17 0.715912 0.631905 0.499169
#
# Coordination Sequence:
#
# PCOD9094946 Si02
#       8
#     2   2   2   2   2   2   2   2
#     4  11  20  42  65  96 130 170 218 263 326 387
#     4  11  21  40  67  96 126 167 221 266 321 389
#     4  11  25  42  60  99 139 168 209 271 326 386
#     4  11  22  41  65  94 135 176 203 260 337 394
#     4  11  23  41  65  92 136 174 212 260 332 391
#     4  10  20  34  65  97 124 160 211 266 314 388
#     4  10  22  40  63  94 129 168 215 277 321 368
#     4  11  25  39  67  95 130 172 220 269 314 383
#
# _framework density 21.769673999999998
#
# number of rings (size 3 to 8) (size 9 to 14) (size 15 to 20)
#    0.000    1.250    5.000    1.500    5.250    1.000 
#    4.500    2.500    0.000    1.500    0.000    0.000 
#    0.000    0.000    0.000    0.000    0.000    0.000 
#
# Total GULP energy -89193.171093 kJ/mol
# GULP energy per Si atom -5574.573193 kJ/mol
# Density = 2.172013 g / cm^3
# Si number density = 21.769674 Si / 1000 Ang^3
#
#
#
# Elastic Constant Matrix: (Units=GPa)
#
#
# Indices 1 2 3 4 5 6 
#
# 1 32.0308 14.2883 17.5244 -0.9407 -0.2156 -3.1840
# 2 14.2883 128.7815 31.3233 -16.0863 0.1247 3.1920
# 3 17.5244 31.3233 92.7759 -16.7817 19.5736 -0.8306
# 4 -0.9407 -16.0863 -16.7817 31.6940 8.1449 -8.1362
# 5 -0.2156 0.1247 19.5736 8.1449 24.2183 -7.5544
# 6 -3.1840 3.1920 -0.8306 -8.1362 -7.5544 32.0262
#
#
#
# Elastic Compliance Matrix: (Units=1/GPa)
#
#
# Indices 1 2 3 4 5 6 
#
# 1 0.038553 -0.002860 -0.010447 -0.007920 0.012993 0.004900
# 2 -0.002860 0.008977 -0.001972 0.003260 0.000324 -0.000325
# 3 -0.010447 -0.001972 0.020909 0.015113 -0.022625 -0.001797
# 4 -0.007920 0.003260 0.015113 0.049353 -0.027216 0.005398
# 5 0.012993 0.000324 -0.022625 -0.027216 0.072210 0.010791
# 6 0.004900 -0.000325 -0.001797 0.005398 0.010791 0.035614
#
#
# Mechanical properties :
#
#
# Convention : Reuss Voigt Hill
#
# Bulk Modulus (GPa) = 26.39832 42.20669 34.30251
# Shear Modulus (GPa) = 18.60106 30.28451 24.44279
#
# Velocity S-wave (km/s) = 2.92627 3.73384 3.35444
# Velocity P-wave (km/s) = 4.85488 6.16593 5.54926
#
# Compressibility (1/GPa) = 0.03788119
#
# Stress axis : x y z
#
# Youngs Moduli (GPa) = 25.93827 111.39455 47.82675
#
# Poissons Ratio (x) = 0.31857 0.49963
# Poissons Ratio (y) = 0.07418 0.09433
# Poissons Ratio (z) = 0.27097 0.21971
#
# Static dielectric constant tensor:
#      x y z
#    x 2.286520 0.425860 -1.069710 
#    y 0.425860 2.207140 -0.975610 
#    z -1.069710 -0.975610 4.564400 
# 
# From -- ./inp_files/380013.got.cif
#   From: 2010.05.17/outbox.cif.g08.bks.cpg/sg2_191_cif.got.tgz:380013.got - 2010.06.03 11:33:40.
