data_PCOD9094122
_publ_section_title
;
Structure prediction by ZEFSAII (Michael W. Deem and Ramdas Pophale) SiO2 
 PCOD9094122
Probable space group: P -1
;
_chemical_formula_sum "Si O2"
_cell_formula_units_Z 13
_cell_length_a 5.064870
_cell_length_b 9.489574
_cell_length_c 17.998474
_cell_angle_alpha 54.758292
_cell_angle_beta 129.497765
_cell_angle_gamma 133.171917
_cell_volume 471.113612
_symmetry_space_group_name_H-M "P -1"
_symmetry_group_IT_number 2
_symmetry_cell_setting 'triclinic'
loop_
_space_group_symop_operation_xyz
x,y,z
-x,-y,-z
loop_
_atom_site_type_symbol
_atom_site_label
_atom_site_fract_x
_atom_site_fract_y
_atom_site_fract_z
Si Si1 0.500000 0.500000 0.500000
Si Si2 0.443523 0.457519 0.091335
Si Si3 0.509740 0.162814 0.007522
Si Si4 0.594504 0.151861 0.622437
Si Si5 0.530960 0.081630 0.799711
Si Si6 0.580461 0.784388 0.711028
Si Si7 0.520600 0.547418 0.323012
O O1 0.340783 0.258469 0.549667
O O2 0.329985 0.474414 0.391394
O O3 0.589245 0.333965 0.204738
O O4 0.973174 0.317885 0.059393
O O5 0.500000 0.500000 0.000000
O O6 0.617582 0.679416 0.088767
O O7 0.327906 0.042924 0.087746
O O8 0.500000 0.000000 0.000000
O O9 0.685770 0.115573 0.733931
O O10 0.007160 0.330387 0.610170
O O11 0.436446 0.940798 0.620195
O O12 0.589461 0.291158 0.777220
O O13 0.055073 0.938368 0.754118
O O14 0.533508 0.623177 0.690874
#
# Coordination Sequence:
#
# PCOD9094122 Si02
#       7
#     1   2   2   2   2   2   2
#     4  10  22  40  58  82 112 136 174 232 278 324
#     4  10  21  35  53  82 115 144 185 229 262 313
#     4  10  20  34  54  80 112 149 185 223 268 315
#     4  10  21  38  58  80 108 140 179 225 272 328
#     4   9  20  37  54  80 115 145 180 226 269 316
#     4  10  21  37  57  81 110 147 183 221 272 322
#     4  10  21  38  59  81 108 143 182 222 272 329
#
# _framework density 27.594194999999999
#
# number of rings (size 3 to 8) (size 9 to 14) (size 15 to 20)
#    0.000    2.154    0.000    2.308    0.000    4.923 
#    0.000    7.692    0.000    0.000    0.000    0.000 
#    0.000    0.000    0.000    0.000    0.000    0.000 
#
# Total GULP energy -72533.169598 kJ/mol
# GULP energy per Si atom -5579.474584 kJ/mol
# Density = 2.753139 g / cm^3
# Si number density = 27.594195 Si / 1000 Ang^3
#
#
#
# Elastic Constant Matrix: (Units=GPa)
#
#
# Indices 1 2 3 4 5 6 
#
# 1 43.9672 94.2076 49.3587 40.0889 -149.2964 -13.1168
# 2 94.2076 108.6000 -8.8781 -160.3499 389.8723 -60.6349
# 3 49.3587 -8.8781 109.8739 -89.7914 211.4859 -32.7326
# 4 40.0889 -160.3499 -89.7914 -53.9092 315.3940 -3.8564
# 5 -149.2964 389.8723 211.4859 315.3940-1022.1155 34.9171
# 6 -13.1168 -60.6349 -32.7326 -3.8564 34.9171 56.5692
#
#
#
# Elastic Compliance Matrix: (Units=1/GPa)
#
#
# Indices 1 2 3 4 5 6 
#
# 1 0.017381 -0.001631 -0.000708 -0.000124 -0.003214 0.003848
# 2 -0.001631 0.005640 -0.001333 0.003736 0.003371 0.003070
# 3 -0.000708 -0.001333 0.007988 0.002890 0.002203 0.001866
# 4 -0.000124 0.003736 0.002890 0.027946 0.010697 0.000950
# 5 -0.003214 0.003371 0.002203 0.010697 0.004603 0.002031
# 6 0.003848 0.003070 0.001866 0.000950 0.002031 0.021751
#
#
# Mechanical properties :
#
#
# Convention : Reuss Voigt Hill
#
# Bulk Modulus (GPa) = 42.25730 59.09084 50.67407
# Shear Modulus (GPa) = 49.73011 -195.37424 -72.82206
#
# Velocity S-wave (km/s) = 4.24983 -8.42356 -5.14273
# Velocity P-wave (km/s) = 6.27921 8.55265 4.10605
#
# Compressibility (1/GPa) = 0.02366455
#
# Stress axis : x y z
#
# Youngs Moduli (GPa) = 57.53523 177.28980 125.17999
#
# Poissons Ratio (x) = 0.28917 0.08864
# Poissons Ratio (y) = 0.09384 0.16691
# Poissons Ratio (z) = 0.04074 0.23640
#
# Static dielectric constant tensor:
#      x y z
#    x 2.382170 0.022310 0.090070 
#    y 0.022310 2.203910 0.050900 
#    z 0.090070 0.050900 2.160640 
# 
# From -- ./inp_files/546503.got.cif
#   From: 2010.05.17/outbox.cif.g08.bks.cpg/sg2_274_cif.got.tgz:546503.got - 2010.06.03 11:33:40.
