data_PCOD9094490
_publ_section_title
;
Structure prediction by ZEFSAII (Michael W. Deem and Ramdas Pophale) SiO2 
 PCOD9094490
Probable space group: P -1
;
_chemical_formula_sum "Si O2"
_cell_formula_units_Z 16
_cell_length_a 15.110499
_cell_length_b 11.988879
_cell_length_c 11.315185
_cell_angle_alpha 125.531152
_cell_angle_beta 61.848582
_cell_angle_gamma 150.966409
_cell_volume 806.164008
_symmetry_space_group_name_H-M "P -1"
_symmetry_group_IT_number 2
_symmetry_cell_setting 'triclinic'
loop_
_space_group_symop_operation_xyz
x,y,z
-x,-y,-z
loop_
_atom_site_type_symbol
_atom_site_label
_atom_site_fract_x
_atom_site_fract_y
_atom_site_fract_z
Si Si1 0.071946 0.205693 0.354117
Si Si2 0.621208 0.633630 0.683154
Si Si3 0.407931 0.998186 0.414220
Si Si4 0.080395 0.186768 0.959108
Si Si5 0.674431 0.075491 0.310939
Si Si6 0.509657 0.641560 0.995133
Si Si7 0.266078 0.110020 0.470425
Si Si8 0.937658 0.591923 0.733559
O O1 0.274473 0.392116 0.380314
O O2 0.069223 0.312278 0.314880
O O3 0.992899 0.971174 0.208266
O O4 0.933962 0.100701 0.476629
O O5 0.412504 0.368201 0.610962
O O6 0.721586 0.826321 0.632260
O O7 0.614484 0.711917 0.855764
O O8 0.401427 0.039992 0.580390
O O9 0.252508 0.703581 0.322537
O O10 0.597046 0.134462 0.357620
O O11 0.344427 0.046948 0.399804
O O12 0.299459 0.435141 0.972260
O O13 0.027710 0.278178 0.090702
O O14 0.000000 0.000000 0.000000
O O15 0.892499 0.316089 0.330490
O O16 0.602324 0.873859 0.146796
O O17 0.500000 0.500000 0.000000
#
# Coordination Sequence:
#
# PCOD9094490 Si02
#       8
#     2   2   2   2   2   2   2   2
#     4  11  21  38  63  91 123 157 199 254 306 352
#     4  11  25  40  65  89 121 161 205 249 306 356
#     4  11  24  38  59  90 125 161 200 244 303 364
#     4  10  20  34  57  92 123 149 191 251 307 355
#     4  11  23  36  60  91 120 157 197 248 304 354
#     4  12  20  38  63  90 119 156 199 260 305 349
#     4  11  24  43  59  89 125 164 205 245 293 372
#     4  11  21  37  60  95 124 153 195 254 307 359
#
# _framework density 19.847079000000001
#
# number of rings (size 3 to 8) (size 9 to 14) (size 15 to 20)
#    0.000    1.000    3.750    5.250    3.500    0.000 
#    0.000    0.625    0.000    1.500    0.000    0.000 
#    0.000    0.000    0.000    0.000    0.000    0.000 
#
# Total GULP energy -89445.806089 kJ/mol
# GULP energy per Si atom -5590.362881 kJ/mol
# Density = 1.980191 g / cm^3
# Si number density = 19.847079 Si / 1000 Ang^3
#
#
#
# Elastic Constant Matrix: (Units=GPa)
#
#
# Indices 1 2 3 4 5 6 
#
# 1 92.0850 27.3299 32.5464 -22.4217 -17.6011 15.8491
# 2 27.3299 49.0418 15.0838 -6.8814 -6.9433 11.3607
# 3 32.5464 15.0838 91.8344 -6.4896 -6.5514 -8.1584
# 4 -22.4217 -6.8814 -6.4896 24.0536 9.3205 -5.4626
# 5 -17.6011 -6.9433 -6.5514 9.3205 25.2683 -2.6874
# 6 15.8491 11.3607 -8.1584 -5.4626 -2.6874 37.6492
#
#
#
# Elastic Compliance Matrix: (Units=1/GPa)
#
#
# Indices 1 2 3 4 5 6 
#
# 1 0.019084 -0.005377 -0.005153 0.011416 0.005688 -0.005466
# 2 -0.005377 0.025876 -0.002768 -0.000596 0.002221 -0.006072
# 3 -0.005153 -0.002768 0.013653 -0.000589 0.000032 0.005880
# 4 0.011416 -0.000596 -0.000589 0.057663 -0.013351 0.002660
# 5 0.005688 0.002221 0.000032 -0.013351 0.048921 -0.001503
# 6 -0.005466 -0.006072 0.005880 0.002660 -0.001503 0.032247
#
#
# Mechanical properties :
#
#
# Convention : Reuss Voigt Hill
#
# Bulk Modulus (GPa) = 31.23300 42.54238 36.88769
# Shear Modulus (GPa) = 21.30260 27.92763 24.61511
#
# Velocity S-wave (km/s) = 3.27974 3.75526 3.52552
# Velocity P-wave (km/s) = 5.48755 6.34699 5.93285
#
# Compressibility (1/GPa) = 0.03201742
#
# Stress axis : x y z
#
# Youngs Moduli (GPa) = 52.39916 38.64585 73.24297
#
# Poissons Ratio (x) = 0.20780 0.37746
# Poissons Ratio (y) = 0.28175 0.20271
# Poissons Ratio (z) = 0.27004 0.10696
#
# Static dielectric constant tensor:
#      x y z
#    x 1.701310 0.029470 -0.005790 
#    y 0.029470 1.680180 0.024450 
#    z -0.005790 0.024450 1.716500 
# 
# From -- ./inp_files/451793.got.cif
#   From: 2010.05.17/outbox.cif.g08.bks.cpg/sg2_226_cif.got.tgz:451793.got - 2010.06.03 11:33:40.
