data_PCOD9094625
_publ_section_title
;
Structure prediction by ZEFSAII (Michael W. Deem and Ramdas Pophale) SiO2 
 PCOD9094625
Probable space group: P -1
;
_chemical_formula_sum "Si O2"
_cell_formula_units_Z 14
_cell_length_a 7.096976
_cell_length_b 12.175246
_cell_length_c 23.495278
_cell_angle_alpha 20.985623
_cell_angle_beta 136.043536
_cell_angle_gamma 126.145222
_cell_volume 476.218211
_symmetry_space_group_name_H-M "P -1"
_symmetry_group_IT_number 2
_symmetry_cell_setting 'triclinic'
loop_
_space_group_symop_operation_xyz
x,y,z
-x,-y,-z
loop_
_atom_site_type_symbol
_atom_site_label
_atom_site_fract_x
_atom_site_fract_y
_atom_site_fract_z
Si Si1 0.035801 0.293941 0.285744
Si Si2 0.043713 0.437018 0.459769
Si Si3 0.216175 0.015916 0.248845
Si Si4 0.598279 0.090148 0.905275
Si Si5 0.187360 0.249999 0.460443
Si Si6 0.456273 0.100609 0.137364
Si Si7 0.703380 0.385832 0.893863
O O1 0.118516 0.421343 0.302140
O O2 0.247439 0.303575 0.275483
O O3 0.024906 0.947255 0.471122
O O4 0.710704 0.515927 0.091811
O O5 0.156155 0.677352 0.405721
O O6 0.165794 0.451273 0.415768
O O7 0.702311 0.605658 0.301025
O O8 0.200163 0.072149 0.694103
O O9 0.485761 0.998982 0.354487
O O10 0.335796 0.027117 0.205987
O O11 0.908928 0.290836 0.039916
O O12 0.788284 0.158621 0.964330
O O13 0.634571 0.057646 0.861396
O O14 0.551042 0.745194 0.078056
#
# Coordination Sequence:
#
# PCOD9094625 Si02
#       7
#     2   2   2   2   2   2   2
#     4  10  23  37  61  83 109 156 190 232 279 329
#     4  10  21  37  58  89 114 150 179 239 285 333
#     4   9  20  36  59  88 110 145 189 241 282 321
#     4  10  21  36  57  86 123 143 185 231 282 341
#     4  10  21  39  60  83 115 142 197 238 275 331
#     4  10  20  34  59  84 111 147 188 230 281 331
#     4   9  21  36  56  85 110 158 182 227 282 329
#
# _framework density 29.398287
#
# number of rings (size 3 to 8) (size 9 to 14) (size 15 to 20)
#    0.000    2.286    0.000    2.143   10.000    6.286 
#    0.000    0.714    0.000    6.857    0.000    0.000 
#    0.000    0.000    0.000    0.000    0.000    0.000 
#
# Total GULP energy -78196.219062 kJ/mol
# GULP energy per Si atom -5585.444219 kJ/mol
# Density = 2.933137 g / cm^3
# Si number density = 29.398287 Si / 1000 Ang^3
#
#
#
# Elastic Constant Matrix: (Units=GPa)
#
#
# Indices 1 2 3 4 5 6 
#
# 1 96.4625 -0.0201 32.2784 8.0147 -8.2545 -15.2569
# 2 -0.0201 74.4576 15.2682 16.6037 -6.7754 8.7494
# 3 32.2784 15.2682 189.8648 25.6130 -7.9573 -0.9548
# 4 8.0147 16.6037 25.6130 47.9834 -0.4455 -3.6312
# 5 -8.2545 -6.7754 -7.9573 -0.4455 53.2699 3.7322
# 6 -15.2569 8.7494 -0.9548 -3.6312 3.7322 39.0961
#
#
#
# Elastic Compliance Matrix: (Units=1/GPa)
#
#
# Indices 1 2 3 4 5 6 
#
# 1 0.011843 0.000142 -0.001856 -0.000695 0.001265 0.004359
# 2 0.000142 0.015409 -0.000465 -0.005398 0.002155 -0.004112
# 3 -0.001856 -0.000465 0.006017 -0.002795 0.000584 -0.000789
# 4 -0.000695 -0.005398 -0.002795 0.024552 -0.001235 0.003267
# 5 0.001265 0.002155 0.000584 -0.001235 0.019456 -0.001947
# 6 0.004359 -0.004112 -0.000789 0.003267 -0.001947 0.028669
#
#
# Mechanical properties :
#
#
# Convention : Reuss Voigt Hill
#
# Bulk Modulus (GPa) = 34.59016 50.64866 42.61941
# Shear Modulus (GPa) = 41.68614 48.95376 45.31995
#
# Velocity S-wave (km/s) = 3.76969 4.08510 3.93056
# Velocity P-wave (km/s) = 5.54428 6.28622 5.92687
#
# Compressibility (1/GPa) = 0.02890996
#
# Stress axis : x y z
#
# Youngs Moduli (GPa) = 84.43568 64.89705 166.18252
#
# Poissons Ratio (x) = -0.00919 0.30847
# Poissons Ratio (y) = -0.01195 0.07732
# Poissons Ratio (z) = 0.15673 0.03020
#
# Static dielectric constant tensor:
#      x y z
#    x 2.317110 0.000870 0.115570 
#    y 0.000870 2.364160 -0.042860 
#    z 0.115570 -0.042860 2.353280 
# 
# From -- ./inp_files/239645.got.cif
#   From: 2010.05.17/outbox.cif.g08.bks.cpg/sg2_120_cif.got.tgz:239645.got - 2010.06.03 11:33:40.
