data_PCOD9094019
_publ_section_title
;
Structure prediction by ZEFSAII (Michael W. Deem and Ramdas Pophale) SiO2 
 PCOD9094019
Probable space group: P -1
;
_chemical_formula_sum "Si O2"
_cell_formula_units_Z 16
_cell_length_a 8.289535
_cell_length_b 18.057494
_cell_length_c 18.534451
_cell_angle_alpha 159.730473
_cell_angle_beta 140.649501
_cell_angle_gamma 41.046036
_cell_volume 604.173559
_symmetry_space_group_name_H-M "P -1"
_symmetry_group_IT_number 2
_symmetry_cell_setting 'triclinic'
loop_
_space_group_symop_operation_xyz
x,y,z
-x,-y,-z
loop_
_atom_site_type_symbol
_atom_site_label
_atom_site_fract_x
_atom_site_fract_y
_atom_site_fract_z
Si Si1 0.026475 0.227394 0.765352
Si Si2 0.603538 0.039741 0.776256
Si Si3 0.716040 0.420145 0.234617
Si Si4 0.589232 0.770502 0.916423
Si Si5 0.008808 0.407156 0.696783
Si Si6 0.211411 0.593284 0.539182
Si Si7 0.441350 0.786241 0.612762
Si Si8 0.504297 0.766712 0.362860
O O1 0.802107 0.201803 0.723129
O O2 0.331836 0.176739 0.828310
O O3 0.000000 0.000000 0.500000
O O4 0.000000 0.500000 0.000000
O O5 0.606454 0.841518 0.651826
O O6 0.597355 0.963806 0.621905
O O7 0.801789 0.196367 0.015105
O O8 0.552922 0.365125 0.196751
O O9 0.554181 0.575764 0.264222
O O10 0.968316 0.527136 0.436668
O O11 0.871862 0.648719 0.885024
O O12 0.369785 0.783834 0.791406
O O13 0.613745 0.997039 0.164224
O O14 0.913104 0.369122 0.547720
O O15 0.832464 0.275996 0.565399
O O16 0.308457 0.316031 0.714346
O O17 0.421770 0.389991 0.445576
#
# Coordination Sequence:
#
# PCOD9094019 Si02
#       8
#     2   2   2   2   2   2   2   2
#     4  10  20  39  65  95 123 152 197 253 310 361
#     4  10  21  36  59  86 108 149 191 242 305 346
#     4  10  20  34  56  82 110 144 194 244 290 349
#     4  10  20  34  52  76 111 152 187 232 294 340
#     4  10  22  36  52  80 113 153 195 232 292 352
#     4  10  21  34  52  80 110 151 197 243 282 349
#     4  10  21  37  54  77 117 152 193 238 293 350
#     4  10  20  36  60  84 112 146 189 248 287 358
#
# _framework density 26.482455999999999
#
# number of rings (size 3 to 8) (size 9 to 14) (size 15 to 20)
#    0.000    2.000    1.250    3.375    0.000    9.000 
#    0.000    0.625    0.000    3.000    0.000    0.000 
#    0.000    0.000    0.000    0.000    0.000    0.000 
#
# Total GULP energy -89073.723808 kJ/mol
# GULP energy per Si atom -5567.107738 kJ/mol
# Density = 2.642218 g / cm^3
# Si number density = 26.482456 Si / 1000 Ang^3
#
#
#
# Elastic Constant Matrix: (Units=GPa)
#
#
# Indices 1 2 3 4 5 6 
#
# 1 80.2635 16.4533 27.5323 4.3772 -0.7573 -41.0547
# 2 16.4533 57.6242 0.4851 8.1943 9.1604 -19.8238
# 3 27.5323 0.4851 108.5387 -0.0166 -5.4150 -20.6607
# 4 4.3772 8.1943 -0.0166 20.7665 4.1043 1.2640
# 5 -0.7573 9.1604 -5.4150 4.1043 14.5684 5.4487
# 6 -41.0547 -19.8238 -20.6607 1.2640 5.4487 63.0366
#
#
#
# Elastic Compliance Matrix: (Units=1/GPa)
#
#
# Indices 1 2 3 4 5 6 
#
# 1 0.020044 -0.000325 -0.002892 -0.004206 -0.003271 0.012371
# 2 -0.000325 0.024204 0.000915 -0.006795 -0.016444 0.009258
# 3 -0.002892 0.000915 0.010376 -0.000361 0.002640 0.001584
# 4 -0.004206 -0.006795 -0.000361 0.053879 -0.009287 -0.005272
# 5 -0.003271 -0.016444 0.002640 -0.009287 0.087578 -0.013820
# 6 0.012371 0.009258 0.001584 -0.005272 -0.013820 0.028652
#
#
# Mechanical properties :
#
#
# Convention : Reuss Voigt Hill
#
# Bulk Modulus (GPa) = 19.99169 37.26309 28.62739
# Shear Modulus (GPa) = 20.32443 33.13800 26.73121
#
# Velocity S-wave (km/s) = 2.77333 3.54124 3.18054
# Velocity P-wave (km/s) = 4.22144 5.55175 4.93165
#
# Compressibility (1/GPa) = 0.05002079
#
# Stress axis : x y z
#
# Youngs Moduli (GPa) = 49.89037 41.31542 96.37631
#
# Poissons Ratio (x) = 0.01342 0.27871
# Poissons Ratio (y) = 0.01620 -0.08819
# Poissons Ratio (z) = 0.14428 -0.03780
#
# Static dielectric constant tensor:
#      x y z
#    x 2.205650 0.004370 -0.031780 
#    y 0.004370 2.130340 0.021270 
#    z -0.031780 0.021270 2.260770 
# 
# From -- ./inp_files/335358.got.cif
#   From: 2010.05.17/outbox.cif.g08.bks.cpg/sg2_168_cif.got.tgz:335358.got - 2010.06.03 11:33:40.
