data_PCOD9094219
_publ_section_title
;
Structure prediction by ZEFSAII (Michael W. Deem and Ramdas Pophale) SiO2 
 PCOD9094219
Probable space group: P -1
;
_chemical_formula_sum "Si O2"
_cell_formula_units_Z 10
_cell_length_a 13.261342
_cell_length_b 5.368960
_cell_length_c 9.765043
_cell_angle_alpha 110.041412
_cell_angle_beta 60.436800
_cell_angle_gamma 75.629494
_cell_volume 488.472585
_symmetry_space_group_name_H-M "P -1"
_symmetry_group_IT_number 2
_symmetry_cell_setting 'triclinic'
loop_
_space_group_symop_operation_xyz
x,y,z
-x,-y,-z
loop_
_atom_site_type_symbol
_atom_site_label
_atom_site_fract_x
_atom_site_fract_y
_atom_site_fract_z
Si Si1 0.869361 0.116015 0.511952
Si Si2 0.273339 0.849236 0.923541
Si Si3 0.372938 0.146902 0.711285
Si Si4 0.114350 0.152409 0.831876
Si Si5 0.836661 0.726050 0.656810
O O1 0.786045 0.484018 0.641778
O O2 0.914497 0.998493 0.306018
O O3 0.796223 0.950256 0.596740
O O4 0.000000 0.000000 0.500000
O O5 0.335602 0.489857 0.844462
O O6 0.376311 0.936648 0.797221
O O7 0.156546 0.953144 0.905377
O O8 0.209601 0.066376 0.138044
O O9 0.247841 0.169976 0.715212
O O10 0.500000 0.000000 0.500000
O O11 0.000000 0.500000 0.000000
O O12 0.000000 0.500000 0.500000
#
# Coordination Sequence:
#
# PCOD9094219 Si02
#       5
#     2   2   2   2   2
#     4  10  21  34  53  83 128 154 185 237 310 349
#     4  10  22  38  65  88 120 160 208 242 300 358
#     4  10  23  41  64  88 121 159 206 254 296 348
#     4  10  23  36  63  95 119 154 207 251 297 357
#     4  10  20  34  55  84 124 157 185 240 307 356
#
# _framework density 20.471976999999999
#
# number of rings (size 3 to 8) (size 9 to 14) (size 15 to 20)
#    1.200    0.800    0.000    4.200    8.400    0.800 
#    0.000    0.000    0.000    7.200    0.000    0.000 
#    0.000    0.000    0.000    0.000    0.000    0.000 
#
# Total GULP energy -55727.760898 kJ/mol
# GULP energy per Si atom -5572.776090 kJ/mol
# Density = 2.042538 g / cm^3
# Si number density = 20.471977 Si / 1000 Ang^3
#
#
#
# Elastic Constant Matrix: (Units=GPa)
#
#
# Indices 1 2 3 4 5 6 
#
# 1 32.2139 0.1614 29.1063 4.1792 -1.7796 4.9247
# 2 0.1614 114.5429 5.3353 9.8655 22.8379 27.8847
# 3 29.1063 5.3353 126.6819 2.8783 30.2377 -1.6527
# 4 4.1792 9.8655 2.8783 37.2307 5.5011 7.9663
# 5 -1.7796 22.8379 30.2377 5.5011 43.6635 -1.8299
# 6 4.9247 27.8847 -1.6527 7.9663 -1.8299 17.6936
#
#
#
# Elastic Compliance Matrix: (Units=1/GPa)
#
#
# Indices 1 2 3 4 5 6 
#
# 1 0.046225 0.003080 -0.013043 -0.002727 0.008945 -0.016785
# 2 0.003080 0.019013 0.000910 0.003556 -0.012305 -0.033610
# 3 -0.013043 0.000910 0.013308 0.001340 -0.010318 0.001769
# 4 -0.002727 0.003556 0.001340 0.031467 -0.007688 -0.019682
# 5 0.008945 -0.012305 -0.010318 -0.007688 0.038798 0.023414
# 6 -0.016785 -0.033610 0.001769 -0.019682 0.023414 0.125606
#
#
# Mechanical properties :
#
#
# Convention : Reuss Voigt Hill
#
# Bulk Modulus (GPa) = 16.54543 38.07162 27.30853
# Shear Modulus (GPa) = 15.99130 35.63995 25.81563
#
# Velocity S-wave (km/s) = 2.79790 4.17695 3.55494
# Velocity P-wave (km/s) = 4.30549 6.47301 5.49714
#
# Compressibility (1/GPa) = 0.06043965
#
# Stress axis : x y z
#
# Youngs Moduli (GPa) = 21.63309 52.59582 75.14558
#
# Poissons Ratio (x) = -0.16199 0.98010
# Poissons Ratio (y) = -0.06663 -0.06835
# Poissons Ratio (z) = 0.28215 -0.04784
#
# Static dielectric constant tensor:
#      x y z
#    x 1.610850 0.005810 0.043640 
#    y 0.005810 1.803630 -0.007050 
#    z 0.043640 -0.007050 1.666350 
# 
# From -- ./inp_files/16523.got.cif
#   From: 2010.05.17/outbox.cif.g08.bks.cpg/sg2_9_cif.got.tgz:16523.got - 2010.06.03 11:33:40.
