data_PCOD9094459
_publ_section_title
;
Structure prediction by ZEFSAII (Michael W. Deem and Ramdas Pophale) SiO2 
 PCOD9094459
Probable space group: P -1
;
_chemical_formula_sum "Si O2"
_cell_formula_units_Z 14
_cell_length_a 11.498396
_cell_length_b 8.896405
_cell_length_c 13.796843
_cell_angle_alpha 43.800159
_cell_angle_beta 41.140109
_cell_angle_gamma 72.979770
_cell_volume 536.367068
_symmetry_space_group_name_H-M "P -1"
_symmetry_group_IT_number 2
_symmetry_cell_setting 'triclinic'
loop_
_space_group_symop_operation_xyz
x,y,z
-x,-y,-z
loop_
_atom_site_type_symbol
_atom_site_label
_atom_site_fract_x
_atom_site_fract_y
_atom_site_fract_z
Si Si1 0.156287 0.830030 0.309079
Si Si2 0.427744 0.645424 0.125778
Si Si3 0.029839 0.777870 0.621782
Si Si4 0.509986 0.966073 0.754471
Si Si5 0.136330 0.725918 0.957445
Si Si6 0.196669 0.147405 0.594886
Si Si7 0.317132 0.484653 0.557870
O O1 0.246372 0.680091 0.268189
O O2 0.049173 0.681415 0.547175
O O3 0.008373 0.882345 0.311722
O O4 0.352861 0.115501 0.082538
O O5 0.384431 0.368506 0.307559
O O6 0.429394 0.704149 0.984961
O O7 0.872589 0.540574 0.899911
O O8 0.249291 0.921714 0.476926
O O9 0.000000 0.000000 0.500000
O O10 0.562764 0.204227 0.683266
O O11 0.336430 0.922541 0.807639
O O12 0.903358 0.635659 0.187534
O O13 0.170164 0.878577 0.765819
O O14 0.250801 0.304911 0.589421
O O15 0.500000 0.500000 0.500000
#
# Coordination Sequence:
#
# PCOD9094459 Si02
#       7
#     2   2   2   2   2   2   2
#     4  10  21  37  57  86 119 159 198 238 292 351
#     4  10  20  34  57  86 124 154 189 234 295 363
#     4  10  23  44  65  83 111 157 211 257 291 341
#     4  10  21  40  61  90 121 159 199 237 290 366
#     4  11  23  36  59  89 119 158 202 240 300 352
#     4  12  22  32  57  88 125 156 186 239 294 361
#     4  11  22  33  54  90 129 161 187 228 293 362
#
# _framework density 26.10153
#
# number of rings (size 3 to 8) (size 9 to 14) (size 15 to 20)
#    0.000    1.429    1.429    6.000    4.000    0.571 
#    0.000    0.714    0.000    4.286    0.000    0.000 
#    0.000    0.000    0.000    0.000    0.000    0.000 
#
# Total GULP energy -78269.514631 kJ/mol
# GULP energy per Si atom -5590.679616 kJ/mol
# Density = 2.604212 g / cm^3
# Si number density = 26.101530 Si / 1000 Ang^3
#
#
#
# Elastic Constant Matrix: (Units=GPa)
#
#
# Indices 1 2 3 4 5 6 
#
# 1 211.1991 30.9928 78.8463 -1.4494 -3.6237 -33.6072
# 2 30.9928 57.3163 35.3393 -12.3508 6.9974 -9.4224
# 3 78.8463 35.3393 173.7584 -28.3084 22.3929 -26.3296
# 4 -1.4494 -12.3508 -28.3084 42.7191 -19.6455 6.0830
# 5 -3.6237 6.9974 22.3929 -19.6455 70.1950 -0.1615
# 6 -33.6072 -9.4224 -26.3296 6.0830 -0.1615 39.6959
#
#
#
# Elastic Compliance Matrix: (Units=1/GPa)
#
#
# Indices 1 2 3 4 5 6 
#
# 1 0.006532 -0.001962 -0.002437 -0.002173 0.000711 0.003784
# 2 -0.001962 0.021169 -0.002558 0.004097 -0.000246 0.001038
# 3 -0.002437 -0.002558 0.008566 0.003804 -0.001533 0.002422
# 4 -0.002173 0.004097 0.003804 0.030607 0.006825 -0.003006
# 5 0.000711 -0.000246 -0.001533 0.006825 0.016703 -0.001451
# 6 0.003784 0.001038 0.002422 -0.003006 -0.001451 0.030702
#
#
# Mechanical properties :
#
#
# Convention : Reuss Voigt Hill
#
# Bulk Modulus (GPa) = 44.74109 81.40340 63.07224
# Shear Modulus (GPa) = 36.86080 50.32836 43.59458
#
# Velocity S-wave (km/s) = 3.76201 4.39586 4.09123
# Velocity P-wave (km/s) = 6.00406 7.55114 6.82160
#
# Compressibility (1/GPa) = 0.02235082
#
# Stress axis : x y z
#
# Youngs Moduli (GPa) = 153.09072 47.23851 116.74556
#
# Poissons Ratio (x) = 0.09270 0.28453
# Poissons Ratio (y) = 0.30042 0.29869
# Poissons Ratio (z) = 0.37311 0.12086
#
# Static dielectric constant tensor:
#      x y z
#    x 2.028510 -0.003650 -0.024090 
#    y -0.003650 2.250800 0.018510 
#    z -0.024090 0.018510 2.082430 
# 
# From -- ./inp_files/568438.got.cif
#   From: 2010.05.17/outbox.cif.g08.bks.cpg/sg2_285_cif.got.tgz:568438.got - 2010.06.03 11:33:40.
