data_PCOD9094905
_publ_section_title
;
Structure prediction by ZEFSAII (Michael W. Deem and Ramdas Pophale) SiO2 
 PCOD9094905
Probable space group: P -1
;
_chemical_formula_sum "Si O2"
_cell_formula_units_Z 13
_cell_length_a 9.503211
_cell_length_b 14.031287
_cell_length_c 8.609417
_cell_angle_alpha 36.085847
_cell_angle_beta 108.878348
_cell_angle_gamma 128.464104
_cell_volume 487.874149
_symmetry_space_group_name_H-M "P -1"
_symmetry_group_IT_number 2
_symmetry_cell_setting 'triclinic'
loop_
_space_group_symop_operation_xyz
x,y,z
-x,-y,-z
loop_
_atom_site_type_symbol
_atom_site_label
_atom_site_fract_x
_atom_site_fract_y
_atom_site_fract_z
Si Si1 0.277950 0.808632 0.513584
Si Si2 0.980549 0.051493 0.756586
Si Si3 0.426358 0.430559 0.389030
Si Si4 0.361189 0.747842 0.302829
Si Si5 0.939395 0.788079 0.835251
Si Si6 0.273085 0.767409 0.909354
Si Si7 0.500000 0.500000 0.000000
O O1 0.227217 0.692371 0.479577
O O2 0.233296 0.688452 0.819919
O O3 0.172565 0.909363 0.358926
O O4 0.511520 0.000836 0.331422
O O5 0.194207 0.270464 0.504270
O O6 0.939575 0.849954 0.927556
O O7 0.000000 0.000000 0.000000
O O8 0.500000 0.500000 0.500000
O O9 0.498257 0.301073 0.536833
O O10 0.516759 0.594160 0.063653
O O11 0.278339 0.663353 0.207943
O O12 0.500000 0.000000 0.000000
O O13 0.106035 0.778949 0.871721
O O14 0.722481 0.598228 0.959818
O O15 0.000000 0.000000 0.500000
#
# Coordination Sequence:
#
# PCOD9094905 Si02
#       7
#     2   2   2   2   2   2   1
#     4  10  20  34  64 100 130 180 243 291 358 435
#     4  12  22  41  73 104 140 201 250 297 372 445
#     4  12  27  48  71 109 157 193 251 314 368 442
#     4  10  22  40  68 100 139 191 242 298 366 441
#     4  12  23  45  74 101 147 198 248 302 370 445
#     4  10  20  38  64 101 134 180 244 295 358 438
#     4  12  28  44  74 112 148 186 256 312 360 440
#
# _framework density 26.646215000000002
#
# number of rings (size 3 to 8) (size 9 to 14) (size 15 to 20)
#    0.000    0.923    3.077    5.538    0.000    1.231 
#    0.000    3.077    0.000    6.462    0.000    0.000 
#    0.000    0.000    0.000    0.000    0.000    0.000 
#
# Total GULP energy -72395.549703 kJ/mol
# GULP energy per Si atom -5568.888439 kJ/mol
# Density = 2.658557 g / cm^3
# Si number density = 26.646215 Si / 1000 Ang^3
#
#
#
# Elastic Constant Matrix: (Units=GPa)
#
#
# Indices 1 2 3 4 5 6 
#
# 1 240.0365 74.7072 43.9749 -4.2479 -6.7157 27.1574
# 2 74.7072 148.3164 37.2663 31.5719 -38.3530 -15.4573
# 3 43.9749 37.2663 68.6903 27.4241 -14.5914 -4.1768
# 4 -4.2479 31.5719 27.4241 50.7272 -16.6231 -26.2400
# 5 -6.7157 -38.3530 -14.5914 -16.6231 51.2694 10.8175
# 6 27.1574 -15.4573 -4.1768 -26.2400 10.8175 68.5046
#
#
#
# Elastic Compliance Matrix: (Units=1/GPa)
#
#
# Indices 1 2 3 4 5 6 
#
# 1 0.006160 -0.003388 -0.003790 0.003197 -0.001348 -0.002000
# 2 -0.003388 0.011276 -0.000919 -0.004138 0.006118 0.001280
# 3 -0.003790 -0.000919 0.022802 -0.012809 0.001677 -0.002486
# 4 0.003197 -0.004138 -0.012809 0.035801 0.003126 0.010238
# 5 -0.001348 0.006118 0.001677 0.003126 0.025570 -0.000823
# 6 -0.002000 0.001280 -0.002486 0.010238 -0.000823 0.019579
#
#
# Mechanical properties :
#
#
# Convention : Reuss Voigt Hill
#
# Bulk Modulus (GPa) = 41.59050 85.43778 63.51414
# Shear Modulus (GPa) = 34.38879 54.17321 44.28100
#
# Velocity S-wave (km/s) = 3.59635 4.51383 4.08096
# Velocity P-wave (km/s) = 5.73474 7.70062 6.78921
#
# Compressibility (1/GPa) = 0.02404395
#
# Stress axis : x y z
#
# Youngs Moduli (GPa) = 162.33905 88.68245 43.85626
#
# Poissons Ratio (x) = 0.30046 0.16620
# Poissons Ratio (y) = 0.55001 0.04031
# Poissons Ratio (z) = 0.61522 0.08152
#
# Static dielectric constant tensor:
#      x y z
#    x 1.956720 -0.018760 -0.045520 
#    y -0.018760 2.077180 0.117350 
#    z -0.045520 0.117350 2.239800 
# 
# From -- ./inp_files/199112.got.cif
#   From: 2010.05.17/outbox.cif.g08.bks.cpg/sg2_100_cif.got.tgz:199112.got - 2010.06.03 11:33:40.
