data_PCOD9094161
_publ_section_title
;
Structure prediction by ZEFSAII (Michael W. Deem and Ramdas Pophale) SiO2 
 PCOD9094161
Probable space group: P -1
;
_chemical_formula_sum "Si O2"
_cell_formula_units_Z 16
_cell_length_a 11.278818
_cell_length_b 28.041900
_cell_length_c 25.093808
_cell_angle_alpha 9.127642
_cell_angle_beta 135.434747
_cell_angle_gamma 136.337805
_cell_volume 869.119983
_symmetry_space_group_name_H-M "P -1"
_symmetry_group_IT_number 2
_symmetry_cell_setting 'triclinic'
loop_
_space_group_symop_operation_xyz
x,y,z
-x,-y,-z
loop_
_atom_site_type_symbol
_atom_site_label
_atom_site_fract_x
_atom_site_fract_y
_atom_site_fract_z
Si Si1 0.900463 0.655290 0.341853
Si Si2 0.314426 0.102820 0.071245
Si Si3 0.879975 0.584194 0.247280
Si Si4 0.916664 0.791632 0.573452
Si Si5 0.305952 0.855295 0.811073
Si Si6 0.848361 0.964754 0.533821
Si Si7 0.161086 0.169360 0.153891
Si Si8 0.311728 0.574511 0.849000
O O1 0.000000 0.500000 0.500000
O O2 0.937559 0.480653 0.600063
O O3 0.719826 0.696404 0.213057
O O4 0.000000 0.000000 0.000000
O O5 0.508366 0.161462 0.088562
O O6 0.247075 0.745519 0.431620
O O7 0.197530 0.203743 0.969559
O O8 0.884857 0.730257 0.029776
O O9 0.785110 0.942799 0.400402
O O10 0.816574 0.471818 0.873601
O O11 0.079361 0.791948 0.665383
O O12 0.994522 0.001457 0.317926
O O13 0.311390 0.986827 0.607102
O O14 0.806520 0.645620 0.903599
O O15 0.000000 0.000000 0.500000
O O16 0.287939 0.921333 0.466036
O O17 0.246450 0.455555 0.901137
O O18 0.500000 0.500000 0.000000
#
# Coordination Sequence:
#
# PCOD9094161 Si02
#       8
#     2   2   2   2   2   2   2   2
#     4   8  16  32  52  77 110 139 167 212 269 328
#     4  10  20  34  54  87 111 133 172 230 279 307
#     4  10  20  34  57  81 109 142 177 210 271 343
#     4  10  21  38  52  76 102 147 184 219 265 308
#     4  11  21  34  57  78 104 135 185 232 259 313
#     4   9  20  36  55  73 102 144 189 218 263 321
#     4  11  22  38  57  73 110 144 184 212 264 340
#     4  11  24  38  52  80 113 143 176 236 281 309
#
# _framework density 18.409426
#
# number of rings (size 3 to 8) (size 9 to 14) (size 15 to 20)
#    0.000    2.000    0.000    4.500    3.500    3.000 
#    0.000    0.000    0.000    1.500    0.000    0.000 
#    0.000    0.000    0.000    0.000    0.000    0.000 
#
# Total GULP energy -89229.478494 kJ/mol
# GULP energy per Si atom -5576.842406 kJ/mol
# Density = 1.836753 g / cm^3
# Si number density = 18.409426 Si / 1000 Ang^3
#
#
#
# Elastic Constant Matrix: (Units=GPa)
#
#
# Indices 1 2 3 4 5 6 
#
# 1 40.7570 19.2032 13.1693 15.9709 -1.8595 -10.5450
# 2 19.2032 107.9536 20.2092 34.8876 0.0100 2.3278
# 3 13.1693 20.2092 50.3304 9.7085 7.5923 -0.0014
# 4 15.9709 34.8876 9.7085 51.1206 -11.7358 4.7225
# 5 -1.8595 0.0100 7.5923 -11.7358 25.8302 3.7382
# 6 -10.5450 2.3278 -0.0014 4.7225 3.7382 20.1416
#
#
#
# Elastic Compliance Matrix: (Units=1/GPa)
#
#
# Indices 1 2 3 4 5 6 
#
# 1 0.038585 -0.002116 -0.006054 -0.012807 -0.004783 0.024336
# 2 -0.002116 0.012801 -0.002496 -0.008333 -0.003204 -0.000039
# 3 -0.006054 -0.002496 0.024383 -0.003033 -0.008905 -0.000515
# 4 -0.012807 -0.008333 -0.003033 0.035762 0.018769 -0.017611
# 5 -0.004783 -0.003204 -0.008905 0.018769 0.051855 -0.016159
# 6 0.024336 -0.000039 -0.000515 -0.017611 -0.016159 0.069522
#
#
# Mechanical properties :
#
#
# Convention : Reuss Voigt Hill
#
# Bulk Modulus (GPa) = 18.36922 33.80050 26.08486
# Shear Modulus (GPa) = 18.35636 29.18243 23.76939
#
# Velocity S-wave (km/s) = 3.16114 3.98576 3.59716
# Velocity P-wave (km/s) = 4.82945 6.29143 5.60828
#
# Compressibility (1/GPa) = 0.05443889
#
# Stress axis : x y z
#
# Youngs Moduli (GPa) = 25.91654 78.11904 41.01178
#
# Poissons Ratio (x) = 0.16529 0.24828
# Poissons Ratio (y) = 0.05483 0.10235
# Poissons Ratio (z) = 0.15690 0.19495
#
# Static dielectric constant tensor:
#      x y z
#    x 1.632070 -0.000930 0.012620 
#    y -0.000930 1.673200 0.031720 
#    z 0.012620 0.031720 1.666150 
# 
# From -- ./inp_files/44270.got.cif
#   From: 2010.05.17/outbox.cif.g08.bks.cpg/sg2_23_cif.got.tgz:44270.got - 2010.06.03 11:33:40.
