data_PCOD9094527
_publ_section_title
;
Structure prediction by ZEFSAII (Michael W. Deem and Ramdas Pophale) SiO2 
 PCOD9094527
Probable space group: P -1
;
_chemical_formula_sum "Si O2"
_cell_formula_units_Z 15
_cell_length_a 19.503132
_cell_length_b 9.367084
_cell_length_c 8.211997
_cell_angle_alpha 149.014217
_cell_angle_beta 115.817682
_cell_angle_gamma 61.255323
_cell_volume 676.282315
_symmetry_space_group_name_H-M "P -1"
_symmetry_group_IT_number 2
_symmetry_cell_setting 'triclinic'
loop_
_space_group_symop_operation_xyz
x,y,z
-x,-y,-z
loop_
_atom_site_type_symbol
_atom_site_label
_atom_site_fract_x
_atom_site_fract_y
_atom_site_fract_z
Si Si1 0.117797 0.389119 0.579691
Si Si2 0.000000 0.000000 0.000000
Si Si3 0.658499 0.227606 0.060347
Si Si4 0.240084 0.351093 0.410308
Si Si5 0.075063 0.132239 0.588574
Si Si6 0.499938 0.144980 0.966641
Si Si7 0.909575 0.392967 0.699064
Si Si8 0.441369 0.677993 0.248886
O O1 0.068213 0.194303 0.241884
O O2 0.200768 0.373086 0.567333
O O3 0.127778 0.243545 0.624481
O O4 0.068038 0.714368 0.847616
O O5 0.585361 0.196352 0.063389
O O6 0.635179 0.204767 0.824070
O O7 0.732789 0.975899 0.932203
O O8 0.683717 0.522007 0.396085
O O9 0.169954 0.528606 0.402648
O O10 0.985948 0.219059 0.506734
O O11 0.095166 0.811737 0.354290
O O12 0.072489 0.317887 0.930985
O O13 0.476458 0.928356 0.601744
O O14 0.440496 0.451099 0.170402
O O15 0.500000 0.000000 0.000000
O O16 0.500000 0.500000 0.000000
#
# Coordination Sequence:
#
# PCOD9094527 Si02
#       8
#     2   1   2   2   2   2   2   2
#     4  11  22  37  58  84 112 151 200 256 293 361
#     4  10  20  34  58  84 108 140 202 256 294 328
#     4  11  23  41  61  89 125 165 198 244 313 382
#     4  12  24  39  59  88 126 160 198 247 322 379
#     4  10  21  38  58  79 108 149 207 247 294 347
#     4  11  22  41  69  99 124 158 215 261 294 355
#     4  10  21  37  57  81 112 154 191 248 304 356
#     4  10  20  40  67  92 125 164 206 250 297 361
#
# _framework density 22.180084999999998
#
# number of rings (size 3 to 8) (size 9 to 14) (size 15 to 20)
#    0.000    1.333    0.000    8.400    0.000    4.267 
#    0.000    8.000    0.000    0.000    0.000    0.000 
#    0.000    0.000    0.000    0.000    0.000    0.000 
#
# Total GULP energy -83612.120504 kJ/mol
# GULP energy per Si atom -5574.141367 kJ/mol
# Density = 2.212960 g / cm^3
# Si number density = 22.180085 Si / 1000 Ang^3
#
#
#
# Elastic Constant Matrix: (Units=GPa)
#
#
# Indices 1 2 3 4 5 6 
#
# 1 60.2750 38.5769 3.9749 6.4921 13.3713 9.1610
# 2 38.5769 111.6953 1.2240 18.0197 9.7435 12.9961
# 3 3.9749 1.2240 85.2078 20.8282 22.9105 1.0754
# 4 6.4921 18.0197 20.8282 38.3586 -1.3258 6.4931
# 5 13.3713 9.7435 22.9105 -1.3258 24.4289 5.8254
# 6 9.1610 12.9961 1.0754 6.4931 5.8254 32.0459
#
#
#
# Elastic Compliance Matrix: (Units=1/GPa)
#
#
# Indices 1 2 3 4 5 6 
#
# 1 0.024097 -0.006515 0.003435 -0.003147 -0.013689 -0.001236
# 2 -0.006515 0.012706 0.002789 -0.006294 -0.004136 -0.001357
# 3 0.003435 0.002789 0.022307 -0.015757 -0.025973 0.005053
# 4 -0.003147 -0.006294 -0.015757 0.040341 0.023206 -0.008411
# 5 -0.013689 -0.004136 -0.025973 0.023206 0.078687 -0.012544
# 6 -0.001236 -0.001357 0.005053 -0.008411 -0.012544 0.035924
#
#
# Mechanical properties :
#
#
# Convention : Reuss Voigt Hill
#
# Bulk Modulus (GPa) = 17.08525 38.30329 27.69427
# Shear Modulus (GPa) = 21.35350 33.19350 27.27350
#
# Velocity S-wave (km/s) = 3.10616 3.87272 3.51043
# Velocity P-wave (km/s) = 4.53696 6.10770 5.37996
#
# Compressibility (1/GPa) = 0.05853000
#
# Stress axis : x y z
#
# Youngs Moduli (GPa) = 41.49888 78.70007 44.82837
#
# Poissons Ratio (x) = 0.51269 -0.15399
# Poissons Ratio (y) = 0.27035 -0.12503
# Poissons Ratio (z) = -0.14255 -0.21951
#
# Static dielectric constant tensor:
#      x y z
#    x 1.787440 -0.043510 0.014760 
#    y -0.043510 1.799630 0.034630 
#    z 0.014760 0.034630 1.764680 
# 
# From -- ./inp_files/343996.got.cif
#   From: 2010.05.17/outbox.cif.g08.bks.cpg/sg2_172_cif.got.tgz:343996.got - 2010.06.03 11:33:40.
