data_PCOD9094706
_publ_section_title
;
Structure prediction by ZEFSAII (Michael W. Deem and Ramdas Pophale) SiO2 
 PCOD9094706
Probable space group: P -1
;
_chemical_formula_sum "Si O2"
_cell_formula_units_Z 16
_cell_length_a 13.764794
_cell_length_b 8.960146
_cell_length_c 12.209119
_cell_angle_alpha 98.652650
_cell_angle_beta 146.265763
_cell_angle_gamma 94.814255
_cell_volume 764.449895
_symmetry_space_group_name_H-M "P -1"
_symmetry_group_IT_number 2
_symmetry_cell_setting 'triclinic'
loop_
_space_group_symop_operation_xyz
x,y,z
-x,-y,-z
loop_
_atom_site_type_symbol
_atom_site_label
_atom_site_fract_x
_atom_site_fract_y
_atom_site_fract_z
Si Si1 0.096402 0.031537 0.975400
Si Si2 0.567811 0.303482 0.013598
Si Si3 0.176840 0.873063 0.702877
Si Si4 0.300126 0.386305 0.254590
Si Si5 0.772888 0.634565 0.368575
Si Si6 0.019923 0.121451 0.690453
Si Si7 0.065057 0.328023 0.248250
Si Si8 0.201779 0.491982 0.946106
O O1 0.275641 0.202497 0.173571
O O2 0.974272 0.070534 0.768573
O O3 0.000000 0.000000 0.000000
O O4 0.097370 0.855522 0.924271
O O5 0.640139 0.161145 0.095195
O O6 0.665942 0.447731 0.210385
O O7 0.651657 0.381183 0.983316
O O8 0.348010 0.272370 0.791738
O O9 0.990575 0.711445 0.541960
O O10 0.152651 0.901262 0.554989
O O11 0.136259 0.015019 0.744648
O O12 0.500000 0.500000 0.500000
O O13 0.154758 0.361273 0.215792
O O14 0.262148 0.478970 0.125003
O O15 0.785506 0.659935 0.514159
O O16 0.148419 0.311692 0.829248
O O17 0.978914 0.459618 0.213354
#
# Coordination Sequence:
#
# PCOD9094706 Si02
#       8
#     2   2   2   2   2   2   2   2
#     4   9  19  36  61  84 113 158 202 238 303 364
#     4  11  22  36  59  92 116 163 202 247 300 366
#     4  11  20  38  60  81 124 158 198 242 304 356
#     4  10  22  38  58  89 122 154 198 261 304 353
#     4  11  21  35  62  85 121 155 206 244 296 361
#     4  10  20  34  60  85 113 160 196 249 299 349
#     4  11  20  38  64  86 115 165 207 243 303 369
#     4  11  20  36  62  84 119 154 205 246 301 361
#
# _framework density 20.930081999999999
#
# number of rings (size 3 to 8) (size 9 to 14) (size 15 to 20)
#    0.000    1.500    3.750    2.250    0.000    0.000 
#    0.000    3.125   11.000    0.000    0.000    0.000 
#    0.000    0.000    0.000    0.000    0.000    0.000 
#
# Total GULP energy -89296.179661 kJ/mol
# GULP energy per Si atom -5581.011229 kJ/mol
# Density = 2.088244 g / cm^3
# Si number density = 20.930082 Si / 1000 Ang^3
#
#
#
# Elastic Constant Matrix: (Units=GPa)
#
#
# Indices 1 2 3 4 5 6 
#
# 1 68.0592 22.6346 31.2004 -14.5034 -27.9284 15.5489
# 2 22.6346 104.6506 55.0685 -14.8376 -8.3560 6.3702
# 3 31.2004 55.0685 108.5743 -16.2053 -19.6541 -5.1878
# 4 -14.5034 -14.8376 -16.2053 34.1133 2.5440 1.5308
# 5 -27.9284 -8.3560 -19.6541 2.5440 37.7405 -9.0289
# 6 15.5489 6.3702 -5.1878 1.5308 -9.0289 34.3381
#
#
#
# Elastic Compliance Matrix: (Units=1/GPa)
#
#
# Indices 1 2 3 4 5 6 
#
# 1 0.026622 -0.000900 -0.003657 0.008478 0.014896 -0.008902
# 2 -0.000900 0.013860 -0.006988 0.002680 -0.002365 -0.003961
# 3 -0.003657 -0.006988 0.015356 0.002021 0.005172 0.006542
# 4 0.008478 0.002680 0.002021 0.034905 0.004514 -0.004400
# 5 0.014896 -0.002365 0.005172 0.004514 0.040567 0.004941
# 6 -0.008902 -0.003961 0.006542 -0.004400 0.004941 0.036371
#
#
# Mechanical properties :
#
#
# Convention : Reuss Voigt Hill
#
# Bulk Modulus (GPa) = 30.53753 55.45457 42.99605
# Shear Modulus (GPa) = 24.79062 32.73041 28.76052
#
# Velocity S-wave (km/s) = 3.44532 3.95878 3.71094
# Velocity P-wave (km/s) = 5.51805 6.88829 6.24089
#
# Compressibility (1/GPa) = 0.03274660
#
# Stress axis : x y z
#
# Youngs Moduli (GPa) = 37.56304 72.15059 65.12008
#
# Poissons Ratio (x) = 0.06496 0.23815
# Poissons Ratio (y) = 0.03382 0.45508
# Poissons Ratio (z) = 0.13737 0.50421
#
# Static dielectric constant tensor:
#      x y z
#    x 1.780020 0.029910 -0.031530 
#    y 0.029910 1.803250 0.006710 
#    z -0.031530 0.006710 1.758140 
# 
# From -- ./inp_files/447576.got.cif
#   From: 2010.05.17/outbox.cif.g08.bks.cpg/sg2_224_cif.got.tgz:447576.got - 2010.06.03 11:33:40.
