data_PCOD9094662
_publ_section_title
;
Structure prediction by ZEFSAII (Michael W. Deem and Ramdas Pophale) SiO2 
 PCOD9094662
Probable space group: P -1
;
_chemical_formula_sum "Si O2"
_cell_formula_units_Z 14
_cell_length_a 15.009527
_cell_length_b 9.650396
_cell_length_c 11.743986
_cell_angle_alpha 66.623526
_cell_angle_beta 125.756120
_cell_angle_gamma 67.599719
_cell_volume 720.112410
_symmetry_space_group_name_H-M "P -1"
_symmetry_group_IT_number 2
_symmetry_cell_setting 'triclinic'
loop_
_space_group_symop_operation_xyz
x,y,z
-x,-y,-z
loop_
_atom_site_type_symbol
_atom_site_label
_atom_site_fract_x
_atom_site_fract_y
_atom_site_fract_z
Si Si1 0.595650 0.898816 0.479797
Si Si2 0.117963 0.827130 0.308507
Si Si3 0.034203 0.713759 0.071321
Si Si4 0.370234 0.882763 0.270901
Si Si5 0.448964 0.540489 0.284067
Si Si6 0.815866 0.227986 0.369287
Si Si7 0.487674 0.685288 0.821481
O O1 0.808221 0.587268 0.744907
O O2 0.464608 0.934050 0.294022
O O3 0.500000 0.000000 0.500000
O O4 0.587488 0.074545 0.365644
O O5 0.083405 0.734494 0.222750
O O6 0.334692 0.639307 0.507634
O O7 0.111202 0.797059 0.445692
O O8 0.984132 0.123152 0.081433
O O9 0.822129 0.882977 0.874699
O O10 0.330291 0.812054 0.160950
O O11 0.528357 0.617699 0.554563
O O12 0.404306 0.526717 0.131611
O O13 0.693538 0.211112 0.305864
O O14 0.649455 0.519695 0.093190
O O15 0.000000 0.000000 0.500000
#
# Coordination Sequence:
#
# PCOD9094662 Si02
#       7
#     2   2   2   2   2   2   2
#     4  12  24  38  60  94 133 159 189 258 326 360
#     4   9  19  38  62  91 118 154 212 256 288 362
#     4  10  22  36  60  94 124 154 201 255 307 362
#     4  10  20  34  59  90 120 160 193 246 313 362
#     4   9  17  36  60  86 121 156 204 245 298 364
#     4  10  23  40  65  89 117 167 212 249 293 362
#     4  10  23  41  60  91 123 159 207 253 301 364
#
# _framework density 19.441407999999999
#
# number of rings (size 3 to 8) (size 9 to 14) (size 15 to 20)
#    0.000    2.000    2.857    0.000    6.000    1.714 
#    0.000    0.714    0.000    1.714    0.000    0.000 
#    0.000    0.000    0.000    0.000    0.000    0.000 
#
# Total GULP energy -78156.250086 kJ/mol
# GULP energy per Si atom -5582.589292 kJ/mol
# Density = 1.939716 g / cm^3
# Si number density = 19.441408 Si / 1000 Ang^3
#
#
#
# Elastic Constant Matrix: (Units=GPa)
#
#
# Indices 1 2 3 4 5 6 
#
# 1 73.0579 33.6538 25.6480 -16.8949 -8.0578 -9.3124
# 2 33.6538 85.8702 45.0336 -17.8996 -9.4855 -14.1710
# 3 25.6480 45.0336 90.5034 -14.1316 -7.0424 -13.5228
# 4 -16.8949 -17.8996 -14.1316 42.5881 -7.8512 -2.7261
# 5 -8.0578 -9.4855 -7.0424 -7.8512 27.1169 3.0435
# 6 -9.3124 -14.1710 -13.5228 -2.7261 3.0435 31.4228
#
#
#
# Elastic Compliance Matrix: (Units=1/GPa)
#
#
# Indices 1 2 3 4 5 6 
#
# 1 0.018488 -0.004159 -0.001324 0.006298 0.005173 0.003079
# 2 -0.004159 0.019050 -0.006390 0.005420 0.004820 0.004612
# 3 -0.001324 -0.006390 0.015664 0.002540 0.001780 0.003515
# 4 0.006298 0.005420 0.002540 0.031920 0.012892 0.006925
# 5 0.005173 0.004820 0.001780 0.012892 0.044148 0.001315
# 6 0.003079 0.004612 0.003515 0.006925 0.001315 0.036803
#
#
# Mechanical properties :
#
#
# Convention : Reuss Voigt Hill
#
# Bulk Modulus (GPa) = 33.94854 50.90027 42.42441
# Shear Modulus (GPa) = 25.04547 29.89861 27.47204
#
# Velocity S-wave (km/s) = 3.59312 3.92584 3.76316
# Velocity P-wave (km/s) = 5.89185 6.84016 6.38364
#
# Compressibility (1/GPa) = 0.02945635
#
# Stress axis : x y z
#
# Youngs Moduli (GPa) = 54.09003 52.49344 63.83883
#
# Poissons Ratio (x) = 0.21832 0.08452
# Poissons Ratio (y) = 0.22496 0.40793
# Poissons Ratio (z) = 0.07161 0.33543
#
# Static dielectric constant tensor:
#      x y z
#    x 1.691430 -0.008670 0.030420 
#    y -0.008670 1.714120 0.027690 
#    z 0.030420 0.027690 1.702900 
# 
# From -- ./inp_files/261108.got.cif
#   From: 2010.05.17/outbox.cif.g08.bks.cpg/sg2_131_cif.got.tgz:261108.got - 2010.06.03 11:33:40.
