data_PCOD9094212
_publ_section_title
;
Structure prediction by ZEFSAII (Michael W. Deem and Ramdas Pophale) SiO2 
 PCOD9094212
Probable space group: P -1
;
_chemical_formula_sum "Si O2"
_cell_formula_units_Z 16
_cell_length_a 8.762572
_cell_length_b 9.237238
_cell_length_c 11.660161
_cell_angle_alpha 55.018845
_cell_angle_beta 107.762553
_cell_angle_gamma 92.869641
_cell_volume 726.941044
_symmetry_space_group_name_H-M "P -1"
_symmetry_group_IT_number 2
_symmetry_cell_setting 'triclinic'
loop_
_space_group_symop_operation_xyz
x,y,z
-x,-y,-z
loop_
_atom_site_type_symbol
_atom_site_label
_atom_site_fract_x
_atom_site_fract_y
_atom_site_fract_z
Si Si1 0.572257 0.020026 0.176438
Si Si2 0.146439 0.270245 0.735355
Si Si3 0.364247 0.710332 0.275418
Si Si4 0.010887 0.801424 0.053420
Si Si5 0.466602 0.596873 0.114693
Si Si6 0.898809 0.347542 0.080743
Si Si7 0.798806 0.338354 0.511608
Si Si8 0.722210 0.247880 0.289852
O O1 0.719175 0.893800 0.201216
O O2 0.431757 0.898960 0.212270
O O3 0.488875 0.796828 0.990015
O O4 0.645203 0.092245 0.277696
O O5 0.183938 0.461615 0.615763
O O6 0.120388 0.278144 0.863967
O O7 0.972163 0.256157 0.644996
O O8 0.188044 0.713378 0.176381
O O9 0.470322 0.596156 0.254038
O O10 0.336400 0.652423 0.424331
O O11 0.014853 0.803363 0.916866
O O12 0.000000 0.000000 0.000000
O O13 0.286291 0.587878 0.031281
O O14 0.591057 0.430726 0.172822
O O15 0.877546 0.283262 0.233863
O O16 0.000000 0.500000 0.000000
O O17 0.764381 0.225530 0.443224
#
# Coordination Sequence:
#
# PCOD9094212 Si02
#       8
#     2   2   2   2   2   2   2   2
#     4  11  22  38  61  89 116 149 192 243 296 337
#     4  10  21  40  63  83 115 155 195 240 283 340
#     4  10  22  38  59  85 113 152 201 238 275 345
#     4  10  20  36  59  87 113 144 192 243 286 333
#     4  10  22  40  60  86 119 151 190 241 295 341
#     4  10  20  34  55  84 113 144 185 230 284 339
#     4  10  23  41  59  84 116 158 197 231 286 345
#     4  11  23  39  58  85 124 154 183 235 296 352
#
# _framework density 22.010035999999999
#
# number of rings (size 3 to 8) (size 9 to 14) (size 15 to 20)
#    0.000    1.750    0.000    5.625    0.000    7.000 
#    0.000    0.000    0.000    1.500    0.000    0.000 
#    0.000    0.000    0.000    0.000    0.000    0.000 
#
# Total GULP energy -89297.186309 kJ/mol
# GULP energy per Si atom -5581.074144 kJ/mol
# Density = 2.195994 g / cm^3
# Si number density = 22.010036 Si / 1000 Ang^3
#
#
#
# Elastic Constant Matrix: (Units=GPa)
#
#
# Indices 1 2 3 4 5 6 
#
# 1 88.4258 35.5374 33.4605 1.2620 -26.0341 -5.6163
# 2 35.5374 96.0843 3.2967 15.5939 -24.5640 -13.1854
# 3 33.4605 3.2967 65.4109 19.3806 -30.9759 -4.9704
# 4 1.2620 15.5939 19.3806 47.0054 -5.5490 -8.6016
# 5 -26.0341 -24.5640 -30.9759 -5.5490 47.2252 1.4844
# 6 -5.6163 -13.1854 -4.9704 -8.6016 1.4844 44.0774
#
#
#
# Elastic Compliance Matrix: (Units=1/GPa)
#
#
# Indices 1 2 3 4 5 6 
#
# 1 0.018360 -0.007538 -0.011095 0.006569 -0.000309 0.000126
# 2 -0.007538 0.017421 0.010832 -0.008106 0.010948 0.003522
# 3 -0.011095 0.010832 0.034632 -0.014767 0.020431 0.002162
# 4 0.006569 -0.008106 -0.014767 0.029565 -0.006894 0.002748
# 5 -0.000309 0.010948 0.020431 -0.006894 0.039200 0.002874
# 6 0.000126 0.003522 0.002162 0.002748 0.002874 0.024440
#
#
# Mechanical properties :
#
#
# Convention : Reuss Voigt Hill
#
# Bulk Modulus (GPa) = 18.24421 43.83447 31.03934
# Shear Modulus (GPa) = 25.31767 39.50336 32.41051
#
# Velocity S-wave (km/s) = 3.39525 4.24109 3.84152
# Velocity P-wave (km/s) = 4.86594 6.62883 5.81458
#
# Compressibility (1/GPa) = 0.05481191
#
# Stress axis : x y z
#
# Youngs Moduli (GPa) = 54.46672 57.40060 28.87481
#
# Poissons Ratio (x) = 0.43266 0.32036
# Poissons Ratio (y) = 0.41055 -0.31276
# Poissons Ratio (z) = 0.60430 -0.62174
#
# Static dielectric constant tensor:
#      x y z
#    x 1.770890 0.005150 0.008140 
#    y 0.005150 1.824020 0.018430 
#    z 0.008140 0.018430 1.847850 
# 
# From -- ./inp_files/378029.got.cif
#   From: 2010.05.17/outbox.cif.g08.bks.cpg/sg2_190_cif.got.tgz:378029.got - 2010.06.03 11:33:40.
