data_PCOD9094365
_publ_section_title
;
Structure prediction by ZEFSAII (Michael W. Deem and Ramdas Pophale) SiO2 
 PCOD9094365
Probable space group: P -1
;
_chemical_formula_sum "Si O2"
_cell_formula_units_Z 16
_cell_length_a 10.145613
_cell_length_b 10.912017
_cell_length_c 8.524316
_cell_angle_alpha 61.023700
_cell_angle_beta 50.176395
_cell_angle_gamma 77.495705
_cell_volume 627.863788
_symmetry_space_group_name_H-M "P -1"
_symmetry_group_IT_number 2
_symmetry_cell_setting 'triclinic'
loop_
_space_group_symop_operation_xyz
x,y,z
-x,-y,-z
loop_
_atom_site_type_symbol
_atom_site_label
_atom_site_fract_x
_atom_site_fract_y
_atom_site_fract_z
Si Si1 0.465934 0.605300 0.825117
Si Si2 0.142647 0.213310 0.146963
Si Si3 0.769880 0.068378 0.855620
Si Si4 0.408893 0.890916 0.354306
Si Si5 0.400131 0.359386 0.598218
Si Si6 0.079418 0.473270 0.198806
Si Si7 0.038199 0.296543 0.661558
Si Si8 0.301276 0.142933 0.410327
O O1 0.622471 0.592811 0.591437
O O2 0.514678 0.762426 0.758394
O O3 0.500000 0.500000 0.000000
O O4 0.271222 0.546613 0.959169
O O5 0.028226 0.338496 0.204190
O O6 0.237959 0.186191 0.257479
O O7 0.104283 0.051093 0.210591
O O8 0.267722 0.287659 0.870627
O O9 0.708423 0.127999 0.700136
O O10 0.859839 0.194943 0.815636
O O11 0.591865 0.985545 0.111487
O O12 0.460319 0.747865 0.467002
O O13 0.317395 0.979625 0.493186
O O14 0.500000 0.500000 0.500000
O O15 0.978518 0.606575 0.232848
O O16 0.079985 0.397325 0.415326
O O17 0.171595 0.181706 0.619348
#
# Coordination Sequence:
#
# PCOD9094365 Si02
#       8
#     2   2   2   2   2   2   2   2
#     4  12  21  37  64  91 117 156 199 257 298 356
#     4   9  18  36  57  88 119 152 193 248 295 352
#     4   9  18  35  62  88 122 157 203 244 299 358
#     4   9  20  36  58  91 116 156 203 250 296 360
#     4  11  21  36  61  89 122 152 195 255 312 346
#     4  10  20  34  56  88 124 152 204 241 296 350
#     4  10  20  34  58  92 120 166 198 246 293 353
#     4  10  20  37  60  90 125 154 210 240 294 360
#
# _framework density 25.483236999999999
#
# number of rings (size 3 to 8) (size 9 to 14) (size 15 to 20)
#    0.000    2.000    3.750    1.500    0.000    6.000 
#    0.000    0.000    0.000   11.250    0.000    0.000 
#    0.000    0.000    0.000    0.000    0.000    0.000 
#
# Total GULP energy -89246.006845 kJ/mol
# GULP energy per Si atom -5577.875428 kJ/mol
# Density = 2.542524 g / cm^3
# Si number density = 25.483237 Si / 1000 Ang^3
#
#
#
# Elastic Constant Matrix: (Units=GPa)
#
#
# Indices 1 2 3 4 5 6 
#
# 1 39.0466 26.8985 13.9291 -2.7759 -11.6912 2.0978
# 2 26.8985 151.2618 21.4544 31.0926 4.2044 -8.8746
# 3 13.9291 21.4544 101.6758 12.1552 -5.7863 -5.3098
# 4 -2.7759 31.0926 12.1552 43.9778 2.1043 -7.0043
# 5 -11.6912 4.2044 -5.7863 2.1043 31.9528 6.8147
# 6 2.0978 -8.8746 -5.3098 -7.0043 6.8147 19.7904
#
#
#
# Elastic Compliance Matrix: (Units=1/GPa)
#
#
# Indices 1 2 3 4 5 6 
#
# 1 0.039810 -0.009236 -0.004062 0.007295 0.017301 -0.012827
# 2 -0.009236 0.010071 -0.000113 -0.006626 -0.005347 0.004961
# 3 -0.004062 -0.000113 0.010883 -0.002841 0.000213 0.002221
# 4 0.007295 -0.006626 -0.002841 0.029645 -0.000218 0.006060
# 5 0.017301 -0.005347 0.000213 -0.000218 0.042404 -0.018853
# 6 -0.012827 0.004961 0.002221 0.006060 -0.018853 0.063347
#
#
# Mechanical properties :
#
#
# Convention : Reuss Voigt Hill
#
# Bulk Modulus (GPa) = 29.46188 46.28314 37.87251
# Shear Modulus (GPa) = 21.34046 34.45768 27.89907
#
# Velocity S-wave (km/s) = 2.89698 3.68118 3.31237
# Velocity P-wave (km/s) = 4.77246 6.02243 5.43351
#
# Compressibility (1/GPa) = 0.03394217
#
# Stress axis : x y z
#
# Youngs Moduli (GPa) = 25.11924 99.29283 91.88430
#
# Poissons Ratio (x) = 0.91708 0.37326
# Poissons Ratio (y) = 0.23200 0.01037
# Poissons Ratio (z) = 0.10204 0.01121
#
# Static dielectric constant tensor:
#      x y z
#    x 2.449930 0.122350 -0.071610 
#    y 0.122350 2.378160 -0.255160 
#    z -0.071610 -0.255160 2.382870 
# 
# From -- ./inp_files/261966.got.cif
#   From: 2010.05.17/outbox.cif.g08.bks.cpg/sg2_131_cif.got.tgz:261966.got - 2010.06.03 11:33:40.
