data_PCOD9094500
_publ_section_title
;
Structure prediction by ZEFSAII (Michael W. Deem and Ramdas Pophale) SiO2 
 PCOD9094500
Probable space group: P -1
;
_chemical_formula_sum "Si O2"
_cell_formula_units_Z 16
_cell_length_a 7.811341
_cell_length_b 11.311383
_cell_length_c 14.650857
_cell_angle_alpha 143.032430
_cell_angle_beta 124.450939
_cell_angle_gamma 71.532810
_cell_volume 617.607243
_symmetry_space_group_name_H-M "P -1"
_symmetry_group_IT_number 2
_symmetry_cell_setting 'triclinic'
loop_
_space_group_symop_operation_xyz
x,y,z
-x,-y,-z
loop_
_atom_site_type_symbol
_atom_site_label
_atom_site_fract_x
_atom_site_fract_y
_atom_site_fract_z
Si Si1 0.722228 0.946111 0.797900
Si Si2 0.725325 0.329687 0.500011
Si Si3 0.381415 0.365828 0.712850
Si Si4 0.989200 0.982475 0.594385
Si Si5 0.746223 0.403784 0.354768
Si Si6 0.832590 0.638518 0.993954
Si Si7 0.796457 0.980643 0.055211
Si Si8 0.881129 0.420768 0.111207
O O1 0.498379 0.801146 0.603838
O O2 0.941812 0.923815 0.805421
O O3 0.738298 0.918910 0.895020
O O4 0.746013 0.187446 0.942669
O O5 0.664796 0.417345 0.440888
O O6 0.899364 0.503562 0.714619
O O7 0.861433 0.163297 0.419702
O O8 0.323409 0.476667 0.674403
O O9 0.635562 0.449218 0.845546
O O10 0.270498 0.444004 0.815139
O O11 0.257009 0.128834 0.521587
O O12 0.076857 0.199336 0.800180
O O13 0.000000 0.000000 0.500000
O O14 0.700767 0.164990 0.168785
O O15 0.000000 0.500000 0.500000
O O16 0.016433 0.570924 0.952486
O O17 0.750121 0.785134 0.986200
#
# Coordination Sequence:
#
# PCOD9094500 Si02
#       8
#     2   2   2   2   2   2   2   2
#     4  10  20  36  58  89 138 169 200 257 315 377
#     4  11  22  39  64  91 129 172 210 261 321 381
#     4  11  23  42  68  94 134 170 212 264 320 389
#     4  11  25  45  68  94 123 166 223 274 320 379
#     4  12  19  35  60  92 132 169 206 251 319 376
#     4  11  23  41  66  93 127 174 210 263 325 380
#     4  10  20  34  57  96 131 168 209 250 310 395
#     4  10  22  38  59  95 129 160 217 259 308 382
#
# _framework density 25.906433
#
# number of rings (size 3 to 8) (size 9 to 14) (size 15 to 20)
#    0.000    1.250    5.000    1.500    0.000    4.500 
#    0.000    9.375    0.000   12.750    0.000    0.000 
#    0.000    0.000    0.000    0.000    0.000    0.000 
#
# Total GULP energy -89711.729264 kJ/mol
# GULP energy per Si atom -5606.983079 kJ/mol
# Density = 2.584747 g / cm^3
# Si number density = 25.906433 Si / 1000 Ang^3
#
#
#
# Elastic Constant Matrix: (Units=GPa)
#
#
# Indices 1 2 3 4 5 6 
#
# 1 97.3386 24.4030 35.2130 -14.8389 32.2678 20.7184
# 2 24.4030 78.6096 27.4299 5.6961 3.1337 7.0377
# 3 35.2130 27.4299 64.4982 3.3213 29.2106 9.2448
# 4 -14.8389 5.6961 3.3213 36.9849 13.9275 -3.6031
# 5 32.2678 3.1337 29.2106 13.9275 65.1088 9.9275
# 6 20.7184 7.0377 9.2448 -3.6031 9.9275 36.9403
#
#
#
# Elastic Compliance Matrix: (Units=1/GPa)
#
#
# Indices 1 2 3 4 5 6 
#
# 1 0.018585 -0.004320 -0.004193 0.011302 -0.008763 -0.005094
# 2 -0.004320 0.016817 -0.007004 -0.006056 0.005955 -0.001219
# 3 -0.004193 -0.007004 0.024732 0.000466 -0.008765 -0.000103
# 4 0.011302 -0.006056 0.000466 0.037930 -0.013960 0.002150
# 5 -0.008763 0.005955 -0.008765 -0.013960 0.026726 -0.002570
# 6 -0.005094 -0.001219 -0.000103 0.002150 -0.002570 0.031086
#
#
# Mechanical properties :
#
#
# Convention : Reuss Voigt Hill
#
# Bulk Modulus (GPa) = 34.36281 46.05980 40.21130
# Shear Modulus (GPa) = 25.43117 38.03350 31.73233
#
# Velocity S-wave (km/s) = 3.13654 3.83575 3.50363
# Velocity P-wave (km/s) = 5.13908 6.11843 5.65001
#
# Compressibility (1/GPa) = 0.02910123
#
# Stress axis : x y z
#
# Youngs Moduli (GPa) = 53.80578 59.46515 40.43326
#
# Poissons Ratio (x) = 0.25689 0.16953
# Poissons Ratio (y) = 0.23245 0.28318
# Poissons Ratio (z) = 0.22559 0.41647
#
# Static dielectric constant tensor:
#      x y z
#    x 2.028200 -0.004640 0.002260 
#    y -0.004640 2.123880 -0.035700 
#    z 0.002260 -0.035700 2.031860 
# 
# From -- ./inp_files/501032.got.cif
#   From: 2010.05.17/outbox.cif.g08.bks.cpg/sg2_251_cif.got.tgz:501032.got - 2010.06.03 11:33:40.
