data_PCOD9094087
_publ_section_title
;
Structure prediction by ZEFSAII (Michael W. Deem and Ramdas Pophale) SiO2 
 PCOD9094087
Probable space group: P -1
;
_chemical_formula_sum "Si O2"
_cell_formula_units_Z 12
_cell_length_a 14.184868
_cell_length_b 9.327875
_cell_length_c 4.970303
_cell_angle_alpha 67.709204
_cell_angle_beta 106.670239
_cell_angle_gamma 132.125357
_cell_volume 450.806224
_symmetry_space_group_name_H-M "P -1"
_symmetry_group_IT_number 2
_symmetry_cell_setting 'triclinic'
loop_
_space_group_symop_operation_xyz
x,y,z
-x,-y,-z
loop_
_atom_site_type_symbol
_atom_site_label
_atom_site_fract_x
_atom_site_fract_y
_atom_site_fract_z
Si Si1 0.543571 0.784533 0.786236
Si Si2 0.115017 0.915665 0.246164
Si Si3 0.669668 0.764487 0.432385
Si Si4 0.113137 0.189452 0.642058
Si Si5 0.690824 0.246749 0.396599
Si Si6 0.148310 0.663044 0.065050
O O1 0.566163 0.677470 0.649320
O O2 0.400697 0.699608 0.778515
O O3 0.608623 0.010620 0.574887
O O4 0.608474 0.785108 0.108654
O O5 0.223505 0.709054 0.819581
O O6 0.213330 0.019706 0.496932
O O7 0.131775 0.095067 0.979461
O O8 0.148930 0.822590 0.121871
O O9 0.750316 0.689917 0.478876
O O10 0.029293 0.245707 0.655194
O O11 0.000000 0.000000 0.500000
O O12 0.776576 0.368960 0.638334
O O13 0.000000 0.500000 0.000000
#
# Coordination Sequence:
#
# PCOD9094087 Si02
#       6
#     2   2   2   2   2   2
#     4  11  21  34  60  83 119 149 181 252 291 340
#     4  10  20  34  53  84 119 149 188 236 285 350
#     4  11  18  33  52  87 116 145 175 232 308 345
#     4   9  18  31  55  82 120 141 183 242 295 345
#     4  11  23  39  54  85 113 154 203 230 285 337
#     4  12  25  41  58  80 121 164 193 228 274 348
#
# _framework density 26.618977000000001
#
# number of rings (size 3 to 8) (size 9 to 14) (size 15 to 20)
#    0.000    1.333    3.333    3.500    2.333    2.667 
#    0.000    0.000    0.000    0.000    0.000    7.000 
#    0.000    0.000    0.000    0.000    0.000    0.000 
#
# Total GULP energy -67079.758822 kJ/mol
# GULP energy per Si atom -5589.979902 kJ/mol
# Density = 2.655839 g / cm^3
# Si number density = 26.618977 Si / 1000 Ang^3
#
#
#
# Elastic Constant Matrix: (Units=GPa)
#
#
# Indices 1 2 3 4 5 6 
#
# 1 256.3453 46.3449 85.7825 21.4789 1.3767 30.0235
# 2 46.3449 62.8512 39.7288 5.5361 -2.7713 4.6036
# 3 85.7825 39.7288 183.7529 51.6171 -15.9235 5.4982
# 4 21.4789 5.5361 51.6171 28.0281 5.3070 0.5813
# 5 1.3767 -2.7713 -15.9235 5.3070 53.8976 9.0521
# 6 30.0235 4.6036 5.4982 0.5813 9.0521 36.8457
#
#
#
# Elastic Compliance Matrix: (Units=1/GPa)
#
#
# Indices 1 2 3 4 5 6 
#
# 1 0.005439 -0.002563 -0.001838 -0.000168 -0.000160 -0.003795
# 2 -0.002563 0.020694 -0.006083 0.009389 -0.001707 0.000682
# 3 -0.001838 -0.006083 0.016608 -0.029420 0.007819 -0.001677
# 4 -0.000168 0.009389 -0.029420 0.091464 -0.018286 0.006403
# 5 -0.000160 -0.001707 0.007819 -0.018286 0.023646 -0.006344
# 6 -0.003795 0.000682 -0.001677 0.006403 -0.006344 0.031856
#
#
# Mechanical properties :
#
#
# Convention : Reuss Voigt Hill
#
# Bulk Modulus (GPa) = 45.93211 94.07355 70.00283
# Shear Modulus (GPa) = 22.94301 45.82714 34.38508
#
# Velocity S-wave (km/s) = 2.93901 4.15371 3.59799
# Velocity P-wave (km/s) = 5.36748 7.64343 6.60423
#
# Compressibility (1/GPa) = 0.02177126
#
# Stress axis : x y z
#
# Youngs Moduli (GPa) = 183.86171 48.32428 60.21333
#
# Poissons Ratio (x) = 0.12385 0.11068
# Poissons Ratio (y) = 0.47121 0.36630
# Poissons Ratio (z) = 0.33797 0.29397
#
# Static dielectric constant tensor:
#      x y z
#    x 2.165880 -0.016420 0.012330 
#    y -0.016420 2.288100 -0.112090 
#    z 0.012330 -0.112090 2.106310 
# 
# From -- ./inp_files/92110.got.cif
#   From: 2010.05.17/outbox.cif.g08.bks.cpg/sg2_47_cif.got.tgz:92110.got - 2010.06.03 11:33:40.
