data_PCOD9094121
_publ_section_title
;
Structure prediction by ZEFSAII (Michael W. Deem and Ramdas Pophale) SiO2 
 PCOD9094121
Probable space group: P -1
;
_chemical_formula_sum "Si O2"
_cell_formula_units_Z 16
_cell_length_a 20.982630
_cell_length_b 21.286969
_cell_length_c 12.019529
_cell_angle_alpha 36.427920
_cell_angle_beta 152.644036
_cell_angle_gamma 160.782470
_cell_volume 791.144890
_symmetry_space_group_name_H-M "P -1"
_symmetry_group_IT_number 2
_symmetry_cell_setting 'triclinic'
loop_
_space_group_symop_operation_xyz
x,y,z
-x,-y,-z
loop_
_atom_site_type_symbol
_atom_site_label
_atom_site_fract_x
_atom_site_fract_y
_atom_site_fract_z
Si Si1 0.591210 0.799653 0.646689
Si Si2 0.547442 0.354353 0.734981
Si Si3 0.893173 0.048846 0.281157
Si Si4 0.526819 0.986304 0.189063
Si Si5 0.118627 0.212567 0.961383
Si Si6 0.042899 0.330292 0.240106
Si Si7 0.916967 0.626348 0.493285
Si Si8 0.820874 0.685899 0.845876
O O1 0.570344 0.889000 0.409780
O O2 0.319243 0.604636 0.562027
O O3 0.674203 0.748294 0.781006
O O4 0.834728 0.978665 0.848525
O O5 0.381755 0.147747 0.809378
O O6 0.690122 0.499434 0.854454
O O7 0.360453 0.328105 0.438380
O O8 0.753037 0.466494 0.796924
O O9 0.075510 0.231462 0.387372
O O10 0.000000 0.000000 0.500000
O O11 0.925360 0.127101 0.101092
O O12 0.244300 0.828522 0.022110
O O13 0.789372 0.208441 0.324096
O O14 0.500000 0.000000 0.000000
O O15 0.151419 0.308999 0.768080
O O16 0.140607 0.292559 0.994193
O O17 0.066211 0.351752 0.377679
#
# Coordination Sequence:
#
# PCOD9094121 Si02
#       8
#     2   2   2   2   2   2   2   2
#     4  10  21  35  52  79 110 149 185 211 266 327
#     4   9  18  32  53  78 104 138 175 216 272 322
#     4   9  19  32  51  78 104 135 175 221 271 315
#     4   9  21  36  51  77 111 144 183 227 262 313
#     4  10  21  35  54  82 116 143 176 224 265 321
#     4  10  20  34  54  80 111 139 174 226 270 315
#     4  10  21  36  55  82 113 146 181 217 267 326
#     4   9  18  33  51  79 110 134 170 222 270 317
#
# _framework density 20.223855
#
# number of rings (size 3 to 8) (size 9 to 14) (size 15 to 20)
#    0.000    2.500    0.000    1.875    0.000   15.000 
#    0.000    0.000    0.000   12.000    0.000   14.000 
#    0.000    0.000    0.000    0.000    0.000    0.000 
#
# Total GULP energy -89187.964664 kJ/mol
# GULP energy per Si atom -5574.247792 kJ/mol
# Density = 2.017782 g / cm^3
# Si number density = 20.223855 Si / 1000 Ang^3
#
#
#
# Elastic Constant Matrix: (Units=GPa)
#
#
# Indices 1 2 3 4 5 6 
#
# 1 64.2207 13.5423 13.7784 8.3966 -13.1014 17.8924
# 2 13.5423 123.8450 28.5324 16.7869 -3.4442 37.5606
# 3 13.7784 28.5324 64.0423 6.6223 3.5074 11.5029
# 4 8.3966 16.7869 6.6223 24.3683 1.0997 6.2386
# 5 -13.1014 -3.4442 3.5074 1.0997 18.0185 7.7635
# 6 17.8924 37.5606 11.5029 6.2386 7.7635 33.4652
#
#
#
# Elastic Compliance Matrix: (Units=1/GPa)
#
#
# Indices 1 2 3 4 5 6 
#
# 1 0.038350 0.013686 -0.008265 -0.011773 0.051232 -0.042715
# 2 0.013686 0.020232 -0.006685 -0.009779 0.029863 -0.032832
# 3 -0.008265 -0.006685 0.019590 0.000620 -0.014804 0.008508
# 4 -0.011773 -0.009779 0.000620 0.049383 -0.018829 0.012219
# 5 0.051232 0.029863 -0.014804 -0.018829 0.138912 -0.084536
# 6 -0.042715 -0.032832 0.008508 0.012219 -0.084536 0.103979
#
#
# Mechanical properties :
#
#
# Convention : Reuss Voigt Hill
#
# Bulk Modulus (GPa) = 13.21987 40.42380 26.82184
# Shear Modulus (GPa) = 12.55686 28.25406 20.40546
#
# Velocity S-wave (km/s) = 2.49448 3.74179 3.17989
# Velocity P-wave (km/s) = 3.85325 6.22090 5.17431
#
# Compressibility (1/GPa) = 0.07564373
#
# Stress axis : x y z
#
# Youngs Moduli (GPa) = 26.07548 49.42722 51.04666
#
# Poissons Ratio (x) = -0.67646 0.42188
# Poissons Ratio (y) = -0.35687 0.34127
# Poissons Ratio (z) = 0.21550 0.33045
#
# Static dielectric constant tensor:
#      x y z
#    x 1.766400 0.022970 0.056610 
#    y 0.022970 1.763200 0.042540 
#    z 0.056610 0.042540 1.735370 
# 
# From -- ./inp_files/431771.got.cif
#   From: 2010.05.17/outbox.cif.g08.bks.cpg/sg2_216_cif.got.tgz:431771.got - 2010.06.03 11:33:40.
