data_PCOD9094208
_publ_section_title
;
Structure prediction by ZEFSAII (Michael W. Deem and Ramdas Pophale) SiO2 
 PCOD9094208
Probable space group: P -1
;
_chemical_formula_sum "Si O2"
_cell_formula_units_Z 14
_cell_length_a 19.640639
_cell_length_b 6.452783
_cell_length_c 9.685792
_cell_angle_alpha 48.066886
_cell_angle_beta 47.038971
_cell_angle_gamma 48.238392
_cell_volume 616.264074
_symmetry_space_group_name_H-M "P -1"
_symmetry_group_IT_number 2
_symmetry_cell_setting 'triclinic'
loop_
_space_group_symop_operation_xyz
x,y,z
-x,-y,-z
loop_
_atom_site_type_symbol
_atom_site_label
_atom_site_fract_x
_atom_site_fract_y
_atom_site_fract_z
Si Si1 0.468386 0.218440 0.155353
Si Si2 0.809568 0.939187 0.358556
Si Si3 0.829295 0.513009 0.011888
Si Si4 0.586018 0.218714 0.430660
Si Si5 0.637877 0.661673 0.011884
Si Si6 0.915922 0.796500 0.548535
Si Si7 0.093870 0.552990 0.778188
O O1 0.369649 0.291882 0.161950
O O2 0.447061 0.063750 0.391074
O O3 0.500000 0.500000 0.000000
O O4 0.556287 0.956379 0.066945
O O5 0.824942 0.883551 0.524541
O O6 0.858117 0.637011 0.338702
O O7 0.692754 0.118455 0.406306
O O8 0.868851 0.148150 0.128150
O O9 0.735858 0.598087 0.997639
O O10 0.892148 0.688908 0.777102
O O11 0.820452 0.570086 0.163463
O O12 0.500000 0.500000 0.500000
O O13 0.605912 0.372891 0.198354
O O14 0.000000 0.500000 0.500000
O O15 0.939262 0.096419 0.373612
O O16 0.000000 0.500000 0.000000
#
# Coordination Sequence:
#
# PCOD9094208 Si02
#       7
#     2   2   2   2   2   2   2
#     4  10  20  34  55  83 113 146 193 244 287 343
#     4  10  22  40  62  89 121 159 204 251 300 361
#     4  10  22  40  61  84 119 159 198 246 302 359
#     4   9  19  38  60  83 118 157 194 244 301 352
#     4   9  20  37  55  79 113 152 190 236 294 350
#     4  11  23  39  62  88 119 161 202 249 309 362
#     4  11  24  40  60  91 125 156 202 254 301 363
#
# _framework density 22.717537
#
# number of rings (size 3 to 8) (size 9 to 14) (size 15 to 20)
#    0.000    2.000    0.000    2.571    0.000    9.714 
#    0.000    5.714    0.000    0.000    0.000    0.000 
#    0.000    0.000    0.000    0.000    0.000    0.000 
#
# Total GULP energy -78007.136749 kJ/mol
# GULP energy per Si atom -5571.938339 kJ/mol
# Density = 2.266583 g / cm^3
# Si number density = 22.717537 Si / 1000 Ang^3
#
#
#
# Elastic Constant Matrix: (Units=GPa)
#
#
# Indices 1 2 3 4 5 6 
#
# 1 74.2781 16.1684 16.7891 -10.9365 4.3370 0.6657
# 2 16.1684 66.9800 37.4056 -34.9689 -5.7080 1.1303
# 3 16.7891 37.4056 154.4122 -49.2040 4.5933 15.5464
# 4 -10.9365 -34.9689 -49.2040 36.6599 4.8406 -6.5603
# 5 4.3370 -5.7080 4.5933 4.8406 37.8879 -3.4478
# 6 0.6657 1.1303 15.5464 -6.5603 -3.4478 29.9175
#
#
#
# Elastic Compliance Matrix: (Units=1/GPa)
#
#
# Indices 1 2 3 4 5 6 
#
# 1 0.014486 -0.002634 -0.000357 0.001634 -0.002215 0.000066
# 2 -0.002634 0.031822 0.003021 0.034399 0.000782 0.004920
# 3 -0.000357 0.003021 0.012322 0.019320 -0.003712 -0.002700
# 4 0.001634 0.034399 0.019320 0.088856 -0.008046 0.007182
# 5 -0.002215 0.000782 -0.003712 -0.008046 0.028559 0.003476
# 6 0.000066 0.004920 -0.002700 0.007182 0.003476 0.036617
#
#
# Mechanical properties :
#
#
# Convention : Reuss Voigt Hill
#
# Bulk Modulus (GPa) = 17.03921 48.48849 32.76385
# Shear Modulus (GPa) = 21.53633 35.91353 28.72493
#
# Velocity S-wave (km/s) = 3.08231 3.98033 3.55975
# Velocity P-wave (km/s) = 4.49269 6.52031 5.59905
#
# Compressibility (1/GPa) = 0.05868816
#
# Stress axis : x y z
#
# Youngs Moduli (GPa) = 69.03063 31.42517 81.15625
#
# Poissons Ratio (x) = 0.08279 0.02898
# Poissons Ratio (y) = 0.18185 -0.24514
# Poissons Ratio (z) = 0.02465 -0.09492
#
# Static dielectric constant tensor:
#      x y z
#    x 1.924360 0.008200 -0.046060 
#    y 0.008200 1.801810 -0.026140 
#    z -0.046060 -0.026140 1.885580 
# 
# From -- ./inp_files/39116.got.cif
#   From: 2010.05.17/outbox.cif.g08.bks.cpg/sg2_20_cif.got.tgz:39116.got - 2010.06.03 11:33:40.
