data_PCOD9094387
_publ_section_title
;
Structure prediction by ZEFSAII (Michael W. Deem and Ramdas Pophale) SiO2 
 PCOD9094387
Probable space group: P -1
;
_chemical_formula_sum "Si O2"
_cell_formula_units_Z 16
_cell_length_a 13.229666
_cell_length_b 10.766867
_cell_length_c 12.436266
_cell_angle_alpha 78.068744
_cell_angle_beta 70.695292
_cell_angle_gamma 29.973302
_cell_volume 823.247341
_symmetry_space_group_name_H-M "P -1"
_symmetry_group_IT_number 2
_symmetry_cell_setting 'triclinic'
loop_
_space_group_symop_operation_xyz
x,y,z
-x,-y,-z
loop_
_atom_site_type_symbol
_atom_site_label
_atom_site_fract_x
_atom_site_fract_y
_atom_site_fract_z
Si Si1 0.323409 0.224868 0.440622
Si Si2 0.249093 0.908685 0.238120
Si Si3 0.083343 0.806473 0.113038
Si Si4 0.625251 0.357946 0.273983
Si Si5 0.074361 0.964217 0.599053
Si Si6 0.422549 0.341221 0.228989
Si Si7 0.798100 0.035644 0.995713
Si Si8 0.918841 0.777568 0.549221
O O1 0.406694 0.222226 0.311979
O O2 0.211079 0.212586 0.441249
O O3 0.160284 0.482290 0.516517
O O4 0.500000 0.000000 0.500000
O O5 0.488882 0.613937 0.228927
O O6 0.214491 0.999769 0.115446
O O7 0.167676 0.079559 0.333375
O O8 0.100321 0.935098 0.290100
O O9 0.210115 0.593128 0.192192
O O10 0.222035 0.789491 0.040000
O O11 0.851903 0.091008 0.186732
O O12 0.017108 0.799949 0.028610
O O13 0.699853 0.305859 0.379466
O O14 0.478779 0.385483 0.295586
O O15 0.088578 0.101471 0.557755
O O16 0.000000 0.000000 0.500000
O O17 0.611738 0.165819 0.108148
#
# Coordination Sequence:
#
# PCOD9094387 Si02
#       8
#     2   2   2   2   2   2   2   2
#     4  11  24  45  64  82 109 158 217 253 288 339
#     4  11  22  37  58  92 127 155 187 243 308 364
#     4  10  20  34  56  92 129 160 187 233 296 360
#     4  11  19  32  58  88 124 154 192 232 300 360
#     4  10  21  36  55  86 122 156 189 239 299 356
#     4  11  22  37  63  89 122 156 203 247 288 348
#     4  10  21  34  58  95 127 156 189 235 302 368
#     4  10  24  41  60  82 116 156 204 251 293 348
#
# _framework density 19.435227000000001
#
# number of rings (size 3 to 8) (size 9 to 14) (size 15 to 20)
#    0.000    1.500    2.500    2.625    3.500    7.000 
#    0.000    0.625    0.000    1.500    0.000    0.000 
#    0.000    0.000    0.000    0.000    0.000    0.000 
#
# Total GULP energy -89179.732276 kJ/mol
# GULP energy per Si atom -5573.733267 kJ/mol
# Density = 1.939099 g / cm^3
# Si number density = 19.435227 Si / 1000 Ang^3
#
#
#
# Elastic Constant Matrix: (Units=GPa)
#
#
# Indices 1 2 3 4 5 6 
#
# 1 65.6479 44.7875 43.6955 -8.4822 0.4749 -9.4918
# 2 44.7875 99.2810 56.3134 -15.7955 1.1508 -23.2636
# 3 43.6955 56.3134 118.7632 -13.2121 -6.2909 -10.8437
# 4 -8.4822 -15.7955 -13.2121 32.6457 -3.8266 7.9457
# 5 0.4749 1.1508 -6.2909 -3.8266 36.6676 -10.8958
# 6 -9.4918 -23.2636 -10.8437 7.9457 -10.8958 31.6238
#
#
#
# Elastic Compliance Matrix: (Units=1/GPa)
#
#
# Indices 1 2 3 4 5 6 
#
# 1 0.024101 -0.008129 -0.005129 0.000358 -0.001199 -0.001007
# 2 -0.008129 0.019260 -0.004783 0.003069 0.001971 0.009997
# 3 -0.005129 -0.004783 0.012904 0.001933 0.002562 -0.000236
# 4 0.000358 0.003069 0.001933 0.034442 0.002399 -0.004799
# 5 -0.001199 0.001971 0.002562 0.002399 0.031552 0.012237
# 6 -0.001007 0.009997 -0.000236 -0.004799 0.012237 0.044014
#
#
# Mechanical properties :
#
#
# Convention : Reuss Voigt Hill
#
# Bulk Modulus (GPa) = 49.54240 63.69831 56.62036
# Shear Modulus (GPa) = 23.91388 29.44715 26.68051
#
# Velocity S-wave (km/s) = 3.51157 3.89671 3.70914
# Velocity P-wave (km/s) = 6.47980 7.28640 6.89491
#
# Compressibility (1/GPa) = 0.02018473
#
# Stress axis : x y z
#
# Youngs Moduli (GPa) = 41.49126 51.91980 77.49300
#
# Poissons Ratio (x) = 0.42204 0.39744
# Poissons Ratio (y) = 0.33727 0.37068
# Poissons Ratio (z) = 0.21280 0.24835
#
# Static dielectric constant tensor:
#      x y z
#    x 1.705780 -0.027730 0.058950 
#    y -0.027730 1.718190 0.020550 
#    z 0.058950 0.020550 1.784010 
# 
# From -- ./inp_files/531097.got.cif
#   From: 2010.05.17/outbox.cif.g08.bks.cpg/sg2_266_cif.got.tgz:531097.got - 2010.06.03 11:33:40.
