data_PCOD9094689
_publ_section_title
;
Structure prediction by ZEFSAII (Michael W. Deem and Ramdas Pophale) SiO2 
 PCOD9094689
Probable space group: P -1
;
_chemical_formula_sum "Si O2"
_cell_formula_units_Z 16
_cell_length_a 9.560017
_cell_length_b 22.584725
_cell_length_c 8.475265
_cell_angle_alpha 51.326184
_cell_angle_beta 148.691809
_cell_angle_gamma 130.005095
_cell_volume 715.097439
_symmetry_space_group_name_H-M "P -1"
_symmetry_group_IT_number 2
_symmetry_cell_setting 'triclinic'
loop_
_space_group_symop_operation_xyz
x,y,z
-x,-y,-z
loop_
_atom_site_type_symbol
_atom_site_label
_atom_site_fract_x
_atom_site_fract_y
_atom_site_fract_z
Si Si1 0.953467 0.745908 0.634706
Si Si2 0.034004 0.481745 0.748575
Si Si3 0.637197 0.020505 0.924393
Si Si4 0.694310 0.704221 0.990374
Si Si5 0.867787 0.348322 0.314510
Si Si6 0.571808 0.848073 0.128646
Si Si7 0.260850 0.125358 0.386160
Si Si8 0.450770 0.381548 0.327975
O O1 0.020736 0.686995 0.670205
O O2 0.779948 0.806462 0.309590
O O3 0.748679 0.691920 0.653092
O O4 0.252008 0.796647 0.902214
O O5 0.040578 0.558097 0.730816
O O6 0.763744 0.410186 0.646173
O O7 0.000000 0.500000 0.500000
O O8 0.311721 0.453732 0.084487
O O9 0.959646 0.064287 0.183086
O O10 0.593669 0.935986 0.942331
O O11 0.483276 0.082248 0.603807
O O12 0.500000 0.000000 0.000000
O O13 0.732171 0.793334 0.826808
O O14 0.554391 0.645846 0.811630
O O15 0.465976 0.681087 0.946943
O O16 0.986810 0.687493 0.343078
O O17 0.672197 0.856458 0.394300
#
# Coordination Sequence:
#
# PCOD9094689 Si02
#       8
#     2   2   2   2   2   2   2   2
#     4  12  26  42  63  96 130 171 210 256 316 383
#     4  12  23  42  66  95 124 163 209 270 316 368
#     4  10  20  34  59  99 131 158 203 266 321 357
#     4  12  23  41  67  93 126 166 211 267 311 373
#     4  12  27  43  64  92 131 170 211 255 324 383
#     4  11  21  39  65  91 135 167 203 260 322 370
#     4  11  21  36  64  99 125 158 215 268 305 365
#     4  12  24  40  69  93 121 166 214 262 316 367
#
# _framework density 22.374573999999999
#
# number of rings (size 3 to 8) (size 9 to 14) (size 15 to 20)
#    0.000    0.500    3.750    7.125    1.750    1.000 
#    0.000    0.000    0.000   15.000    0.000    0.000 
#    0.000    0.000    0.000    0.000    0.000    0.000 
#
# Total GULP energy -89583.236690 kJ/mol
# GULP energy per Si atom -5598.952293 kJ/mol
# Density = 2.232365 g / cm^3
# Si number density = 22.374574 Si / 1000 Ang^3
#
#
#
# Elastic Constant Matrix: (Units=GPa)
#
#
# Indices 1 2 3 4 5 6 
#
# 1 40.3222 28.9964 12.4526 8.4765 24.6158 -17.0383
# 2 28.9964 126.6942 48.3555 2.1064 14.9768 -2.6758
# 3 12.4526 48.3555 78.7462 -1.2573 22.0049 -4.1860
# 4 8.4765 2.1064 -1.2573 53.1489 2.6260 15.3644
# 5 24.6158 14.9768 22.0049 2.6260 26.1478 -6.7407
# 6 -17.0383 -2.6758 -4.1860 15.3644 -6.7407 27.6542
#
#
#
# Elastic Compliance Matrix: (Units=1/GPa)
#
#
# Indices 1 2 3 4 5 6 
#
# 1 0.220752 -0.043867 0.049734 -0.059922 -0.185706 0.127319
# 2 -0.043867 0.019053 -0.016059 0.011308 0.036306 -0.025048
# 3 0.049734 -0.016059 0.031647 -0.011431 -0.056272 0.026513
# 4 -0.059922 0.011308 -0.011431 0.039754 0.042880 -0.049190
# 5 -0.185706 0.036306 -0.056272 0.042880 0.211699 -0.091644
# 6 0.127319 -0.025048 0.026513 -0.049190 -0.091644 0.121185
#
#
# Mechanical properties :
#
#
# Convention : Reuss Voigt Hill
#
# Bulk Modulus (GPa) = 3.98300 47.26350 25.62325
# Shear Modulus (GPa) = 6.68300 31.78740 19.23520
#
# Velocity S-wave (km/s) = 1.73013 3.77330 2.93523
# Velocity P-wave (km/s) = 2.40315 6.33666 4.79210
#
# Compressibility (1/GPa) = 0.25106724
#
# Stress axis : x y z
#
# Youngs Moduli (GPa) = 4.52996 52.48385 31.59828
#
# Poissons Ratio (x) = 2.30233 -1.57150
# Poissons Ratio (y) = 0.19872 0.50745
# Poissons Ratio (z) = -0.22529 0.84286
#
# Static dielectric constant tensor:
#      x y z
#    x 1.838470 -0.015280 -0.032840 
#    y -0.015280 1.812580 -0.046590 
#    z -0.032840 -0.046590 1.776760 
# 
# From -- ./inp_files/223359.got.cif
#   From: 2010.05.17/outbox.cif.g08.bks.cpg/sg2_112_cif.got.tgz:223359.got - 2010.06.03 11:33:40.
