data_PCOD9094920
_publ_section_title
;
Structure prediction by ZEFSAII (Michael W. Deem and Ramdas Pophale) SiO2 
 PCOD9094920
Probable space group: P -1
;
_chemical_formula_sum "Si O2"
_cell_formula_units_Z 16
_cell_length_a 10.789877
_cell_length_b 15.365037
_cell_length_c 9.653870
_cell_angle_alpha 62.940588
_cell_angle_beta 70.277313
_cell_angle_gamma 124.776418
_cell_volume 676.596719
_symmetry_space_group_name_H-M "P -1"
_symmetry_group_IT_number 2
_symmetry_cell_setting 'triclinic'
loop_
_space_group_symop_operation_xyz
x,y,z
-x,-y,-z
loop_
_atom_site_type_symbol
_atom_site_label
_atom_site_fract_x
_atom_site_fract_y
_atom_site_fract_z
Si Si1 0.586993 0.157909 0.417745
Si Si2 0.856901 0.309542 0.649326
Si Si3 0.064569 0.120040 0.685660
Si Si4 0.767606 0.591609 0.739683
Si Si5 0.388958 0.550784 0.602406
Si Si6 0.346548 0.306187 0.875666
Si Si7 0.684990 0.016035 0.072993
Si Si8 0.184591 0.508937 0.965093
O O1 0.391684 0.054965 0.690407
O O2 0.882015 0.333855 0.235188
O O3 0.500000 0.000000 0.500000
O O4 0.628929 0.280682 0.218387
O O5 0.580304 0.156161 0.792866
O O6 0.000000 0.500000 0.500000
O O7 0.033121 0.357482 0.444423
O O8 0.797599 0.197721 0.879941
O O9 0.120147 0.228608 0.458608
O O10 0.331789 0.267898 0.556232
O O11 0.903439 0.921442 0.852827
O O12 0.888394 0.070629 0.893313
O O13 0.503115 0.414950 0.879811
O O14 0.735133 0.535372 0.948718
O O15 0.284808 0.373840 0.789699
O O16 0.451754 0.609271 0.376366
O O17 0.212264 0.508635 0.790182
#
# Coordination Sequence:
#
# PCOD9094920 Si02
#       8
#     2   2   2   2   2   2   2   2
#     4  11  26  41  64  89 125 175 211 251 315 384
#     4  10  20  34  64  88 122 162 198 260 315 360
#     4  10  21  38  64  93 126 157 209 267 307 364
#     4  10  22  39  60  93 126 164 202 258 317 369
#     4  10  23  41  65  92 124 167 206 260 314 371
#     4  10  21  39  66  94 118 160 219 257 311 372
#     4  10  21  38  58  95 122 152 213 257 301 372
#     4  11  25  45  61  88 137 165 208 260 317 378
#
# _framework density 23.647766000000001
#
# number of rings (size 3 to 8) (size 9 to 14) (size 15 to 20)
#    0.000    1.750    1.250    1.875    1.750    8.000 
#    0.000    1.250    0.000    0.000    0.000    0.000 
#    0.000    0.000    0.000    0.000    0.000    0.000 
#
# Total GULP energy -89613.527870 kJ/mol
# GULP energy per Si atom -5600.845492 kJ/mol
# Density = 2.359394 g / cm^3
# Si number density = 23.647766 Si / 1000 Ang^3
#
#
#
# Elastic Constant Matrix: (Units=GPa)
#
#
# Indices 1 2 3 4 5 6 
#
# 1 62.4705 20.0313 37.7328 -11.9731 4.4750 -10.1865
# 2 20.0313 58.3965 55.7197 -29.8067 23.0688 -14.7969
# 3 37.7328 55.7197 118.4653 -29.4753 18.2737 -15.4581
# 4 -11.9731 -29.8067 -29.4753 53.5091 -17.0082 8.3136
# 5 4.4750 23.0688 18.2737 -17.0082 47.8305 -3.7512
# 6 -10.1865 -14.7969 -15.4581 8.3136 -3.7512 27.7143
#
#
#
# Elastic Compliance Matrix: (Units=1/GPa)
#
#
# Indices 1 2 3 4 5 6 
#
# 1 0.020330 -0.000632 -0.005637 0.000858 0.001167 0.003892
# 2 -0.000632 0.043876 -0.014657 0.011238 -0.010707 0.010198
# 3 -0.005637 -0.014657 0.016989 0.000374 0.001210 -0.000370
# 4 0.000858 0.011238 0.000374 0.026697 0.003774 -0.000974
# 5 0.001167 -0.010707 0.001210 0.003774 0.026674 -0.002134
# 6 0.003892 0.010198 -0.000370 -0.000974 -0.002134 0.042754
#
#
# Mechanical properties :
#
#
# Convention : Reuss Voigt Hill
#
# Bulk Modulus (GPa) = 25.41758 51.81110 38.61434
# Shear Modulus (GPa) = 21.52501 34.20066 27.86283
#
# Velocity S-wave (km/s) = 3.02028 3.80709 3.43628
# Velocity P-wave (km/s) = 4.78900 6.42513 5.66643
#
# Compressibility (1/GPa) = 0.03934285
#
# Stress axis : x y z
#
# Youngs Moduli (GPa) = 49.18735 22.79145 58.86192
#
# Poissons Ratio (x) = 0.01441 0.33180
# Poissons Ratio (y) = 0.03109 0.86276
# Poissons Ratio (z) = 0.27726 0.33406
#
# Static dielectric constant tensor:
#      x y z
#    x 1.928330 -0.025950 0.020270 
#    y -0.025950 1.873160 0.008840 
#    z 0.020270 0.008840 1.887470 
# 
# From -- ./inp_files/272478.got.cif
#   From: 2010.05.17/outbox.cif.g08.bks.cpg/sg2_137_cif.got.tgz:272478.got - 2010.06.03 11:33:40.
