data_PCOD9094901
_publ_section_title
;
Structure prediction by ZEFSAII (Michael W. Deem and Ramdas Pophale) SiO2 
 PCOD9094901
Probable space group: P -1
;
_chemical_formula_sum "Si O2"
_cell_formula_units_Z 14
_cell_length_a 9.398832
_cell_length_b 11.678396
_cell_length_c 14.205108
_cell_angle_alpha 148.460988
_cell_angle_beta 126.666534
_cell_angle_gamma 42.097483
_cell_volume 543.994607
_symmetry_space_group_name_H-M "P -1"
_symmetry_group_IT_number 2
_symmetry_cell_setting 'triclinic'
loop_
_space_group_symop_operation_xyz
x,y,z
-x,-y,-z
loop_
_atom_site_type_symbol
_atom_site_label
_atom_site_fract_x
_atom_site_fract_y
_atom_site_fract_z
Si Si1 0.606734 0.876600 0.206895
Si Si2 0.926303 0.863572 0.584656
Si Si3 0.094854 0.281886 0.269895
Si Si4 0.532918 0.679143 0.214339
Si Si5 0.702070 0.287989 0.499356
Si Si6 0.519370 0.577075 0.821054
Si Si7 0.919889 0.968375 0.085268
O O1 0.351266 0.106183 0.260604
O O2 0.719790 0.015404 0.315529
O O3 0.647301 0.775079 0.259270
O O4 0.643996 0.651604 0.992287
O O5 0.999346 0.584324 0.465471
O O6 0.075570 0.760750 0.479900
O O7 0.001476 0.042225 0.787353
O O8 0.676862 0.057360 0.642097
O O9 0.023105 0.112158 0.177025
O O10 0.032183 0.268828 0.127410
O O11 0.603482 0.509604 0.218964
O O12 0.500000 0.500000 0.000000
O O13 0.500000 0.500000 0.500000
O O14 0.650324 0.381899 0.652713
O O15 0.333309 0.839255 0.881071
#
# Coordination Sequence:
#
# PCOD9094901 Si02
#       7
#     2   2   2   2   2   2   2
#     4  10  21  42  66  94 127 165 207 267 316 368
#     4  12  23  40  64  93 131 164 209 263 312 376
#     4  10  20  34  63  99 123 158 214 266 316 359
#     4  10  24  45  67  90 129 168 212 269 317 366
#     4  12  24  39  63  99 130 166 210 253 320 380
#     4  10  23  42  63  92 133 164 209 261 314 376
#     4  10  20  36  64  95 125 159 215 265 311 365
#
# _framework density 25.735548999999999
#
# number of rings (size 3 to 8) (size 9 to 14) (size 15 to 20)
#    0.000    1.429    4.286    0.429    4.000    2.857 
#    0.000    2.857    0.000    0.000    0.000    0.000 
#    0.000    0.000    0.000    0.000    0.000    0.000 
#
# Total GULP energy -78210.049623 kJ/mol
# GULP energy per Si atom -5586.432116 kJ/mol
# Density = 2.567697 g / cm^3
# Si number density = 25.735549 Si / 1000 Ang^3
#
#
#
# Elastic Constant Matrix: (Units=GPa)
#
#
# Indices 1 2 3 4 5 6 
#
# 1 143.5814 23.9106 33.1988 -4.3972 8.8051 17.9379
# 2 23.9106 68.9189 38.1836 13.1378 -5.7781 4.3179
# 3 33.1988 38.1836 106.9552 -5.5322 0.5001 3.3408
# 4 -4.3972 13.1378 -5.5322 35.0040 10.1357 -5.6993
# 5 8.8051 -5.7781 0.5001 10.1357 35.6052 6.3227
# 6 17.9379 4.3179 3.3408 -5.6993 6.3227 27.7383
#
#
#
# Elastic Compliance Matrix: (Units=1/GPa)
#
#
# Indices 1 2 3 4 5 6 
#
# 1 0.008398 -0.002282 -0.001571 0.001630 -0.002169 -0.004057
# 2 -0.002282 0.023987 -0.008451 -0.014535 0.009863 -0.006475
# 3 -0.001571 -0.008451 0.013119 0.006548 -0.003547 0.002905
# 4 0.001630 -0.014535 0.006548 0.042380 -0.017237 0.013056
# 5 -0.002169 0.009863 -0.003547 -0.017237 0.037264 -0.011741
# 6 -0.004057 -0.006475 0.002905 0.013056 -0.011741 0.044692
#
#
# Mechanical properties :
#
#
# Convention : Reuss Voigt Hill
#
# Bulk Modulus (GPa) = 47.85457 56.67127 52.26292
# Shear Modulus (GPa) = 24.82470 34.61368 29.71919
#
# Velocity S-wave (km/s) = 3.10918 3.67137 3.40191
# Velocity P-wave (km/s) = 5.61466 6.32775 5.98184
#
# Compressibility (1/GPa) = 0.02089665
#
# Stress axis : x y z
#
# Youngs Moduli (GPa) = 119.08145 41.68930 76.22600
#
# Poissons Ratio (x) = 0.09512 0.11974
# Poissons Ratio (y) = 0.27169 0.64418
# Poissons Ratio (z) = 0.18707 0.35232
#
# Static dielectric constant tensor:
#      x y z
#    x 2.035770 0.006310 -0.008450 
#    y 0.006310 2.196510 -0.073400 
#    z -0.008450 -0.073400 2.018080 
# 
# From -- ./inp_files/388716.got.cif
#   From: 2010.05.17/outbox.cif.g08.bks.cpg/sg2_195_cif.got.tgz:388716.got - 2010.06.03 11:33:40.
