data_PCOD9094371
_publ_section_title
;
Structure prediction by ZEFSAII (Michael W. Deem and Ramdas Pophale) SiO2 
 PCOD9094371
Probable space group: P -1
;
_chemical_formula_sum "Si O2"
_cell_formula_units_Z 14
_cell_length_a 6.733559
_cell_length_b 13.675651
_cell_length_c 12.505986
_cell_angle_alpha 135.730660
_cell_angle_beta 121.899753
_cell_angle_gamma 90.739140
_cell_volume 512.539490
_symmetry_space_group_name_H-M "P -1"
_symmetry_group_IT_number 2
_symmetry_cell_setting 'triclinic'
loop_
_space_group_symop_operation_xyz
x,y,z
-x,-y,-z
loop_
_atom_site_type_symbol
_atom_site_label
_atom_site_fract_x
_atom_site_fract_y
_atom_site_fract_z
Si Si1 0.333559 0.071162 0.064778
Si Si2 0.710290 0.909543 0.152786
Si Si3 0.103305 0.414461 0.882937
Si Si4 0.330188 0.266353 0.601639
Si Si5 0.112874 0.792341 0.959717
Si Si6 0.668277 0.971923 0.412529
Si Si7 0.300401 0.605389 0.410953
O O1 0.570302 0.256193 0.345770
O O2 0.106700 0.912432 0.964749
O O3 0.500000 0.000000 0.000000
O O4 0.212439 0.115427 0.963219
O O5 0.759366 0.899794 0.285172
O O6 0.958427 0.138414 0.399020
O O7 0.338620 0.772610 0.942902
O O8 0.892526 0.193885 0.663806
O O9 0.006771 0.443459 0.765530
O O10 0.458763 0.540121 0.122189
O O11 0.000000 0.500000 0.000000
O O12 0.453457 0.302714 0.544943
O O13 0.373191 0.137822 0.580041
O O14 0.342079 0.902760 0.214235
O O15 0.800919 0.590204 0.740378
#
# Coordination Sequence:
#
# PCOD9094371 Si02
#       7
#     2   2   2   2   2   2   2
#     4  10  20  40  63  84 116 157 208 247 287 347
#     4   9  21  40  60  85 123 164 194 239 299 357
#     4  10  20  34  56  89 117 150 193 243 291 348
#     4  11  23  37  57  92 128 154 191 242 309 360
#     4   9  20  37  62  87 111 155 204 241 291 341
#     4  10  20  38  61  86 122 155 197 245 295 352
#     4  11  21  36  60  91 116 151 200 252 291 349
#
# _framework density 27.314969999999999
#
# number of rings (size 3 to 8) (size 9 to 14) (size 15 to 20)
#    0.857    1.143    2.857    0.429    0.000    8.000 
#    0.000    5.000    0.000    0.000    0.000    0.000 
#    0.000    0.000    0.000    0.000    0.000    0.000 
#
# Total GULP energy -78036.703859 kJ/mol
# GULP energy per Si atom -5574.050276 kJ/mol
# Density = 2.725280 g / cm^3
# Si number density = 27.314970 Si / 1000 Ang^3
#
#
#
# Elastic Constant Matrix: (Units=GPa)
#
#
# Indices 1 2 3 4 5 6 
#
# 1 71.5260 46.7267 29.3974 2.5795 -10.0150 -3.8324
# 2 46.7267 201.5600 91.7792 6.8650 -23.7206 15.9131
# 3 29.3974 91.7792 210.3868 -7.9372 -25.6295 1.4357
# 4 2.5795 6.8650 -7.9372 62.4988 10.4514 -3.9665
# 5 -10.0150 -23.7206 -25.6295 10.4514 47.4496 -7.4782
# 6 -3.8324 15.9131 1.4357 -3.9665 -7.4782 47.9543
#
#
#
# Elastic Compliance Matrix: (Units=1/GPa)
#
#
# Indices 1 2 3 4 5 6 
#
# 1 0.017069 -0.003663 -0.000580 -0.000533 0.002028 0.002869
# 2 -0.003663 0.007403 -0.002578 -0.001393 0.001438 -0.002563
# 3 -0.000580 -0.002578 0.006217 0.000839 0.001919 0.000991
# 4 -0.000533 -0.001393 0.000839 0.017012 -0.003915 0.001191
# 5 0.002028 0.001438 0.001919 -0.003915 0.024616 0.003142
# 6 0.002869 -0.002563 0.000991 0.001191 0.003142 0.022492
#
#
# Mechanical properties :
#
#
# Convention : Reuss Voigt Hill
#
# Bulk Modulus (GPa) = 58.65426 91.03105 74.84265
# Shear Modulus (GPa) = 43.80871 52.61851 48.21361
#
# Velocity S-wave (km/s) = 4.00914 4.39380 4.20587
# Velocity P-wave (km/s) = 6.55369 7.69021 7.14458
#
# Compressibility (1/GPa) = 0.01704906
#
# Stress axis : x y z
#
# Youngs Moduli (GPa) = 58.58598 135.07760 160.84296
#
# Poissons Ratio (x) = 0.49474 0.09327
# Poissons Ratio (y) = 0.21458 0.41459
# Poissons Ratio (z) = 0.03397 0.34817
#
# Static dielectric constant tensor:
#      x y z
#    x 2.398240 -0.071740 0.091890 
#    y -0.071740 2.217580 -0.079050 
#    z 0.091890 -0.079050 2.088830 
# 
# From -- ./inp_files/399642.got.cif
#   From: 2010.05.17/outbox.cif.g08.bks.cpg/sg2_200_cif.got.tgz:399642.got - 2010.06.03 11:33:40.
