data_PCOD9094374
_publ_section_title
;
Structure prediction by ZEFSAII (Michael W. Deem and Ramdas Pophale) SiO2 
 PCOD9094374
Probable space group: P -1
;
_chemical_formula_sum "Si O2"
_cell_formula_units_Z 15
_cell_length_a 10.201990
_cell_length_b 9.929968
_cell_length_c 12.338877
_cell_angle_alpha 118.643714
_cell_angle_beta 143.975158
_cell_angle_gamma 73.185239
_cell_volume 633.360142
_symmetry_space_group_name_H-M "P -1"
_symmetry_group_IT_number 2
_symmetry_cell_setting 'triclinic'
loop_
_space_group_symop_operation_xyz
x,y,z
-x,-y,-z
loop_
_atom_site_type_symbol
_atom_site_label
_atom_site_fract_x
_atom_site_fract_y
_atom_site_fract_z
Si Si1 0.470975 0.567493 0.267209
Si Si2 0.556732 0.065501 0.265217
Si Si3 0.921712 0.564667 0.686495
Si Si4 0.000000 0.000000 0.500000
Si Si5 0.901313 0.845224 0.947835
Si Si6 0.170127 0.320078 0.848546
Si Si7 0.669333 0.143874 0.613873
Si Si8 0.427166 0.694621 0.045929
O O1 0.713297 0.535215 0.453349
O O2 0.405272 0.690653 0.355511
O O3 0.471277 0.659909 0.188439
O O4 0.286129 0.409223 0.066749
O O5 0.337246 0.143827 0.151377
O O6 0.655703 0.095834 0.463188
O O7 0.786226 0.092860 0.358731
O O8 0.464001 0.879966 0.125542
O O9 0.885630 0.696262 0.800579
O O10 0.968616 0.411017 0.719149
O O11 0.165504 0.627945 0.818060
O O12 0.096541 0.138136 0.705898
O O13 0.089270 0.841256 0.162694
O O14 0.000000 0.000000 0.000000
O O15 0.381471 0.360954 0.919892
O O16 0.500000 0.000000 0.500000
#
# Coordination Sequence:
#
# PCOD9094374 Si02
#       8
#     2   2   2   1   2   2   2   2
#     4  11  19  33  60  94 126 148 194 257 317 366
#     4  11  22  39  63  92 122 174 203 244 305 367
#     4  11  19  33  60  94 126 148 194 257 317 366
#     4  10  26  52  64  72 130 178 214 250 290 366
#     4  12  19  33  61  99 131 151 191 252 320 369
#     4  10  23  42  58  82 119 171 211 245 295 359
#     4  12  19  33  61  99 131 151 191 252 320 369
#     4  10  20  34  56  89 133 157 192 246 311 377
#
# _framework density 23.683209999999999
#
# number of rings (size 3 to 8) (size 9 to 14) (size 15 to 20)
#    0.000    1.067    8.000    1.600    0.000    2.133 
#    0.000    8.000    0.000    0.000    0.000    0.000 
#    0.000    0.000    0.000    0.000    0.000    0.000 
#
# Total GULP energy -83519.029778 kJ/mol
# GULP energy per Si atom -5567.935319 kJ/mol
# Density = 2.362931 g / cm^3
# Si number density = 23.683210 Si / 1000 Ang^3
#
#
#
# Elastic Constant Matrix: (Units=GPa)
#
#
# Indices 1 2 3 4 5 6 
#
# 1 20.0869 11.5734 -13.8824 0.3952 45.9066 -5.9204
# 2 11.5734 116.1161 34.8839 6.5405 20.3659 -25.0205
# 3 -13.8824 34.8839 142.7195 -13.2765 37.8581 6.2384
# 4 0.3952 6.5405 -13.2765 68.3068 -24.9845 -1.6744
# 5 45.9066 20.3659 37.8581 -24.9845 8.4446 -25.1902
# 6 -5.9204 -25.0205 6.2384 -1.6744 -25.1902 25.2382
#
#
#
# Elastic Compliance Matrix: (Units=1/GPa)
#
#
# Indices 1 2 3 4 5 6 
#
# 1 0.015010 0.001273 -0.003727 0.005711 0.016645 0.022697
# 2 0.001273 0.012043 -0.002648 -0.002587 -0.003135 0.009592
# 3 -0.003727 -0.002648 0.006509 0.003036 0.004141 -0.000774
# 4 0.005711 -0.002587 0.003036 0.014890 -0.001359 -0.002344
# 5 0.016645 -0.003135 0.004141 -0.001359 -0.006048 -0.006354
# 6 0.022697 0.009592 -0.000774 -0.002344 -0.006354 0.048150
#
#
# Mechanical properties :
#
#
# Convention : Reuss Voigt Hill
#
# Bulk Modulus (GPa) = 42.81155 38.23025 40.52090
# Shear Modulus (GPa) = 46.06412 36.82110 41.44261
#
# Velocity S-wave (km/s) = 4.41501 3.94729 4.18769
# Velocity P-wave (km/s) = 6.64122 6.07883 6.36624
#
# Compressibility (1/GPa) = 0.02335818
#
# Stress axis : x y z
#
# Youngs Moduli (GPa) = 66.62155 83.03501 153.62771
#
# Poissons Ratio (x) = -0.10573 0.57263
# Poissons Ratio (y) = -0.08483 0.40682
# Poissons Ratio (z) = 0.24832 0.21989
#
# Static dielectric constant tensor:
#      x y z
#    x 2.132290 0.115270 0.138030 
#    y 0.115270 2.081890 0.054450 
#    z 0.138030 0.054450 1.921110 
# 
# From -- ./inp_files/450479.got.cif
#   From: 2010.05.17/outbox.cif.g08.bks.cpg/sg2_226_cif.got.tgz:450479.got - 2010.06.03 11:33:40.
