data_PCOD9094207
_publ_section_title
;
Structure prediction by ZEFSAII (Michael W. Deem and Ramdas Pophale) SiO2 
 PCOD9094207
Probable space group: P -1
;
_chemical_formula_sum "Si O2"
_cell_formula_units_Z 16
_cell_length_a 6.354036
_cell_length_b 20.382652
_cell_length_c 20.183576
_cell_angle_alpha 162.340149
_cell_angle_beta 116.757109
_cell_angle_gamma 54.858030
_cell_volume 595.411504
_symmetry_space_group_name_H-M "P -1"
_symmetry_group_IT_number 2
_symmetry_cell_setting 'triclinic'
loop_
_space_group_symop_operation_xyz
x,y,z
-x,-y,-z
loop_
_atom_site_type_symbol
_atom_site_label
_atom_site_fract_x
_atom_site_fract_y
_atom_site_fract_z
Si Si1 0.961741 0.358400 0.549274
Si Si2 0.896940 0.752014 0.184850
Si Si3 0.173860 0.850410 0.042938
Si Si4 0.024049 0.764923 0.079685
Si Si5 0.554483 0.619587 0.559425
Si Si6 0.900240 0.753347 0.807161
Si Si7 0.638225 0.275689 0.700561
Si Si8 0.213984 0.643173 0.344007
O O1 0.697922 0.325612 0.470681
O O2 0.960679 0.413175 0.680260
O O3 0.925614 0.563473 0.687343
O O4 0.213574 0.078654 0.291213
O O5 0.158947 0.784930 0.267111
O O6 0.639832 0.018903 0.435356
O O7 0.000000 0.500000 0.000000
O O8 0.859509 0.715232 0.066751
O O9 0.035057 0.792568 0.028825
O O10 0.972034 0.937128 0.033497
O O11 0.464866 0.586201 0.815135
O O12 0.342274 0.534387 0.918755
O O13 0.910633 0.059853 0.367982
O O14 0.500000 0.500000 0.500000
O O15 0.838272 0.408573 0.360247
O O16 0.626899 0.827000 0.795665
O O17 0.766916 0.330293 0.706753
#
# Coordination Sequence:
#
# PCOD9094207 Si02
#       8
#     2   2   2   2   2   2   2   2
#     4  10  20  37  59  84 115 150 191 240 286 341
#     4  10  20  34  55  83 113 145 190 237 273 339
#     4  10  20  37  59  83 111 150 193 234 288 345
#     4   9  19  36  57  80 114 150 184 237 284 330
#     4   9  19  38  60  84 120 148 186 243 283 338
#     4  10  20  37  60  85 115 152 190 236 289 342
#     4   9  19  36  56  79 111 154 185 225 296 330
#     4   9  18  37  57  78 116 147 187 244 281 333
#
# _framework density 26.872173
#
# number of rings (size 3 to 8) (size 9 to 14) (size 15 to 20)
#    0.000    2.500    1.250    0.375    0.000    2.000 
#    2.250   16.875    0.000    0.000    0.000    0.000 
#    0.000    0.000    0.000    0.000    0.000    0.000 
#
# Total GULP energy -89225.149848 kJ/mol
# GULP energy per Si atom -5576.571865 kJ/mol
# Density = 2.681101 g / cm^3
# Si number density = 26.872173 Si / 1000 Ang^3
#
#
#
# Elastic Constant Matrix: (Units=GPa)
#
#
# Indices 1 2 3 4 5 6 
#
# 1 69.8734 25.5218 35.7980 5.3785 -13.9221 7.9919
# 2 25.5218 121.8784 40.1216 -8.8021 -22.7557 -2.3483
# 3 35.7980 40.1216 128.3266 2.1722 -34.5406 15.8944
# 4 5.3785 -8.8021 2.1722 68.2692 13.8109 0.8549
# 5 -13.9221 -22.7557 -34.5406 13.8109 30.3233 8.5916
# 6 7.9919 -2.3483 15.8944 0.8549 8.5916 58.3244
#
#
#
# Elastic Compliance Matrix: (Units=1/GPa)
#
#
# Indices 1 2 3 4 5 6 
#
# 1 0.018033 -0.002127 -0.002332 -0.002820 0.006098 -0.002778
# 2 -0.002127 0.010006 -0.001337 0.000554 0.004653 0.000365
# 3 -0.002332 -0.001337 0.014623 -0.004062 0.018230 -0.006345
# 4 -0.002820 0.000554 -0.004062 0.017996 -0.014669 0.003413
# 5 0.006098 0.004653 0.018230 -0.014669 0.071219 -0.015892
# 6 -0.002778 0.000365 -0.006345 0.003413 -0.015892 0.021561
#
#
# Mechanical properties :
#
#
# Convention : Reuss Voigt Hill
#
# Bulk Modulus (GPa) = 32.18642 58.10681 45.14661
# Shear Modulus (GPa) = 28.50814 45.95917 37.23366
#
# Velocity S-wave (km/s) = 3.26065 4.14005 3.72638
# Velocity P-wave (km/s) = 5.11658 6.67261 5.94572
#
# Compressibility (1/GPa) = 0.03106901
#
# Stress axis : x y z
#
# Youngs Moduli (GPa) = 55.45326 99.93567 68.38567
#
# Poissons Ratio (x) = 0.21257 0.15951
# Poissons Ratio (y) = 0.11795 0.09145
# Poissons Ratio (z) = 0.12934 0.13364
#
# Static dielectric constant tensor:
#      x y z
#    x 2.134500 -0.034730 0.084360 
#    y -0.034730 2.037720 -0.063950 
#    z 0.084360 -0.063950 2.281590 
# 
# From -- ./inp_files/120461.got.cif
#   From: 2010.05.17/outbox.cif.g08.bks.cpg/sg2_61_cif.got.tgz:120461.got - 2010.06.03 11:33:40.
