data_PCOD9094799
_publ_section_title
;
Structure prediction by ZEFSAII (Michael W. Deem and Ramdas Pophale) SiO2 
 PCOD9094799
Probable space group: P -1
;
_chemical_formula_sum "Si O2"
_cell_formula_units_Z 14
_cell_length_a 19.867331
_cell_length_b 11.368250
_cell_length_c 14.710907
_cell_angle_alpha 19.315985
_cell_angle_beta 28.832228
_cell_angle_gamma 31.031258
_cell_volume 520.440556
_symmetry_space_group_name_H-M "P -1"
_symmetry_group_IT_number 2
_symmetry_cell_setting 'triclinic'
loop_
_space_group_symop_operation_xyz
x,y,z
-x,-y,-z
loop_
_atom_site_type_symbol
_atom_site_label
_atom_site_fract_x
_atom_site_fract_y
_atom_site_fract_z
Si Si1 0.752323 0.141583 0.262487
Si Si2 0.237094 0.878569 0.216885
Si Si3 0.328303 0.614396 0.620255
Si Si4 0.304297 0.628320 0.120846
Si Si5 0.489892 0.608154 0.759667
Si Si6 0.950314 0.117449 0.322408
Si Si7 0.026746 0.909597 0.176416
O O1 0.706451 0.176222 0.396752
O O2 0.632901 0.409127 0.154504
O O3 0.749215 0.740550 0.521813
O O4 0.917878 0.171606 0.048882
O O5 0.284095 0.863841 0.064799
O O6 0.358967 0.556590 0.342261
O O7 0.070479 0.854808 0.432143
O O8 0.268938 0.239749 0.961651
O O9 0.500000 0.500000 0.500000
O O10 0.221974 0.837641 0.505383
O O11 0.195708 0.862474 0.006189
O O12 0.440196 0.458694 0.022271
O O13 0.500000 0.000000 0.500000
O O14 0.987524 0.021385 0.244298
O O15 0.000000 0.500000 0.000000
O O16 0.000000 0.500000 0.500000
#
# Coordination Sequence:
#
# PCOD9094799 Si02
#       7
#     2   2   2   2   2   2   2
#     4  10  21  38  57  87 116 143 191 236 289 340
#     4  10  20  37  59  82 114 152 190 232 280 341
#     4  10  20  34  61  88 110 146 188 237 290 335
#     4  10  20  38  60  82 113 150 195 233 278 341
#     4  12  24  34  57  85 116 154 191 233 279 331
#     4   8  16  32  54  82 106 145 188 222 279 341
#     4   8  16  32  57  81 108 144 180 235 284 327
#
# _framework density 26.900285
#
# number of rings (size 3 to 8) (size 9 to 14) (size 15 to 20)
#    0.000    2.286    1.429    1.286    2.000    1.143 
#    0.000    0.000    3.143    0.857    0.000    0.000 
#    0.000    0.000    0.000    0.000    0.000    0.000 
#
# Total GULP energy -78061.317610 kJ/mol
# GULP energy per Si atom -5575.808401 kJ/mol
# Density = 2.683906 g / cm^3
# Si number density = 26.900285 Si / 1000 Ang^3
#
#
#
# Elastic Constant Matrix: (Units=GPa)
#
#
# Indices 1 2 3 4 5 6 
#
# 1 123.9528 55.3520 21.9050 9.3128 -23.9304 -26.1803
# 2 55.3520 149.5124 7.6340 9.6754 -7.4833 -34.6544
# 3 21.9050 7.6340 66.2695 -10.4875 -25.2324 24.6035
# 4 9.3128 9.6754 -10.4875 43.1832 9.0658 -18.9740
# 5 -23.9304 -7.4833 -25.2324 9.0658 29.2531 -5.2212
# 6 -26.1803 -34.6544 24.6035 -18.9740 -5.2212 59.8831
#
#
#
# Elastic Compliance Matrix: (Units=1/GPa)
#
#
# Indices 1 2 3 4 5 6 
#
# 1 0.012828 -0.002807 -0.002753 -0.002459 0.009078 0.005128
# 2 -0.002807 0.008891 -0.002350 0.000482 -0.001319 0.004921
# 3 -0.002753 -0.002350 0.028416 -0.001919 0.019912 -0.013110
# 4 -0.002459 0.000482 -0.001919 0.029057 -0.011080 0.008233
# 5 0.009078 -0.001319 0.019912 -0.011080 0.061322 -0.003139
# 6 0.005128 0.004921 -0.013110 0.008233 -0.003139 0.029510
#
#
# Mechanical properties :
#
#
# Convention : Reuss Voigt Hill
#
# Bulk Modulus (GPa) = 29.14091 56.61296 42.87693
# Shear Modulus (GPa) = 25.34474 43.45348 34.39911
#
# Velocity S-wave (km/s) = 3.07281 4.02351 3.57986
# Velocity P-wave (km/s) = 4.84211 6.53269 5.74987
#
# Compressibility (1/GPa) = 0.03431602
#
# Stress axis : x y z
#
# Youngs Moduli (GPa) = 77.95560 112.47561 35.19199
#
# Poissons Ratio (x) = 0.31566 0.09689
# Poissons Ratio (y) = 0.21878 0.08268
# Poissons Ratio (z) = 0.21462 0.26426
#
# Static dielectric constant tensor:
#      x y z
#    x 2.250100 -0.264270 -0.028280 
#    y -0.264270 1.849950 -0.566610 
#    z -0.028280 -0.566610 1.128500 
# 
# From -- ./inp_files/389617.got.cif
#   From: 2010.05.17/outbox.cif.g08.bks.cpg/sg2_195_cif.got.tgz:389617.got - 2010.06.03 11:33:40.
