data_PCOD9094114
_publ_section_title
;
Structure prediction by ZEFSAII (Michael W. Deem and Ramdas Pophale) SiO2 
 PCOD9094114
Probable space group: P -1
;
_chemical_formula_sum "Si O2"
_cell_formula_units_Z 12
_cell_length_a 12.289388
_cell_length_b 5.282344
_cell_length_c 14.061819
_cell_angle_alpha 50.085779
_cell_angle_beta 90.114537
_cell_angle_gamma 107.703352
_cell_volume 643.285295
_symmetry_space_group_name_H-M "P -1"
_symmetry_group_IT_number 2
_symmetry_cell_setting 'triclinic'
loop_
_space_group_symop_operation_xyz
x,y,z
-x,-y,-z
loop_
_atom_site_type_symbol
_atom_site_label
_atom_site_fract_x
_atom_site_fract_y
_atom_site_fract_z
Si Si1 0.273486 0.932515 0.376662
Si Si2 0.912027 0.787285 0.467903
Si Si3 0.986885 0.166172 0.860077
Si Si4 0.485829 0.086187 0.589089
Si Si5 0.104679 0.212453 0.235991
Si Si6 0.775874 0.266686 0.350293
O O1 0.406631 0.978300 0.345072
O O2 0.244792 0.812101 0.516935
O O3 0.180047 0.589835 0.404844
O O4 0.229604 0.242384 0.272979
O O5 0.826243 0.975492 0.387759
O O6 0.000000 0.000000 0.500000
O O7 0.004741 0.845252 0.369617
O O8 0.118678 0.363567 0.767046
O O9 0.932329 0.465054 0.809046
O O10 0.907942 0.865859 0.857324
O O11 0.000000 0.000000 0.000000
O O12 0.500000 0.500000 0.500000
O O13 0.500000 0.000000 0.500000
O O14 0.351286 0.825136 0.675414
#
# Coordination Sequence:
#
# PCOD9094114 Si02
#       6
#     2   2   2   2   2   2
#     4  11  19  33  53  83 116 134 180 220 285 336
#     4  11  18  29  51  82 117 139 168 218 281 335
#     4  11  24  39  56  78 109 149 190 227 269 319
#     4  10  21  33  51  79 115 149 172 212 273 340
#     4  11  22  34  57  81 111 142 177 232 281 320
#     4  10  20  34  54  79 114 147 180 220 272 329
#
# _framework density 18.654243000000001
#
# number of rings (size 3 to 8) (size 9 to 14) (size 15 to 20)
#    0.000    1.333    5.000    3.000    0.000    0.000 
#    0.000    0.000    0.000    2.000    0.000    0.000 
#    0.000    0.000    0.000    0.000    0.000    0.000 
#
# Total GULP energy -66850.148892 kJ/mol
# GULP energy per Si atom -5570.845741 kJ/mol
# Density = 1.861179 g / cm^3
# Si number density = 18.654243 Si / 1000 Ang^3
#
#
#
# Elastic Constant Matrix: (Units=GPa)
#
#
# Indices 1 2 3 4 5 6 
#
# 1 178.6846 39.0538 27.6380 3.1614 15.9349 25.1829
# 2 39.0538 78.4706 11.6893 15.3364 3.4123 3.9842
# 3 27.6380 11.6893 64.6193 17.4480 9.8177 5.2363
# 4 3.1614 15.3364 17.4480 23.1647 -0.5478 -0.0044
# 5 15.9349 3.4123 9.8177 -0.5478 16.5379 3.2228
# 6 25.1829 3.9842 5.2363 -0.0044 3.2228 25.9590
#
#
#
# Elastic Compliance Matrix: (Units=1/GPa)
#
#
# Indices 1 2 3 4 5 6 
#
# 1 0.007970 -0.003718 -0.002448 0.003119 -0.004157 -0.006151
# 2 -0.003718 0.016686 0.002017 -0.012097 -0.001621 0.000839
# 3 -0.002448 0.002017 0.023160 -0.018735 -0.012214 -0.001093
# 4 0.003119 -0.012097 -0.018735 0.065161 0.012564 0.001061
# 5 -0.004157 -0.001621 -0.012214 0.012564 0.072923 -0.002306
# 6 -0.006151 0.000839 -0.001093 0.001061 -0.002306 0.044867
#
#
# Mechanical properties :
#
#
# Convention : Reuss Voigt Hill
#
# Bulk Modulus (GPa) = 25.30607 53.17075 39.23841
# Shear Modulus (GPa) = 19.82235 29.35856 24.59046
#
# Velocity S-wave (km/s) = 3.26332 3.97145 3.63467
# Velocity P-wave (km/s) = 5.27203 7.04238 6.22051
#
# Compressibility (1/GPa) = 0.03951621
#
# Stress axis : x y z
#
# Youngs Moduli (GPa) = 125.46630 59.93063 43.17706
#
# Poissons Ratio (x) = 0.22285 0.10571
# Poissons Ratio (y) = 0.46654 -0.08707
# Poissons Ratio (z) = 0.30719 -0.12086
#
# Static dielectric constant tensor:
#      x y z
#    x 1.703800 -0.018080 0.018590 
#    y -0.018080 1.736860 0.002700 
#    z 0.018590 0.002700 1.629730 
# 
# From -- ./inp_files/509646.got.cif
#   From: 2010.05.17/outbox.cif.g08.bks.cpg/sg2_255_cif.got.tgz:509646.got - 2010.06.03 11:33:40.
