data_PCOD9094164
_publ_section_title
;
Structure prediction by ZEFSAII (Michael W. Deem and Ramdas Pophale) SiO2 
 PCOD9094164
Probable space group: P -1
;
_chemical_formula_sum "Si O2"
_cell_formula_units_Z 16
_cell_length_a 10.360149
_cell_length_b 10.641746
_cell_length_c 23.616205
_cell_angle_alpha 43.261171
_cell_angle_beta 137.911387
_cell_angle_gamma 153.244563
_cell_volume 766.878770
_symmetry_space_group_name_H-M "P -1"
_symmetry_group_IT_number 2
_symmetry_cell_setting 'triclinic'
loop_
_space_group_symop_operation_xyz
x,y,z
-x,-y,-z
loop_
_atom_site_type_symbol
_atom_site_label
_atom_site_fract_x
_atom_site_fract_y
_atom_site_fract_z
Si Si1 0.779303 0.069517 0.787183
Si Si2 0.208999 0.999366 0.690008
Si Si3 0.208558 0.972626 0.069981
Si Si4 0.650906 0.782762 0.084046
Si Si5 0.189249 0.280404 0.505720
Si Si6 0.208151 0.559351 0.195806
Si Si7 0.176451 0.698040 0.677486
Si Si8 0.059713 0.341373 0.093716
O O1 0.643819 0.930957 0.851326
O O2 0.071515 0.154257 0.848737
O O3 0.939042 0.384364 0.730341
O O4 0.505126 0.848410 0.726059
O O5 0.273950 0.926190 0.679256
O O6 0.917755 0.683680 0.722115
O O7 0.200642 0.200838 0.597942
O O8 0.452022 0.158816 0.766293
O O9 0.069345 0.665470 0.118116
O O10 0.380689 0.140877 0.012323
O O11 0.000000 0.000000 0.000000
O O12 0.336504 0.469400 0.103888
O O13 0.762469 0.008781 0.093298
O O14 0.500000 0.500000 0.500000
O O15 0.007450 0.337499 0.420947
O O16 0.000000 0.000000 0.500000
O O17 0.157305 0.434684 0.159192
O O18 0.000000 0.500000 0.000000
#
# Coordination Sequence:
#
# PCOD9094164 Si02
#       8
#     2   2   2   2   2   2   2   2
#     4  11  22  37  59  88 117 155 193 233 293 356
#     4  11  21  36  56  88 123 150 189 237 287 357
#     4  10  22  38  58  85 121 157 194 238 292 349
#     4  11  25  42  57  83 117 155 203 252 283 333
#     4  10  20  34  54  87 125 157 182 226 293 362
#     4  12  23  38  60  84 116 161 198 238 290 337
#     4  11  19  35  58  87 120 154 182 228 296 364
#     4  12  25  41  60  81 111 159 209 248 287 329
#
# _framework density 20.863793000000001
#
# number of rings (size 3 to 8) (size 9 to 14) (size 15 to 20)
#    0.000    1.000    3.750    4.875    1.750    1.000 
#    0.000    4.375    0.000    0.000    0.000   17.500 
#    0.000    0.000    0.000    0.000    0.000    0.000 
#
# Total GULP energy -89192.608306 kJ/mol
# GULP energy per Si atom -5574.538019 kJ/mol
# Density = 2.081631 g / cm^3
# Si number density = 20.863793 Si / 1000 Ang^3
#
#
#
# Elastic Constant Matrix: (Units=GPa)
#
#
# Indices 1 2 3 4 5 6 
#
# 1 41.0464 0.4418 26.8997 -0.3625 -1.0058 3.8163
# 2 0.4418 96.3053 16.6235 1.0001 9.4248 13.7953
# 3 26.8997 16.6235 139.2197 -1.5335 18.4044 4.8293
# 4 -0.3625 1.0001 -1.5335 30.3294 2.8018 0.0346
# 5 -1.0058 9.4248 18.4044 2.8018 20.0493 5.1737
# 6 3.8163 13.7953 4.8293 0.0346 5.1737 30.7569
#
#
#
# Elastic Compliance Matrix: (Units=1/GPa)
#
#
# Indices 1 2 3 4 5 6 
#
# 1 0.029398 0.000835 -0.006765 -0.000802 0.008539 -0.004396
# 2 0.000835 0.011522 -0.000941 -0.000106 -0.003317 -0.004566
# 3 -0.006765 -0.000941 0.009818 0.001316 -0.009430 0.001305
# 4 -0.000802 -0.000106 0.001316 0.033597 -0.006135 0.000935
# 5 0.008539 -0.003317 -0.009430 -0.006135 0.063647 -0.008790
# 6 -0.004396 -0.004566 0.001305 0.000935 -0.008790 0.036379
#
#
# Mechanical properties :
#
#
# Convention : Reuss Voigt Hill
#
# Bulk Modulus (GPa) = 27.03004 40.50013 33.76509
# Shear Modulus (GPa) = 23.76016 31.73421 27.74719
#
# Velocity S-wave (km/s) = 3.37831 3.90425 3.65076
# Velocity P-wave (km/s) = 5.31045 6.30699 5.83005
#
# Compressibility (1/GPa) = 0.03699587
#
# Stress axis : x y z
#
# Youngs Moduli (GPa) = 34.01590 86.79000 101.85041
#
# Poissons Ratio (x) = -0.07249 0.68903
# Poissons Ratio (y) = -0.02841 0.09588
# Poissons Ratio (z) = 0.23012 0.08171
#
# Static dielectric constant tensor:
#      x y z
#    x 1.829570 0.025310 0.077220 
#    y 0.025310 1.724690 0.015760 
#    z 0.077220 0.015760 1.873430 
# 
# From -- ./inp_files/477116.got.cif
#   From: 2010.05.17/outbox.cif.g08.bks.cpg/sg2_239_cif.got.tgz:477116.got - 2010.06.03 11:33:40.
