data_PCOD9094104
_publ_section_title
;
Structure prediction by ZEFSAII (Michael W. Deem and Ramdas Pophale) SiO2 
 PCOD9094104
Probable space group: P -1
;
_chemical_formula_sum "Si O2"
_cell_formula_units_Z 13
_cell_length_a 9.147700
_cell_length_b 17.481230
_cell_length_c 19.163593
_cell_angle_alpha 14.755756
_cell_angle_beta 141.146598
_cell_angle_gamma 136.922676
_cell_volume 484.708850
_symmetry_space_group_name_H-M "P -1"
_symmetry_group_IT_number 2
_symmetry_cell_setting 'triclinic'
loop_
_space_group_symop_operation_xyz
x,y,z
-x,-y,-z
loop_
_atom_site_type_symbol
_atom_site_label
_atom_site_fract_x
_atom_site_fract_y
_atom_site_fract_z
Si Si1 0.704378 0.758840 0.715558
Si Si2 0.076932 0.683685 0.644133
Si Si3 0.864371 0.727468 0.663610
Si Si4 0.852502 0.221523 0.696055
Si Si5 0.499330 0.418196 0.654372
Si Si6 0.918889 0.952719 0.202562
Si Si7 0.500000 0.500000 0.000000
O O1 0.658813 0.735682 0.636468
O O2 0.711402 0.117611 0.420827
O O3 0.546923 0.572060 0.867649
O O4 0.967846 0.589496 0.979250
O O5 0.869372 0.776234 0.539867
O O6 0.011686 0.761606 0.473227
O O7 0.242106 0.372658 0.996627
O O8 0.000000 0.000000 0.500000
O O9 0.605262 0.337091 0.541547
O O10 0.000000 0.500000 0.500000
O O11 0.890831 0.063036 0.774363
O O12 0.000000 0.000000 0.000000
O O13 0.500000 0.500000 0.500000
O O14 0.303285 0.191874 0.784942
O O15 0.768911 0.263717 0.900816
#
# Coordination Sequence:
#
# PCOD9094104 Si02
#       7
#     2   2   2   2   2   2   1
#     4   9  17  33  56  77 109 151 193 245 301 360
#     4  10  20  36  56  85 114 156 204 252 306 364
#     4   8  16  32  54  77 107 147 194 241 300 356
#     4  10  20  39  64  91 128 170 210 262 326 385
#     4  10  20  38  64  87 121 164 201 255 322 379
#     4  10  22  38  60  93 123 158 209 260 315 382
#     4  10  20  34  54  78 116 152 196 242 314 358
#
# _framework density 26.820222999999999
#
# number of rings (size 3 to 8) (size 9 to 14) (size 15 to 20)
#    0.000    2.462    1.538    0.462    0.000    2.462 
#    0.000   10.769    0.000    0.000    0.000    0.000 
#    0.000    0.000    0.000    0.000    0.000    0.000 
#
# Total GULP energy -72375.630239 kJ/mol
# GULP energy per Si atom -5567.356172 kJ/mol
# Density = 2.675918 g / cm^3
# Si number density = 26.820223 Si / 1000 Ang^3
#
#
#
# Elastic Constant Matrix: (Units=GPa)
#
#
# Indices 1 2 3 4 5 6 
#
# 1 270.6651 52.0458 58.1541 17.8550 16.0842 -53.9250
# 2 52.0458 90.6433 31.8906 0.8619 11.9206 -27.4052
# 3 58.1541 31.8906 119.2487 7.3122 11.5032 -15.0203
# 4 17.8550 0.8619 7.3122 53.1322 5.4726 -4.4895
# 5 16.0842 11.9206 11.5032 5.4726 65.1728 3.9579
# 6 -53.9250 -27.4052 -15.0203 -4.4895 3.9579 57.7513
#
#
#
# Elastic Compliance Matrix: (Units=1/GPa)
#
#
# Indices 1 2 3 4 5 6 
#
# 1 0.005136 -0.001101 -0.001570 -0.001071 -0.000933 0.003845
# 2 -0.001101 0.014492 -0.002496 0.001183 -0.002369 0.005454
# 3 -0.001570 -0.002496 0.009936 -0.000718 -0.000846 -0.000064
# 4 -0.001071 0.001183 -0.000718 0.019501 -0.001523 0.000995
# 5 -0.000933 -0.002369 -0.000846 -0.001523 0.016495 -0.003464
# 6 0.003845 0.005454 -0.000064 0.000995 -0.003464 0.023793
#
#
# Mechanical properties :
#
#
# Convention : Reuss Voigt Hill
#
# Bulk Modulus (GPa) = 52.00086 84.97089 68.48587
# Shear Modulus (GPa) = 47.12676 57.77571 52.45124
#
# Velocity S-wave (km/s) = 4.19637 4.64635 4.42708
# Velocity P-wave (km/s) = 6.55058 7.78044 7.19185
#
# Compressibility (1/GPa) = 0.01923045
#
# Stress axis : x y z
#
# Youngs Moduli (GPa) = 194.70891 69.00460 100.63908
#
# Poissons Ratio (x) = 0.07598 0.15802
# Poissons Ratio (y) = 0.21439 0.25116
# Poissons Ratio (z) = 0.30573 0.17221
#
# Static dielectric constant tensor:
#      x y z
#    x 2.287690 -0.167990 0.066080 
#    y -0.167990 2.958910 -0.098090 
#    z 0.066080 -0.098090 2.402540 
# 
# From -- ./inp_files/32801.got.cif
#   From: 2010.05.17/outbox.cif.g08.bks.cpg/sg2_17_cif.got.tgz:32801.got - 2010.06.03 11:33:40.
