data_PCOD9094203
_publ_section_title
;
Structure prediction by ZEFSAII (Michael W. Deem and Ramdas Pophale) SiO2 
 PCOD9094203
Probable space group: P -1
;
_chemical_formula_sum "Si O2"
_cell_formula_units_Z 16
_cell_length_a 10.743965
_cell_length_b 11.465156
_cell_length_c 6.124500
_cell_angle_alpha 75.476601
_cell_angle_beta 75.123352
_cell_angle_gamma 64.643377
_cell_volume 650.268699
_symmetry_space_group_name_H-M "P -1"
_symmetry_group_IT_number 2
_symmetry_cell_setting 'triclinic'
loop_
_space_group_symop_operation_xyz
x,y,z
-x,-y,-z
loop_
_atom_site_type_symbol
_atom_site_label
_atom_site_fract_x
_atom_site_fract_y
_atom_site_fract_z
Si Si1 0.085536 0.539463 0.753880
Si Si2 0.414446 0.185853 0.545876
Si Si3 0.596457 0.559225 0.295925
Si Si4 0.103460 0.298978 0.584057
Si Si5 0.171948 0.892471 0.741900
Si Si6 0.573653 0.253512 0.056987
Si Si7 0.334050 0.967596 0.250208
Si Si8 0.902764 0.875974 0.976890
O O1 0.238589 0.531189 0.755692
O O2 0.117642 0.430104 0.600357
O O3 0.983261 0.669471 0.613890
O O4 0.000000 0.500000 0.000000
O O5 0.405498 0.309383 0.642883
O O6 0.261582 0.191955 0.557605
O O7 0.520170 0.057344 0.683213
O O8 0.480044 0.211071 0.283302
O O9 0.500000 0.500000 0.500000
O O10 0.519467 0.611133 0.077106
O O11 0.037428 0.250881 0.838157
O O12 0.238793 0.933610 0.486114
O O13 0.136745 0.005209 0.888220
O O14 0.289607 0.763341 0.855978
O O15 0.026949 0.879462 0.769531
O O16 0.627195 0.146140 0.893540
O O17 0.237818 0.100039 0.107875
#
# Coordination Sequence:
#
# PCOD9094203 Si02
#       8
#     2   2   2   2   2   2   2   2
#     4  10  22  42  57  80 118 149 188 238 282 332
#     4   9  19  38  56  77 113 147 181 231 278 333
#     4  10  21  35  57  85 108 142 194 236 282 335
#     4  10  22  38  59  81 110 151 190 225 278 339
#     4   9  19  35  54  80 119 143 179 234 277 331
#     4   9  18  35  56  77 110 147 177 227 286 321
#     4   9  18  35  55  80 112 144 181 228 276 328
#     4  10  20  34  55  83 109 150 186 224 280 333
#
# _framework density 24.605215000000001
#
# number of rings (size 3 to 8) (size 9 to 14) (size 15 to 20)
#    0.000    2.500    0.000    1.125    1.750    2.000 
#    6.750    5.625    0.000    0.000    0.000    0.000 
#    0.000    0.000    0.000    0.000    0.000    0.000 
#
# Total GULP energy -89443.706684 kJ/mol
# GULP energy per Si atom -5590.231668 kJ/mol
# Density = 2.454921 g / cm^3
# Si number density = 24.605215 Si / 1000 Ang^3
#
#
#
# Elastic Constant Matrix: (Units=GPa)
#
#
# Indices 1 2 3 4 5 6 
#
# 1 118.5797 66.8435 47.7792 -17.5284 0.9555 -32.1796
# 2 66.8435 68.7908 28.2462 -9.4944 12.9755 -15.0984
# 3 47.7792 28.2462 100.6829 -8.1309 11.0054 -26.6415
# 4 -17.5284 -9.4944 -8.1309 48.3554 -16.4175 12.7965
# 5 0.9555 12.9755 11.0054 -16.4175 40.5836 -0.6227
# 6 -32.1796 -15.0984 -26.6415 12.7965 -0.6227 46.4427
#
#
#
# Elastic Compliance Matrix: (Units=1/GPa)
#
#
# Indices 1 2 3 4 5 6 
#
# 1 0.025685 -0.022784 -0.004847 0.005973 0.010504 0.006104
# 2 -0.022784 0.037864 0.000814 -0.004881 -0.013793 -0.001851
# 3 -0.004847 0.000814 0.013755 -0.002311 -0.004729 0.005370
# 4 0.005973 -0.004881 -0.002311 0.027591 0.013113 -0.006200
# 5 0.010504 -0.013793 -0.004729 0.013113 0.035343 -0.003057
# 6 0.006104 -0.001851 0.005370 -0.006200 -0.003057 0.029907
#
#
# Mechanical properties :
#
#
# Convention : Reuss Voigt Hill
#
# Bulk Modulus (GPa) = 42.25193 63.75458 53.00326
# Shear Modulus (GPa) = 21.58228 36.75529 29.16879
#
# Velocity S-wave (km/s) = 2.96487 3.86916 3.44680
# Velocity P-wave (km/s) = 5.37865 6.77701 6.11791
#
# Compressibility (1/GPa) = 0.02366756
#
# Stress axis : x y z
#
# Youngs Moduli (GPa) = 38.93386 26.41030 72.69881
#
# Poissons Ratio (x) = 0.60174 0.35239
# Poissons Ratio (y) = 0.88709 -0.05914
# Poissons Ratio (z) = 0.18872 -0.02148
#
# Static dielectric constant tensor:
#      x y z
#    x 1.944090 -0.051000 0.016160 
#    y -0.051000 2.033350 0.011350 
#    z 0.016160 0.011350 1.903050 
# 
# From -- ./inp_files/77091.got.cif
#   From: 2010.05.17/outbox.cif.g08.bks.cpg/sg2_39_cif.got.tgz:77091.got - 2010.06.03 11:33:40.
