data_PCOD9094787
_publ_section_title
;
Structure prediction by ZEFSAII (Michael W. Deem and Ramdas Pophale) SiO2 
 PCOD9094787
Probable space group: P -1
;
_chemical_formula_sum "Si O2"
_cell_formula_units_Z 15
_cell_length_a 8.902178
_cell_length_b 22.629946
_cell_length_c 10.037368
_cell_angle_alpha 33.401796
_cell_angle_beta 62.812710
_cell_angle_gamma 38.642347
_cell_volume 572.262091
_symmetry_space_group_name_H-M "P -1"
_symmetry_group_IT_number 2
_symmetry_cell_setting 'triclinic'
loop_
_space_group_symop_operation_xyz
x,y,z
-x,-y,-z
loop_
_atom_site_type_symbol
_atom_site_label
_atom_site_fract_x
_atom_site_fract_y
_atom_site_fract_z
Si Si1 0.859525 0.819932 0.775062
Si Si2 0.797964 0.945553 0.858714
Si Si3 0.636044 0.560078 0.034377
Si Si4 0.202171 0.332114 0.088750
Si Si5 0.165466 0.842116 0.467961
Si Si6 0.000000 0.500000 0.500000
Si Si7 0.824035 0.715672 0.386323
Si Si8 0.443481 0.430448 0.404860
O O1 0.936289 0.869718 0.542631
O O2 0.792201 0.912654 0.768249
O O3 0.684458 0.814995 0.782743
O O4 0.159243 0.597713 0.108250
O O5 0.932416 0.990097 0.759383
O O6 0.467833 0.123713 0.711187
O O7 0.942439 0.773798 0.207328
O O8 0.574827 0.704430 0.860502
O O9 0.550664 0.496055 0.267112
O O10 0.436549 0.667981 0.781834
O O11 0.976071 0.389799 0.172502
O O12 0.003064 0.524548 0.734783
O O13 0.296220 0.762007 0.418583
O O14 0.765361 0.700345 0.291276
O O15 0.723476 0.562808 0.441788
#
# Coordination Sequence:
#
# PCOD9094787 Si02
#       8
#     2   2   2   2   2   1   2   2
#     4  11  19  33  60  86 111 145 191 239 284 326
#     4  11  21  33  53  87 118 148 183 232 286 340
#     4  10  20  34  61  85 113 142 195 240 280 322
#     4  11  19  37  60  84 111 152 189 235 282 330
#     4  11  19  37  56  90 112 143 190 240 280 333
#     4  12  18  36  62  82 110 144 202 236 274 324
#     4  11  21  34  55  85 114 148 187 232 278 339
#     4  11  19  35  59  88 108 145 194 243 271 330
#
# _framework density 26.211766000000001
#
# number of rings (size 3 to 8) (size 9 to 14) (size 15 to 20)
#    0.000    1.067    8.000    1.200    0.000    0.000 
#    0.000    1.333    0.000    0.800    3.467    0.000 
#    0.000    0.000    0.000    0.000    0.000    0.000 
#
# Total GULP energy -83562.000603 kJ/mol
# GULP energy per Si atom -5570.800040 kJ/mol
# Density = 2.615211 g / cm^3
# Si number density = 26.211766 Si / 1000 Ang^3
#
#
#
# Elastic Constant Matrix: (Units=GPa)
#
#
# Indices 1 2 3 4 5 6 
#
# 1 78.7286 41.8474 -11.8200 -19.7356 15.6189 43.6930
# 2 41.8474 139.1657 24.0143 -20.8506 -15.3626 9.3747
# 3 -11.8200 24.0143 31.9646 -30.0250 5.6668 45.5092
# 4 -19.7356 -20.8506 -30.0250 32.1762 16.2994 -8.5195
# 5 15.6189 -15.3626 5.6668 16.2994 -21.4491 -59.1103
# 6 43.6930 9.3747 45.5092 -8.5195 -59.1103 2.5059
#
#
#
# Elastic Compliance Matrix: (Units=1/GPa)
#
#
# Indices 1 2 3 4 5 6 
#
# 1 0.013512 -0.002912 0.009146 0.007484 0.015558 0.001622
# 2 -0.002912 0.008644 -0.002532 0.002702 -0.003178 -0.001360
# 3 0.009146 -0.002532 0.059966 0.036380 0.047355 0.001672
# 4 0.007484 0.002702 0.036380 0.061703 0.025606 0.012486
# 5 0.015558 -0.003178 0.047355 0.025606 0.043085 -0.016014
# 6 0.001622 -0.001360 0.001672 0.012486 -0.016014 0.010196
#
#
# Mechanical properties :
#
#
# Convention : Reuss Voigt Hill
#
# Bulk Modulus (GPa) = 11.16992 39.77136 25.47064
# Shear Modulus (GPa) = 22.77438 15.70109 19.23773
#
# Velocity S-wave (km/s) = 2.95084 2.45012 2.71206
# Velocity P-wave (km/s) = 3.98505 4.81769 4.42102
#
# Compressibility (1/GPa) = 0.08952613
#
# Stress axis : x y z
#
# Youngs Moduli (GPa) = 74.00774 115.68836 16.67604
#
# Poissons Ratio (x) = 0.33688 -0.15252
# Poissons Ratio (y) = 0.21551 0.04223
# Poissons Ratio (z) = -0.67690 0.29298
#
# Static dielectric constant tensor:
#      x y z
#    x 2.210580 0.047280 0.005610 
#    y 0.047280 2.271150 0.125320 
#    z 0.005610 0.125320 2.233330 
# 
# From -- ./inp_files/406502.got.cif
#   From: 2010.05.17/outbox.cif.g08.bks.cpg/sg2_204_cif.got.tgz:406502.got - 2010.06.03 11:33:40.
