data_PCOD9094074
_publ_section_title
;
Structure prediction by ZEFSAII (Michael W. Deem and Ramdas Pophale) SiO2 
 PCOD9094074
Probable space group: P -1
;
_chemical_formula_sum "Si O2"
_cell_formula_units_Z 13
_cell_length_a 10.830730
_cell_length_b 8.174334
_cell_length_c 7.205055
_cell_angle_alpha 77.887305
_cell_angle_beta 122.115350
_cell_angle_gamma 76.317184
_cell_volume 479.317347
_symmetry_space_group_name_H-M "P -1"
_symmetry_group_IT_number 2
_symmetry_cell_setting 'triclinic'
loop_
_space_group_symop_operation_xyz
x,y,z
-x,-y,-z
loop_
_atom_site_type_symbol
_atom_site_label
_atom_site_fract_x
_atom_site_fract_y
_atom_site_fract_z
Si Si1 0.719980 0.881280 0.730497
Si Si2 0.187826 0.223665 0.584865
Si Si3 0.151310 0.669027 0.791296
Si Si4 0.357271 0.457373 0.575638
Si Si5 0.000000 0.500000 0.000000
Si Si6 0.320316 0.901384 0.018481
Si Si7 0.438431 0.358145 0.240549
O O1 0.747150 0.885433 0.531406
O O2 0.863931 0.685463 0.948804
O O3 0.568712 0.835839 0.684625
O O4 0.724890 0.044159 0.817460
O O5 0.203587 0.415304 0.505511
O O6 0.003676 0.270848 0.478824
O O7 0.301611 0.089389 0.861764
O O8 0.203983 0.831650 0.834722
O O9 0.068338 0.630539 0.915256
O O10 0.317476 0.482590 0.954976
O O11 0.370090 0.459308 0.361221
O O12 0.393122 0.624131 0.643959
O O13 0.506407 0.268866 0.802599
#
# Coordination Sequence:
#
# PCOD9094074 Si02
#       7
#     2   2   2   2   1   2   2
#     4   9  19  35  57  79 108 143 180 225 271 319
#     4  10  20  34  53  81 113 142 177 225 273 320
#     4   9  18  34  56  78 107 143 182 225 269 317
#     4   9  18  33  56  78 108 149 183 219 269 322
#     4   8  16  34  54  74 102 138 174 216 266 312
#     4  11  21  34  55  84 110 142 182 221 271 329
#     4   8  16  34  56  77 104 146 185 221 270 316
#
# _framework density 27.121907
#
# number of rings (size 3 to 8) (size 9 to 14) (size 15 to 20)
#    0.000    2.769    0.000    1.846    0.000    4.923 
#    0.000    7.692    0.000   35.077    0.000    0.000 
#    0.000    0.000    0.000    0.000    0.000    0.000 
#
# Total GULP energy -72405.203200 kJ/mol
# GULP energy per Si atom -5569.631015 kJ/mol
# Density = 2.706018 g / cm^3
# Si number density = 27.121907 Si / 1000 Ang^3
#
#
#
# Elastic Constant Matrix: (Units=GPa)
#
#
# Indices 1 2 3 4 5 6 
#
# 1 63.2062 43.8674 25.8847 9.4809 1.7136 -6.5674
# 2 43.8674 108.9458 14.0764 2.7663 0.0068 -10.7704
# 3 25.8847 14.0764 96.7342 -3.8783 0.8305 -7.3785
# 4 9.4809 2.7663 -3.8783 35.2398 8.1647 -7.2974
# 5 1.7136 0.0068 0.8305 8.1647 48.6596 -2.8753
# 6 -6.5674 -10.7704 -7.3785 -7.2974 -2.8753 33.8712
#
#
#
# Elastic Compliance Matrix: (Units=1/GPa)
#
#
# Indices 1 2 3 4 5 6 
#
# 1 0.025812 -0.009535 -0.005868 -0.007085 0.000334 -0.000803
# 2 -0.009535 0.013137 0.000960 0.002239 0.000121 0.003030
# 3 -0.005868 0.000960 0.012102 0.003455 -0.000431 0.002511
# 4 -0.007085 0.002239 0.003455 0.033041 -0.004953 0.006789
# 5 0.000334 0.000121 -0.000431 -0.004953 0.021422 0.000761
# 6 -0.000803 0.003030 0.002511 0.006789 0.000761 0.032406
#
#
# Mechanical properties :
#
#
# Convention : Reuss Voigt Hill
#
# Bulk Modulus (GPa) = 45.11605 48.50477 46.81041
# Shear Modulus (GPa) = 28.70370 35.89132 32.29751
#
# Velocity S-wave (km/s) = 3.25671 3.64171 3.45458
# Velocity P-wave (km/s) = 5.55088 5.96704 5.76272
#
# Compressibility (1/GPa) = 0.02216506
#
# Stress axis : x y z
#
# Youngs Moduli (GPa) = 38.74188 76.12234 82.63184
#
# Poissons Ratio (x) = 0.72580 0.48486
# Poissons Ratio (y) = 0.36939 -0.07929
# Poissons Ratio (z) = 0.22732 -0.07305
#
# Static dielectric constant tensor:
#      x y z
#    x 0.880840 0.248150 -0.578210 
#    y 0.248150 2.028850 0.287300 
#    z -0.578210 0.287300 2.352440 
# 
# From -- ./inp_files/234388.got.cif
#   From: 2010.05.17/outbox.cif.g08.bks.cpg/sg2_118_cif.got.tgz:234388.got - 2010.06.03 11:33:40.
