data_PCOD9094569
_publ_section_title
;
Structure prediction by ZEFSAII (Michael W. Deem and Ramdas Pophale) SiO2 
 PCOD9094569
Probable space group: P -1
;
_chemical_formula_sum "Si O2"
_cell_formula_units_Z 16
_cell_length_a 20.284021
_cell_length_b 6.682378
_cell_length_c 12.009748
_cell_angle_alpha 87.415871
_cell_angle_beta 24.438022
_cell_angle_gamma 87.114628
_cell_volume 672.607932
_symmetry_space_group_name_H-M "P -1"
_symmetry_group_IT_number 2
_symmetry_cell_setting 'triclinic'
loop_
_space_group_symop_operation_xyz
x,y,z
-x,-y,-z
loop_
_atom_site_type_symbol
_atom_site_label
_atom_site_fract_x
_atom_site_fract_y
_atom_site_fract_z
Si Si1 0.458597 0.886397 0.814102
Si Si2 0.020581 0.121411 0.635682
Si Si3 0.424302 0.501699 0.737380
Si Si4 0.818781 0.811961 0.838741
Si Si5 0.341080 0.775115 0.473504
Si Si6 0.708958 0.201028 0.707875
Si Si7 0.019751 0.235753 0.978436
Si Si8 0.949614 0.517006 0.268519
O O1 0.422511 0.722713 0.782685
O O2 0.624589 0.998884 0.543621
O O3 0.423459 0.801742 0.992874
O O4 0.326520 0.059891 0.993533
O O5 0.057762 0.205613 0.452620
O O6 0.974292 0.311120 0.777658
O O7 0.174532 0.996126 0.451254
O O8 0.892710 0.949828 0.816876
O O9 0.500000 0.500000 0.500000
O O10 0.539640 0.377154 0.646338
O O11 0.255085 0.393117 0.002122
O O12 0.360429 0.788220 0.309965
O O13 0.164250 0.705558 0.769811
O O14 0.819403 0.396812 0.542252
O O15 0.041393 0.336915 0.063667
O O16 0.122955 0.342945 0.723558
O O17 0.000000 0.000000 0.000000
#
# Coordination Sequence:
#
# PCOD9094569 Si02
#       8
#     2   2   2   2   2   2   2   2
#     4  10  22  41  64  87 121 162 202 250 302 358
#     4  10  20  38  64  90 124 157 195 255 308 357
#     4  11  25  42  60  85 121 166 210 248 290 356
#     4   9  22  41  60  90 121 158 208 250 297 357
#     4  10  23  40  61  90 119 156 202 247 305 364
#     4  10  21  38  63  96 123 151 196 256 314 358
#     4  10  22  39  57  87 126 156 195 246 299 365
#     4  10  20  34  58  88 120 158 193 237 300 362
#
# _framework density 23.788004999999998
#
# number of rings (size 3 to 8) (size 9 to 14) (size 15 to 20)
#    0.000    2.000    0.000    2.625    0.000   11.500 
#    0.000    3.750    0.000    0.000    0.000    0.000 
#    0.000    0.000    0.000    0.000    0.000    0.000 
#
# Total GULP energy -89345.827334 kJ/mol
# GULP energy per Si atom -5584.114208 kJ/mol
# Density = 2.373386 g / cm^3
# Si number density = 23.788005 Si / 1000 Ang^3
#
#
#
# Elastic Constant Matrix: (Units=GPa)
#
#
# Indices 1 2 3 4 5 6 
#
# 1 84.5483 27.7077 10.2772 2.0324 8.8953 8.2191
# 2 27.7077 119.8234 11.1618 -9.6786 14.9630 30.7297
# 3 10.2772 11.1618 36.2286 -16.7810 8.7458 4.3839
# 4 2.0324 -9.6786 -16.7810 33.5001 3.3614 0.4654
# 5 8.8953 14.9630 8.7458 3.3614 26.0041 0.4862
# 6 8.2191 30.7297 4.3839 0.4654 0.4862 51.9594
#
#
#
# Elastic Compliance Matrix: (Units=1/GPa)
#
#
# Indices 1 2 3 4 5 6 
#
# 1 0.013512 -0.002893 -0.004466 -0.003796 -0.000965 -0.000007
# 2 -0.002893 0.011882 0.002303 0.005580 -0.007217 -0.006747
# 3 -0.004466 0.002303 0.044731 0.025214 -0.018017 -0.004487
# 4 -0.003796 0.005580 0.025214 0.046024 -0.016246 -0.005087
# 5 -0.000965 -0.007217 -0.018017 -0.016246 0.050993 0.005610
# 6 -0.000007 -0.006747 -0.004487 -0.005087 0.005610 0.023609
#
#
# Mechanical properties :
#
#
# Convention : Reuss Voigt Hill
#
# Bulk Modulus (GPa) = 16.66303 37.65484 27.15894
# Shear Modulus (GPa) = 22.63801 35.05629 28.84715
#
# Velocity S-wave (km/s) = 3.08824 3.84304 3.48613
# Velocity P-wave (km/s) = 4.44256 5.96286 5.25794
#
# Compressibility (1/GPa) = 0.06001309
#
# Stress axis : x y z
#
# Youngs Moduli (GPa) = 74.00901 84.15942 22.35579
#
# Poissons Ratio (x) = 0.24346 0.09985
# Poissons Ratio (y) = 0.21410 -0.05149
# Poissons Ratio (z) = 0.33055 -0.19383
#
# Static dielectric constant tensor:
#      x y z
#    x 1.932320 -0.010040 -0.018030 
#    y -0.010040 1.921510 -0.005700 
#    z -0.018030 -0.005700 1.928570 
# 
# From -- ./inp_files/468392.got.cif
#   From: 2010.05.17/outbox.cif.g08.bks.cpg/sg2_235_cif.got.tgz:468392.got - 2010.06.03 11:33:40.
