data_PCOD9094621
_publ_section_title
;
Structure prediction by ZEFSAII (Michael W. Deem and Ramdas Pophale) SiO2 
 PCOD9094621
Probable space group: P -1
;
_chemical_formula_sum "Si O2"
_cell_formula_units_Z 14
_cell_length_a 5.516731
_cell_length_b 11.566395
_cell_length_c 11.767476
_cell_angle_alpha 79.064818
_cell_angle_beta 102.806116
_cell_angle_gamma 83.410623
_cell_volume 709.188569
_symmetry_space_group_name_H-M "P -1"
_symmetry_group_IT_number 2
_symmetry_cell_setting 'triclinic'
loop_
_space_group_symop_operation_xyz
x,y,z
-x,-y,-z
loop_
_atom_site_type_symbol
_atom_site_label
_atom_site_fract_x
_atom_site_fract_y
_atom_site_fract_z
Si Si1 0.716590 0.978713 0.672622
Si Si2 0.589929 0.857560 0.024286
Si Si3 0.128014 0.263401 0.313625
Si Si4 0.315991 0.188509 0.699352
Si Si5 0.848367 0.163725 0.504342
Si Si6 0.580502 0.626553 0.502009
Si Si7 0.046038 0.819135 0.897638
O O1 0.528764 0.079471 0.699984
O O2 0.755816 0.039333 0.544364
O O3 0.642930 0.846500 0.672132
O O4 0.958449 0.937807 0.788001
O O5 0.830353 0.829973 0.970059
O O6 0.333188 0.811374 0.967121
O O7 0.673908 0.806454 0.166036
O O8 0.500000 0.000000 0.000000
O O9 0.208905 0.365885 0.380142
O O10 0.991870 0.286751 0.174837
O O11 0.960068 0.193468 0.390570
O O12 0.347686 0.312662 0.618297
O O13 0.061631 0.160251 0.623697
O O14 0.647931 0.277978 0.493657
O O15 0.500000 0.500000 0.500000
#
# Coordination Sequence:
#
# PCOD9094621 Si02
#       7
#     2   2   2   2   2   2   2
#     4   9  19  33  51  89 122 154 189 230 304 354
#     4  12  21  37  57  87 130 166 199 236 286 366
#     4   9  21  35  55  89 115 158 193 246 295 370
#     4  10  22  34  57  88 118 158 198 237 299 353
#     4  10  20  34  59  81 120 148 197 246 307 359
#     4  10  23  41  60  82 110 152 205 261 305 348
#     4  10  24  33  59  85 129 165 196 233 293 357
#
# _framework density 19.740872
#
# number of rings (size 3 to 8) (size 9 to 14) (size 15 to 20)
#    0.857    1.143    1.429    1.714    6.000    8.571 
#    0.000    0.000    0.000    1.714    0.000    0.000 
#    0.000    0.000    0.000    0.000    0.000    0.000 
#
# Total GULP energy -77965.293239 kJ/mol
# GULP energy per Si atom -5568.949517 kJ/mol
# Density = 1.969594 g / cm^3
# Si number density = 19.740872 Si / 1000 Ang^3
#
#
#
# Elastic Constant Matrix: (Units=GPa)
#
#
# Indices 1 2 3 4 5 6 
#
# 1 76.3955 9.2675 43.5233 12.0907 -0.7935 10.9087
# 2 9.2675 62.2958 17.5192 6.7822 -7.9168 34.7812
# 3 43.5233 17.5192 136.8804 28.4969 -3.3429 14.4911
# 4 12.0907 6.7822 28.4969 19.5271 -3.2864 3.7752
# 5 -0.7935 -7.9168 -3.3429 -3.2864 24.3599 0.4847
# 6 10.9087 34.7812 14.4911 3.7752 0.4847 27.9182
#
#
#
# Elastic Compliance Matrix: (Units=1/GPa)
#
#
# Indices 1 2 3 4 5 6 
#
# 1 0.016890 0.004708 -0.004055 -0.004079 0.001169 -0.009829
# 2 0.004708 0.064455 0.000966 -0.007163 0.021900 -0.082052
# 3 -0.004055 0.000966 0.011880 -0.014431 -0.000058 -0.003833
# 4 -0.004079 -0.007163 -0.014431 0.076801 0.005770 0.007522
# 5 0.001169 0.021900 -0.000058 0.005770 0.049561 -0.029351
# 6 -0.009829 -0.082052 -0.003833 0.007522 -0.029351 0.143364
#
#
# Mechanical properties :
#
#
# Convention : Reuss Voigt Hill
#
# Bulk Modulus (GPa) = 10.36656 46.24351 28.30504
# Shear Modulus (GPa) = 12.75946 28.04517 20.40232
#
# Velocity S-wave (km/s) = 2.54509 3.77326 3.21831
# Velocity P-wave (km/s) = 3.72819 6.51609 5.30843
#
# Compressibility (1/GPa) = 0.09646399
#
# Stress axis : x y z
#
# Youngs Moduli (GPa) = 59.20727 15.51468 84.17535
#
# Poissons Ratio (x) = -0.07305 0.34131
# Poissons Ratio (y) = -0.27876 -0.08132
# Poissons Ratio (z) = 0.24007 -0.01499
#
# Static dielectric constant tensor:
#      x y z
#    x 1.859100 0.024820 0.013190 
#    y 0.024820 1.685400 0.040310 
#    z 0.013190 0.040310 1.746570 
# 
# From -- ./inp_files/362014.got.cif
#   From: 2010.05.17/outbox.cif.g08.bks.cpg/sg2_182_cif.got.tgz:362014.got - 2010.06.03 11:33:40.
