data_PCOD9094911
_publ_section_title
;
Structure prediction by ZEFSAII (Michael W. Deem and Ramdas Pophale) SiO2 
 PCOD9094911
Probable space group: P -1
;
_chemical_formula_sum "Si O2"
_cell_formula_units_Z 16
_cell_length_a 9.053046
_cell_length_b 16.082119
_cell_length_c 7.753247
_cell_angle_alpha 91.483090
_cell_angle_beta 100.808999
_cell_angle_gamma 43.653825
_cell_volume 755.290495
_symmetry_space_group_name_H-M "P -1"
_symmetry_group_IT_number 2
_symmetry_cell_setting 'triclinic'
loop_
_space_group_symop_operation_xyz
x,y,z
-x,-y,-z
loop_
_atom_site_type_symbol
_atom_site_label
_atom_site_fract_x
_atom_site_fract_y
_atom_site_fract_z
Si Si1 0.052272 0.383491 0.721161
Si Si2 0.280894 0.623575 0.370977
Si Si3 0.175819 0.814447 0.563084
Si Si4 0.532421 0.576065 0.102867
Si Si5 0.541807 0.203136 0.956873
Si Si6 0.824223 0.042785 0.680219
Si Si7 0.507710 0.179268 0.319693
Si Si8 0.965320 0.602433 0.696078
O O1 0.298034 0.275901 0.841351
O O2 0.955361 0.511985 0.758082
O O3 0.884042 0.379438 0.732982
O O4 0.063447 0.382674 0.515490
O O5 0.500000 0.500000 0.500000
O O6 0.165315 0.725198 0.497565
O O7 0.372125 0.641716 0.236633
O O8 0.090802 0.906727 0.390808
O O9 0.424726 0.750239 0.627549
O O10 0.027768 0.897129 0.699868
O O11 0.481270 0.687038 0.013360
O O12 0.788495 0.470293 0.209227
O O13 0.500000 0.500000 0.000000
O O14 0.715846 0.108121 0.841470
O O15 0.590722 0.135234 0.141270
O O16 0.638042 0.086300 0.503756
O O17 0.249614 0.265794 0.270645
#
# Coordination Sequence:
#
# PCOD9094911 Si02
#       8
#     2   2   2   2   2   2   2   2
#     4  10  21  34  58  83 118 159 197 236 298 352
#     4  12  22  37  62  88 118 157 194 241 304 352
#     4   9  20  39  61  89 115 154 198 250 292 343
#     4  11  25  35  52  91 129 151 194 251 296 351
#     4  11  22  38  61  88 116 159 199 243 293 359
#     4   9  19  41  61  86 116 153 206 245 287 348
#     4  10  20  34  64  83 113 154 203 237 294 345
#     4  10  20  38  55  82 120 166 193 236 292 362
#
# _framework density 21.183902
#
# number of rings (size 3 to 8) (size 9 to 14) (size 15 to 20)
#    0.750    1.000    3.750    0.750    7.000    1.500 
#    0.000    0.625    0.000    0.750    0.000    0.000 
#    0.000    0.000    0.000    0.000    0.000    0.000 
#
# Total GULP energy -89153.891943 kJ/mol
# GULP energy per Si atom -5572.118246 kJ/mol
# Density = 2.113569 g / cm^3
# Si number density = 21.183902 Si / 1000 Ang^3
#
#
#
# Elastic Constant Matrix: (Units=GPa)
#
#
# Indices 1 2 3 4 5 6 
#
# 1 83.2830 21.3944 7.4512 -0.5422 17.4636 -11.6759
# 2 21.3944 73.0655 18.8781 13.0726 8.3141 -17.4865
# 3 7.4512 18.8781 65.7306 6.3783 -2.6024 -4.1358
# 4 -0.5422 13.0726 6.3783 21.5354 -4.6978 -0.9733
# 5 17.4636 8.3141 -2.6024 -4.6978 37.2569 5.7836
# 6 -11.6759 -17.4865 -4.1358 -0.9733 5.7836 26.3034
#
#
#
# Elastic Compliance Matrix: (Units=1/GPa)
#
#
# Indices 1 2 3 4 5 6 
#
# 1 0.015203 -0.001544 -0.001161 0.000257 -0.007963 0.007300
# 2 -0.001544 0.022133 -0.004292 -0.013389 -0.008489 0.014725
# 3 -0.001161 -0.004292 0.016778 -0.001877 0.002652 -0.001383
# 4 0.000257 -0.013389 -0.001877 0.057188 0.011419 -0.009477
# 5 -0.007963 -0.008489 0.002652 0.011419 0.036638 -0.016395
# 6 0.007300 0.014725 -0.001383 -0.009477 -0.016395 0.054084
#
#
# Mechanical properties :
#
#
# Convention : Reuss Voigt Hill
#
# Bulk Modulus (GPa) = 24.92555 35.28072 30.10314
# Shear Modulus (GPa) = 21.79686 28.64283 25.21984
#
# Velocity S-wave (km/s) = 3.21118 3.68108 3.45413
# Velocity P-wave (km/s) = 5.05378 5.89558 5.49084
#
# Compressibility (1/GPa) = 0.04011947
#
# Stress axis : x y z
#
# Youngs Moduli (GPa) = 65.77787 45.18115 59.60189
#
# Poissons Ratio (x) = 0.06978 0.06918
# Poissons Ratio (y) = 0.10159 0.25581
# Poissons Ratio (z) = 0.07635 0.19392
#
# Static dielectric constant tensor:
#      x y z
#    x 1.780110 0.000810 -0.004750 
#    y 0.000810 1.767760 -0.003640 
#    z -0.004750 -0.003640 1.834240 
# 
# From -- ./inp_files/207904.got.cif
#   From: 2010.05.17/outbox.cif.g08.bks.cpg/sg2_104_cif.got.tgz:207904.got - 2010.06.03 11:33:40.
