data_PCOD9094153
_publ_section_title
;
Structure prediction by ZEFSAII (Michael W. Deem and Ramdas Pophale) SiO2 
 PCOD9094153
Probable space group: P -1
;
_chemical_formula_sum "Si O2"
_cell_formula_units_Z 16
_cell_length_a 11.591649
_cell_length_b 11.428855
_cell_length_c 6.564223
_cell_angle_alpha 58.262228
_cell_angle_beta 83.751079
_cell_angle_gamma 92.863965
_cell_volume 729.252681
_symmetry_space_group_name_H-M "P -1"
_symmetry_group_IT_number 2
_symmetry_cell_setting 'triclinic'
loop_
_space_group_symop_operation_xyz
x,y,z
-x,-y,-z
loop_
_atom_site_type_symbol
_atom_site_label
_atom_site_fract_x
_atom_site_fract_y
_atom_site_fract_z
Si Si1 0.802176 0.510255 0.095831
Si Si2 0.454153 0.173610 0.957256
Si Si3 0.601378 0.305247 0.432064
Si Si4 0.333744 0.851146 0.825297
Si Si5 0.744574 0.887172 0.259647
Si Si6 0.387686 0.339467 0.203305
Si Si7 0.089998 0.321957 0.716852
Si Si8 0.849732 0.394392 0.802799
O O1 0.721298 0.404261 0.353659
O O2 0.863469 0.633784 0.106408
O O3 0.709529 0.562265 0.908849
O O4 0.878471 0.428452 0.005592
O O5 0.535515 0.244917 0.697908
O O6 0.335524 0.106686 0.933599
O O7 0.543348 0.091068 0.142339
O O8 0.419639 0.281773 0.031107
O O9 0.634139 0.189032 0.373031
O O10 0.507229 0.388056 0.256291
O O11 0.245757 0.963701 0.772443
O O12 0.271321 0.708428 0.068651
O O13 0.671930 0.784957 0.528771
O O14 0.856837 0.813198 0.246727
O O15 0.137614 0.456867 0.448013
O O16 0.950488 0.315362 0.755953
#
# Coordination Sequence:
#
# PCOD9094153 Si02
#       8
#     2   2   2   2   2   2   2   2
#     4  11  19  37  59  83 114 147 189 234 284 331
#     4  10  20  37  57  87 115 152 187 229 279 339
#     4   9  21  34  55  86 117 150 185 228 280 339
#     4  10  22  39  58  83 119 151 184 233 282 331
#     4  11  22  37  58  87 116 150 190 227 279 342
#     4  10  20  34  54  86 117 150 183 232 277 333
#     4  11  22  39  63  85 109 149 193 234 285 335
#     4  10  23  41  60  84 113 146 191 241 282 329
#
# _framework density 21.940266999999999
#
# number of rings (size 3 to 8) (size 9 to 14) (size 15 to 20)
#    0.000    1.750    2.500    1.875    0.000    6.500 
#    0.000    0.000    0.000    0.750    0.000    0.000 
#    0.000    0.000    0.000    0.000    0.000    0.000 
#
# Total GULP energy -89283.162271 kJ/mol
# GULP energy per Si atom -5580.197642 kJ/mol
# Density = 2.189033 g / cm^3
# Si number density = 21.940267 Si / 1000 Ang^3
#
#
#
# Elastic Constant Matrix: (Units=GPa)
#
#
# Indices 1 2 3 4 5 6 
#
# 1 50.7159 20.9799 4.9862 10.1218 -4.8181 -19.8673
# 2 20.9799 65.4344 4.4667 5.2730 -2.3144 -40.6659
# 3 4.9862 4.4667 37.3459 17.8686 -16.3937 -2.9515
# 4 10.1218 5.2730 17.8686 30.3610 -4.9944 -5.8037
# 5 -4.8181 -2.3144 -16.3937 -4.9944 20.1465 5.5672
# 6 -19.8673 -40.6659 -2.9515 -5.8037 5.5672 38.5410
#
#
#
# Elastic Compliance Matrix: (Units=1/GPa)
#
#
# Indices 1 2 3 4 5 6 
#
# 1 0.025936 -0.000946 0.002407 -0.007268 0.003212 0.010997
# 2 -0.000946 0.048175 -0.012293 0.006383 -0.017738 0.052925
# 3 0.002407 -0.012293 0.061830 -0.030860 0.046916 -0.018419
# 4 -0.007268 0.006383 -0.030860 0.051800 -0.016252 0.010772
# 5 0.003212 -0.017738 0.046916 -0.016252 0.090526 -0.028991
# 6 0.010997 0.052925 -0.018419 0.010772 -0.028991 0.091858
#
#
# Mechanical properties :
#
#
# Convention : Reuss Voigt Hill
#
# Bulk Modulus (GPa) = 8.75076 23.81799 16.28437
# Shear Modulus (GPa) = 11.63111 26.01391 18.82251
#
# Velocity S-wave (km/s) = 2.30494 3.44709 2.93217
# Velocity P-wave (km/s) = 3.32878 5.16940 4.34761
#
# Compressibility (1/GPa) = 0.11427583
#
# Stress axis : x y z
#
# Youngs Moduli (GPa) = 38.55608 20.75760 16.17345
#
# Poissons Ratio (x) = 0.01965 -0.03893
# Poissons Ratio (y) = 0.03649 0.19882
# Poissons Ratio (z) = -0.09281 0.25518
#
# Static dielectric constant tensor:
#      x y z
#    x 1.835510 -0.027410 0.022290 
#    y -0.027410 1.811370 -0.010190 
#    z 0.022290 -0.010190 1.835560 
# 
# From -- ./inp_files/68452.got.cif
#   From: 2010.05.17/outbox.cif.g08.bks.cpg/sg2_35_cif.got.tgz:68452.got - 2010.06.03 11:33:40.
