data_PCOD9094084
_publ_section_title
;
Structure prediction by ZEFSAII (Michael W. Deem and Ramdas Pophale) SiO2 
 PCOD9094084
Probable space group: P -1
;
_chemical_formula_sum "Si O2"
_cell_formula_units_Z 14
_cell_length_a 11.503291
_cell_length_b 14.384281
_cell_length_c 11.797548
_cell_angle_alpha 85.613413
_cell_angle_beta 155.610955
_cell_angle_gamma 82.347683
_cell_volume 699.433046
_symmetry_space_group_name_H-M "P -1"
_symmetry_group_IT_number 2
_symmetry_cell_setting 'triclinic'
loop_
_space_group_symop_operation_xyz
x,y,z
-x,-y,-z
loop_
_atom_site_type_symbol
_atom_site_label
_atom_site_fract_x
_atom_site_fract_y
_atom_site_fract_z
Si Si1 0.750633 0.713924 0.391330
Si Si2 0.028052 0.383006 0.027279
Si Si3 0.870549 0.920940 0.860267
Si Si4 0.922764 0.248140 0.135891
Si Si5 0.156375 0.475132 0.767090
Si Si6 0.119808 0.666608 0.496710
Si Si7 0.773172 0.275480 0.648164
O O1 0.794139 0.785897 0.517309
O O2 0.006645 0.593240 0.671449
O O3 0.864224 0.726518 0.365562
O O4 0.406248 0.719930 0.091250
O O5 0.411156 0.302375 0.356491
O O6 0.914664 0.341390 0.039740
O O7 0.000000 0.500000 0.000000
O O8 0.829523 0.366707 0.750674
O O9 0.020225 0.846554 0.889809
O O10 0.500000 0.000000 0.500000
O O11 0.964092 0.835060 0.051995
O O12 0.000000 0.000000 0.000000
O O13 0.000000 0.500000 0.500000
O O14 0.014513 0.400127 0.686764
O O15 0.538873 0.410874 0.131027
O O16 0.188089 0.728466 0.452510
#
# Coordination Sequence:
#
# PCOD9094084 Si02
#       7
#     2   2   2   2   2   2   2
#     4  11  21  36  58  86 128 160 205 248 285 362
#     4  11  24  39  58  87 133 168 199 254 303 362
#     4  11  23  45  69  86 114 153 211 274 317 370
#     4  11  23  38  62  92 116 158 211 244 314 366
#     4  10  20  34  53  83 123 178 215 224 273 350
#     4  11  22  37  58  88 127 169 207 249 291 358
#     4  11  24  41  62  94 119 162 217 246 315 377
#
# _framework density 20.016210000000001
#
# number of rings (size 3 to 8) (size 9 to 14) (size 15 to 20)
#    0.000    1.143    0.000    9.857    6.000    0.000 
#    0.000    0.000    0.000    5.143    0.000    0.000 
#    0.000    0.000    0.000    0.000    0.000    0.000 
#
# Total GULP energy -78094.085372 kJ/mol
# GULP energy per Si atom -5578.148955 kJ/mol
# Density = 1.997065 g / cm^3
# Si number density = 20.016210 Si / 1000 Ang^3
#
#
#
# Elastic Constant Matrix: (Units=GPa)
#
#
# Indices 1 2 3 4 5 6 
#
# 1 117.4655 19.7542 41.7274 -0.4121 -7.7417 4.2932
# 2 19.7542 90.9543 15.6265 13.2596 -2.3492 -5.4742
# 3 41.7274 15.6265 103.6264 16.3425 24.7944 13.3822
# 4 -0.4121 13.2596 16.3425 40.3357 -2.5567 -1.2058
# 5 -7.7417 -2.3492 24.7944 -2.5567 28.7223 10.1913
# 6 4.2932 -5.4742 13.3822 -1.2058 10.1913 18.3717
#
#
#
# Elastic Compliance Matrix: (Units=1/GPa)
#
#
# Indices 1 2 3 4 5 6 
#
# 1 0.012547 -0.001999 -0.007755 0.004551 0.011778 -0.004113
# 2 -0.001999 0.012404 -0.000954 -0.003612 -0.000824 0.005078
# 3 -0.007755 -0.000954 0.019054 -0.008735 -0.018437 -0.002697
# 4 0.004551 -0.003612 -0.008735 0.030273 0.011159 0.000019
# 5 0.011778 -0.000824 -0.018437 0.011159 0.063338 -0.023971
# 6 -0.004113 0.005078 -0.002697 0.000019 -0.023971 0.072169
#
#
# Mechanical properties :
#
#
# Convention : Reuss Voigt Hill
#
# Bulk Modulus (GPa) = 44.27478 51.80692 48.04085
# Shear Modulus (GPa) = 20.94407 33.14848 27.04627
#
# Velocity S-wave (km/s) = 3.23825 4.07391 3.67988
# Velocity P-wave (km/s) = 6.01242 6.93309 6.48910
#
# Compressibility (1/GPa) = 0.02258622
#
# Stress axis : x y z
#
# Youngs Moduli (GPa) = 79.70131 80.62147 52.48221
#
# Poissons Ratio (x) = 0.16120 0.40702
# Poissons Ratio (y) = 0.15936 0.05009
# Poissons Ratio (z) = 0.61811 0.07694
#
# Static dielectric constant tensor:
#      x y z
#    x 1.738810 0.075500 0.008940 
#    y 0.075500 1.619840 0.019290 
#    z 0.008940 0.019290 1.698260 
# 
# From -- ./inp_files/433967.got.cif
#   From: 2010.05.17/outbox.cif.g08.bks.cpg/sg2_217_cif.got.tgz:433967.got - 2010.06.03 11:33:40.
