data_PCOD9094432
_publ_section_title
;
Structure prediction by ZEFSAII (Michael W. Deem and Ramdas Pophale) SiO2 
 PCOD9094432
Probable space group: P -1
;
_chemical_formula_sum "Si O2"
_cell_formula_units_Z 16
_cell_length_a 14.715191
_cell_length_b 14.051364
_cell_length_c 11.624940
_cell_angle_alpha 54.656666
_cell_angle_beta 45.173239
_cell_angle_gamma 30.070178
_cell_volume 850.813398
_symmetry_space_group_name_H-M "P -1"
_symmetry_group_IT_number 2
_symmetry_cell_setting 'triclinic'
loop_
_space_group_symop_operation_xyz
x,y,z
-x,-y,-z
loop_
_atom_site_type_symbol
_atom_site_label
_atom_site_fract_x
_atom_site_fract_y
_atom_site_fract_z
Si Si1 0.884075 0.181131 0.398420
Si Si2 0.453333 0.681887 0.271338
Si Si3 0.193369 0.771464 0.993612
Si Si4 0.922962 0.286695 0.075991
Si Si5 0.423781 0.953951 0.185553
Si Si6 0.854333 0.639037 0.140958
Si Si7 0.963765 0.336995 0.385148
Si Si8 0.657814 0.421305 0.755880
O O1 0.648740 0.301310 0.535214
O O2 0.959091 0.149525 0.223818
O O3 0.904189 0.291807 0.365086
O O4 0.000000 0.000000 0.500000
O O5 0.702831 0.496416 0.172405
O O6 0.387134 0.864177 0.205652
O O7 0.371072 0.663764 0.250533
O O8 0.248258 0.692762 0.128705
O O9 0.119352 0.721281 0.010478
O O10 0.423628 0.642041 0.829373
O O11 0.000000 0.000000 0.000000
O O12 0.095901 0.262021 0.947274
O O13 0.614511 0.793146 0.213398
O O14 0.212541 0.139757 0.310034
O O15 0.500000 0.000000 0.000000
O O16 0.917111 0.503361 0.278374
O O17 0.000000 0.500000 0.000000
O O18 0.821395 0.394108 0.575439
#
# Coordination Sequence:
#
# PCOD9094432 Si02
#       8
#     2   2   2   2   2   2   2   2
#     4  11  20  31  54  91 121 146 189 242 304 370
#     4  10  20  34  57  84 122 152 190 243 306 360
#     4  10  23  41  66  86 116 157 204 258 306 348
#     4  11  22  39  57  85 121 159 197 246 303 353
#     4  12  21  33  56  89 125 167 196 228 300 370
#     4  12  22  38  56  84 129 162 198 235 288 367
#     4  11  22  38  59  87 126 160 195 247 298 360
#     4   9  23  42  59  91 117 150 207 257 303 348
#
# _framework density 18.805534000000002
#
# number of rings (size 3 to 8) (size 9 to 14) (size 15 to 20)
#    0.000    1.250    5.000    0.375    3.500    3.000 
#    0.000    0.625    0.000    1.500    0.000    0.000 
#    0.000    0.000    0.000    0.000    0.000    0.000 
#
# Total GULP energy -89276.223968 kJ/mol
# GULP energy per Si atom -5579.763998 kJ/mol
# Density = 1.876273 g / cm^3
# Si number density = 18.805534 Si / 1000 Ang^3
#
#
#
# Elastic Constant Matrix: (Units=GPa)
#
#
# Indices 1 2 3 4 5 6 
#
# 1 68.4846 23.4499 41.4943 -2.2618 -4.6480 -7.8794
# 2 23.4499 131.3974 55.4862 9.9439 -0.8830 -11.7195
# 3 41.4943 55.4862 127.2964 5.6003 -10.2911 -0.9471
# 4 -2.2618 9.9439 5.6003 33.8806 -2.0054 -6.6367
# 5 -4.6480 -0.8830 -10.2911 -2.0054 23.3583 -4.1420
# 6 -7.8794 -11.7195 -0.9471 -6.6367 -4.1420 21.5043
#
#
#
# Elastic Compliance Matrix: (Units=1/GPa)
#
#
# Indices 1 2 3 4 5 6 
#
# 1 0.019839 -0.000488 -0.006127 0.004368 0.003145 0.008687
# 2 -0.000488 0.009952 -0.004154 -0.001449 -0.000887 0.004444
# 3 -0.006127 -0.004154 0.011958 -0.001758 0.003043 -0.003939
# 4 0.004368 -0.001449 -0.001758 0.033156 0.005002 0.011930
# 5 0.003145 -0.000887 0.003043 0.005002 0.047202 0.011438
# 6 0.008687 0.004444 -0.003939 0.011930 0.011438 0.057819
#
#
# Mechanical properties :
#
#
# Convention : Reuss Voigt Hill
#
# Bulk Modulus (GPa) = 49.47999 63.11546 56.29772
# Shear Modulus (GPa) = 24.01561 29.53185 26.77373
#
# Velocity S-wave (km/s) = 3.57746 3.96710 3.77731
# Velocity P-wave (km/s) = 6.59036 7.39046 7.00185
#
# Compressibility (1/GPa) = 0.02021019
#
# Stress axis : x y z
#
# Youngs Moduli (GPa) = 50.40676 100.48676 83.62926
#
# Poissons Ratio (x) = 0.04900 0.51243
# Poissons Ratio (y) = 0.02458 0.34737
# Poissons Ratio (z) = 0.30886 0.41739
#
# Static dielectric constant tensor:
#      x y z
#    x 1.649770 -0.034090 -0.002620 
#    y -0.034090 1.744570 0.013570 
#    z -0.002620 0.013570 1.661090 
# 
# From -- ./inp_files/454611.got.cif
#   From: 2010.05.17/outbox.cif.g08.bks.cpg/sg2_228_cif.got.tgz:454611.got - 2010.06.03 11:33:40.
