data_PCOD9094453
_publ_section_title
;
Structure prediction by ZEFSAII (Michael W. Deem and Ramdas Pophale) SiO2 
 PCOD9094453
Probable space group: P -1
;
_chemical_formula_sum "Si O2"
_cell_formula_units_Z 14
_cell_length_a 21.299733
_cell_length_b 12.976171
_cell_length_c 4.946787
_cell_angle_alpha 73.526767
_cell_angle_beta 64.339480
_cell_angle_gamma 24.954170
_cell_volume 498.104977
_symmetry_space_group_name_H-M "P -1"
_symmetry_group_IT_number 2
_symmetry_cell_setting 'triclinic'
loop_
_space_group_symop_operation_xyz
x,y,z
-x,-y,-z
loop_
_atom_site_type_symbol
_atom_site_label
_atom_site_fract_x
_atom_site_fract_y
_atom_site_fract_z
Si Si1 0.721496 0.039485 0.134792
Si Si2 0.815653 0.698589 0.979826
Si Si3 0.634894 0.535276 0.389713
Si Si4 0.145006 0.496812 0.421527
Si Si5 0.446738 0.171837 0.281132
Si Si6 0.078128 0.828937 0.234222
Si Si7 0.671902 0.245918 0.538663
O O1 0.666181 0.181022 0.863964
O O2 0.563359 0.200912 0.444209
O O3 0.843557 0.775372 0.006196
O O4 0.045021 0.747544 0.389692
O O5 0.901876 0.529555 0.681932
O O6 0.840263 0.574352 0.256867
O O7 0.622293 0.980510 0.033218
O O8 0.661620 0.595807 0.500463
O O9 0.701301 0.326499 0.517100
O O10 0.726865 0.426452 0.016511
O O11 0.332890 0.277546 0.186444
O O12 0.500000 0.000000 0.500000
O O13 0.000000 0.000000 0.500000
O O14 0.782389 0.036175 0.254669
O O15 0.000000 0.000000 0.000000
O O16 0.500000 0.500000 0.500000
#
# Coordination Sequence:
#
# PCOD9094453 Si02
#       7
#     2   2   2   2   2   2   2
#     4  10  21  36  58  91 121 147 186 228 289 370
#     4  10  20  34  57  86 117 151 180 229 296 360
#     4  10  21  37  58  82 120 158 185 237 289 329
#     4  11  21  37  55  80 115 154 192 238 286 340
#     4   9  18  32  52  83 116 149 183 217 278 363
#     4  12  26  41  57  82 113 157 210 246 277 331
#     4  10  20  35  55  86 120 154 188 227 284 359
#
# _framework density 28.106527
#
# number of rings (size 3 to 8) (size 9 to 14) (size 15 to 20)
#    0.000    1.714    0.000    6.429    0.000   12.571 
#    0.000    0.000    0.000    0.000    0.000   20.000 
#    0.000    0.000    0.000    0.000    0.000    0.000 
#
# Total GULP energy -78391.977059 kJ/mol
# GULP energy per Si atom -5599.426933 kJ/mol
# Density = 2.804256 g / cm^3
# Si number density = 28.106527 Si / 1000 Ang^3
#
#
#
# Elastic Constant Matrix: (Units=GPa)
#
#
# Indices 1 2 3 4 5 6 
#
# 1 169.5131 61.3437 66.3571 8.5333 46.8109 35.3883
# 2 61.3437 136.5054 71.8124 -14.4978 9.1453 27.8998
# 3 66.3571 71.8124 201.7170 -13.3932 33.8933 18.5667
# 4 8.5333 -14.4978 -13.3932 62.2414 2.9555 -6.5279
# 5 46.8109 9.1453 33.8933 2.9555 65.4572 16.2837
# 6 35.3883 27.8998 18.5667 -6.5279 16.2837 54.6077
#
#
#
# Elastic Compliance Matrix: (Units=1/GPa)
#
#
# Indices 1 2 3 4 5 6 
#
# 1 0.009548 -0.002991 -0.001114 -0.002333 -0.004962 -0.003080
# 2 -0.002991 0.010893 -0.002955 0.001833 0.002876 -0.003261
# 3 -0.001114 -0.002955 0.006808 0.001137 -0.002571 0.000820
# 4 -0.002333 0.001833 0.001137 0.017340 -0.000564 0.002430
# 5 -0.004962 0.002876 -0.002571 -0.000564 0.020680 -0.003613
# 6 -0.003080 -0.003261 0.000820 0.002430 -0.003613 0.023064
#
#
# Mechanical properties :
#
#
# Convention : Reuss Voigt Hill
#
# Bulk Modulus (GPa) = 76.16599 100.75132 88.45865
# Shear Modulus (GPa) = 46.80384 57.00942 51.90663
#
# Velocity S-wave (km/s) = 4.08515 4.50859 4.30208
# Velocity P-wave (km/s) = 7.02916 7.93897 7.49788
#
# Compressibility (1/GPa) = 0.01312922
#
# Stress axis : x y z
#
# Youngs Moduli (GPa) = 104.73022 91.80258 146.88383
#
# Poissons Ratio (x) = 0.27455 0.16362
# Poissons Ratio (y) = 0.31321 0.43411
# Poissons Ratio (z) = 0.11667 0.27132
#
# Static dielectric constant tensor:
#      x y z
#    x 2.263500 -0.054560 -0.036770 
#    y -0.054560 2.271410 0.138090 
#    z -0.036770 0.138090 2.168360 
# 
# From -- ./inp_files/119333.got.cif
#   From: 2010.05.17/outbox.cif.g08.bks.cpg/sg2_60_cif.got.tgz:119333.got - 2010.06.03 11:33:40.
