data_PCOD9094796
_publ_section_title
;
Structure prediction by ZEFSAII (Michael W. Deem and Ramdas Pophale) SiO2 
 PCOD9094796
Probable space group: P -1
;
_chemical_formula_sum "Si O2"
_cell_formula_units_Z 16
_cell_length_a 9.448065
_cell_length_b 16.854824
_cell_length_c 16.059226
_cell_angle_alpha 26.385311
_cell_angle_beta 102.490386
_cell_angle_gamma 119.811963
_cell_volume 793.197330
_symmetry_space_group_name_H-M "P -1"
_symmetry_group_IT_number 2
_symmetry_cell_setting 'triclinic'
loop_
_space_group_symop_operation_xyz
x,y,z
-x,-y,-z
loop_
_atom_site_type_symbol
_atom_site_label
_atom_site_fract_x
_atom_site_fract_y
_atom_site_fract_z
Si Si1 0.708242 0.636641 0.444876
Si Si2 0.069769 0.767518 0.810978
Si Si3 0.339683 0.714362 0.994350
Si Si4 0.934785 0.261599 0.669428
Si Si5 0.866789 0.828458 0.455735
Si Si6 0.780053 0.107175 0.612453
Si Si7 0.740702 0.237078 0.313402
Si Si8 0.495836 0.880079 0.030146
O O1 0.500000 0.500000 0.500000
O O2 0.766827 0.801299 0.379277
O O3 0.658153 0.406525 0.697775
O O4 0.895036 0.746494 0.305180
O O5 0.148385 0.815032 0.681869
O O6 0.119745 0.998287 0.641431
O O7 0.192866 0.718463 0.921977
O O8 0.836152 0.504597 0.040234
O O9 0.245168 0.441045 0.264438
O O10 0.411589 0.878929 0.933183
O O11 0.546240 0.862915 0.829736
O O12 0.878166 0.256584 0.571028
O O13 0.000000 0.500000 0.500000
O O14 0.725261 0.014520 0.915813
O O15 0.089576 0.950967 0.343741
O O16 0.795498 0.259618 0.395876
O O17 0.500000 0.000000 0.500000
O O18 0.500000 0.000000 0.000000
#
# Coordination Sequence:
#
# PCOD9094796 Si02
#       8
#     2   2   2   2   2   2   2   2
#     4  10  22  38  57  89 131 156 204 265 299 364
#     4  11  24  40  68  93 120 166 210 254 317 376
#     4  10  21  41  64  87 126 165 205 260 305 372
#     4  10  20  36  61  91 116 164 213 239 307 379
#     4  10  23  42  62  93 127 164 210 256 318 367
#     4  10  21  41  63  87 132 164 200 267 307 364
#     4  11  23  43  64  96 126 158 213 259 310 378
#     4  10  20  34  61  87 116 165 207 243 310 362
#
# _framework density 20.171524000000002
#
# number of rings (size 3 to 8) (size 9 to 14) (size 15 to 20)
#    0.000    1.750    3.750    0.000    1.750    2.000 
#    0.000    1.250    0.000    0.000    0.000    0.000 
#    0.000    0.000    0.000    0.000    0.000    0.000 
#
# Total GULP energy -89179.213404 kJ/mol
# GULP energy per Si atom -5573.700838 kJ/mol
# Density = 2.012561 g / cm^3
# Si number density = 20.171524 Si / 1000 Ang^3
#
#
#
# Elastic Constant Matrix: (Units=GPa)
#
#
# Indices 1 2 3 4 5 6 
#
# 1 62.5811 35.2503 41.9843 3.0073 -23.2647 -5.1065
# 2 35.2503 99.8414 30.1663 0.6324 -2.4897 -23.7929
# 3 41.9843 30.1663 84.5557 -4.5228 -26.4608 -14.9808
# 4 3.0073 0.6324 -4.5228 32.6328 -5.9524 1.9422
# 5 -23.2647 -2.4897 -26.4608 -5.9524 36.7268 -6.2155
# 6 -5.1065 -23.7929 -14.9808 1.9422 -6.2155 40.9548
#
#
#
# Elastic Compliance Matrix: (Units=1/GPa)
#
#
# Indices 1 2 3 4 5 6 
#
# 1 0.031339 -0.008551 -0.009373 -0.001714 0.011799 -0.002617
# 2 -0.008551 0.014876 -0.001353 -0.000881 -0.004435 0.006450
# 3 -0.009373 -0.001353 0.022612 0.005841 0.012553 0.007944
# 4 -0.001714 -0.000881 0.005841 0.033134 0.008628 0.001149
# 5 0.011799 -0.004435 0.012553 0.008628 0.046560 0.010144
# 6 -0.002617 0.006450 0.007944 0.001149 0.010144 0.032229
#
#
# Mechanical properties :
#
#
# Convention : Reuss Voigt Hill
#
# Bulk Modulus (GPa) = 33.03477 51.30888 42.17182
# Shear Modulus (GPa) = 21.79641 31.36803 26.58222
#
# Velocity S-wave (km/s) = 3.29074 3.94771 3.63410
# Velocity P-wave (km/s) = 5.55438 6.80226 6.20974
#
# Compressibility (1/GPa) = 0.03027113
#
# Stress axis : x y z
#
# Youngs Moduli (GPa) = 31.90903 67.22252 44.22503
#
# Poissons Ratio (x) = 0.57484 0.41452
# Poissons Ratio (y) = 0.27286 0.05986
# Poissons Ratio (z) = 0.29909 0.09098
#
# Static dielectric constant tensor:
#      x y z
#    x 1.700740 0.040630 -0.008900 
#    y 0.040630 1.854310 0.012180 
#    z -0.008900 0.012180 1.709000 
# 
# From -- ./inp_files/299629.got.cif
#   From: 2010.05.17/outbox.cif.g08.bks.cpg/sg2_150_cif.got.tgz:299629.got - 2010.06.03 11:33:40.
