data_PCOD9094509
_publ_section_title
;
Structure prediction by ZEFSAII (Michael W. Deem and Ramdas Pophale) SiO2 
 PCOD9094509
Probable space group: P -1
;
_chemical_formula_sum "Si O2"
_cell_formula_units_Z 14
_cell_length_a 8.563478
_cell_length_b 7.729613
_cell_length_c 12.217558
_cell_angle_alpha 78.660582
_cell_angle_beta 62.362507
_cell_angle_gamma 99.110793
_cell_volume 672.835438
_symmetry_space_group_name_H-M "P -1"
_symmetry_group_IT_number 2
_symmetry_cell_setting 'triclinic'
loop_
_space_group_symop_operation_xyz
x,y,z
-x,-y,-z
loop_
_atom_site_type_symbol
_atom_site_label
_atom_site_fract_x
_atom_site_fract_y
_atom_site_fract_z
Si Si1 0.142492 0.886013 0.443843
Si Si2 0.127956 0.785055 0.697873
Si Si3 0.395464 0.369968 0.644701
Si Si4 0.804180 0.513408 0.127393
Si Si5 0.453589 0.000806 0.700929
Si Si6 0.172249 0.784349 0.992916
Si Si7 0.981097 0.130355 0.747355
O O1 0.121502 0.756446 0.573555
O O2 0.347497 0.027789 0.352958
O O3 0.090070 0.806868 0.350282
O O4 0.000000 0.000000 0.500000
O O5 0.105177 0.602825 0.801059
O O6 0.335846 0.901752 0.648484
O O7 0.006100 0.923493 0.752185
O O8 0.500000 0.500000 0.500000
O O9 0.371227 0.468468 0.753198
O O10 0.497553 0.217999 0.651293
O O11 0.186467 0.260276 0.690368
O O12 0.764145 0.393497 0.045130
O O13 0.955870 0.709578 0.036908
O O14 0.310159 0.938428 0.855650
O O15 0.154020 0.849121 0.113323
#
# Coordination Sequence:
#
# PCOD9094509 Si02
#       7
#     2   2   2   2   2   2   2
#     4  10  20  35  55  80 107 137 177 222 270 313
#     4   9  18  34  58  82 104 138 181 217 263 310
#     4  10  20  35  55  82 108 136 179 221 263 310
#     4   9  18  32  55  81 108 136 174 228 256 303
#     4  10  20  34  58  79 104 142 178 219 257 318
#     4   9  19  34  53  79 108 140 180 210 264 314
#     4   9  20  35  55  79 111 143 169 219 267 316
#
# _framework density 20.807464
#
# number of rings (size 3 to 8) (size 9 to 14) (size 15 to 20)
#    0.000    2.571    0.000    1.286    0.000   16.571 
#    0.000    6.429    0.000    4.286    0.000    0.000 
#    0.000    0.000    0.000    0.000    0.000    0.000 
#
# Total GULP energy -77939.228850 kJ/mol
# GULP energy per Si atom -5567.087775 kJ/mol
# Density = 2.076010 g / cm^3
# Si number density = 20.807464 Si / 1000 Ang^3
#
#
#
# Elastic Constant Matrix: (Units=GPa)
#
#
# Indices 1 2 3 4 5 6 
#
# 1 63.8073 8.7385 36.2270 13.6417 2.2782 -4.9121
# 2 8.7385 53.7195 35.0512 2.8602 -4.0120 -8.8295
# 3 36.2270 35.0512 137.7541 3.2600 -7.5750 -7.4392
# 4 13.6417 2.8602 3.2600 33.6870 6.9707 4.6750
# 5 2.2782 -4.0120 -7.5750 6.9707 34.5599 7.0280
# 6 -4.9121 -8.8295 -7.4392 4.6750 7.0280 9.2704
#
#
#
# Elastic Compliance Matrix: (Units=1/GPa)
#
#
# Indices 1 2 3 4 5 6 
#
# 1 0.022288 0.003459 -0.005692 -0.010560 -0.004033 0.018919
# 2 0.003459 0.026801 -0.006240 -0.006328 -0.002840 0.027696
# 3 -0.005692 -0.006240 0.010240 0.001852 0.002202 -0.003345
# 4 -0.010560 -0.006328 0.001852 0.038595 -0.001653 -0.028347
# 5 -0.004033 -0.002840 0.002202 -0.001653 0.035637 -0.029259
# 6 0.018919 0.027696 -0.003345 -0.028347 -0.029259 0.178067
#
#
# Mechanical properties :
#
#
# Convention : Reuss Voigt Hill
#
# Bulk Modulus (GPa) = 23.59369 46.14604 34.86987
# Shear Modulus (GPa) = 14.58992 27.18773 20.88882
#
# Velocity S-wave (km/s) = 2.65087 3.61866 3.17189
# Velocity P-wave (km/s) = 4.55336 6.29963 5.49629
#
# Compressibility (1/GPa) = 0.04238421
#
# Stress axis : x y z
#
# Youngs Moduli (GPa) = 44.86722 37.31204 97.65205
#
# Poissons Ratio (x) = -0.12905 0.55580
# Poissons Ratio (y) = -0.15519 0.60933
# Poissons Ratio (z) = 0.25537 0.23282
#
# Static dielectric constant tensor:
#      x y z
#    x 1.755710 -0.016950 0.007130 
#    y -0.016950 1.815850 0.019750 
#    z 0.007130 0.019750 1.814030 
# 
# From -- ./inp_files/172772.got.cif
#   From: 2010.05.17/outbox.cif.g08.bks.cpg/sg2_87_cif.got.tgz:172772.got - 2010.06.03 11:33:40.
