data_PCOD9094124
_publ_section_title
;
Structure prediction by ZEFSAII (Michael W. Deem and Ramdas Pophale) SiO2 
 PCOD9094124
Probable space group: P -1
;
_chemical_formula_sum "Si O2"
_cell_formula_units_Z 14
_cell_length_a 11.007542
_cell_length_b 13.315156
_cell_length_c 8.341261
_cell_angle_alpha 96.494959
_cell_angle_beta 107.443142
_cell_angle_gamma 31.643993
_cell_volume 586.735395
_symmetry_space_group_name_H-M "P -1"
_symmetry_group_IT_number 2
_symmetry_cell_setting 'triclinic'
loop_
_space_group_symop_operation_xyz
x,y,z
-x,-y,-z
loop_
_atom_site_type_symbol
_atom_site_label
_atom_site_fract_x
_atom_site_fract_y
_atom_site_fract_z
Si Si1 0.739647 0.432388 0.631681
Si Si2 0.671299 0.141061 0.859719
Si Si3 0.185337 0.281438 0.070179
Si Si4 0.854159 0.498872 0.463109
Si Si5 0.466931 0.557830 0.213081
Si Si6 0.007368 0.749862 0.757832
Si Si7 0.276889 0.028892 0.835972
O O1 0.781928 0.520342 0.619177
O O2 0.564804 0.524518 0.425171
O O3 0.640479 0.476265 0.779148
O O4 0.003405 0.190972 0.684042
O O5 0.385902 0.330738 0.716486
O O6 0.725405 0.224091 0.881693
O O7 0.831916 0.963057 0.770124
O O8 0.681738 0.081322 0.025903
O O9 0.060997 0.292779 0.154219
O O10 0.466309 0.132244 0.190267
O O11 0.228096 0.173141 0.921459
O O12 0.000000 0.500000 0.000000
O O13 0.000000 0.500000 0.500000
O O14 0.020408 0.290974 0.427438
O O15 0.708151 0.400376 0.165064
#
# Coordination Sequence:
#
# PCOD9094124 Si02
#       7
#     2   2   2   2   2   2   2
#     4   9  20  38  58  83 108 153 185 231 278 330
#     4   9  19  37  56  80 109 151 182 232 275 324
#     4  10  20  34  54  80 121 146 180 229 281 330
#     4  10  22  36  57  78 117 147 181 226 288 328
#     4   9  19  41  58  75 119 145 188 233 279 320
#     4   9  19  35  56  81 106 150 187 225 274 333
#     4  10  21  35  57  84 114 145 189 228 277 331
#
# _framework density 23.860838999999999
#
# number of rings (size 3 to 8) (size 9 to 14) (size 15 to 20)
#    0.000    2.857    0.000    1.714    8.000    1.143 
#    2.571   15.714    0.000    0.000    0.000    0.000 
#    0.000    0.000    0.000    0.000    0.000    0.000 
#
# Total GULP energy -78047.471306 kJ/mol
# GULP energy per Si atom -5574.819379 kJ/mol
# Density = 2.380653 g / cm^3
# Si number density = 23.860839 Si / 1000 Ang^3
#
#
#
# Elastic Constant Matrix: (Units=GPa)
#
#
# Indices 1 2 3 4 5 6 
#
# 1 106.6516 34.1660 23.9653 8.9253 -39.4168 3.9194
# 2 34.1660 117.6565 26.2169 6.8357 -25.5717 5.3519
# 3 23.9653 26.2169 70.4852 -19.5903 -19.3246 7.6297
# 4 8.9253 6.8357 -19.5903 35.8922 3.2808 -4.1312
# 5 -39.4168 -25.5717 -19.3246 3.2808 40.3028 -0.3836
# 6 3.9194 5.3519 7.6297 -4.1312 -0.3836 39.5655
#
#
#
# Elastic Compliance Matrix: (Units=1/GPa)
#
#
# Indices 1 2 3 4 5 6 
#
# 1 0.016352 -0.000308 -0.003244 -0.007314 0.014822 -0.001573
# 2 -0.000308 0.010853 -0.003660 -0.004597 0.005193 -0.001161
# 3 -0.003244 -0.003660 0.021387 0.012613 0.003714 -0.001955
# 4 -0.007314 -0.004597 0.012613 0.038419 -0.007123 0.002857
# 5 0.014822 0.005193 0.003714 -0.007123 0.044934 -0.003195
# 6 -0.001573 -0.001161 -0.001955 0.002857 -0.003195 0.026232
#
#
# Mechanical properties :
#
#
# Convention : Reuss Voigt Hill
#
# Bulk Modulus (GPa) = 29.26711 51.49886 40.38298
# Shear Modulus (GPa) = 27.17543 37.18178 32.17860
#
# Velocity S-wave (km/s) = 3.37844 3.95178 3.67631
# Velocity P-wave (km/s) = 5.24508 6.51552 5.91451
#
# Compressibility (1/GPa) = 0.03416805
#
# Stress axis : x y z
#
# Youngs Moduli (GPa) = 61.15565 92.14206 46.75679
#
# Poissons Ratio (x) = 0.02834 0.15169
# Poissons Ratio (y) = 0.01881 0.17114
# Poissons Ratio (z) = 0.19840 0.33725
#
# Static dielectric constant tensor:
#      x y z
#    x 2.172390 -0.064250 0.079520 
#    y -0.064250 1.920590 0.033610 
#    z 0.079520 0.033610 1.984160 
# 
# From -- ./inp_files/272874.got.cif
#   From: 2010.05.17/outbox.cif.g08.bks.cpg/sg2_137_cif.got.tgz:272874.got - 2010.06.03 11:33:40.
