data_PCOD9094827
_publ_section_title
;
Structure prediction by ZEFSAII (Michael W. Deem and Ramdas Pophale) SiO2 
 PCOD9094827
Probable space group: P -1
;
_chemical_formula_sum "Si O2"
_cell_formula_units_Z 16
_cell_length_a 13.708493
_cell_length_b 10.385188
_cell_length_c 12.903483
_cell_angle_alpha 114.922783
_cell_angle_beta 22.776135
_cell_angle_gamma 111.272087
_cell_volume 643.201950
_symmetry_space_group_name_H-M "P -1"
_symmetry_group_IT_number 2
_symmetry_cell_setting 'triclinic'
loop_
_space_group_symop_operation_xyz
x,y,z
-x,-y,-z
loop_
_atom_site_type_symbol
_atom_site_label
_atom_site_fract_x
_atom_site_fract_y
_atom_site_fract_z
Si Si1 0.523676 0.117119 0.102462
Si Si2 0.041974 0.509701 0.305817
Si Si3 0.450929 0.345501 0.081769
Si Si4 0.490180 0.458152 0.612185
Si Si5 0.997712 0.714706 0.982669
Si Si6 0.946685 0.830531 0.868507
Si Si7 0.122748 0.700167 0.100727
Si Si8 0.569293 0.096461 0.710604
O O1 0.417665 0.246326 0.179891
O O2 0.404765 0.050481 0.298405
O O3 0.808778 0.151615 0.866569
O O4 0.500000 0.000000 0.000000
O O5 0.992379 0.600424 0.276944
O O6 0.812513 0.558533 0.624181
O O7 0.058083 0.339743 0.213935
O O8 0.311941 0.560375 0.097327
O O9 0.517197 0.234368 0.885196
O O10 0.500000 0.500000 0.500000
O O11 0.752686 0.369558 0.339399
O O12 0.397854 0.610903 0.798913
O O13 0.256003 0.362073 0.818184
O O14 0.969130 0.845514 0.976077
O O15 0.028660 0.716420 0.078887
O O16 0.184502 0.884410 0.592408
O O17 0.683177 0.904342 0.111084
#
# Coordination Sequence:
#
# PCOD9094827 Si02
#       8
#     2   2   2   2   2   2   2   2
#     4   9  22  44  69  93 123 167 225 274 314 367
#     4  11  23  36  65 100 125 160 210 265 338 384
#     4  10  23  42  66  94 121 158 220 279 322 370
#     4  10  20  34  61  94 130 157 201 261 326 378
#     4  11  23  39  60 100 133 166 206 258 329 387
#     4  12  25  39  63  90 135 174 207 253 323 397
#     4  10  21  39  67  97 129 164 211 276 324 363
#     4  11  25  45  61  87 129 178 215 259 312 379
#
# _framework density 24.875546
#
# number of rings (size 3 to 8) (size 9 to 14) (size 15 to 20)
#    0.000    1.500    1.250    3.750    3.500    7.000 
#    0.000    8.750    0.000    0.000    0.000    0.000 
#    0.000    0.000    0.000    0.000    0.000    0.000 
#
# Total GULP energy -89245.972694 kJ/mol
# GULP energy per Si atom -5577.873293 kJ/mol
# Density = 2.481893 g / cm^3
# Si number density = 24.875546 Si / 1000 Ang^3
#
#
#
# Elastic Constant Matrix: (Units=GPa)
#
#
# Indices 1 2 3 4 5 6 
#
# 1 119.0513 25.0616 50.6914 -15.9937 3.1423 -33.6295
# 2 25.0616 84.5792 31.7816 -36.5116 3.5766 -30.0067
# 3 50.6914 31.7816 162.4945 -22.8536 -16.0144 -19.7341
# 4 -15.9937 -36.5116 -22.8536 29.6781 -4.3860 13.7776
# 5 3.1423 3.5766 -16.0144 -4.3860 39.5538 -7.9383
# 6 -33.6295 -30.0067 -19.7341 13.7776 -7.9383 45.0017
#
#
#
# Elastic Compliance Matrix: (Units=1/GPa)
#
#
# Indices 1 2 3 4 5 6 
#
# 1 0.011767 0.001166 -0.002711 0.002066 -0.000366 0.007684
# 2 0.001166 0.028814 0.000061 0.031458 0.003025 0.011013
# 3 -0.002711 0.000061 0.008240 0.005229 0.004283 0.000783
# 4 0.002066 0.031458 0.005229 0.077586 0.008215 0.002509
# 5 -0.000366 0.003025 0.004283 0.008215 0.028929 0.006209
# 6 0.007684 0.011013 0.000783 0.002509 0.006209 0.035978
#
#
# Mechanical properties :
#
#
# Convention : Reuss Voigt Hill
#
# Bulk Modulus (GPa) = 21.80909 64.57711 43.19310
# Shear Modulus (GPa) = 23.85870 40.08610 31.97240
#
# Velocity S-wave (km/s) = 3.10033 4.01866 3.58899
# Velocity P-wave (km/s) = 4.64784 6.89560 5.88012
#
# Compressibility (1/GPa) = 0.04585243
#
# Stress axis : x y z
#
# Youngs Moduli (GPa) = 84.98648 34.70493 121.35202
#
# Poissons Ratio (x) = -0.04046 0.32898
# Poissons Ratio (y) = -0.09908 -0.00736
# Poissons Ratio (z) = 0.23040 -0.00210
#
# Static dielectric constant tensor:
#      x y z
#    x 2.011530 -0.053110 -0.040450 
#    y -0.053110 2.285800 0.108140 
#    z -0.040450 0.108140 1.739750 
# 
# From -- ./inp_files/532544.got.cif
#   From: 2010.05.17/outbox.cif.g08.bks.cpg/sg2_267_cif.got.tgz:532544.got - 2010.06.03 11:33:40.
