data_PCOD9094900
_publ_section_title
;
Structure prediction by ZEFSAII (Michael W. Deem and Ramdas Pophale) SiO2 
 PCOD9094900
Probable space group: P -1
;
_chemical_formula_sum "Si O2"
_cell_formula_units_Z 16
_cell_length_a 7.482193
_cell_length_b 9.329396
_cell_length_c 13.736882
_cell_angle_alpha 80.219723
_cell_angle_beta 58.585287
_cell_angle_gamma 70.359131
_cell_volume 770.706993
_symmetry_space_group_name_H-M "P -1"
_symmetry_group_IT_number 2
_symmetry_cell_setting 'triclinic'
loop_
_space_group_symop_operation_xyz
x,y,z
-x,-y,-z
loop_
_atom_site_type_symbol
_atom_site_label
_atom_site_fract_x
_atom_site_fract_y
_atom_site_fract_z
Si Si1 0.867903 0.406596 0.109594
Si Si2 0.190245 0.797722 0.689981
Si Si3 0.890732 0.925731 0.189407
Si Si4 0.842405 0.600746 0.254516
Si Si5 0.119570 0.619149 0.554880
Si Si6 0.353417 0.434102 0.120796
Si Si7 0.345420 0.421802 0.349963
Si Si8 0.710855 0.169042 0.048568
O O1 0.946327 0.278877 0.187989
O O2 0.725203 0.543191 0.204889
O O3 0.794962 0.298791 0.065038
O O4 0.000000 0.500000 0.000000
O O5 0.141468 0.757562 0.598977
O O6 0.443364 0.706545 0.654607
O O7 0.139710 0.970128 0.718550
O O8 0.812520 0.777961 0.245213
O O9 0.758367 0.029695 0.126380
O O10 0.140810 0.876418 0.083908
O O11 0.806154 0.525435 0.374923
O O12 0.099918 0.518186 0.167764
O O13 0.272462 0.567201 0.424392
O O14 0.870485 0.637804 0.590705
O O15 0.383897 0.459042 0.223401
O O16 0.454690 0.252867 0.095810
O O17 0.500000 0.500000 0.000000
#
# Coordination Sequence:
#
# PCOD9094900 Si02
#       8
#     2   2   2   2   2   2   2   2
#     4  10  16  30  49  80 107 143 183 234 255 333
#     4  10  20  34  60  79 113 155 189 224 292 346
#     4  10  18  32  52  82 112 153 172 229 293 344
#     4  10  20  31  56  80 112 138 194 234 280 320
#     4   9  21  37  60  85 108 147 199 242 268 332
#     4  11  18  32  54  84 104 145 185 231 267 341
#     4  10  19  37  60  83 112 148 194 236 281 329
#     4  10  19  31  54  75 115 151 183 214 297 342
#
# _framework density 20.760159999999999
#
# number of rings (size 3 to 8) (size 9 to 14) (size 15 to 20)
#    0.000    2.000    5.000    0.375    0.000    0.000 
#    0.000    0.625    5.500   10.500    0.000    0.000 
#    0.000    0.000    0.000    0.000    0.000    0.000 
#
# Total GULP energy -89073.297304 kJ/mol
# GULP energy per Si atom -5567.081081 kJ/mol
# Density = 2.071291 g / cm^3
# Si number density = 20.760160 Si / 1000 Ang^3
#
#
#
# Elastic Constant Matrix: (Units=GPa)
#
#
# Indices 1 2 3 4 5 6 
#
# 1 78.6006 17.7541 21.0317 25.1167 0.6180 -0.1080
# 2 17.7541 115.9078 14.0796 25.2401 -0.0792 16.3857
# 3 21.0317 14.0796 118.3389 31.3680 3.3840 -2.1462
# 4 25.1167 25.2401 31.3680 35.4669 11.4749 8.0968
# 5 0.6180 -0.0792 3.3840 11.4749 23.3760 6.4035
# 6 -0.1080 16.3857 -2.1462 8.0968 6.4035 23.7706
#
#
#
# Elastic Compliance Matrix: (Units=1/GPa)
#
#
# Indices 1 2 3 4 5 6 
#
# 1 0.017645 0.000233 0.001141 -0.016666 0.006466 0.003957
# 2 0.000233 0.011502 0.000888 -0.009787 0.006419 -0.006243
# 3 0.001141 0.000888 0.011871 -0.014220 0.004082 0.004209
# 4 -0.016666 -0.009787 -0.014220 0.071662 -0.029692 -0.011024
# 5 0.006466 0.006419 0.004082 -0.029692 0.059325 -0.009894
# 6 0.003957 -0.006243 0.004209 -0.011024 -0.009894 0.053191
#
#
# Mechanical properties :
#
#
# Convention : Reuss Voigt Hill
#
# Bulk Modulus (GPa) = 21.95867 46.50870 34.23369
# Shear Modulus (GPa) = 21.19961 33.85479 27.52720
#
# Velocity S-wave (km/s) = 3.19904 4.04265 3.64533
# Velocity P-wave (km/s) = 4.92396 6.65148 5.85182
#
# Compressibility (1/GPa) = 0.04554009
#
# Stress axis : x y z
#
# Youngs Moduli (GPa) = 56.67391 86.93958 84.23996
#
# Poissons Ratio (x) = -0.02023 -0.09610
# Poissons Ratio (y) = -0.01319 -0.07477
# Poissons Ratio (z) = -0.06465 -0.07716
#
# Static dielectric constant tensor:
#      x y z
#    x 2.011450 0.022890 -0.026540 
#    y 0.022890 1.763340 0.003090 
#    z -0.026540 0.003090 1.771880 
# 
# From -- ./inp_files/492923.got.cif
#   From: 2010.05.17/outbox.cif.g08.bks.cpg/sg2_247_cif.got.tgz:492923.got - 2010.06.03 11:33:40.
