data_PCOD9094388
_publ_section_title
;
Structure prediction by ZEFSAII (Michael W. Deem and Ramdas Pophale) SiO2 
 PCOD9094388
Probable space group: P -1
;
_chemical_formula_sum "Si O2"
_cell_formula_units_Z 16
_cell_length_a 9.038412
_cell_length_b 9.973315
_cell_length_c 7.642736
_cell_angle_alpha 113.500510
_cell_angle_beta 68.785780
_cell_angle_gamma 100.999755
_cell_volume 588.109068
_symmetry_space_group_name_H-M "P -1"
_symmetry_group_IT_number 2
_symmetry_cell_setting 'triclinic'
loop_
_space_group_symop_operation_xyz
x,y,z
-x,-y,-z
loop_
_atom_site_type_symbol
_atom_site_label
_atom_site_fract_x
_atom_site_fract_y
_atom_site_fract_z
Si Si1 0.565290 0.345163 0.830905
Si Si2 0.002093 0.351885 0.166585
Si Si3 0.510720 0.045397 0.223344
Si Si4 0.813230 0.867120 0.583140
Si Si5 0.615625 0.607325 0.390043
Si Si6 0.678122 0.299827 0.117820
Si Si7 0.170607 0.088811 0.989679
Si Si8 0.067857 0.675225 0.401308
O O1 0.460355 0.303255 0.686771
O O2 0.744287 0.340292 0.684156
O O3 0.500000 0.500000 0.000000
O O4 0.585706 0.257493 0.956125
O O5 0.858516 0.271186 0.076114
O O6 0.977013 0.331947 0.377413
O O7 0.151276 0.254111 0.014812
O O8 0.017013 0.527322 0.237521
O O9 0.332631 0.038997 0.378891
O O10 0.571313 0.217651 0.268318
O O11 0.500000 0.000000 0.000000
O O12 0.669401 0.974199 0.189955
O O13 0.737996 0.702234 0.502950
O O14 0.810261 0.906959 0.807454
O O15 0.996278 0.827690 0.438163
O O16 0.500000 0.500000 0.500000
O O17 0.699075 0.474428 0.190366
O O18 0.000000 0.000000 0.000000
#
# Coordination Sequence:
#
# PCOD9094388 Si02
#       8
#     2   2   2   2   2   2   2   2
#     4  10  25  36  55  89 131 160 191 239 317 382
#     4  10  20  34  65  90 118 153 206 257 295 348
#     4  10  21  36  60  91 121 155 207 253 290 346
#     4  10  21  34  61  90 119 150 204 256 296 348
#     4  11  20  36  61  91 121 157 196 249 305 362
#     4  11  20  37  58  89 126 160 192 250 314 355
#     4  10  20  34  56  93 117 150 200 257 292 340
#     4  10  21  37  58  93 119 154 199 248 306 369
#
# _framework density 27.205839000000001
#
# number of rings (size 3 to 8) (size 9 to 14) (size 15 to 20)
#    0.000    1.750    3.750    0.750    3.500    1.500 
#    0.000    0.000    0.000    9.750    0.000    0.000 
#    0.000    0.000    0.000    0.000    0.000    0.000 
#
# Total GULP energy -89141.751434 kJ/mol
# GULP energy per Si atom -5571.359465 kJ/mol
# Density = 2.714392 g / cm^3
# Si number density = 27.205839 Si / 1000 Ang^3
#
#
#
# Elastic Constant Matrix: (Units=GPa)
#
#
# Indices 1 2 3 4 5 6 
#
# 1 177.4280 40.8241 59.3161 6.0174 -18.3610 -34.1310
# 2 40.8241 65.4775 35.5606 19.0647 0.1902 -21.0980
# 3 59.3161 35.5606 92.8167 4.5063 8.6072 -11.2335
# 4 6.0174 19.0647 4.5063 37.2837 -17.8415 -9.4499
# 5 -18.3610 0.1902 8.6072 -17.8415 69.0242 16.9595
# 6 -34.1310 -21.0980 -11.2335 -9.4499 16.9595 36.2758
#
#
#
# Elastic Compliance Matrix: (Units=1/GPa)
#
#
# Indices 1 2 3 4 5 6 
#
# 1 0.008790 -0.002109 -0.004514 0.002637 0.002296 0.005260
# 2 -0.002109 0.027718 -0.006699 -0.012974 -0.005975 0.011476
# 3 -0.004514 -0.006699 0.016236 0.000478 -0.002653 -0.001750
# 4 0.002637 -0.012974 0.000478 0.038009 0.010482 0.000085
# 5 0.002296 -0.005975 -0.002653 0.010482 0.020346 -0.008918
# 6 0.005260 0.011476 -0.001750 0.000085 -0.008918 0.042839
#
#
# Mechanical properties :
#
#
# Convention : Reuss Voigt Hill
#
# Bulk Modulus (GPa) = 38.31263 67.45819 52.88541
# Shear Modulus (GPa) = 26.41532 41.85149 34.13341
#
# Velocity S-wave (km/s) = 3.11938 3.92641 3.54593
# Velocity P-wave (km/s) = 5.20453 6.73831 6.02046
#
# Compressibility (1/GPa) = 0.02610105
#
# Stress axis : x y z
#
# Youngs Moduli (GPa) = 113.76027 36.07740 61.59045
#
# Poissons Ratio (x) = 0.07608 0.27803
# Poissons Ratio (y) = 0.23990 0.41259
# Poissons Ratio (z) = 0.51353 0.24168
#
# Static dielectric constant tensor:
#      x y z
#    x 2.259360 -0.031840 -0.094550 
#    y -0.031840 2.185080 0.061910 
#    z -0.094550 0.061910 2.203190 
# 
# From -- ./inp_files/182358.got.cif
#   From: 2010.05.17/outbox.cif.g08.bks.cpg/sg2_92_cif.got.tgz:182358.got - 2010.06.03 11:33:40.
