data_PCOD9094719
_publ_section_title
;
Structure prediction by ZEFSAII (Michael W. Deem and Ramdas Pophale) SiO2 
 PCOD9094719
Probable space group: P -1
;
_chemical_formula_sum "Si O2"
_cell_formula_units_Z 16
_cell_length_a 11.224525
_cell_length_b 9.572194
_cell_length_c 12.098250
_cell_angle_alpha 127.372008
_cell_angle_beta 51.944749
_cell_angle_gamma 114.654131
_cell_volume 811.501306
_symmetry_space_group_name_H-M "P -1"
_symmetry_group_IT_number 2
_symmetry_cell_setting 'triclinic'
loop_
_space_group_symop_operation_xyz
x,y,z
-x,-y,-z
loop_
_atom_site_type_symbol
_atom_site_label
_atom_site_fract_x
_atom_site_fract_y
_atom_site_fract_z
Si Si1 0.412080 0.578684 0.340837
Si Si2 0.347846 0.819219 0.301456
Si Si3 0.581483 0.141130 0.361435
Si Si4 0.075344 0.486258 0.571221
Si Si5 0.978568 0.103179 0.405418
Si Si6 0.535255 0.238863 0.193753
Si Si7 0.274959 0.926678 0.166261
Si Si8 0.937835 0.141468 0.186710
O O1 0.369151 0.643053 0.274323
O O2 0.479311 0.752033 0.449501
O O3 0.254098 0.521639 0.465813
O O4 0.512320 0.416728 0.226015
O O5 0.199713 0.914232 0.474885
O O6 0.324024 0.799793 0.175216
O O7 0.490533 0.956176 0.304601
O O8 0.563908 0.256254 0.315916
O O9 0.756245 0.114142 0.271722
O O10 0.024626 0.647301 0.752675
O O11 0.000000 0.500000 0.500000
O O12 0.033798 0.283807 0.524932
O O13 0.990056 0.117842 0.272285
O O14 0.099924 0.963904 0.298293
O O15 0.383313 0.107581 0.203628
O O16 0.676216 0.147956 0.014719
O O17 0.000000 0.000000 0.000000
#
# Coordination Sequence:
#
# PCOD9094719 Si02
#       8
#     2   2   2   2   2   2   2   2
#     4  11  19  35  61  83 115 147 196 237 284 344
#     4  11  22  36  59  86 116 152 190 236 291 344
#     4  10  21  38  57  87 114 151 197 227 288 354
#     4   9  17  33  55  86 109 145 199 235 272 337
#     4  11  19  37  62  81 117 153 195 238 279 351
#     4  10  21  37  58  83 115 150 190 244 283 337
#     4  10  22  37  56  86 116 148 192 237 295 334
#     4  10  20  34  60  87 116 150 189 245 289 334
#
# _framework density 19.716543000000001
#
# number of rings (size 3 to 8) (size 9 to 14) (size 15 to 20)
#    0.000    1.750    5.000    1.875    0.000    0.500 
#    0.000    1.250    0.000    0.750    0.000    0.000 
#    0.000    0.000    0.000    0.000    0.000    0.000 
#
# Total GULP energy -89173.461708 kJ/mol
# GULP energy per Si atom -5573.341357 kJ/mol
# Density = 1.967167 g / cm^3
# Si number density = 19.716543 Si / 1000 Ang^3
#
#
#
# Elastic Constant Matrix: (Units=GPa)
#
#
# Indices 1 2 3 4 5 6 
#
# 1 61.0706 32.6359 5.4256 6.8720 1.1084 -8.1323
# 2 32.6359 61.0184 22.1377 3.0224 -2.6726 -17.6778
# 3 5.4256 22.1377 64.7167 13.0859 7.7144 -1.0307
# 4 6.8720 3.0224 13.0859 23.2911 -4.8734 3.3355
# 5 1.1084 -2.6726 7.7144 -4.8734 25.1370 -1.2160
# 6 -8.1323 -17.6778 -1.0307 3.3355 -1.2160 33.4856
#
#
#
# Elastic Compliance Matrix: (Units=1/GPa)
#
#
# Indices 1 2 3 4 5 6 
#
# 1 0.025494 -0.016063 0.006193 -0.010141 -0.006763 -0.001333
# 2 -0.016063 0.033388 -0.012679 0.007833 0.010293 0.012929
# 3 0.006193 -0.012679 0.023821 -0.015624 -0.012122 -0.003341
# 4 -0.010141 0.007833 -0.015624 0.057831 0.017096 -0.003948
# 5 -0.006763 0.010293 -0.012122 0.017096 0.048377 0.003472
# 6 -0.001333 0.012929 -0.003341 -0.003948 0.003472 0.036782
#
#
# Mechanical properties :
#
#
# Convention : Reuss Voigt Hill
#
# Bulk Modulus (GPa) = 26.59217 34.13379 30.36298
# Shear Modulus (GPa) = 17.64742 24.82318 21.23530
#
# Velocity S-wave (km/s) = 2.99500 3.55209 3.28537
# Velocity P-wave (km/s) = 5.04743 5.84577 5.46120
#
# Compressibility (1/GPa) = 0.03760506
#
# Stress axis : x y z
#
# Youngs Moduli (GPa) = 39.22416 29.95065 41.97983
#
# Poissons Ratio (x) = 0.48109 -0.25997
# Poissons Ratio (y) = 0.63004 0.53228
# Poissons Ratio (z) = -0.24290 0.37976
#
# Static dielectric constant tensor:
#      x y z
#    x 1.697940 -0.013240 0.004780 
#    y -0.013240 1.752390 0.004720 
#    z 0.004780 0.004720 1.690930 
# 
# From -- ./inp_files/419690.got.cif
#   From: 2010.05.17/outbox.cif.g08.bks.cpg/sg2_210_cif.got.tgz:419690.got - 2010.06.03 11:33:40.
