data_PCOD9094310
_publ_section_title
;
Structure prediction by ZEFSAII (Michael W. Deem and Ramdas Pophale) SiO2 
 PCOD9094310
Probable space group: P -1
;
_chemical_formula_sum "Si O2"
_cell_formula_units_Z 16
_cell_length_a 9.494208
_cell_length_b 14.395075
_cell_length_c 9.322891
_cell_angle_alpha 106.643252
_cell_angle_beta 41.700441
_cell_angle_gamma 93.126382
_cell_volume 786.330466
_symmetry_space_group_name_H-M "P -1"
_symmetry_group_IT_number 2
_symmetry_cell_setting 'triclinic'
loop_
_space_group_symop_operation_xyz
x,y,z
-x,-y,-z
loop_
_atom_site_type_symbol
_atom_site_label
_atom_site_fract_x
_atom_site_fract_y
_atom_site_fract_z
Si Si1 0.515403 0.274457 0.482861
Si Si2 0.545061 0.413894 0.772432
Si Si3 0.957540 0.652553 0.210987
Si Si4 0.878272 0.476709 0.721081
Si Si5 0.954521 0.872336 0.403323
Si Si6 0.481591 0.949994 0.644567
Si Si7 0.419417 0.578742 0.720414
Si Si8 0.256030 0.010267 0.128459
O O1 0.605663 0.328216 0.568475
O O2 0.254697 0.316144 0.709941
O O3 0.576499 0.155919 0.385035
O O4 0.556850 0.316141 0.312619
O O5 0.727475 0.404057 0.750234
O O6 0.527944 0.521342 0.753919
O O7 0.302874 0.430156 0.031735
O O8 0.999954 0.755299 0.285012
O O9 0.948974 0.579582 0.317962
O O10 0.163103 0.593340 0.940554
O O11 0.000000 0.500000 0.500000
O O12 0.724482 0.924254 0.520722
O O13 0.902789 0.898467 0.622590
O O14 0.146888 0.919820 0.218085
O O15 0.500000 0.000000 0.500000
O O16 0.302914 0.010305 0.922061
O O17 0.500000 0.500000 0.500000
O O18 0.500000 0.000000 0.000000
#
# Coordination Sequence:
#
# PCOD9094310 Si02
#       8
#     2   2   2   2   2   2   2   2
#     4  10  20  36  56  82 109 144 191 228 277 337
#     4   9  20  35  51  81 109 142 183 224 273 331
#     4  10  20  34  56  83 106 145 191 231 268 332
#     4  10  20  36  52  75 116 146 174 223 278 324
#     4   9  19  37  59  83 108 146 202 236 277 348
#     4  10  21  37  56  84 118 152 182 241 301 337
#     4   9  18  32  56  79 106 143 182 226 274 326
#     4   9  18  37  59  79 108 148 189 237 287 339
#
# _framework density 20.347678999999999
#
# number of rings (size 3 to 8) (size 9 to 14) (size 15 to 20)
#    0.000    2.500    0.000    1.500    0.000    7.000 
#    9.000    0.000    0.000    0.000    0.000    0.000 
#    0.000    0.000    0.000    0.000    0.000    0.000 
#
# Total GULP energy -89136.548206 kJ/mol
# GULP energy per Si atom -5571.034263 kJ/mol
# Density = 2.030137 g / cm^3
# Si number density = 20.347679 Si / 1000 Ang^3
#
#
#
# Elastic Constant Matrix: (Units=GPa)
#
#
# Indices 1 2 3 4 5 6 
#
# 1 53.6060 11.8264 17.3564 6.5554 19.6696 5.2649
# 2 11.8264 66.7626 29.7411 -18.4051 18.7325 -2.6448
# 3 17.3564 29.7411 127.6066 -17.2892 28.7123 -5.9191
# 4 6.5554 -18.4051 -17.2892 22.3805 1.2629 -0.5412
# 5 19.6696 18.7325 28.7123 1.2629 31.0805 -5.3700
# 6 5.2649 -2.6448 -5.9191 -0.5412 -5.3700 25.0631
#
#
#
# Elastic Compliance Matrix: (Units=1/GPa)
#
#
# Indices 1 2 3 4 5 6 
#
# 1 0.028056 -0.003587 -0.001577 -0.011762 -0.015421 -0.010203
# 2 -0.003587 0.026177 0.001218 0.024415 -0.015448 0.001021
# 3 -0.001577 0.001218 0.011788 0.011212 -0.010883 0.001154
# 4 -0.011762 0.024415 0.011212 0.078115 -0.019920 0.005114
# 5 -0.015421 -0.015448 -0.010883 -0.019920 0.064245 0.012374
# 6 -0.010203 0.001021 0.001154 0.005114 0.012374 0.045185
#
#
# Mechanical properties :
#
#
# Convention : Reuss Voigt Hill
#
# Bulk Modulus (GPa) = 17.20315 40.64701 28.92508
# Shear Modulus (GPa) = 17.80413 28.30824 23.05618
#
# Velocity S-wave (km/s) = 2.96124 3.73396 3.36982
# Velocity P-wave (km/s) = 4.49053 6.21366 5.42100
#
# Compressibility (1/GPa) = 0.05812888
#
# Stress axis : x y z
#
# Youngs Moduli (GPa) = 35.64352 38.20164 84.82851
#
# Poissons Ratio (x) = 0.13704 0.13377
# Poissons Ratio (y) = 0.12786 -0.10333
# Poissons Ratio (z) = 0.05621 -0.04653
#
# Static dielectric constant tensor:
#      x y z
#    x 1.784440 0.008580 -0.008590 
#    y 0.008580 1.745000 -0.030140 
#    z -0.008590 -0.030140 1.767360 
# 
# From -- ./inp_files/109529.got.cif
#   From: 2010.05.17/outbox.cif.g08.bks.cpg/sg2_55_cif.got.tgz:109529.got - 2010.06.03 11:33:40.
