data_PCOD9094663
_publ_section_title
;
Structure prediction by ZEFSAII (Michael W. Deem and Ramdas Pophale) SiO2 
 PCOD9094663
Probable space group: P -1
;
_chemical_formula_sum "Si O2"
_cell_formula_units_Z 12
_cell_length_a 18.270928
_cell_length_b 11.796434
_cell_length_c 21.064527
_cell_angle_alpha 22.251054
_cell_angle_beta 159.697907
_cell_angle_gamma 150.122791
_cell_volume 596.485157
_symmetry_space_group_name_H-M "P -1"
_symmetry_group_IT_number 2
_symmetry_cell_setting 'triclinic'
loop_
_space_group_symop_operation_xyz
x,y,z
-x,-y,-z
loop_
_atom_site_type_symbol
_atom_site_label
_atom_site_fract_x
_atom_site_fract_y
_atom_site_fract_z
Si Si1 0.680757 0.850467 0.268671
Si Si2 0.059191 0.181183 0.784882
Si Si3 0.304059 0.822548 0.404739
Si Si4 0.821914 0.125072 0.369648
Si Si5 0.312299 0.174832 0.107325
Si Si6 0.787268 0.151296 0.469415
O O1 0.640047 0.498878 0.411864
O O2 0.923994 0.906309 0.415286
O O3 0.693053 0.963233 0.292876
O O4 0.500000 0.000000 0.000000
O O5 0.155671 0.498291 0.677309
O O6 0.862079 0.229809 0.646962
O O7 0.968090 0.027308 0.727704
O O8 0.226837 0.034279 0.044929
O O9 0.500000 0.000000 0.500000
O O10 0.226255 0.022037 0.179382
O O11 0.773432 0.018610 0.456637
O O12 0.757396 0.476589 0.129841
O O13 0.563319 0.144559 0.324953
#
# Coordination Sequence:
#
# PCOD9094663 Si02
#       6
#     2   2   2   2   2   2
#     4  11  24  40  60  89 125 165 201 247 296 370
#     4  10  20  34  59  90 123 152 197 252 295 353
#     4  12  22  39  62  95 123 157 204 256 305 352
#     4  10  22  40  63  91 119 163 205 245 303 362
#     4  11  21  37  66  95 119 151 204 262 307 343
#     4  10  20  37  61  94 120 155 204 249 301 362
#
# _framework density 20.117851999999999
#
# number of rings (size 3 to 8) (size 9 to 14) (size 15 to 20)
#    0.000    1.333    5.000    3.500    0.000    1.333 
#    0.000    0.833    0.000    2.000    0.000    0.000 
#    0.000    0.000    0.000    0.000    0.000    0.000 
#
# Total GULP energy -66906.702202 kJ/mol
# GULP energy per Si atom -5575.558517 kJ/mol
# Density = 2.007206 g / cm^3
# Si number density = 20.117852 Si / 1000 Ang^3
#
#
#
# Elastic Constant Matrix: (Units=GPa)
#
#
# Indices 1 2 3 4 5 6 
#
# 1 78.2120 26.1326 72.9284 15.0929 -14.6950 -56.9581
# 2 26.1326 103.5284 63.8956 27.9930 -2.9644 -38.5702
# 3 72.9284 63.8956 -34.8338 14.0928 -33.0983 36.6564
# 4 15.0929 27.9930 14.0928 34.8302 -7.4392 1.7864
# 5 -14.6950 -2.9644 -33.0983 -7.4392 31.1545 22.6839
# 6 -56.9581 -38.5702 36.6564 1.7864 22.6839 3.5264
#
#
#
# Elastic Compliance Matrix: (Units=1/GPa)
#
#
# Indices 1 2 3 4 5 6 
#
# 1 0.012197 -0.005777 0.006296 -0.001040 0.010458 0.001629
# 2 -0.005777 0.010817 0.002548 -0.007008 0.000587 -0.001716
# 3 0.006296 0.002548 0.012875 -0.011956 -0.003456 0.024023
# 4 -0.001040 -0.007008 -0.011956 0.040809 0.003126 -0.009944
# 5 0.010458 0.000587 -0.003456 0.003126 0.032172 0.002733
# 6 0.001629 -0.001716 0.024023 -0.009944 0.002733 0.028868
#
#
# Mechanical properties :
#
#
# Convention : Reuss Voigt Hill
#
# Bulk Modulus (GPa) = 23.79596 52.53553 38.16574
# Shear Modulus (GPa) = 34.33798 12.83222 23.58510
#
# Velocity S-wave (km/s) = 4.13588 2.52831 3.42767
# Velocity P-wave (km/s) = 5.88738 5.89014 5.88876
#
# Compressibility (1/GPa) = 0.04202394
#
# Stress axis : x y z
#
# Youngs Moduli (GPa) = 81.98569 92.44501 77.67137
#
# Poissons Ratio (x) = 0.53407 -0.48903
# Poissons Ratio (y) = 0.47364 -0.19794
# Poissons Ratio (z) = -0.51619 -0.23559
#
# Static dielectric constant tensor:
#      x y z
#    x 1.741700 -0.027120 -0.013790 
#    y -0.027120 1.734110 0.036090 
#    z -0.013790 0.036090 1.715350 
# 
# From -- ./inp_files/180512.got.cif
#   From: 2010.05.17/outbox.cif.g08.bks.cpg/sg2_91_cif.got.tgz:180512.got - 2010.06.03 11:33:40.
