data_PCOD9094181
_publ_section_title
;
Structure prediction by ZEFSAII (Michael W. Deem and Ramdas Pophale) SiO2 
 PCOD9094181
Probable space group: P -1
;
_chemical_formula_sum "Si O2"
_cell_formula_units_Z 16
_cell_length_a 15.290557
_cell_length_b 15.466114
_cell_length_c 7.097357
_cell_angle_alpha 66.193074
_cell_angle_beta 89.266232
_cell_angle_gamma 141.436262
_cell_volume 782.624646
_symmetry_space_group_name_H-M "P -1"
_symmetry_group_IT_number 2
_symmetry_cell_setting 'triclinic'
loop_
_space_group_symop_operation_xyz
x,y,z
-x,-y,-z
loop_
_atom_site_type_symbol
_atom_site_label
_atom_site_fract_x
_atom_site_fract_y
_atom_site_fract_z
Si Si1 0.601246 0.520468 0.347561
Si Si2 0.391001 0.775092 0.231220
Si Si3 0.346892 0.124578 0.809589
Si Si4 0.585109 0.046819 0.651060
Si Si5 0.186069 0.395544 0.459192
Si Si6 0.141326 0.023973 0.622180
Si Si7 0.752616 0.684532 0.798759
Si Si8 0.210055 0.954546 0.342576
O O1 0.500000 0.500000 0.500000
O O2 0.482569 0.317940 0.535545
O O3 0.771682 0.642421 0.345792
O O4 0.635741 0.583601 0.076813
O O5 0.574966 0.906629 0.188851
O O6 0.325047 0.783780 0.386608
O O7 0.274476 0.576478 0.357941
O O8 0.437660 0.873290 0.952262
O O9 0.171237 0.998043 0.838733
O O10 0.327849 0.115046 0.041817
O O11 0.715533 0.080562 0.595318
O O12 0.500000 0.000000 0.500000
O O13 0.269446 0.426202 0.240446
O O14 0.985781 0.226012 0.569333
O O15 0.235807 0.211660 0.423360
O O16 0.215026 0.020307 0.470693
O O17 0.943245 0.854368 0.731633
#
# Coordination Sequence:
#
# PCOD9094181 Si02
#       8
#     2   2   2   2   2   2   2   2
#     4  11  22  35  55  82 112 150 192 234 280 326
#     4   9  21  37  56  85 113 142 185 230 279 339
#     4  10  20  34  55  79 108 146 184 230 279 329
#     4  10  20  38  61  84 111 144 183 230 284 339
#     4  10  22  39  56  82 116 149 188 232 278 333
#     4  10  20  36  55  79 112 152 193 230 275 329
#     4  10  22  36  54  81 115 152 190 233 278 329
#     4  10  21  37  59  82 110 149 189 231 281 334
#
# _framework density 20.444026000000001
#
# number of rings (size 3 to 8) (size 9 to 14) (size 15 to 20)
#    0.000    2.000    0.000    3.000    0.000    7.500 
#    0.000    5.625    0.000    0.000    0.000    0.000 
#    0.000    0.000    0.000    0.000    0.000    0.000 
#
# Total GULP energy -89224.918439 kJ/mol
# GULP energy per Si atom -5576.557402 kJ/mol
# Density = 2.039749 g / cm^3
# Si number density = 20.444026 Si / 1000 Ang^3
#
#
#
# Elastic Constant Matrix: (Units=GPa)
#
#
# Indices 1 2 3 4 5 6 
#
# 1 117.4898 45.3445 41.7053 14.5548 7.2361 0.1941
# 2 45.3445 85.1600 23.6069 8.0138 4.8469 -10.3127
# 3 41.7053 23.6069 87.0838 19.6158 5.5673 -9.0268
# 4 14.5548 8.0138 19.6158 21.0786 7.4967 4.9039
# 5 7.2361 4.8469 5.5673 7.4967 35.8346 8.8365
# 6 0.1941 -10.3127 -9.0268 4.9039 8.8365 43.6233
#
#
#
# Elastic Compliance Matrix: (Units=1/GPa)
#
#
# Indices 1 2 3 4 5 6 
#
# 1 0.012369 -0.005459 -0.004166 -0.002066 -0.000203 -0.001934
# 2 -0.005459 0.015598 -0.000646 -0.001979 -0.001505 0.004105
# 3 -0.004166 -0.000646 0.017385 -0.014219 -0.000048 0.005071
# 4 -0.002066 -0.001979 -0.014219 0.068238 -0.009106 -0.009227
# 5 -0.000203 -0.001505 -0.000048 -0.009106 0.031473 -0.005716
# 6 -0.001934 0.004105 0.005071 -0.009227 -0.005716 0.027147
#
#
# Mechanical properties :
#
#
# Convention : Reuss Voigt Hill
#
# Bulk Modulus (GPa) = 40.30816 56.78298 48.54557
# Shear Modulus (GPa) = 24.87288 32.04575 28.45931
#
# Velocity S-wave (km/s) = 3.49181 3.96345 3.73508
# Velocity P-wave (km/s) = 6.00135 6.98429 6.51139
#
# Compressibility (1/GPa) = 0.02480888
#
# Stress axis : x y z
#
# Youngs Moduli (GPa) = 80.84891 64.11210 57.52076
#
# Poissons Ratio (x) = 0.35001 0.23961
# Poissons Ratio (y) = 0.44139 0.03717
# Poissons Ratio (z) = 0.33679 0.04143
#
# Static dielectric constant tensor:
#      x y z
#    x 1.783030 0.029690 -0.010100 
#    y 0.029690 1.780530 0.002340 
#    z -0.010100 0.002340 1.727230 
# 
# From -- ./inp_files/37411.got.cif
#   From: 2010.05.17/outbox.cif.g08.bks.cpg/sg2_19_cif.got.tgz:37411.got - 2010.06.03 11:33:40.
