data_PCOD9094193
_publ_section_title
;
Structure prediction by ZEFSAII (Michael W. Deem and Ramdas Pophale) SiO2 
 PCOD9094193
Probable space group: P -1
;
_chemical_formula_sum "Si O2"
_cell_formula_units_Z 14
_cell_length_a 17.310258
_cell_length_b 18.918484
_cell_length_c 9.211397
_cell_angle_alpha 39.703155
_cell_angle_beta 147.532857
_cell_angle_gamma 158.067493
_cell_volume 603.523642
_symmetry_space_group_name_H-M "P -1"
_symmetry_group_IT_number 2
_symmetry_cell_setting 'triclinic'
loop_
_space_group_symop_operation_xyz
x,y,z
-x,-y,-z
loop_
_atom_site_type_symbol
_atom_site_label
_atom_site_fract_x
_atom_site_fract_y
_atom_site_fract_z
Si Si1 0.614339 0.885420 0.594214
Si Si2 0.998113 0.944453 0.814802
Si Si3 0.706061 0.311082 0.329404
Si Si4 0.842053 0.623138 0.086562
Si Si5 0.726477 0.041871 0.954326
Si Si6 0.894177 0.137867 0.381283
Si Si7 0.325307 0.491559 0.686664
O O1 0.417728 0.800111 0.538076
O O2 0.489587 0.703443 0.603378
O O3 0.708743 0.027654 0.397537
O O4 0.843626 0.987707 0.896233
O O5 0.936429 0.032944 0.589503
O O6 0.162280 0.010170 0.832886
O O7 0.781031 0.715813 0.826769
O O8 0.000000 0.500000 0.500000
O O9 0.657105 0.414102 0.066856
O O10 0.559613 0.150034 0.232358
O O11 0.851981 0.603457 0.303701
O O12 0.105476 0.783694 0.168317
O O13 0.789259 0.114953 0.100041
O O14 0.151774 0.353359 0.496145
O O15 0.500000 0.500000 0.000000
#
# Coordination Sequence:
#
# PCOD9094193 Si02
#       7
#     2   2   2   2   2   2   2
#     4  10  20  34  55  82 109 142 191 222 257 324
#     4   9  17  35  51  80 114 147 174 209 254 329
#     4  10  21  41  63  76  99 142 192 239 273 312
#     4   9  20  37  54  80 112 135 191 221 263 334
#     4   9  22  36  52  82 115 146 175 224 270 326
#     4  12  19  34  55  81 123 148 170 213 274 324
#     4  11  19  30  54  80 108 150 182 213 256 320
#
# _framework density 23.197102999999998
#
# number of rings (size 3 to 8) (size 9 to 14) (size 15 to 20)
#    0.857    1.143    2.857    1.714    0.000    1.714 
#    0.000    2.143    0.000    4.286    0.000    0.000 
#    0.000    0.000    0.000    0.000    0.000    0.000 
#
# Total GULP energy -78073.846112 kJ/mol
# GULP energy per Si atom -5576.703294 kJ/mol
# Density = 2.314430 g / cm^3
# Si number density = 23.197103 Si / 1000 Ang^3
#
#
#
# Elastic Constant Matrix: (Units=GPa)
#
#
# Indices 1 2 3 4 5 6 
#
# 1 77.0812 32.9054 39.8087 18.6152 -19.5445 2.8129
# 2 32.9054 132.4974 42.3040 28.6281 -28.0438 -13.6657
# 3 39.8087 42.3040 80.7551 20.6423 -32.4587 4.1972
# 4 18.6152 28.6281 20.6423 22.9241 -12.1830 -1.3215
# 5 -19.5445 -28.0438 -32.4587 -12.1830 41.2440 6.5952
# 6 2.8129 -13.6657 4.1972 -1.3215 6.5952 44.9279
#
#
#
# Elastic Compliance Matrix: (Units=1/GPa)
#
#
# Indices 1 2 3 4 5 6 
#
# 1 0.018859 -0.000806 -0.006212 -0.008089 0.001315 -0.001276
# 2 -0.000806 0.011476 -0.002319 -0.010321 0.002043 0.003154
# 3 -0.006212 -0.002319 0.023894 -0.006947 0.012976 -0.004658
# 4 -0.008089 -0.010321 -0.006947 0.071980 0.005041 -0.000607
# 5 0.001315 0.002043 0.012976 0.005041 0.038958 -0.006244
# 6 -0.001276 0.003154 -0.004658 -0.000607 -0.006244 0.024631
#
#
# Mechanical properties :
#
#
# Convention : Reuss Voigt Hill
#
# Bulk Modulus (GPa) = 28.12552 57.81886 42.97219
# Shear Modulus (GPa) = 22.69407 33.50690 28.10048
#
# Velocity S-wave (km/s) = 3.13120 3.80471 3.48426
# Velocity P-wave (km/s) = 5.02229 6.65434 5.89507
#
# Compressibility (1/GPa) = 0.03555490
#
# Stress axis : x y z
#
# Youngs Moduli (GPa) = 53.02506 87.14202 41.85176
#
# Poissons Ratio (x) = 0.07022 0.25998
# Poissons Ratio (y) = 0.04273 0.09705
# Poissons Ratio (z) = 0.32939 0.20207
#
# Static dielectric constant tensor:
#      x y z
#    x 2.018740 -0.015980 0.139960 
#    y -0.015980 1.868800 -0.044100 
#    z 0.139960 -0.044100 1.965530 
# 
# From -- ./inp_files/337630.got.cif
#   From: 2010.05.17/outbox.cif.g08.bks.cpg/sg2_169_cif.got.tgz:337630.got - 2010.06.03 11:33:40.
