data_PCOD9094221
_publ_section_title
;
Structure prediction by ZEFSAII (Michael W. Deem and Ramdas Pophale) SiO2 
 PCOD9094221
Probable space group: P -1
;
_chemical_formula_sum "Si O2"
_cell_formula_units_Z 12
_cell_length_a 15.570847
_cell_length_b 8.603209
_cell_length_c 15.227891
_cell_angle_alpha 147.039714
_cell_angle_beta 28.066399
_cell_angle_gamma 146.638054
_cell_volume 485.011788
_symmetry_space_group_name_H-M "P -1"
_symmetry_group_IT_number 2
_symmetry_cell_setting 'triclinic'
loop_
_space_group_symop_operation_xyz
x,y,z
-x,-y,-z
loop_
_atom_site_type_symbol
_atom_site_label
_atom_site_fract_x
_atom_site_fract_y
_atom_site_fract_z
Si Si1 0.293203 0.719851 0.811367
Si Si2 0.000861 0.095507 0.725553
Si Si3 0.840984 0.576014 0.501839
Si Si4 0.728387 0.358256 0.872187
Si Si5 0.695402 0.226518 0.648731
Si Si6 0.502382 0.383195 0.256565
O O1 0.141883 0.450211 0.763250
O O2 0.367542 0.549422 0.741564
O O3 0.485065 0.953345 0.703268
O O4 0.173636 0.903955 0.053784
O O5 0.134508 0.909616 0.549442
O O6 0.910033 0.934543 0.640110
O O7 0.752029 0.407830 0.593621
O O8 0.668181 0.489715 0.546868
O O9 0.037341 0.524687 0.274742
O O10 0.690541 0.417301 0.832317
O O11 0.615569 0.986688 0.803942
O O12 0.635622 0.470838 0.090668
#
# Coordination Sequence:
#
# PCOD9094221 Si02
#       6
#     2   2   2   2   2   2
#     4  10  22  38  59  83 112 149 186 228 278 330
#     4  10  20  37  59  83 110 147 192 228 268 330
#     4  11  21  35  61  87 111 143 186 236 278 322
#     4   9  18  33  53  82 112 144 188 228 267 323
#     4  10  21  36  59  86 111 146 187 232 276 326
#     4  10  20  34  55  85 114 144 184 230 277 328
#
# _framework density 24.741669000000002
#
# number of rings (size 3 to 8) (size 9 to 14) (size 15 to 20)
#    0.000    2.000    0.000    6.000    0.000    6.667 
#    0.000    0.833    0.000   16.000    0.000    0.000 
#    0.000    0.000    0.000    0.000    0.000    0.000 
#
# Total GULP energy -67176.326583 kJ/mol
# GULP energy per Si atom -5598.027215 kJ/mol
# Density = 2.468536 g / cm^3
# Si number density = 24.741669 Si / 1000 Ang^3
#
#
#
# Elastic Constant Matrix: (Units=GPa)
#
#
# Indices 1 2 3 4 5 6 
#
# 1 74.3762 43.0348 58.6031 -23.5327 6.0953 -9.9065
# 2 43.0348 66.8546 58.7333 -32.9501 -3.2283 0.8553
# 3 58.6031 58.7333 132.8072 -47.6947 13.0110 1.0868
# 4 -23.5327 -32.9501 -47.6947 40.3940 3.6037 4.4677
# 5 6.0953 -3.2283 13.0110 3.6037 24.1861 -10.8286
# 6 -9.9065 0.8553 1.0868 4.4677 -10.8286 22.7839
#
#
#
# Elastic Compliance Matrix: (Units=1/GPa)
#
#
# Indices 1 2 3 4 5 6 
#
# 1 0.028953 -0.013775 -0.011242 -0.010362 0.006953 0.018979
# 2 -0.013775 0.036229 -0.004025 0.017375 0.004006 -0.008660
# 3 -0.011242 -0.004025 0.026682 0.026711 -0.026770 -0.023970
# 4 -0.010362 0.017375 0.026711 0.071992 -0.037303 -0.038278
# 5 0.006953 0.004006 -0.026770 -0.037303 0.082850 0.050841
# 6 0.018979 -0.008660 -0.023970 -0.038278 0.050841 0.085281
#
#
# Mechanical properties :
#
#
# Convention : Reuss Voigt Hill
#
# Bulk Modulus (GPa) = 29.60425 66.08671 47.84548
# Shear Modulus (GPa) = 12.45853 25.05059 18.75456
#
# Velocity S-wave (km/s) = 2.24641 3.18541 2.75619
# Velocity P-wave (km/s) = 4.32664 6.34805 5.43220
#
# Compressibility (1/GPa) = 0.03377893
#
# Stress axis : x y z
#
# Youngs Moduli (GPa) = 34.53911 27.60198 37.47870
#
# Poissons Ratio (x) = 0.38022 0.42133
# Poissons Ratio (y) = 0.47578 0.15087
# Poissons Ratio (z) = 0.38828 0.11111
#
# Static dielectric constant tensor:
#      x y z
#    x 1.955450 -0.007710 0.003950 
#    y -0.007710 1.970840 0.030440 
#    z 0.003950 0.030440 1.989440 
# 
# From -- ./inp_files/238741.got.cif
#   From: 2010.05.17/outbox.cif.g08.bks.cpg/sg2_120_cif.got.tgz:238741.got - 2010.06.03 11:33:40.
