data_PCOD9094618
_publ_section_title
;
Structure prediction by ZEFSAII (Michael W. Deem and Ramdas Pophale) SiO2 
 PCOD9094618
Probable space group: P -1
;
_chemical_formula_sum "Si O2"
_cell_formula_units_Z 14
_cell_length_a 11.312220
_cell_length_b 9.245546
_cell_length_c 13.507440
_cell_angle_alpha 81.284097
_cell_angle_beta 153.431879
_cell_angle_gamma 107.131299
_cell_volume 582.748378
_symmetry_space_group_name_H-M "P -1"
_symmetry_group_IT_number 2
_symmetry_cell_setting 'triclinic'
loop_
_space_group_symop_operation_xyz
x,y,z
-x,-y,-z
loop_
_atom_site_type_symbol
_atom_site_label
_atom_site_fract_x
_atom_site_fract_y
_atom_site_fract_z
Si Si1 0.780411 0.140913 0.736330
Si Si2 0.525662 0.097767 0.751977
Si Si3 0.974371 0.820391 0.285061
Si Si4 0.139013 0.293864 0.469669
Si Si5 0.544405 0.136396 0.118340
Si Si6 0.326930 0.556445 0.442559
Si Si7 0.718879 0.386431 0.395804
O O1 0.767704 0.121310 0.847695
O O2 0.760134 0.311303 0.687438
O O3 0.014402 0.145606 0.828745
O O4 0.500000 0.000000 0.500000
O O5 0.399604 0.235779 0.654637
O O6 0.582957 0.030729 0.905495
O O7 0.251678 0.954109 0.521716
O O8 0.024927 0.659773 0.361432
O O9 0.701211 0.834262 0.130130
O O10 0.843852 0.162510 0.290539
O O11 0.106447 0.393993 0.339167
O O12 0.205512 0.431080 0.587997
O O13 0.606639 0.275004 0.231963
O O14 0.500000 0.500000 0.500000
O O15 0.479937 0.636587 0.652324
#
# Coordination Sequence:
#
# PCOD9094618 Si02
#       7
#     2   2   2   2   2   2   2
#     4   9  16  33  56  78 103 139 185 220 264 319
#     4  10  20  36  57  79 111 149 182 227 269 322
#     4   9  20  35  56  83 108 146 186 223 272 326
#     4  10  20  34  59  81 110 149 180 227 275 325
#     4  11  21  36  54  85 115 143 184 220 275 332
#     4   9  16  32  58  82  99 143 189 218 273 319
#     4   8  19  36  56  79 106 145 180 228 268 318
#
# _framework density 24.024090999999999
#
# number of rings (size 3 to 8) (size 9 to 14) (size 15 to 20)
#    0.857    1.714    1.429    1.714    0.000    1.714 
#    0.000    1.429    0.000    4.286    0.000    0.000 
#    0.000    0.000    0.000    0.000    0.000    0.000 
#
# Total GULP energy -77951.122488 kJ/mol
# GULP energy per Si atom -5567.937321 kJ/mol
# Density = 2.396941 g / cm^3
# Si number density = 24.024091 Si / 1000 Ang^3
#
#
#
# Elastic Constant Matrix: (Units=GPa)
#
#
# Indices 1 2 3 4 5 6 
#
# 1 101.0683 19.7707 12.5056 12.7191 0.8144 -4.7636
# 2 19.7707 127.4571 -0.2825 -9.2295 -3.3334 -9.5017
# 3 12.5056 -0.2825 17.4957 -5.2451 5.9565 -11.9744
# 4 12.7191 -9.2295 -5.2451 14.3289 -6.4179 -1.5055
# 5 0.8144 -3.3334 5.9565 -6.4179 23.6102 2.7564
# 6 -4.7636 -9.5017 -11.9744 -1.5055 2.7564 38.9221
#
#
#
# Elastic Compliance Matrix: (Units=1/GPa)
#
#
# Indices 1 2 3 4 5 6 
#
# 1 0.018178 -0.005933 -0.028182 -0.032131 -0.002039 -0.008992
# 2 -0.005933 0.010754 0.013848 0.019155 0.002652 0.006712
# 3 -0.028182 0.013848 0.140128 0.083354 -0.015295 0.047349
# 4 -0.032131 0.019155 0.083354 0.153802 0.020989 0.030850
# 5 -0.002039 0.002652 -0.015295 0.020989 0.053212 -0.007264
# 6 -0.008992 0.006712 0.047349 0.030850 -0.007264 0.042505
#
#
# Mechanical properties :
#
#
# Convention : Reuss Voigt Hill
#
# Bulk Modulus (GPa) = 7.78056 34.44542 21.11299
# Shear Modulus (GPa) = 9.96104 29.64073 19.80089
#
# Velocity S-wave (km/s) = 2.03845 3.51635 2.87402
# Velocity P-wave (km/s) = 2.96413 5.55475 4.45204
#
# Compressibility (1/GPa) = 0.12852550
#
# Stress axis : x y z
#
# Youngs Moduli (GPa) = 55.01095 92.99265 7.13632
#
# Poissons Ratio (x) = 0.55169 0.20112
# Poissons Ratio (y) = 0.32636 -0.09882
# Poissons Ratio (z) = 1.55034 -1.28774
#
# Static dielectric constant tensor:
#      x y z
#    x 2.026790 -0.004080 -0.018880 
#    y -0.004080 1.941630 -0.005860 
#    z -0.018880 -0.005860 2.023320 
# 
# From -- ./inp_files/455265.got.cif
#   From: 2010.05.17/outbox.cif.g08.bks.cpg/sg2_228_cif.got.tgz:455265.got - 2010.06.03 11:33:40.
