data_PCOD9094325
_publ_section_title
;
Structure prediction by ZEFSAII (Michael W. Deem and Ramdas Pophale) SiO2 
 PCOD9094325
Probable space group: P -1
;
_chemical_formula_sum "Si O2"
_cell_formula_units_Z 13
_cell_length_a 8.941583
_cell_length_b 4.970593
_cell_length_c 18.160546
_cell_angle_alpha 85.992111
_cell_angle_beta 37.624600
_cell_angle_gamma 79.094149
_cell_volume 479.527670
_symmetry_space_group_name_H-M "P -1"
_symmetry_group_IT_number 2
_symmetry_cell_setting 'triclinic'
loop_
_space_group_symop_operation_xyz
x,y,z
-x,-y,-z
loop_
_atom_site_type_symbol
_atom_site_label
_atom_site_fract_x
_atom_site_fract_y
_atom_site_fract_z
Si Si1 0.675656 0.783809 0.885259
Si Si2 0.778253 0.404813 0.294501
Si Si3 0.803103 0.060260 0.678747
Si Si4 0.695460 0.030959 0.199496
Si Si5 0.644583 0.160412 0.498485
Si Si6 0.563197 0.497086 0.130863
Si Si7 0.000000 0.500000 0.000000
O O1 0.509999 0.600007 0.914798
O O2 0.930131 0.601710 0.821309
O O3 0.755979 0.951332 0.780838
O O4 0.500000 0.000000 0.000000
O O5 0.727669 0.168162 0.263296
O O6 0.743782 0.353475 0.396896
O O7 0.553155 0.672718 0.369343
O O8 0.684161 0.384785 0.728550
O O9 0.594684 0.966194 0.710339
O O10 0.102228 0.994444 0.554778
O O11 0.753401 0.278022 0.115139
O O12 0.873234 0.734468 0.118553
O O13 0.500000 0.000000 0.500000
O O14 0.763166 0.683720 0.040402
#
# Coordination Sequence:
#
# PCOD9094325 Si02
#       7
#     2   2   2   2   2   2   1
#     4  10  20  36  58  84 115 152 194 241 290 341
#     4  10  22  38  60  88 114 151 200 240 287 346
#     4   9  21  38  57  84 114 152 196 237 289 349
#     4  10  21  38  58  84 117 152 192 242 292 343
#     4  10  21  40  61  83 116 153 195 245 288 338
#     4  10  20  36  55  80 117 154 189 236 290 347
#     4  10  20  34  56  84 116 152 194 232 282 348
#
# _framework density 27.110009000000002
#
# number of rings (size 3 to 8) (size 9 to 14) (size 15 to 20)
#    0.000    2.154    0.000    2.308    0.000    7.385 
#    0.000    6.154    0.000    0.000    0.000    0.000 
#    0.000    0.000    0.000    0.000    0.000    0.000 
#
# Total GULP energy -72438.303406 kJ/mol
# GULP energy per Si atom -5572.177185 kJ/mol
# Density = 2.704831 g / cm^3
# Si number density = 27.110009 Si / 1000 Ang^3
#
#
#
# Elastic Constant Matrix: (Units=GPa)
#
#
# Indices 1 2 3 4 5 6 
#
# 1 163.5192 56.6493 114.5493 34.3387 -36.6382 26.4942
# 2 56.6493 73.5537 42.9300 24.7469 -12.3453 13.7119
# 3 114.5493 42.9300 237.8859 31.8276 -42.1007 23.7890
# 4 34.3387 24.7469 31.8276 40.0195 -11.2326 13.8494
# 5 -36.6382 -12.3453 -42.1007 -11.2326 72.6685 -2.4317
# 6 26.4942 13.7119 23.7890 13.8494 -2.4317 62.2646
#
#
#
# Elastic Compliance Matrix: (Units=1/GPa)
#
#
# Indices 1 2 3 4 5 6 
#
# 1 0.012114 -0.005427 -0.003885 -0.002636 0.002467 -0.001792
# 2 -0.005427 0.020483 -0.000072 -0.007957 -0.000542 -0.000425
# 3 -0.003885 -0.000072 0.006594 -0.001227 0.001642 -0.000513
# 4 -0.002636 -0.007957 -0.001227 0.035207 0.001903 -0.004414
# 5 0.002467 -0.000542 0.001642 0.001903 0.016113 -0.001352
# 6 -0.001792 -0.000425 -0.000513 -0.004414 -0.001352 0.018042
#
#
# Mechanical properties :
#
#
# Convention : Reuss Voigt Hill
#
# Bulk Modulus (GPa) = 48.96792 100.35733 74.66262
# Shear Modulus (GPa) = 37.27732 52.37919 44.82825
#
# Velocity S-wave (km/s) = 3.71217 4.40033 4.07082
# Velocity P-wave (km/s) = 6.03950 7.93197 7.04953
#
# Compressibility (1/GPa) = 0.02042153
#
# Stress axis : x y z
#
# Youngs Moduli (GPa) = 82.54693 48.82135 151.65949
#
# Poissons Ratio (x) = 0.26497 0.58926
# Poissons Ratio (y) = 0.44802 0.01090
# Poissons Ratio (z) = 0.32073 0.00351
#
# Static dielectric constant tensor:
#      x y z
#    x 2.164740 -0.056820 -0.000050 
#    y -0.056820 2.574930 -0.112430 
#    z -0.000050 -0.112430 2.236320 
# 
# From -- ./inp_files/20538.got.cif
#   From: 2010.05.17/outbox.cif.g08.bks.cpg/sg2_11_cif.got.tgz:20538.got - 2010.06.03 11:33:40.
