data_PCOD9094969
_publ_section_title
;
Structure prediction by ZEFSAII (Michael W. Deem and Ramdas Pophale) SiO2 
 PCOD9094969
Probable space group: P -1
;
_chemical_formula_sum "Si O2"
_cell_formula_units_Z 15
_cell_length_a 24.567548
_cell_length_b 9.761360
_cell_length_c 5.066974
_cell_angle_alpha 116.541267
_cell_angle_beta 69.775063
_cell_angle_gamma 141.439935
_cell_volume 677.591031
_symmetry_space_group_name_H-M "P -1"
_symmetry_group_IT_number 2
_symmetry_cell_setting 'triclinic'
loop_
_space_group_symop_operation_xyz
x,y,z
-x,-y,-z
loop_
_atom_site_type_symbol
_atom_site_label
_atom_site_fract_x
_atom_site_fract_y
_atom_site_fract_z
Si Si1 0.037114 0.223286 0.265506
Si Si2 0.633082 0.224305 0.455492
Si Si3 0.500000 0.000000 0.000000
Si Si4 0.520333 0.771277 0.578342
Si Si5 0.206073 0.661213 0.564923
Si Si6 0.359291 0.405998 0.198123
Si Si7 0.320164 0.133169 0.516514
Si Si8 0.962198 0.590679 0.085059
O O1 0.141425 0.418647 0.309672
O O2 0.000493 0.208361 0.596302
O O3 0.023093 0.329823 0.168848
O O4 0.000000 0.000000 0.000000
O O5 0.580891 0.113842 0.178134
O O6 0.713329 0.266868 0.376457
O O7 0.660910 0.453334 0.649983
O O8 0.564956 0.025695 0.627410
O O9 0.537919 0.258645 0.136614
O O10 0.460433 0.592472 0.291488
O O11 0.591010 0.794261 0.581986
O O12 0.140497 0.606894 0.838621
O O13 0.244505 0.864130 0.480278
O O14 0.309115 0.213965 0.348565
O O15 0.334556 0.268360 0.860002
O O16 0.000000 0.500000 0.000000
#
# Coordination Sequence:
#
# PCOD9094969 Si02
#       8
#     2   2   1   2   2   2   2   2
#     4  10  22  44  73 104 133 172 227 276 340 417
#     4  10  23  42  62  95 131 184 232 285 332 392
#     4  10  20  34  68  82 124 170 236 260 330 376
#     4  10  23  38  64  85 125 178 229 280 333 393
#     4   9  25  43  69  94 142 180 220 277 346 406
#     4  11  24  40  60  95 125 173 227 280 326 387
#     4  11  25  41  61  91 135 169 221 276 342 384
#     4  10  22  44  73 103 138 175 221 270 354 421
#
# _framework density 22.137246000000001
#
# number of rings (size 3 to 8) (size 9 to 14) (size 15 to 20)
#    0.800    1.067    0.000    3.200   13.067    1.067 
#    2.400    0.000    0.000    0.000    0.000    0.000 
#    0.000    0.000    0.000    0.000    0.000    0.000 
#
# Total GULP energy -83608.987842 kJ/mol
# GULP energy per Si atom -5573.932523 kJ/mol
# Density = 2.208686 g / cm^3
# Si number density = 22.137246 Si / 1000 Ang^3
#
#
#
# Elastic Constant Matrix: (Units=GPa)
#
#
# Indices 1 2 3 4 5 6 
#
# 1 111.7902 31.4313 30.7844 4.4354 -3.2189 -9.4414
# 2 31.4313 80.0777 24.5407 14.9210 -0.8885 -13.2809
# 3 30.7844 24.5407 117.1161 8.1144 11.3926 0.4256
# 4 4.4354 14.9210 8.1144 32.4611 -2.0801 7.8202
# 5 -3.2189 -0.8885 11.3926 -2.0801 25.7436 0.1487
# 6 -9.4414 -13.2809 0.4256 7.8202 0.1487 30.3523
#
#
#
# Elastic Compliance Matrix: (Units=1/GPa)
#
#
# Indices 1 2 3 4 5 6 
#
# 1 0.010716 -0.003187 -0.002400 0.000294 0.002305 0.001885
# 2 -0.003187 0.017709 -0.002302 -0.009315 0.000426 0.009187
# 3 -0.002400 -0.002302 0.010219 -0.001105 -0.004982 -0.001588
# 4 0.000294 -0.009315 -0.001105 0.038919 0.003430 -0.014013
# 5 0.002305 0.000426 -0.004982 0.003430 0.041630 -0.000114
# 6 0.001885 0.009187 -0.001588 -0.014013 -0.000114 0.041186
#
#
# Mechanical properties :
#
#
# Convention : Reuss Voigt Hill
#
# Bulk Modulus (GPa) = 43.73726 53.61078 48.67402
# Shear Modulus (GPa) = 27.20632 32.52656 29.86644
#
# Velocity S-wave (km/s) = 3.50949 3.83732 3.67706
# Velocity P-wave (km/s) = 6.01849 6.62596 6.32952
#
# Compressibility (1/GPa) = 0.02286380
#
# Stress axis : x y z
#
# Youngs Moduli (GPa) = 93.31470 56.46987 97.85796
#
# Poissons Ratio (x) = 0.17998 0.23491
# Poissons Ratio (y) = 0.29741 0.22530
# Poissons Ratio (z) = 0.22400 0.13001
#
# Static dielectric constant tensor:
#      x y z
#    x 1.807890 0.024520 -0.110480 
#    y 0.024520 1.956920 -0.111520 
#    z -0.110480 -0.111520 2.093330 
# 
# From -- ./inp_files/117383.got.cif
#   From: 2010.05.17/outbox.cif.g08.bks.cpg/sg2_59_cif.got.tgz:117383.got - 2010.06.03 11:33:40.
