data_PCOD9094971
_publ_section_title
;
Structure prediction by ZEFSAII (Michael W. Deem and Ramdas Pophale) SiO2 
 PCOD9094971
Probable space group: P -1
;
_chemical_formula_sum "Si O2"
_cell_formula_units_Z 14
_cell_length_a 8.040127
_cell_length_b 12.442343
_cell_length_c 24.747380
_cell_angle_alpha 28.373793
_cell_angle_beta 28.125191
_cell_angle_gamma 34.192124
_cell_volume 539.928594
_symmetry_space_group_name_H-M "P -1"
_symmetry_group_IT_number 2
_symmetry_cell_setting 'triclinic'
loop_
_space_group_symop_operation_xyz
x,y,z
-x,-y,-z
loop_
_atom_site_type_symbol
_atom_site_label
_atom_site_fract_x
_atom_site_fract_y
_atom_site_fract_z
Si Si1 0.934010 0.693762 0.502667
Si Si2 0.249545 0.045439 0.198441
Si Si3 0.217113 0.745106 0.980840
Si Si4 0.267421 0.952835 0.508534
Si Si5 0.327941 0.541281 0.852641
Si Si6 0.398458 0.735648 0.201495
Si Si7 0.570891 0.842164 0.734378
O O1 0.599140 0.829931 0.503306
O O2 0.870048 0.435683 0.631628
O O3 0.888656 0.792592 0.532981
O O4 0.246513 0.806807 0.337498
O O5 0.600311 0.133667 0.077536
O O6 0.883901 0.251170 0.218846
O O7 0.226752 0.977979 0.171993
O O8 0.265424 0.878413 0.851630
O O9 0.500000 0.500000 0.000000
O O10 0.812983 0.706127 0.118667
O O11 0.952589 0.816506 0.665773
O O12 0.399116 0.962172 0.405196
O O13 0.527464 0.325134 0.855642
O O14 0.563445 0.627461 0.792762
O O15 0.000000 0.500000 0.000000
#
# Coordination Sequence:
#
# PCOD9094971 Si02
#       7
#     2   2   2   2   2   2   2
#     4  11  20  41  64  95 132 169 222 265 319 390
#     4  12  25  44  67  95 131 173 221 269 320 392
#     4  12  23  43  67  95 132 171 217 272 329 386
#     4  10  20  34  68  94 124 175 217 263 326 382
#     4  12  23  43  66  94 130 172 215 271 328 386
#     4  12  25  40  69  98 129 172 221 264 326 391
#     4  11  20  36  64  97 126 167 217 266 323 386
#
# _framework density 25.929354
#
# number of rings (size 3 to 8) (size 9 to 14) (size 15 to 20)
#    0.000    0.571    7.143    2.571    0.000    0.571 
#    0.000    0.000    0.000    2.571    0.000    0.000 
#    0.000    0.000    0.000    0.000    0.000    0.000 
#
# Total GULP energy -78192.236996 kJ/mol
# GULP energy per Si atom -5585.159785 kJ/mol
# Density = 2.587034 g / cm^3
# Si number density = 25.929354 Si / 1000 Ang^3
#
#
#
# Elastic Constant Matrix: (Units=GPa)
#
#
# Indices 1 2 3 4 5 6 
#
# 1 83.4398 20.3438 33.8719 -12.2889 -25.4286 29.4121
# 2 20.3438 88.8376 30.8997 -3.3465 -6.8064 28.4679
# 3 33.8719 30.8997 154.5659 -8.2064 -20.6711 3.7618
# 4 -12.2889 -3.3465 -8.2064 26.5956 13.3717 -17.2526
# 5 -25.4286 -6.8064 -20.6711 13.3717 70.8385 -3.1386
# 6 29.4121 28.4679 3.7618 -17.2526 -3.1386 36.0218
#
#
#
# Elastic Compliance Matrix: (Units=1/GPa)
#
#
# Indices 1 2 3 4 5 6 
#
# 1 0.023493 0.005758 -0.005131 -0.012936 0.008662 -0.028638
# 2 0.005758 0.020253 -0.004916 -0.016544 0.004473 -0.027728
# 3 -0.005131 -0.004916 0.008598 0.006658 -0.000605 0.010312
# 4 -0.012936 -0.016544 0.006658 0.078054 -0.016415 0.058895
# 5 0.008662 0.004473 -0.000605 -0.016415 0.019839 -0.016678
# 6 -0.028638 -0.027728 0.010312 0.058895 -0.016678 0.098735
#
#
# Mechanical properties :
#
#
# Convention : Reuss Voigt Hill
#
# Bulk Modulus (GPa) = 22.84839 55.23045 39.03942
# Shear Modulus (GPa) = 18.37301 42.80637 30.58969
#
# Velocity S-wave (km/s) = 2.66480 4.06752 3.43845
# Velocity P-wave (km/s) = 4.27775 6.58834 5.55452
#
# Compressibility (1/GPa) = 0.04376676
#
# Stress axis : x y z
#
# Youngs Moduli (GPa) = 42.56583 49.37660 116.29969
#
# Poissons Ratio (x) = -0.28432 0.59671
# Poissons Ratio (y) = -0.24510 0.57172
# Poissons Ratio (z) = 0.21840 0.24273
#
# Static dielectric constant tensor:
#      x y z
#    x 2.067950 -0.006100 0.093230 
#    y -0.006100 2.056710 -0.001110 
#    z 0.093230 -0.001110 2.191200 
# 
# From -- ./inp_files/617023.got.cif
#   From: 2010.05.17/outbox.cif.g08.bks.cpg/sg2_309_cif.got.tgz:617023.got - 2010.06.03 11:33:40.
