data_PCOD9094644
_publ_section_title
;
Structure prediction by ZEFSAII (Michael W. Deem and Ramdas Pophale) SiO2 
 PCOD9094644
Probable space group: P -1
;
_chemical_formula_sum "Si O2"
_cell_formula_units_Z 16
_cell_length_a 10.495552
_cell_length_b 9.276260
_cell_length_c 16.749209
_cell_angle_alpha 35.704421
_cell_angle_beta 89.068784
_cell_angle_gamma 71.909910
_cell_volume 818.776487
_symmetry_space_group_name_H-M "P -1"
_symmetry_group_IT_number 2
_symmetry_cell_setting 'triclinic'
loop_
_space_group_symop_operation_xyz
x,y,z
-x,-y,-z
loop_
_atom_site_type_symbol
_atom_site_label
_atom_site_fract_x
_atom_site_fract_y
_atom_site_fract_z
Si Si1 0.864420 0.162922 0.809131
Si Si2 0.171744 0.411567 0.658757
Si Si3 0.179698 0.242286 0.462058
Si Si4 0.685291 0.095183 0.237391
Si Si5 0.881988 0.016589 0.559836
Si Si6 0.884018 0.792259 0.827208
Si Si7 0.663154 0.568615 0.915443
Si Si8 0.802573 0.059442 0.026333
O O1 0.784101 0.505143 0.649665
O O2 0.855611 0.034294 0.783094
O O3 0.803167 0.071530 0.926004
O O4 0.035080 0.041700 0.890763
O O5 0.215843 0.651861 0.562163
O O6 0.992570 0.596737 0.579886
O O7 0.225693 0.209707 0.671940
O O8 0.229441 0.182870 0.832954
O O9 0.272179 0.978581 0.638332
O O10 0.193361 0.127687 0.423920
O O11 0.511631 0.226623 0.165821
O O12 0.720650 0.327360 0.093958
O O13 0.941239 0.845899 0.718677
O O14 0.000000 0.000000 0.500000
O O15 0.745172 0.748909 0.832002
O O16 0.000000 0.500000 0.000000
O O17 0.697929 0.370249 0.925905
#
# Coordination Sequence:
#
# PCOD9094644 Si02
#       8
#     2   2   2   2   2   2   2   2
#     4  10  20  34  59  88 118 151 200 244 305 344
#     4   9  19  34  60  84 120 152 206 245 298 347
#     4  10  20  35  60  85 117 157 205 247 297 351
#     4  10  21  39  61  86 121 167 196 251 293 368
#     4  10  23  37  58  94 123 150 203 252 302 351
#     4  12  24  36  61  90 123 158 196 251 298 356
#     4  10  22  39  59  89 124 157 208 238 307 357
#     4   9  18  35  57  85 118 156 195 252 287 361
#
# _framework density 19.541352
#
# number of rings (size 3 to 8) (size 9 to 14) (size 15 to 20)
#    0.000    2.000    1.250    1.875    8.750    0.000 
#    0.000    6.250    0.000    4.500    0.000    0.000 
#    0.000    0.000    0.000    0.000    0.000    0.000 
#
# Total GULP energy -89216.214880 kJ/mol
# GULP energy per Si atom -5576.013430 kJ/mol
# Density = 1.949688 g / cm^3
# Si number density = 19.541352 Si / 1000 Ang^3
#
#
#
# Elastic Constant Matrix: (Units=GPa)
#
#
# Indices 1 2 3 4 5 6 
#
# 1 27.3678 7.0659 13.4281 0.0361 -8.6835 3.7622
# 2 7.0659 85.5379 63.6398 16.5728 -5.8183 24.3692
# 3 13.4281 63.6398 90.4614 20.4484 -12.5034 13.0176
# 4 0.0361 16.5728 20.4484 40.4520 -1.2077 -8.6115
# 5 -8.6835 -5.8183 -12.5034 -1.2077 20.4351 -2.4373
# 6 3.7622 24.3692 13.0176 -8.6115 -2.4373 16.9920
#
#
#
# Elastic Compliance Matrix: (Units=1/GPa)
#
#
# Indices 1 2 3 4 5 6 
#
# 1 0.044718 0.005776 -0.006777 -0.000936 0.015097 -0.011301
# 2 0.005776 0.056610 -0.023818 -0.028317 -0.007168 -0.079599
# 3 -0.006777 -0.023818 0.028203 -0.001052 0.009304 0.014855
# 4 -0.000936 -0.028317 -0.001052 0.051382 0.002038 0.067957
# 5 0.015097 -0.007168 0.009304 0.002038 0.060254 0.009485
# 6 -0.011301 -0.079599 0.014855 0.067957 0.009485 0.199933
#
#
# Mechanical properties :
#
#
# Convention : Reuss Voigt Hill
#
# Bulk Modulus (GPa) = 12.51675 41.29274 26.90475
# Shear Modulus (GPa) = 9.66425 23.52468 16.59447
#
# Velocity S-wave (km/s) = 2.22627 3.47341 2.91726
# Velocity P-wave (km/s) = 3.60937 6.10433 5.01450
#
# Compressibility (1/GPa) = 0.07989294
#
# Stress axis : x y z
#
# Youngs Moduli (GPa) = 22.36232 17.66458 35.45729
#
# Poissons Ratio (x) = -0.10203 0.24029
# Poissons Ratio (y) = -0.12916 0.84453
# Poissons Ratio (z) = 0.15155 0.42074
#
# Static dielectric constant tensor:
#      x y z
#    x 1.733950 0.011090 -0.043830 
#    y 0.011090 1.701130 -0.003640 
#    z -0.043830 -0.003640 1.713160 
# 
# From -- ./inp_files/281793.got.cif
#   From: 2010.05.17/outbox.cif.g08.bks.cpg/sg2_141_cif.got.tgz:281793.got - 2010.06.03 11:33:40.
