data_PCOD9094416
_publ_section_title
;
Structure prediction by ZEFSAII (Michael W. Deem and Ramdas Pophale) SiO2 
 PCOD9094416
Probable space group: P -1
;
_chemical_formula_sum "Si O2"
_cell_formula_units_Z 14
_cell_length_a 5.297479
_cell_length_b 24.064451
_cell_length_c 5.301454
_cell_angle_alpha 110.927249
_cell_angle_beta 78.868655
_cell_angle_gamma 123.678389
_cell_volume 525.294404
_symmetry_space_group_name_H-M "P -1"
_symmetry_group_IT_number 2
_symmetry_cell_setting 'triclinic'
loop_
_space_group_symop_operation_xyz
x,y,z
-x,-y,-z
loop_
_atom_site_type_symbol
_atom_site_label
_atom_site_fract_x
_atom_site_fract_y
_atom_site_fract_z
Si Si1 0.297809 0.418609 0.327801
Si Si2 0.358801 0.829152 0.378747
Si Si3 0.186702 0.709591 0.544376
Si Si4 0.826883 0.777836 0.758916
Si Si5 0.258224 0.037933 0.226184
Si Si6 0.090813 0.547916 0.813912
Si Si7 0.201666 0.908153 0.155293
O O1 0.500000 0.500000 0.500000
O O2 0.547901 0.400742 0.176838
O O3 0.069620 0.371554 0.515876
O O4 0.094322 0.414526 0.127219
O O5 0.012333 0.743433 0.773544
O O6 0.656530 0.885403 0.573236
O O7 0.370932 0.877008 0.225140
O O8 0.030204 0.810979 0.524194
O O9 0.483528 0.726404 0.664889
O O10 0.301318 0.752159 0.327258
O O11 0.878343 0.841238 0.027378
O O12 0.199197 0.977286 0.342257
O O13 0.591206 0.064858 0.090513
O O14 0.000000 0.000000 0.000000
O O15 0.000000 0.500000 0.500000
O O16 0.000000 0.500000 0.000000
#
# Coordination Sequence:
#
# PCOD9094416 Si02
#       7
#     2   2   2   2   2   2   2
#     4  10  21  39  68  93 130 166 215 269 326 390
#     4   9  21  36  58  84 122 155 205 247 306 367
#     4  10  20  41  61  86 126 160 199 257 307 375
#     4   9  21  38  58  83 122 155 199 247 302 367
#     4  10  20  34  57  82 120 153 204 250 307 358
#     4  10  21  40  67  96 133 169 212 270 328 391
#     4  10  20  36  56  86 115 159 201 252 303 367
#
# _framework density 26.651720999999998
#
# number of rings (size 3 to 8) (size 9 to 14) (size 15 to 20)
#    0.857    1.429    0.000    2.571    0.000    1.714 
#    0.000    8.571    0.000    0.000    0.000    0.000 
#    0.000    0.000    0.000    0.000    0.000    0.000 
#
# Total GULP energy -78006.021995 kJ/mol
# GULP energy per Si atom -5571.858714 kJ/mol
# Density = 2.659106 g / cm^3
# Si number density = 26.651721 Si / 1000 Ang^3
#
#
#
# Elastic Constant Matrix: (Units=GPa)
#
#
# Indices 1 2 3 4 5 6 
#
# 1 157.4369 19.3618 4.4392 -3.5182 31.3028 18.0271
# 2 19.3618 166.2083 22.1991 -24.2901 8.9922 19.1885
# 3 4.4392 22.1991 56.2540 -14.7818 7.4746 -3.3412
# 4 -3.5182 -24.2901 -14.7818 31.6299 -11.7294 -2.7475
# 5 31.3028 8.9922 7.4746 -11.7294 31.3219 -7.0045
# 6 18.0271 19.1885 -3.3412 -2.7475 -7.0045 49.6960
#
#
#
# Elastic Compliance Matrix: (Units=1/GPa)
#
#
# Indices 1 2 3 4 5 6 
#
# 1 0.009247 -0.000421 -0.000435 -0.004309 -0.011775 -0.005119
# 2 -0.000421 0.007252 -0.001803 0.004402 -0.000152 -0.002547
# 3 -0.000435 -0.001803 0.020949 0.008494 -0.000263 0.002695
# 4 -0.004309 0.004402 0.008494 0.046266 0.019629 0.005759
# 5 -0.011775 -0.000152 -0.000263 0.019629 0.054063 0.013018
# 6 -0.005119 -0.002547 0.002695 0.005759 0.013018 0.025297
#
#
# Mechanical properties :
#
#
# Convention : Reuss Voigt Hill
#
# Bulk Modulus (GPa) = 31.12378 52.43327 41.77852
# Shear Modulus (GPa) = 27.91709 44.78950 36.35330
#
# Velocity S-wave (km/s) = 3.23999 4.10390 3.69726
# Velocity P-wave (km/s) = 5.06952 6.49401 5.82547
#
# Compressibility (1/GPa) = 0.03212978
#
# Stress axis : x y z
#
# Youngs Moduli (GPa) = 108.14562 137.89412 47.73429
#
# Poissons Ratio (x) = 0.05802 0.02079
# Poissons Ratio (y) = 0.04550 0.08606
# Poissons Ratio (z) = 0.04710 0.24861
#
# Static dielectric constant tensor:
#      x y z
#    x 2.162690 -0.038830 -0.025850 
#    y -0.038830 2.057950 -0.084020 
#    z -0.025850 -0.084020 2.117810 
# 
# From -- ./inp_files/10946.got.cif
#   From: 2010.05.17/outbox.cif.g08.bks.cpg/sg2_6_cif.got.tgz:10946.got - 2010.06.03 11:33:40.
