data_PCOD9094974
_publ_section_title
;
Structure prediction by ZEFSAII (Michael W. Deem and Ramdas Pophale) SiO2 
 PCOD9094974
Probable space group: P -1
;
_chemical_formula_sum "Si O2"
_cell_formula_units_Z 15
_cell_length_a 5.360551
_cell_length_b 18.505983
_cell_length_c 8.869387
_cell_angle_alpha 55.783909
_cell_angle_beta 77.675969
_cell_angle_gamma 104.451008
_cell_volume 632.073439
_symmetry_space_group_name_H-M "P -1"
_symmetry_group_IT_number 2
_symmetry_cell_setting 'triclinic'
loop_
_space_group_symop_operation_xyz
x,y,z
-x,-y,-z
loop_
_atom_site_type_symbol
_atom_site_label
_atom_site_fract_x
_atom_site_fract_y
_atom_site_fract_z
Si Si1 0.760839 0.237288 0.364630
Si Si2 0.535190 0.013503 0.671054
Si Si3 0.281421 0.294337 0.445797
Si Si4 0.795212 0.779629 0.874927
Si Si5 0.677468 0.461172 0.422045
Si Si6 0.957204 0.179589 0.901577
Si Si7 0.000000 0.000000 0.500000
Si Si8 0.794562 0.352113 0.808542
O O1 0.523545 0.274768 0.354275
O O2 0.031548 0.295317 0.372711
O O3 0.929963 0.234701 0.194296
O O4 0.589412 0.122248 0.568562
O O5 0.824228 0.005015 0.664745
O O6 0.500000 0.000000 0.500000
O O7 0.286476 0.928401 0.895236
O O8 0.467983 0.392727 0.401113
O O9 0.103293 0.205740 0.690174
O O10 0.835328 0.877927 0.671907
O O11 0.493838 0.685792 0.012497
O O12 0.805232 0.800660 0.026225
O O13 0.500000 0.500000 0.500000
O O14 0.767752 0.398206 0.598209
O O15 0.957979 0.561043 0.229665
O O16 0.854078 0.261769 0.858034
#
# Coordination Sequence:
#
# PCOD9094974 Si02
#       8
#     2   2   2   2   2   2   1   2
#     4  11  29  45  70 105 160 190 225 305 380 418
#     4  11  23  41  70 103 140 196 245 285 346 436
#     4  12  27  48  68 110 149 187 234 311 379 418
#     4  11  23  41  71 105 138 197 244 291 345 442
#     4  11  23  44  75 103 137 189 243 306 361 432
#     4  12  23  41  76 102 141 189 252 295 343 443
#     4  10  20  34  68  98 138 178 242 288 336 404
#     4  11  22  40  75 109 131 177 264 298 343 418
#
# _framework density 23.731418999999999
#
# number of rings (size 3 to 8) (size 9 to 14) (size 15 to 20)
#    0.000    0.800    6.667    0.800    7.467    1.067 
#    0.000    1.333    0.000    0.000    0.000    0.000 
#    0.000    0.000    0.000    0.000    0.000    0.000 
#
# Total GULP energy -83564.021575 kJ/mol
# GULP energy per Si atom -5570.934772 kJ/mol
# Density = 2.367741 g / cm^3
# Si number density = 23.731419 Si / 1000 Ang^3
#
#
#
# Elastic Constant Matrix: (Units=GPa)
#
#
# Indices 1 2 3 4 5 6 
#
# 1 61.7615 11.2438 32.6835 -13.6661 -10.6985 4.3929
# 2 11.2438 69.8246 -6.9590 -17.2830 0.6157 1.3889
# 3 32.6835 -6.9590 80.8984 -11.0099 -29.5734 2.2719
# 4 -13.6661 -17.2830 -11.0099 39.8275 11.3519 -2.4470
# 5 -10.6985 0.6157 -29.5734 11.3519 45.3344 0.5371
# 6 4.3929 1.3889 2.2719 -2.4470 0.5371 40.7000
#
#
#
# Elastic Compliance Matrix: (Units=1/GPa)
#
#
# Indices 1 2 3 4 5 6 
#
# 1 0.022532 -0.003538 -0.009479 0.003996 -0.001801 -0.001518
# 2 -0.003538 0.017091 0.003725 0.007373 -0.000484 0.000040
# 3 -0.009479 0.003725 0.020653 0.000929 0.010956 -0.000346
# 4 0.003996 0.007373 0.000929 0.031880 -0.006549 0.001268
# 5 -0.001801 -0.000484 0.010956 -0.006549 0.030441 -0.001196
# 6 -0.001518 0.000040 -0.000346 0.001268 -0.001196 0.024844
#
#
# Mechanical properties :
#
#
# Convention : Reuss Voigt Hill
#
# Bulk Modulus (GPa) = 23.98602 31.82457 27.90530
# Shear Modulus (GPa) = 27.78979 36.87344 32.33162
#
# Velocity S-wave (km/s) = 3.42572 3.94608 3.69507
# Velocity P-wave (km/s) = 5.07707 5.84820 5.47623
#
# Compressibility (1/GPa) = 0.04169095
#
# Stress axis : x y z
#
# Youngs Moduli (GPa) = 44.38149 58.51071 48.41983
#
# Poissons Ratio (x) = 0.20701 0.45899
# Poissons Ratio (y) = 0.15702 -0.18036
# Poissons Ratio (z) = 0.42071 -0.21795
#
# Static dielectric constant tensor:
#      x y z
#    x 2.089010 0.060590 0.038950 
#    y 0.060590 1.967910 -0.113980 
#    z 0.038950 -0.113980 2.111240 
# 
# From -- ./inp_files/137326.got.cif
#   From: 2010.05.17/outbox.cif.g08.bks.cpg/sg2_69_cif.got.tgz:137326.got - 2010.06.03 11:33:40.
