data_PCOD9094871
_publ_section_title
;
Structure prediction by ZEFSAII (Michael W. Deem and Ramdas Pophale) SiO2 
 PCOD9094871
Probable space group: P -1
;
_chemical_formula_sum "Si O2"
_cell_formula_units_Z 15
_cell_length_a 8.480470
_cell_length_b 10.956370
_cell_length_c 9.717483
_cell_angle_alpha 56.451686
_cell_angle_beta 120.368726
_cell_angle_gamma 106.979538
_cell_volume 649.145858
_symmetry_space_group_name_H-M "P -1"
_symmetry_group_IT_number 2
_symmetry_cell_setting 'triclinic'
loop_
_space_group_symop_operation_xyz
x,y,z
-x,-y,-z
loop_
_atom_site_type_symbol
_atom_site_label
_atom_site_fract_x
_atom_site_fract_y
_atom_site_fract_z
Si Si1 0.991774 0.737649 0.387497
Si Si2 0.145683 0.984981 0.949344
Si Si3 0.846132 0.122187 0.382763
Si Si4 0.605385 0.764361 0.693897
Si Si5 0.500000 0.500000 0.000000
Si Si6 0.541055 0.023003 0.708591
Si Si7 0.016154 0.704293 0.896344
Si Si8 0.951953 0.539584 0.235488
O O1 0.841871 0.861594 0.222279
O O2 0.012710 0.669913 0.287385
O O3 0.143811 0.831587 0.481445
O O4 0.964655 0.600553 0.562773
O O5 0.076574 0.852868 0.908418
O O6 0.338259 0.953417 0.120775
O O7 0.000000 0.000000 0.000000
O O8 0.872527 0.270327 0.210981
O O9 0.655585 0.049381 0.305170
O O10 0.000000 0.000000 0.500000
O O11 0.508933 0.632509 0.813210
O O12 0.493384 0.827481 0.479028
O O13 0.803223 0.716355 0.761584
O O14 0.631388 0.901795 0.724117
O O15 0.270955 0.462527 0.877556
O O16 0.034066 0.576770 0.097126
#
# Coordination Sequence:
#
# PCOD9094871 Si02
#       8
#     2   2   2   2   1   2   2   2
#     4  11  23  40  64  90 130 165 216 257 322 369
#     4  12  21  37  64  95 125 163 213 273 302 378
#     4  12  24  42  64  96 133 170 205 271 324 384
#     4  10  20  37  60  92 123 165 213 261 309 383
#     4  10  20  34  62  96 122 150 218 268 312 362
#     4  11  23  35  64  92 124 167 215 260 318 369
#     4  11  22  41  64  92 131 168 210 259 334 371
#     4  10  23  40  67  94 123 174 212 268 310 383
#
# _framework density 23.107288
#
# number of rings (size 3 to 8) (size 9 to 14) (size 15 to 20)
#    0.000    1.067    5.333    1.600    3.733    1.067 
#    0.000    0.000    0.000    4.000    0.000    0.000 
#    0.000    0.000    0.000    0.000    0.000    0.000 
#
# Total GULP energy -83556.658870 kJ/mol
# GULP energy per Si atom -5570.443925 kJ/mol
# Density = 2.305470 g / cm^3
# Si number density = 23.107288 Si / 1000 Ang^3
#
#
#
# Elastic Constant Matrix: (Units=GPa)
#
#
# Indices 1 2 3 4 5 6 
#
# 1 77.7772 35.4240 48.2231 6.5440 -4.5248 16.4338
# 2 35.4240 83.9535 48.3035 2.7852 -4.1272 15.9057
# 3 48.2231 48.3035 188.9558 -19.3309 -21.1013 28.9043
# 4 6.5440 2.7852 -19.3309 54.7141 8.1504 -14.4421
# 5 -4.5248 -4.1272 -21.1013 8.1504 35.4111 -2.1739
# 6 16.4338 15.9057 28.9043 -14.4421 -2.1739 37.2214
#
#
#
# Elastic Compliance Matrix: (Units=1/GPa)
#
#
# Indices 1 2 3 4 5 6 
#
# 1 0.018541 -0.004842 -0.003044 -0.004604 0.000713 -0.005497
# 2 -0.004842 0.016182 -0.002565 -0.002101 0.000001 -0.003601
# 3 -0.003044 -0.002565 0.007689 0.002054 0.003265 -0.002543
# 4 -0.004604 -0.002101 0.002054 0.022932 -0.004275 0.009984
# 5 0.000713 0.000001 0.003265 -0.004275 0.031095 -0.002693
# 6 -0.005497 -0.003601 -0.002543 0.009984 -0.002693 0.036523
#
#
# Mechanical properties :
#
#
# Convention : Reuss Voigt Hill
#
# Bulk Modulus (GPa) = 46.49387 68.28752 57.39070
# Shear Modulus (GPa) = 31.04925 40.05172 35.55049
#
# Velocity S-wave (km/s) = 3.66963 4.16780 3.92662
# Velocity P-wave (km/s) = 6.17409 7.26480 6.74154
#
# Compressibility (1/GPa) = 0.02150821
#
# Stress axis : x y z
#
# Youngs Moduli (GPa) = 53.93580 61.79593 130.06380
#
# Poissons Ratio (x) = 0.29923 0.39596
# Poissons Ratio (y) = 0.26117 0.33361
# Poissons Ratio (z) = 0.16420 0.15851
#
# Static dielectric constant tensor:
#      x y z
#    x 1.918810 -0.021650 -0.007860 
#    y -0.021650 1.919790 -0.020730 
#    z -0.007860 -0.020730 1.880080 
# 
# From -- ./inp_files/392239.got.cif
#   From: 2010.05.17/outbox.cif.g08.bks.cpg/sg2_197_cif.got.tgz:392239.got - 2010.06.03 11:33:40.
