data_PCOD9094089
_publ_section_title
;
Structure prediction by ZEFSAII (Michael W. Deem and Ramdas Pophale) SiO2 
 PCOD9094089
Probable space group: P -1
;
_chemical_formula_sum "Si O2"
_cell_formula_units_Z 12
_cell_length_a 14.168631
_cell_length_b 14.763692
_cell_length_c 10.120441
_cell_angle_alpha 152.992973
_cell_angle_beta 45.959302
_cell_angle_gamma 151.347695
_cell_volume 422.851438
_symmetry_space_group_name_H-M "P -1"
_symmetry_group_IT_number 2
_symmetry_cell_setting 'triclinic'
loop_
_space_group_symop_operation_xyz
x,y,z
-x,-y,-z
loop_
_atom_site_type_symbol
_atom_site_label
_atom_site_fract_x
_atom_site_fract_y
_atom_site_fract_z
Si Si1 0.938429 0.513845 0.361252
Si Si2 0.721740 0.097294 0.671835
Si Si3 0.385261 0.589470 0.538517
Si Si4 0.104661 0.886176 0.937794
Si Si5 0.203301 0.114161 0.490169
Si Si6 0.543521 0.218558 0.850110
O O1 0.727513 0.327774 0.242549
O O2 0.155610 0.826904 0.479343
O O3 0.940867 0.642688 0.662578
O O4 0.039160 0.690324 0.879857
O O5 0.497278 0.732878 0.469420
O O6 0.871380 0.175946 0.740241
O O7 0.661901 0.253070 0.902539
O O8 0.592118 0.731024 0.591820
O O9 0.183882 0.207588 0.275531
O O10 0.318323 0.025470 0.869106
O O11 0.325352 0.432032 0.870948
O O12 0.000000 0.000000 0.500000
O O13 0.500000 0.000000 0.500000
#
# Coordination Sequence:
#
# PCOD9094089 Si02
#       6
#     2   2   2   2   2   2
#     4  11  20  34  54  89 124 155 200 245 310 360
#     4  10  22  36  62  89 118 163 207 248 303 368
#     4   9  21  37  55  82 118 160 199 252 292 361
#     4  10  20  34  53  84 129 159 186 248 311 361
#     4   9  22  42  63  85 120 168 207 249 306 359
#     4  11  20  37  62  94 124 156 202 255 304 365
#
# _framework density 28.378761000000001
#
# number of rings (size 3 to 8) (size 9 to 14) (size 15 to 20)
#    1.000    1.000    3.333    0.500    0.000    4.667 
#    0.000    0.833    0.000    5.000    0.000    0.000 
#    0.000    0.000    0.000    0.000    0.000    0.000 
#
# Total GULP energy -66909.425485 kJ/mol
# GULP energy per Si atom -5575.785457 kJ/mol
# Density = 2.831417 g / cm^3
# Si number density = 28.378761 Si / 1000 Ang^3
#
#
#
# Elastic Constant Matrix: (Units=GPa)
#
#
# Indices 1 2 3 4 5 6 
#
# 1 127.6220 68.8532 23.0109 -6.8082 -25.2437 23.3139
# 2 68.8532 119.5458 39.8298 1.6007 -21.0695 10.1353
# 3 23.0109 39.8298 141.4191 0.6258 -32.0608 0.4462
# 4 -6.8082 1.6007 0.6258 54.9238 8.1069 -23.6869
# 5 -25.2437 -21.0695 -32.0608 8.1069 55.1449 1.9636
# 6 23.3139 10.1353 0.4462 -23.6869 1.9636 70.8865
#
#
#
# Elastic Compliance Matrix: (Units=1/GPa)
#
#
# Indices 1 2 3 4 5 6 
#
# 1 0.012592 -0.006504 0.000664 -0.000298 0.003830 -0.003421
# 2 -0.006504 0.013103 -0.002440 -0.001367 0.000818 -0.000198
# 3 0.000664 -0.002440 0.008684 -0.000745 0.004540 -0.000299
# 4 -0.000298 -0.001367 -0.000745 0.022303 -0.004651 0.007880
# 5 0.003830 0.000818 0.004540 -0.004651 0.023652 -0.003615
# 6 -0.003421 -0.000198 -0.000299 0.007880 -0.003615 0.017996
#
#
# Mechanical properties :
#
#
# Convention : Reuss Voigt Hill
#
# Bulk Modulus (GPa) = 56.12331 72.44165 64.28248
# Shear Modulus (GPa) = 41.38002 53.31724 47.34863
#
# Velocity S-wave (km/s) = 3.82269 4.33918 4.08910
# Velocity P-wave (km/s) = 6.26925 7.11947 6.70784
#
# Compressibility (1/GPa) = 0.01781791
#
# Stress axis : x y z
#
# Youngs Moduli (GPa) = 79.41618 76.31551 115.15448
#
# Poissons Ratio (x) = 0.49638 -0.07641
# Poissons Ratio (y) = 0.51655 0.28097
# Poissons Ratio (z) = -0.05269 0.18621
#
# Static dielectric constant tensor:
#      x y z
#    x 2.416490 -0.019980 0.082300 
#    y -0.019980 2.147480 0.032100 
#    z 0.082300 0.032100 2.209810 
# 
# From -- ./inp_files/320200.got.cif
#   From: 2010.05.17/outbox.cif.g08.bks.cpg/sg2_161_cif.got.tgz:320200.got - 2010.06.03 11:33:40.
