data_PCOD9094520
_publ_section_title
;
Structure prediction by ZEFSAII (Michael W. Deem and Ramdas Pophale) SiO2 
 PCOD9094520
Probable space group: P -1
;
_chemical_formula_sum "Si O2"
_cell_formula_units_Z 14
_cell_length_a 13.528570
_cell_length_b 13.291077
_cell_length_c 5.307327
_cell_angle_alpha 111.391815
_cell_angle_beta 95.561648
_cell_angle_gamma 134.097311
_cell_volume 543.304001
_symmetry_space_group_name_H-M "P -1"
_symmetry_group_IT_number 2
_symmetry_cell_setting 'triclinic'
loop_
_space_group_symop_operation_xyz
x,y,z
-x,-y,-z
loop_
_atom_site_type_symbol
_atom_site_label
_atom_site_fract_x
_atom_site_fract_y
_atom_site_fract_z
Si Si1 0.941407 0.036456 0.797249
Si Si2 0.947285 0.241373 0.354533
Si Si3 0.768762 0.415684 0.485229
Si Si4 0.400164 0.804711 0.269504
Si Si5 0.443820 0.564018 0.661115
Si Si6 0.820572 0.714944 0.313618
Si Si7 0.685973 0.925457 0.272647
O O1 0.118282 0.191743 0.854240
O O2 0.885643 0.864606 0.660892
O O3 0.819757 0.971051 0.486574
O O4 0.917391 0.111080 0.055668
O O5 0.040024 0.408495 0.363913
O O6 0.084948 0.316828 0.650142
O O7 0.779142 0.107546 0.337042
O O8 0.722270 0.319690 0.646069
O O9 0.691665 0.471887 0.525869
O O10 0.684419 0.284337 0.105188
O O11 0.543876 0.839766 0.343609
O O12 0.500000 0.000000 0.500000
O O13 0.500000 0.500000 0.500000
O O14 0.362255 0.463585 0.819366
O O15 0.597567 0.773065 0.913539
#
# Coordination Sequence:
#
# PCOD9094520 Si02
#       7
#     2   2   2   2   2   2   2
#     4  10  20  34  58  82 129 172 212 266 309 381
#     4  10  21  39  59  87 132 165 215 259 323 382
#     4  10  25  43  71  96 131 175 216 261 334 394
#     4  11  25  49  72  97 127 167 219 281 335 387
#     4  10  21  38  58  92 136 170 220 265 318 385
#     4   9  20  34  52  85 121 180 221 249 313 381
#     4  10  24  37  62  95 124 168 222 267 329 375
#
# _framework density 25.768260999999999
#
# number of rings (size 3 to 8) (size 9 to 14) (size 15 to 20)
#    0.000    2.000    0.000    1.714   14.000    6.286 
#    0.000    1.429    0.000    0.000    0.000    0.000 
#    0.000    0.000    0.000    0.000    0.000    0.000 
#
# Total GULP energy -78260.121896 kJ/mol
# GULP energy per Si atom -5590.008707 kJ/mol
# Density = 2.570961 g / cm^3
# Si number density = 25.768261 Si / 1000 Ang^3
#
#
#
# Elastic Constant Matrix: (Units=GPa)
#
#
# Indices 1 2 3 4 5 6 
#
# 1 36.5772 9.9559 12.9169 9.5871 -16.1547 -2.8389
# 2 9.9559 195.4986 35.7535 11.4885 -5.9740 25.1544
# 3 12.9169 35.7535 89.8959 15.0096 -16.7624 -4.7445
# 4 9.5871 11.4885 15.0096 47.3173 -3.4637 0.9789
# 5 -16.1547 -5.9740 -16.7624 -3.4637 23.9073 12.7326
# 6 -2.8389 25.1544 -4.7445 0.9789 12.7326 30.5499
#
#
#
# Elastic Compliance Matrix: (Units=1/GPa)
#
#
# Indices 1 2 3 4 5 6 
#
# 1 0.042914 0.000456 0.000502 -0.006260 0.034040 -0.010296
# 2 0.000456 0.006633 -0.002198 -0.000528 0.004378 -0.007568
# 3 0.000502 -0.002198 0.014204 -0.003420 0.009037 0.000406
# 4 -0.006260 -0.000528 -0.003420 0.023370 -0.003360 -0.000026
# 5 0.034040 0.004378 0.009037 -0.003360 0.091518 -0.037073
# 6 -0.010296 -0.007568 0.000406 -0.000026 -0.037073 0.053523
#
#
# Mechanical properties :
#
#
# Convention : Reuss Voigt Hill
#
# Bulk Modulus (GPa) = 16.32156 48.80270 32.56213
# Shear Modulus (GPa) = 19.60277 37.91126 28.75701
#
# Velocity S-wave (km/s) = 2.76113 3.83983 3.34426
# Velocity P-wave (km/s) = 4.06360 6.21605 5.25129
#
# Compressibility (1/GPa) = 0.06126866
#
# Stress axis : x y z
#
# Youngs Moduli (GPa) = 23.30235 150.77238 70.40389
#
# Poissons Ratio (x) = -0.06870 -0.03532
# Poissons Ratio (y) = -0.01062 0.15476
# Poissons Ratio (z) = -0.01169 0.33143
#
# Static dielectric constant tensor:
#      x y z
#    x 2.034530 -0.036650 0.019150 
#    y -0.036650 2.076650 -0.053640 
#    z 0.019150 -0.053640 2.120340 
# 
# From -- ./inp_files/43034.got.cif
#   From: 2010.05.17/outbox.cif.g08.bks.cpg/sg2_22_cif.got.tgz:43034.got - 2010.06.03 11:33:40.
