data_PCOD9094609
_publ_section_title
;
Structure prediction by ZEFSAII (Michael W. Deem and Ramdas Pophale) SiO2 
 PCOD9094609
Probable space group: P -1
;
_chemical_formula_sum "Si O2"
_cell_formula_units_Z 12
_cell_length_a 16.187555
_cell_length_b 24.811949
_cell_length_c 5.339459
_cell_angle_alpha 125.323888
_cell_angle_beta 63.822427
_cell_angle_gamma 160.266995
_cell_volume 547.853080
_symmetry_space_group_name_H-M "P -1"
_symmetry_group_IT_number 2
_symmetry_cell_setting 'triclinic'
loop_
_space_group_symop_operation_xyz
x,y,z
-x,-y,-z
loop_
_atom_site_type_symbol
_atom_site_label
_atom_site_fract_x
_atom_site_fract_y
_atom_site_fract_z
Si Si1 0.917331 0.000042 0.303258
Si Si2 0.151944 0.580428 0.263241
Si Si3 0.375435 0.365189 0.995592
Si Si4 0.660853 0.440191 0.045453
Si Si5 0.254350 0.972268 0.438835
Si Si6 0.960585 0.743056 0.697546
O O1 0.860164 0.032779 0.353007
O O2 0.142414 0.164703 0.647274
O O3 0.631396 0.785113 0.192658
O O4 0.000000 0.000000 0.000000
O O5 0.000000 0.500000 0.500000
O O6 0.440158 0.808501 0.451271
O O7 0.173380 0.514987 0.087172
O O8 0.000000 0.500000 0.000000
O O9 0.500000 0.500000 0.000000
O O10 0.610980 0.474232 0.047838
O O11 0.222599 0.314162 0.243907
O O12 0.774590 0.552914 0.443439
O O13 0.166505 0.872812 0.537462
O O14 0.114896 0.855334 0.054273
#
# Coordination Sequence:
#
# PCOD9094609 Si02
#       6
#     2   2   2   2   2   2
#     4  10  20  34  58  94 130 172 215 257 317 394
#     4  11  26  48  70  95 127 171 226 279 323 374
#     4  11  22  38  63 100 141 175 210 261 325 400
#     4  11  23  39  65  94 130 175 219 265 323 387
#     4  10  23  42  66  92 131 169 210 271 328 380
#     4  11  22  41  64  99 134 168 207 261 328 401
#
# _framework density 21.903682
#
# number of rings (size 3 to 8) (size 9 to 14) (size 15 to 20)
#    0.000    1.333    0.000    6.000    0.000    8.000 
#    0.000    5.000    0.000    0.000    0.000    0.000 
#    0.000    0.000    0.000    0.000    0.000    0.000 
#
# Total GULP energy -66839.456060 kJ/mol
# GULP energy per Si atom -5569.954672 kJ/mol
# Density = 2.185383 g / cm^3
# Si number density = 21.903682 Si / 1000 Ang^3
#
#
#
# Elastic Constant Matrix: (Units=GPa)
#
#
# Indices 1 2 3 4 5 6 
#
# 1 118.3558 52.1215 65.4992 -14.2357 -3.6585 13.4395
# 2 52.1215 128.1204 67.6874 -12.7226 12.7001 1.8191
# 3 65.4992 67.6874 159.0774 9.4675 -20.6181 13.9854
# 4 -14.2357 -12.7226 9.4675 39.5783 3.1099 -2.0741
# 5 -3.6585 12.7001 -20.6181 3.1099 30.6302 -3.4070
# 6 13.4395 1.8191 13.9854 -2.0741 -3.4070 40.3447
#
#
#
# Elastic Compliance Matrix: (Units=1/GPa)
#
#
# Indices 1 2 3 4 5 6 
#
# 1 0.012770 -0.002024 -0.004690 0.005062 -0.001574 -0.002410
# 2 -0.002024 0.014242 -0.007279 0.006596 -0.011502 0.001923
# 3 -0.004690 -0.007279 0.013589 -0.008353 0.012206 -0.002219
# 4 0.005062 0.006596 -0.008353 0.032143 -0.010833 0.001650
# 5 -0.001574 -0.011502 0.012206 -0.010833 0.046566 0.000187
# 6 -0.002410 0.001923 -0.002219 0.001650 0.000187 0.026372
#
#
# Mechanical properties :
#
#
# Convention : Reuss Voigt Hill
#
# Bulk Modulus (GPa) = 79.27651 86.24110 82.75881
# Shear Modulus (GPa) = 28.11003 36.79369 32.45186
#
# Velocity S-wave (km/s) = 3.58627 4.10298 3.85329
# Velocity P-wave (km/s) = 7.30892 7.86792 7.59357
#
# Compressibility (1/GPa) = 0.01261408
#
# Stress axis : x y z
#
# Youngs Moduli (GPa) = 78.30973 70.21444 73.59022
#
# Poissons Ratio (x) = 0.14213 0.34514
# Poissons Ratio (y) = 0.15852 0.53566
# Poissons Ratio (z) = 0.36728 0.51109
#
# Static dielectric constant tensor:
#      x y z
#    x 1.837890 -0.057040 0.017700 
#    y -0.057040 1.837810 0.022170 
#    z 0.017700 0.022170 1.854110 
# 
# From -- ./inp_files/23023.got.cif
#   From: 2010.05.17/outbox.cif.g08.bks.cpg/sg2_12_cif.got.tgz:23023.got - 2010.06.03 11:33:40.
