data_PCOD9094245
_publ_section_title
;
Structure prediction by ZEFSAII (Michael W. Deem and Ramdas Pophale) SiO2 
 PCOD9094245
Probable space group: P -1
;
_chemical_formula_sum "Si O2"
_cell_formula_units_Z 16
_cell_length_a 6.680316
_cell_length_b 14.409231
_cell_length_c 14.873750
_cell_angle_alpha 140.904794
_cell_angle_beta 126.752074
_cell_angle_gamma 66.640058
_cell_volume 716.842297
_symmetry_space_group_name_H-M "P -1"
_symmetry_group_IT_number 2
_symmetry_cell_setting 'triclinic'
loop_
_space_group_symop_operation_xyz
x,y,z
-x,-y,-z
loop_
_atom_site_type_symbol
_atom_site_label
_atom_site_fract_x
_atom_site_fract_y
_atom_site_fract_z
Si Si1 0.762099 0.272685 0.290656
Si Si2 0.110465 0.099013 0.366139
Si Si3 0.724791 0.831582 0.130121
Si Si4 0.040763 0.442560 0.346442
Si Si5 0.718599 0.615295 0.267970
Si Si6 0.771685 0.716511 0.874527
Si Si7 0.194754 0.434118 0.937873
Si Si8 0.803887 0.044581 0.901723
O O1 0.921697 0.295859 0.258602
O O2 0.472757 0.206272 0.157548
O O3 0.886875 0.183003 0.331065
O O4 0.793024 0.443702 0.458559
O O5 0.260336 0.216319 0.563221
O O6 0.242262 0.066057 0.281294
O O7 0.968016 0.953513 0.268214
O O8 0.744359 0.732626 0.148583
O O9 0.468641 0.907969 0.110532
O O10 0.734468 0.704427 0.960793
O O11 0.811065 0.519550 0.302624
O O12 0.215554 0.414895 0.289258
O O13 0.884052 0.582096 0.200167
O O14 0.444612 0.549630 0.110358
O O15 0.031191 0.817140 0.998563
O O16 0.000000 0.500000 0.000000
O O17 0.000000 0.000000 0.000000
#
# Coordination Sequence:
#
# PCOD9094245 Si02
#       8
#     2   2   2   2   2   2   2   2
#     4  10  20  34  55  87 124 161 202 244 301 371
#     4  10  23  40  60  90 126 162 201 250 305 367
#     4  11  24  40  61  90 123 161 206 251 303 364
#     4  10  20  35  57  86 121 160 201 253 306 360
#     4  10  23  42  63  90 120 155 209 260 305 366
#     4  11  19  32  55  83 118 159 200 244 294 356
#     4  11  24  44  68  90 116 157 207 264 318 360
#     4  11  22  37  59  88 127 168 199 238 297 365
#
# _framework density 22.320112000000002
#
# number of rings (size 3 to 8) (size 9 to 14) (size 15 to 20)
#    0.000    1.500    0.000    5.625    0.000    6.500 
#    0.000    7.500    0.000    0.000    0.000    0.000 
#    0.000    0.000    0.000    0.000    0.000    0.000 
#
# Total GULP energy -89116.301462 kJ/mol
# GULP energy per Si atom -5569.768841 kJ/mol
# Density = 2.226931 g / cm^3
# Si number density = 22.320112 Si / 1000 Ang^3
#
#
#
# Elastic Constant Matrix: (Units=GPa)
#
#
# Indices 1 2 3 4 5 6 
#
# 1 101.4862 11.9644 48.2338 1.3526 -16.3263 -3.9746
# 2 11.9644 61.8693 22.1603 -2.0046 0.3122 7.6396
# 3 48.2338 22.1603 108.1676 -0.8500 -23.4042 4.7334
# 4 1.3526 -2.0046 -0.8500 25.6760 1.5864 -4.0085
# 5 -16.3263 0.3122 -23.4042 1.5864 30.6104 0.6301
# 6 -3.9746 7.6396 4.7334 -4.0085 0.6301 23.2610
#
#
#
# Elastic Compliance Matrix: (Units=1/GPa)
#
#
# Indices 1 2 3 4 5 6 
#
# 1 0.013034 -0.001166 -0.005070 -0.000594 0.003047 0.003457
# 2 -0.001166 0.018447 -0.003815 0.000782 -0.003660 -0.005247
# 3 -0.005070 -0.003815 0.014197 -0.000511 0.008274 -0.002814
# 4 -0.000594 0.000782 -0.000511 0.040260 -0.002942 0.006763
# 5 0.003047 -0.003660 0.008274 -0.002942 0.040842 -0.001574
# 6 0.003457 -0.005247 -0.002814 0.006763 -0.001574 0.047085
#
#
# Mechanical properties :
#
#
# Convention : Reuss Voigt Hill
#
# Bulk Modulus (GPa) = 39.10058 48.47111 43.78584
# Shear Modulus (GPa) = 24.69228 28.52046 26.60637
#
# Velocity S-wave (km/s) = 3.32969 3.57850 3.45633
# Velocity P-wave (km/s) = 5.68670 6.23199 5.96558
#
# Compressibility (1/GPa) = 0.02557507
#
# Stress axis : x y z
#
# Youngs Moduli (GPa) = 76.72185 54.20957 70.43923
#
# Poissons Ratio (x) = 0.06321 0.35712
# Poissons Ratio (y) = 0.08947 0.26875
# Poissons Ratio (z) = 0.38897 0.20683
#
# Static dielectric constant tensor:
#      x y z
#    x 1.918100 0.033920 -0.063020 
#    y 0.033920 1.859300 0.004260 
#    z -0.063020 0.004260 1.905350 
# 
# From -- ./inp_files/484556.got.cif
#   From: 2010.05.17/outbox.cif.g08.bks.cpg/sg2_243_cif.got.tgz:484556.got - 2010.06.03 11:33:40.
