data_PCOD9094645
_publ_section_title
;
Structure prediction by ZEFSAII (Michael W. Deem and Ramdas Pophale) SiO2 
 PCOD9094645
Probable space group: P -1
;
_chemical_formula_sum "Si O2"
_cell_formula_units_Z 16
_cell_length_a 7.592611
_cell_length_b 6.810331
_cell_length_c 17.472596
_cell_angle_alpha 70.247306
_cell_angle_beta 49.794280
_cell_angle_gamma 59.633100
_cell_volume 595.255070
_symmetry_space_group_name_H-M "P -1"
_symmetry_group_IT_number 2
_symmetry_cell_setting 'triclinic'
loop_
_space_group_symop_operation_xyz
x,y,z
-x,-y,-z
loop_
_atom_site_type_symbol
_atom_site_label
_atom_site_fract_x
_atom_site_fract_y
_atom_site_fract_z
Si Si1 0.580700 0.152501 0.129978
Si Si2 0.559521 0.986538 0.321365
Si Si3 0.006008 0.235498 0.489680
Si Si4 0.840968 0.880522 0.843243
Si Si5 0.073735 0.344779 0.621654
Si Si6 0.248461 0.424348 0.777780
Si Si7 0.226764 0.616183 0.156376
Si Si8 0.239202 0.268520 0.956399
O O1 0.503378 0.415808 0.093902
O O2 0.642320 0.090691 0.209414
O O3 0.323170 0.120296 0.184151
O O4 0.774493 0.959628 0.046284
O O5 0.730466 0.879442 0.361819
O O6 0.567293 0.746740 0.313346
O O7 0.300306 0.177007 0.397388
O O8 0.964246 0.280503 0.585057
O O9 0.841691 0.457753 0.457626
O O10 0.000000 0.000000 0.500000
O O11 0.800074 0.131127 0.849381
O O12 0.125063 0.698051 0.772412
O O13 0.715389 0.793284 0.959199
O O14 0.867377 0.457090 0.729327
O O15 0.365562 0.343202 0.839039
O O16 0.988281 0.380504 0.843433
O O17 0.000000 0.500000 0.000000
#
# Coordination Sequence:
#
# PCOD9094645 Si02
#       8
#     2   2   2   2   2   2   2   2
#     4  10  20  37  59  84 120 159 202 246 298 353
#     4  10  20  41  64  86 124 164 197 246 306 360
#     4  11  24  41  66  92 120 157 199 252 305 364
#     4  10  20  34  59  88 118 156 205 249 299 352
#     4  10  23  42  61  89 127 156 198 248 309 361
#     4   8  19  37  57  82 121 162 196 245 301 355
#     4  10  20  36  59  85 116 160 198 249 300 356
#     4   9  18  36  56  81 121 161 199 253 300 345
#
# _framework density 26.879232999999999
#
# number of rings (size 3 to 8) (size 9 to 14) (size 15 to 20)
#    0.000    2.250    1.250    0.750    1.750    1.500 
#    0.000   17.500    0.000    0.000    0.000    0.000 
#    0.000    0.000    0.000    0.000    0.000    0.000 
#
# Total GULP energy -89243.806617 kJ/mol
# GULP energy per Si atom -5577.737914 kJ/mol
# Density = 2.681805 g / cm^3
# Si number density = 26.879233 Si / 1000 Ang^3
#
#
#
# Elastic Constant Matrix: (Units=GPa)
#
#
# Indices 1 2 3 4 5 6 
#
# 1 76.6374 37.5863 27.3957 -13.5914 23.4272 -1.9559
# 2 37.5863 198.8606 3.6633 1.4219 16.6660 -8.3100
# 3 27.3957 3.6633 78.0783 -0.3535 38.0696 -0.5619
# 4 -13.5914 1.4219 -0.3535 55.0876 -9.2318 4.6149
# 5 23.4272 16.6660 38.0696 -9.2318 31.0167 0.3613
# 6 -1.9559 -8.3100 -0.5619 4.6149 0.3613 55.8494
#
#
#
# Elastic Compliance Matrix: (Units=1/GPa)
#
#
# Indices 1 2 3 4 5 6 
#
# 1 0.018398 -0.002669 -0.001682 0.003001 -0.009505 0.000044
# 2 -0.002669 0.006073 0.003866 -0.001984 -0.006594 0.001056
# 3 -0.001682 0.003866 0.036970 -0.008611 -0.048768 0.001915
# 4 0.003001 -0.001984 -0.008611 0.021729 0.015861 -0.002175
# 5 -0.009505 -0.006594 -0.048768 0.015861 0.107586 -0.003811
# 6 0.000044 0.001056 0.001915 -0.002175 -0.003811 0.018288
#
#
# Mechanical properties :
#
#
# Convention : Reuss Voigt Hill
#
# Bulk Modulus (GPa) = 16.53743 54.54077 35.53910
# Shear Modulus (GPa) = 21.72306 47.38615 34.55461
#
# Velocity S-wave (km/s) = 2.84592 4.20328 3.58935
# Velocity P-wave (km/s) = 4.11884 6.62509 5.51619
#
# Compressibility (1/GPa) = 0.06046888
#
# Stress axis : x y z
#
# Youngs Moduli (GPa) = 54.35495 164.66544 27.04928
#
# Poissons Ratio (x) = 0.43955 0.04549
# Poissons Ratio (y) = 0.14509 -0.10456
# Poissons Ratio (z) = 0.09141 -0.63652
#
# Static dielectric constant tensor:
#      x y z
#    x 2.228190 0.021430 -0.092600 
#    y 0.021430 2.153510 -0.017130 
#    z -0.092600 -0.017130 2.058430 
# 
# From -- ./inp_files/553339.got.cif
#   From: 2010.05.17/outbox.cif.g08.bks.cpg/sg2_277_cif.got.tgz:553339.got - 2010.06.03 11:33:40.
