data_PCOD9094948
_publ_section_title
;
Structure prediction by ZEFSAII (Michael W. Deem and Ramdas Pophale) SiO2 
 PCOD9094948
Probable space group: P -1
;
_chemical_formula_sum "Si O2"
_cell_formula_units_Z 14
_cell_length_a 13.966468
_cell_length_b 8.033923
_cell_length_c 11.366230
_cell_angle_alpha 96.866379
_cell_angle_beta 106.609539
_cell_angle_gamma 28.625658
_cell_volume 561.031749
_symmetry_space_group_name_H-M "P -1"
_symmetry_group_IT_number 2
_symmetry_cell_setting 'triclinic'
loop_
_space_group_symop_operation_xyz
x,y,z
-x,-y,-z
loop_
_atom_site_type_symbol
_atom_site_label
_atom_site_fract_x
_atom_site_fract_y
_atom_site_fract_z
Si Si1 0.538511 0.804619 0.840138
Si Si2 0.057511 0.613625 0.168978
Si Si3 0.727918 0.061087 0.880484
Si Si4 0.651488 0.545735 0.107359
Si Si5 0.879345 0.050681 0.723053
Si Si6 0.853664 0.339698 0.560000
Si Si7 0.840443 0.614185 0.390414
O O1 0.761026 0.535284 0.838662
O O2 0.425482 0.150351 0.864518
O O3 0.356303 0.001479 0.709318
O O4 0.579634 0.635620 0.955577
O O5 0.155162 0.280083 0.159933
O O6 0.042558 0.687564 0.307905
O O7 0.850706 0.918485 0.034793
O O8 0.758534 0.156610 0.801012
O O9 0.483052 0.375580 0.850022
O O10 0.907245 0.163143 0.179296
O O11 0.998803 0.723862 0.668532
O O12 0.745999 0.360911 0.609216
O O13 0.740783 0.627088 0.449499
O O14 0.000000 0.000000 0.500000
O O15 0.000000 0.500000 0.500000
#
# Coordination Sequence:
#
# PCOD9094948 Si02
#       7
#     2   2   2   2   2   2   2
#     4   9  18  34  59  89 123 147 195 263 301 342
#     4  10  20  36  62  92 120 150 206 252 298 354
#     4  10  20  34  65  99 116 147 199 260 308 350
#     4   9  18  34  59  94 123 148 189 252 317 353
#     4  10  20  40  60  85 129 159 192 244 309 366
#     4  10  23  40  57  82 124 174 198 231 300 368
#     4  10  21  36  62  87 114 164 210 247 288 347
#
# _framework density 24.954025000000001
#
# number of rings (size 3 to 8) (size 9 to 14) (size 15 to 20)
#    0.000    2.286    1.429    0.857    8.000    1.143 
#    0.000    5.000    0.000   16.286    0.000    0.000 
#    0.000    0.000    0.000    0.000    0.000    0.000 
#
# Total GULP energy -78263.078801 kJ/mol
# GULP energy per Si atom -5590.219914 kJ/mol
# Density = 2.489723 g / cm^3
# Si number density = 24.954025 Si / 1000 Ang^3
#
#
#
# Elastic Constant Matrix: (Units=GPa)
#
#
# Indices 1 2 3 4 5 6 
#
# 1 117.4916 19.5103 37.2796 4.5780 -18.5481 -23.0175
# 2 19.5103 97.1976 39.5573 12.5294 2.8703 2.8787
# 3 37.2796 39.5573 129.9502 19.3537 -0.7649 -3.8901
# 4 4.5780 12.5294 19.3537 45.0940 5.3169 8.6143
# 5 -18.5481 2.8703 -0.7649 5.3169 58.7312 10.9428
# 6 -23.0175 2.8787 -3.8901 8.6143 10.9428 26.3800
#
#
#
# Elastic Compliance Matrix: (Units=1/GPa)
#
#
# Indices 1 2 3 4 5 6 
#
# 1 0.011861 -0.001538 -0.002340 -0.001917 0.002116 0.009921
# 2 -0.001538 0.012132 -0.003130 -0.001337 -0.000539 -0.002467
# 3 -0.002340 -0.003130 0.009830 -0.003254 -0.000341 0.000954
# 4 -0.001917 -0.001337 -0.003254 0.026197 -0.001069 -0.010118
# 5 0.002116 -0.000539 -0.000341 -0.001069 0.018861 -0.005620
# 6 0.009921 -0.002467 0.000954 -0.010118 -0.005620 0.052609
#
#
# Mechanical properties :
#
#
# Convention : Reuss Voigt Hill
#
# Bulk Modulus (GPa) = 50.48209 59.70376 55.09293
# Shear Modulus (GPa) = 32.87142 42.59387 37.73264
#
# Velocity S-wave (km/s) = 3.63337 4.13594 3.89277
# Velocity P-wave (km/s) = 6.15433 6.83999 6.50620
#
# Compressibility (1/GPa) = 0.01980901
#
# Stress axis : x y z
#
# Youngs Moduli (GPa) = 84.30850 82.42613 101.72628
#
# Poissons Ratio (x) = 0.12676 0.23800
# Poissons Ratio (y) = 0.12966 0.31839
# Poissons Ratio (z) = 0.19725 0.25798
#
# Static dielectric constant tensor:
#      x y z
#    x 1.998170 0.099290 0.041200 
#    y 0.099290 2.027280 0.073310 
#    z 0.041200 0.073310 1.999520 
# 
# From -- ./inp_files/447515.got.cif
#   From: 2010.05.17/outbox.cif.g08.bks.cpg/sg2_224_cif.got.tgz:447515.got - 2010.06.03 11:33:40.
