data_PCOD9094765
_publ_section_title
;
Structure prediction by ZEFSAII (Michael W. Deem and Ramdas Pophale) SiO2 
 PCOD9094765
Probable space group: P -1
;
_chemical_formula_sum "Si O2"
_cell_formula_units_Z 14
_cell_length_a 15.579345
_cell_length_b 28.708287
_cell_length_c 15.560585
_cell_angle_alpha 20.768467
_cell_angle_beta 161.554365
_cell_angle_gamma 159.998370
_cell_volume 689.329105
_symmetry_space_group_name_H-M "P -1"
_symmetry_group_IT_number 2
_symmetry_cell_setting 'triclinic'
loop_
_space_group_symop_operation_xyz
x,y,z
-x,-y,-z
loop_
_atom_site_type_symbol
_atom_site_label
_atom_site_fract_x
_atom_site_fract_y
_atom_site_fract_z
Si Si1 0.982835 0.187613 0.060322
Si Si2 0.643655 0.876917 0.184729
Si Si3 0.858919 0.108238 0.649447
Si Si4 0.659819 0.624233 0.080104
Si Si5 0.486135 0.710074 0.492400
Si Si6 0.250849 0.749130 0.543753
Si Si7 0.243980 0.913202 0.602909
O O1 0.178323 0.178783 0.341873
O O2 0.252392 0.278288 0.091085
O O3 0.733029 0.032139 0.050844
O O4 0.789879 0.273245 0.753788
O O5 0.481964 0.748279 0.322527
O O6 0.970255 0.895271 0.434650
O O7 0.443319 0.855456 0.946114
O O8 0.902174 0.235003 0.540215
O O9 0.908420 0.156230 0.514222
O O10 0.500000 0.000000 0.500000
O O11 0.000000 0.000000 0.000000
O O12 0.551354 0.453813 0.250300
O O13 0.982108 0.691839 0.318630
O O14 0.416745 0.647044 0.868716
O O15 0.518634 0.914122 0.489253
#
# Coordination Sequence:
#
# PCOD9094765 Si02
#       7
#     2   2   2   2   2   2   2
#     4  12  22  42  60  85 118 155 214 250 292 340
#     4  12  23  39  63  85 123 156 200 246 297 356
#     4  10  20  34  60  95 124 145 192 251 296 345
#     4  12  23  39  63  85 123 156 200 246 297 356
#     4  12  26  40  58  89 118 163 202 248 298 348
#     4  11  20  38  61  91 119 153 194 245 300 351
#     4  11  20  38  61  91 119 153 194 245 300 351
#
# _framework density 20.309602000000002
#
# number of rings (size 3 to 8) (size 9 to 14) (size 15 to 20)
#    0.000    0.571    2.857    8.571    0.000    0.000 
#    0.000    0.000    0.000    5.143    0.000    0.000 
#    0.000    0.000    0.000    0.000    0.000    0.000 
#
# Total GULP energy -78194.308863 kJ/mol
# GULP energy per Si atom -5585.307776 kJ/mol
# Density = 2.026338 g / cm^3
# Si number density = 20.309602 Si / 1000 Ang^3
#
#
#
# Elastic Constant Matrix: (Units=GPa)
#
#
# Indices 1 2 3 4 5 6 
#
# 1 73.2765 15.4467 -4.8251 -9.4253 8.9043 1.4251
# 2 15.4467 14.4943 23.5015 16.4243 -0.0821 -17.7217
# 3 -4.8251 23.5015 69.9085 19.0843 17.5421 18.4632
# 4 -9.4253 16.4243 19.0843 30.5942 1.7564 1.4742
# 5 8.9043 -0.0821 17.5421 1.7564 43.2086 0.8556
# 6 1.4251 -17.7217 18.4632 1.4742 0.8556 1.1741
#
#
#
# Elastic Compliance Matrix: (Units=1/GPa)
#
#
# Indices 1 2 3 4 5 6 
#
# 1 0.014509 -0.001095 -0.003457 0.006691 -0.002125 0.013378
# 2 -0.001095 0.008707 0.012199 -0.010322 -0.003427 -0.043634
# 3 -0.003457 0.012199 0.012834 -0.015838 -0.004016 0.009323
# 4 0.006691 -0.010322 -0.015838 0.048970 0.002610 0.021759
# 5 -0.002125 -0.003427 -0.004016 0.002610 0.025251 -0.007679
# 6 0.013378 -0.043634 0.009323 0.021759 -0.007679 0.008539
#
#
# Mechanical properties :
#
#
# Convention : Reuss Voigt Hill
#
# Bulk Modulus (GPa) = 19.47656 25.10285 22.28971
# Shear Modulus (GPa) = 41.44916 23.23246 32.34081
#
# Velocity S-wave (km/s) = 4.52249 3.38585 3.99481
# Velocity P-wave (km/s) = 6.07299 5.26044 5.68126
#
# Compressibility (1/GPa) = 0.05134376
#
# Stress axis : x y z
#
# Youngs Moduli (GPa) = 68.92339 114.85408 77.91973
#
# Poissons Ratio (x) = 0.12574 0.26937
# Poissons Ratio (y) = 0.07545 -0.95055
# Poissons Ratio (z) = 0.23827 -1.40111
#
# Static dielectric constant tensor:
#      x y z
#    x 1.843990 -0.050160 -0.086090 
#    y -0.050160 1.702010 -0.013690 
#    z -0.086090 -0.013690 1.855760 
# 
# From -- ./inp_files/39353.got.cif
#   From: 2010.05.17/outbox.cif.g08.bks.cpg/sg2_20_cif.got.tgz:39353.got - 2010.06.03 11:33:40.
