data_PCOD9094482
_publ_section_title
;
Structure prediction by ZEFSAII (Michael W. Deem and Ramdas Pophale) SiO2 
 PCOD9094482
Probable space group: P -1
;
_chemical_formula_sum "Si O2"
_cell_formula_units_Z 16
_cell_length_a 15.492341
_cell_length_b 8.126718
_cell_length_c 16.131674
_cell_angle_alpha 89.200232
_cell_angle_beta 136.632361
_cell_angle_gamma 124.950083
_cell_volume 799.053231
_symmetry_space_group_name_H-M "P -1"
_symmetry_group_IT_number 2
_symmetry_cell_setting 'triclinic'
loop_
_space_group_symop_operation_xyz
x,y,z
-x,-y,-z
loop_
_atom_site_type_symbol
_atom_site_label
_atom_site_fract_x
_atom_site_fract_y
_atom_site_fract_z
Si Si1 0.842656 0.696458 0.433460
Si Si2 0.372988 0.117149 0.058940
Si Si3 0.336014 0.465834 0.217102
Si Si4 0.989807 0.359585 0.590037
Si Si5 0.498660 0.113019 0.799094
Si Si6 0.841138 0.890111 0.590558
Si Si7 0.639961 0.992493 0.124455
Si Si8 0.993826 0.901850 0.867781
O O1 0.582679 0.439687 0.238532
O O2 0.876282 0.770676 0.554108
O O3 0.907662 0.607964 0.423048
O O4 0.000000 0.000000 0.500000
O O5 0.418320 0.976431 0.116113
O O6 0.373699 0.143821 0.960364
O O7 0.135448 0.907784 0.927684
O O8 0.356254 0.644773 0.170090
O O9 0.581790 0.659558 0.403479
O O10 0.214270 0.367680 0.219516
O O11 0.173759 0.175590 0.053029
O O12 0.126879 0.667196 0.707533
O O13 0.742209 0.149412 0.406003
O O14 0.977354 0.193511 0.647310
O O15 0.456534 0.170173 0.854420
O O16 0.914794 0.928125 0.734888
O O17 0.500000 0.000000 0.000000
#
# Coordination Sequence:
#
# PCOD9094482 Si02
#       8
#     2   2   2   2   2   2   2   2
#     4  10  20  36  57  91 131 160 200 245 305 375
#     4  11  23  38  59  97 127 161 201 255 314 364
#     4  10  23  45  64  91 115 168 216 255 308 361
#     4  10  20  37  58  93 122 168 199 240 313 373
#     4  10  22  37  64  84 129 160 203 251 302 372
#     4  10  22  39  66  89 126 158 209 256 307 369
#     4  10  20  34  57  89 126 157 198 242 305 378
#     4  11  24  41  67  87 125 162 211 265 305 355
#
# _framework density 20.023696000000001
#
# number of rings (size 3 to 8) (size 9 to 14) (size 15 to 20)
#    0.000    1.750    3.750    0.750    5.250    0.500 
#    0.000    3.125    0.000    2.250    0.000    0.000 
#    0.000    0.000    0.000    0.000    0.000    0.000 
#
# Total GULP energy -89184.228128 kJ/mol
# GULP energy per Si atom -5574.014258 kJ/mol
# Density = 1.997812 g / cm^3
# Si number density = 20.023696 Si / 1000 Ang^3
#
#
#
# Elastic Constant Matrix: (Units=GPa)
#
#
# Indices 1 2 3 4 5 6 
#
# 1 74.8153 36.2389 19.7934 -10.0973 6.4943 25.5055
# 2 36.2389 95.0438 5.2370 -16.1008 9.6175 30.2715
# 3 19.7934 5.2370 49.0697 -19.0410 11.3079 9.4767
# 4 -10.0973 -16.1008 -19.0410 25.7066 6.1078 -2.7324
# 5 6.4943 9.6175 11.3079 6.1078 30.5959 0.0237
# 6 25.5055 30.2715 9.4767 -2.7324 0.0237 31.3471
#
#
#
# Elastic Compliance Matrix: (Units=1/GPa)
#
#
# Indices 1 2 3 4 5 6 
#
# 1 0.020715 -0.003080 -0.004178 0.002351 -0.002345 -0.012411
# 2 -0.003080 0.028109 0.023461 0.036469 -0.024111 -0.028534
# 3 -0.004178 0.023461 0.060116 0.064052 -0.041468 -0.031816
# 4 0.002351 0.036469 0.064052 0.119333 -0.059422 -0.046048
# 5 -0.002345 -0.024111 -0.041468 -0.059422 0.067924 0.032497
# 6 -0.012411 -0.028534 -0.031816 -0.046048 0.032497 0.075134
#
#
# Mechanical properties :
#
#
# Convention : Reuss Voigt Hill
#
# Bulk Modulus (GPa) = 7.07481 37.94085 22.50783
# Shear Modulus (GPa) = 12.95202 28.04055 20.49629
#
# Velocity S-wave (km/s) = 2.54605 3.74621 3.20285
# Velocity P-wave (km/s) = 3.49057 6.14013 4.99426
#
# Compressibility (1/GPa) = 0.14134659
#
# Stress axis : x y z
#
# Youngs Moduli (GPa) = 48.27371 35.57596 16.63456
#
# Poissons Ratio (x) = 0.10956 0.06949
# Poissons Ratio (y) = 0.14867 -0.39026
# Poissons Ratio (z) = 0.20167 -0.83463
#
# Static dielectric constant tensor:
#      x y z
#    x 1.597090 -0.024710 0.398030 
#    y -0.024710 1.712270 0.017550 
#    z 0.398030 0.017550 0.812400 
# 
# From -- ./inp_files/270567.got.cif
#   From: 2010.05.17/outbox.cif.g08.bks.cpg/sg2_136_cif.got.tgz:270567.got - 2010.06.03 11:33:40.
