data_PCOD9094269
_publ_section_title
;
Structure prediction by ZEFSAII (Michael W. Deem and Ramdas Pophale) SiO2 
 PCOD9094269
Probable space group: P -1
;
_chemical_formula_sum "Si O2"
_cell_formula_units_Z 15
_cell_length_a 8.610686
_cell_length_b 12.083400
_cell_length_c 20.619577
_cell_angle_alpha 27.832077
_cell_angle_beta 129.477194
_cell_angle_gamma 116.295631
_cell_volume 729.612197
_symmetry_space_group_name_H-M "P -1"
_symmetry_group_IT_number 2
_symmetry_cell_setting 'triclinic'
loop_
_space_group_symop_operation_xyz
x,y,z
-x,-y,-z
loop_
_atom_site_type_symbol
_atom_site_label
_atom_site_fract_x
_atom_site_fract_y
_atom_site_fract_z
Si Si1 0.260235 0.320509 0.532082
Si Si2 0.039038 0.259891 0.088922
Si Si3 0.108499 0.759290 0.699368
Si Si4 0.471005 0.905697 0.695180
Si Si5 0.938443 0.309366 0.895256
Si Si6 0.500000 0.000000 0.500000
Si Si7 0.938964 0.070237 0.616837
Si Si8 0.304106 0.790730 0.230303
O O1 0.243495 0.599215 0.362042
O O2 0.453254 0.231812 0.680784
O O3 0.345925 0.139747 0.586241
O O4 0.044755 0.281791 0.520031
O O5 0.284632 0.183682 0.172298
O O6 0.017930 0.036040 0.243796
O O7 0.897583 0.325558 0.953017
O O8 0.000000 0.500000 0.000000
O O9 0.358211 0.696526 0.785109
O O10 0.008514 0.544545 0.771474
O O11 0.060580 0.844603 0.716643
O O12 0.000000 0.000000 0.500000
O O13 0.460241 0.969534 0.583316
O O14 0.741479 0.292291 0.810217
O O15 0.137930 0.063570 0.059044
O O16 0.306314 0.883767 0.489734
#
# Coordination Sequence:
#
# PCOD9094269 Si02
#       8
#     2   2   2   2   2   1   2   2
#     4  10  21  42  66  92 119 167 227 259 296 368
#     4  11  22  38  57  93 132 165 189 261 334 379
#     4  11  20  36  64  96 118 159 210 268 316 373
#     4  10  21  34  61  93 125 155 208 261 323 369
#     4  11  22  40  61  90 131 164 213 254 315 376
#     4  10  20  34  56 102 122 152 190 262 342 368
#     4  10  21  36  63  91 128 155 204 259 325 374
#     4  10  23  39  65  88 123 174 219 260 293 358
#
# _framework density 20.558865999999998
#
# number of rings (size 3 to 8) (size 9 to 14) (size 15 to 20)
#    0.000    1.600    4.000    1.600    0.000    1.600 
#    0.000    1.333    0.000    0.000    0.000    0.000 
#    0.000    0.000    0.000    0.000    0.000    0.000 
#
# Total GULP energy -83521.235532 kJ/mol
# GULP energy per Si atom -5568.082369 kJ/mol
# Density = 2.051207 g / cm^3
# Si number density = 20.558866 Si / 1000 Ang^3
#
#
#
# Elastic Constant Matrix: (Units=GPa)
#
#
# Indices 1 2 3 4 5 6 
#
# 1 66.3359 39.3742 5.4028 17.5566 -6.0745 19.8607
# 2 39.3742 128.8282 35.5479 27.6193 -19.5267 8.0377
# 3 5.4028 35.5479 59.4546 7.4882 -9.2493 6.4709
# 4 17.5566 27.6193 7.4882 39.4801 -7.0755 -6.4958
# 5 -6.0745 -19.5267 -9.2493 -7.0755 15.2653 5.5772
# 6 19.8607 8.0377 6.4709 -6.4958 5.5772 36.6668
#
#
#
# Elastic Compliance Matrix: (Units=1/GPa)
#
#
# Indices 1 2 3 4 5 6 
#
# 1 0.026263 -0.004721 0.005034 -0.010588 0.008877 -0.017305
# 2 -0.004721 0.013347 -0.005099 -0.004680 0.010636 -0.001916
# 3 0.005034 -0.005099 0.022163 -0.002208 0.010638 -0.007529
# 4 -0.010588 -0.004680 -0.002208 0.035989 0.000214 0.013493
# 5 0.008877 0.010636 0.010638 0.000214 0.097912 -0.023872
# 6 -0.017305 -0.001916 -0.007529 0.013493 -0.023872 0.044416
#
#
# Mechanical properties :
#
#
# Convention : Reuss Voigt Hill
#
# Bulk Modulus (GPa) = 19.15636 46.14093 32.64865
# Shear Modulus (GPa) = 18.72231 29.90201 24.31216
#
# Velocity S-wave (km/s) = 3.02100 3.81787 3.44257
# Velocity P-wave (km/s) = 4.63753 6.47510 5.63177
#
# Compressibility (1/GPa) = 0.05220197
#
# Stress axis : x y z
#
# Youngs Moduli (GPa) = 38.07648 74.92379 45.12023
#
# Poissons Ratio (x) = 0.35370 -0.22713
# Poissons Ratio (y) = 0.17975 0.23005
# Poissons Ratio (z) = -0.19168 0.38201
#
# Static dielectric constant tensor:
#      x y z
#    x 1.728430 -0.000530 0.012990 
#    y -0.000530 1.775440 0.011300 
#    z 0.012990 0.011300 1.782420 
# 
# From -- ./inp_files/542448.got.cif
#   From: 2010.05.17/outbox.cif.g08.bks.cpg/sg2_272_cif.got.tgz:542448.got - 2010.06.03 11:33:40.
