data_PCOD9094717
_publ_section_title
;
Structure prediction by ZEFSAII (Michael W. Deem and Ramdas Pophale) SiO2 
 PCOD9094717
Probable space group: P -1
;
_chemical_formula_sum "Si O2"
_cell_formula_units_Z 16
_cell_length_a 15.090374
_cell_length_b 7.442325
_cell_length_c 14.489303
_cell_angle_alpha 76.973376
_cell_angle_beta 143.876706
_cell_angle_gamma 128.334286
_cell_volume 604.239857
_symmetry_space_group_name_H-M "P -1"
_symmetry_group_IT_number 2
_symmetry_cell_setting 'triclinic'
loop_
_space_group_symop_operation_xyz
x,y,z
-x,-y,-z
loop_
_atom_site_type_symbol
_atom_site_label
_atom_site_fract_x
_atom_site_fract_y
_atom_site_fract_z
Si Si1 0.801650 0.449756 0.935659
Si Si2 0.744222 0.729958 0.232806
Si Si3 0.827293 0.061847 0.928231
Si Si4 0.979125 0.896716 0.740401
Si Si5 0.838926 0.435704 0.273828
Si Si6 0.522718 0.327485 0.485905
Si Si7 0.443897 0.162915 0.817752
Si Si8 0.173292 0.833409 0.368348
O O1 0.563387 0.277921 0.805501
O O2 0.914172 0.694376 0.928140
O O3 0.784328 0.230690 0.904247
O O4 0.999876 0.632592 0.160459
O O5 0.841565 0.616202 0.321349
O O6 0.687247 0.770816 0.276450
O O7 0.500000 0.500000 0.000000
O O8 0.906534 0.011423 0.273428
O O9 0.830330 0.944799 0.036604
O O10 0.646691 0.833432 0.725839
O O11 0.781490 0.562933 0.635714
O O12 0.879806 0.008899 0.657566
O O13 0.078939 0.625530 0.398389
O O14 0.731192 0.166707 0.269833
O O15 0.653000 0.318744 0.049713
O O16 0.500000 0.500000 0.500000
O O17 0.426580 0.083527 0.504987
#
# Coordination Sequence:
#
# PCOD9094717 Si02
#       8
#     2   2   2   2   2   2   2   2
#     4   9  19  34  50  80 118 147 187 235 288 342
#     4   9  18  30  50  89 112 140 204 237 270 359
#     4  10  21  36  58  83 116 149 184 242 287 341
#     4  10  20  34  60  87 110 148 194 233 289 343
#     4   8  15  26  47  77 111 144 187 240 280 333
#     4   9  19  36  56  83 115 149 186 238 288 343
#     4   9  16  28  51  76 112 155 183 236 294 331
#     4   8  16  32  51  80 115 142 187 239 279 341
#
# _framework density 26.479552999999999
#
# number of rings (size 3 to 8) (size 9 to 14) (size 15 to 20)
#    0.000    3.000    0.000    0.750    7.000    4.500 
#    0.000    5.625    0.000    1.500    0.000    0.000 
#    0.000    0.000    0.000    0.000    0.000    0.000 
#
# Total GULP energy -89636.450835 kJ/mol
# GULP energy per Si atom -5602.278177 kJ/mol
# Density = 2.641928 g / cm^3
# Si number density = 26.479553 Si / 1000 Ang^3
#
#
#
# Elastic Constant Matrix: (Units=GPa)
#
#
# Indices 1 2 3 4 5 6 
#
# 1 164.4490 53.0130 40.2402 24.7070 7.2477 19.3912
# 2 53.0130 82.9651 44.2203 27.6652 11.7208 20.9582
# 3 40.2402 44.2203 107.3647 10.6917 -1.3313 13.6307
# 4 24.7070 27.6652 10.6917 48.1113 7.7138 7.7107
# 5 7.2477 11.7208 -1.3313 7.7138 28.6624 10.5663
# 6 19.3912 20.9582 13.6307 7.7107 10.5663 33.2477
#
#
#
# Elastic Compliance Matrix: (Units=1/GPa)
#
#
# Indices 1 2 3 4 5 6 
#
# 1 0.007923 -0.003584 -0.001118 -0.001562 0.000452 -0.001685
# 2 -0.003584 0.022654 -0.006426 -0.008074 -0.004135 -0.006369
# 3 -0.001118 -0.006426 0.012561 0.001166 0.003901 -0.001957
# 4 -0.001562 -0.008074 0.001166 0.026459 -0.003561 0.000518
# 5 0.000452 -0.004135 0.003901 -0.003561 0.041940 -0.011759
# 6 -0.001685 -0.006369 -0.001957 0.000518 -0.011759 0.039494
#
#
# Mechanical properties :
#
#
# Convention : Reuss Voigt Hill
#
# Bulk Modulus (GPa) = 47.89058 69.96954 58.93006
# Shear Modulus (GPa) = 27.73960 36.49130 32.11545
#
# Velocity S-wave (km/s) = 3.24015 3.71630 3.48636
# Velocity P-wave (km/s) = 5.66774 6.70043 6.20561
#
# Compressibility (1/GPa) = 0.02088093
#
# Stress axis : x y z
#
# Youngs Moduli (GPa) = 126.20813 44.14266 79.61451
#
# Poissons Ratio (x) = 0.15822 0.08905
# Poissons Ratio (y) = 0.45235 0.51158
# Poissons Ratio (z) = 0.14116 0.28365
#
# Static dielectric constant tensor:
#      x y z
#    x 2.037940 0.024770 -0.002440 
#    y 0.024770 2.036970 0.029720 
#    z -0.002440 0.029720 2.142890 
# 
# From -- ./inp_files/528637.got.cif
#   From: 2010.05.17/outbox.cif.g08.bks.cpg/sg2_265_cif.got.tgz:528637.got - 2010.06.03 11:33:40.
