data_PCOD9094360
_publ_section_title
;
Structure prediction by ZEFSAII (Michael W. Deem and Ramdas Pophale) SiO2 
 PCOD9094360
Probable space group: P -1
;
_chemical_formula_sum "Si O2"
_cell_formula_units_Z 15
_cell_length_a 6.960154
_cell_length_b 27.244548
_cell_length_c 12.175920
_cell_angle_alpha 24.094606
_cell_angle_beta 50.212340
_cell_angle_gamma 58.146616
_cell_volume 712.483501
_symmetry_space_group_name_H-M "P -1"
_symmetry_group_IT_number 2
_symmetry_cell_setting 'triclinic'
loop_
_space_group_symop_operation_xyz
x,y,z
-x,-y,-z
loop_
_atom_site_type_symbol
_atom_site_label
_atom_site_fract_x
_atom_site_fract_y
_atom_site_fract_z
Si Si1 0.415610 0.449072 0.391802
Si Si2 0.255169 0.817533 0.471233
Si Si3 0.921859 0.777676 0.458498
Si Si4 0.500000 0.500000 0.000000
Si Si5 0.024205 0.756141 0.087372
Si Si6 0.332424 0.708064 0.884759
Si Si7 0.930822 0.414964 0.375449
Si Si8 0.815472 0.910361 0.024706
O O1 0.494261 0.463784 0.205650
O O2 0.218630 0.321502 0.729252
O O3 0.669648 0.455967 0.356394
O O4 0.289309 0.566653 0.223788
O O5 0.192689 0.733018 0.772671
O O6 0.545698 0.817419 0.327023
O O7 0.086119 0.794311 0.473247
O O8 0.239757 0.954206 0.238745
O O9 0.629617 0.745784 0.668850
O O10 0.953880 0.890641 0.129651
O O11 0.997771 0.670933 0.573922
O O12 0.192251 0.509417 0.099879
O O13 0.951706 0.867350 0.956702
O O14 0.098605 0.666321 0.337579
O O15 0.244575 0.785286 0.857943
#
# Coordination Sequence:
#
# PCOD9094360 Si02
#       8
#     2   2   2   1   2   2   2   2
#     4  11  22  36  59  86 119 159 193 236 291 346
#     4  10  21  38  65  85 115 148 196 256 293 337
#     4  10  20  36  59  89 114 148 195 247 292 347
#     4  10  20  34  56  88 112 144 192 246 282 336
#     4  10  23  40  57  82 125 157 197 238 283 359
#     4  11  24  37  54  91 122 155 197 234 294 351
#     4  10  21  36  59  84 114 156 194 236 292 337
#     4   9  20  41  61  88 110 151 199 245 302 339
#
# _framework density 21.053118999999999
#
# number of rings (size 3 to 8) (size 9 to 14) (size 15 to 20)
#    0.000    1.867    1.333    2.000    3.733    3.200 
#    0.000    0.667    0.000    0.000    0.000    0.000 
#    0.000    0.000    0.000    0.000    0.000    0.000 
#
# Total GULP energy -83513.999080 kJ/mol
# GULP energy per Si atom -5567.599939 kJ/mol
# Density = 2.100520 g / cm^3
# Si number density = 21.053119 Si / 1000 Ang^3
#
#
#
# Elastic Constant Matrix: (Units=GPa)
#
#
# Indices 1 2 3 4 5 6 
#
# 1 137.3703 26.1377 17.6442 3.1107 -2.1579 -4.1200
# 2 26.1377 132.2006 29.0279 8.9028 14.0325 9.9495
# 3 17.6442 29.0279 18.1778 9.0340 -4.0405 -1.5303
# 4 3.1107 8.9028 9.0340 12.7528 -0.3026 4.7076
# 5 -2.1579 14.0325 -4.0405 -0.3026 8.2961 -3.9536
# 6 -4.1200 9.9495 -1.5303 4.7076 -3.9536 23.9569
#
#
#
# Elastic Compliance Matrix: (Units=1/GPa)
#
#
# Indices 1 2 3 4 5 6 
#
# 1 0.008085 -0.003447 0.001928 -0.002630 0.011316 0.005329
# 2 -0.003447 -0.018197 0.083303 -0.057377 0.086383 0.037816
# 3 0.001928 0.083303 -0.232102 0.146020 -0.309531 -0.128866
# 4 -0.002630 -0.057377 0.146020 -0.004098 0.198950 0.066342
# 5 0.011316 0.086383 -0.309531 0.198950 -0.228306 -0.130473
# 6 0.005329 0.037816 -0.128866 0.066342 -0.130473 -0.015847
#
#
# Mechanical properties :
#
#
# Convention : Reuss Voigt Hill
#
# Bulk Modulus (GPa) = -12.71517 48.15204 17.71843
# Shear Modulus (GPa) = -7.35027 23.33044 7.99008
#
# Velocity S-wave (km/s) = -1.87053 3.33253 1.95024
# Velocity P-wave (km/s) = 3.27381 6.14240 3.67499
#
# Compressibility (1/GPa) = -0.07864618
#
# Stress axis : x y z
#
# Youngs Moduli (GPa) = 123.68579 -54.95505 -4.30845
#
# Poissons Ratio (x) = -0.18942 0.00831
# Poissons Ratio (y) = 0.42633 0.35891
# Poissons Ratio (z) = -0.23843 4.57791
#
# Static dielectric constant tensor:
#      x y z
#    x 1.762180 -0.004790 -0.010740 
#    y -0.004790 1.767230 -0.046730 
#    z -0.010740 -0.046730 1.792170 
# 
# From -- ./inp_files/104868.got.cif
#   From: 2010.05.17/outbox.cif.g08.bks.cpg/sg2_53_cif.got.tgz:104868.got - 2010.06.03 11:33:40.
