data_PCOD9094535
_publ_section_title
;
Structure prediction by ZEFSAII (Michael W. Deem and Ramdas Pophale) SiO2 
 PCOD9094535
Probable space group: P -1
;
_chemical_formula_sum "Si O2"
_cell_formula_units_Z 14
_cell_length_a 13.077410
_cell_length_b 8.253306
_cell_length_c 12.214843
_cell_angle_alpha 130.345545
_cell_angle_beta 58.287793
_cell_angle_gamma 131.297295
_cell_volume 743.673949
_symmetry_space_group_name_H-M "P -1"
_symmetry_group_IT_number 2
_symmetry_cell_setting 'triclinic'
loop_
_space_group_symop_operation_xyz
x,y,z
-x,-y,-z
loop_
_atom_site_type_symbol
_atom_site_label
_atom_site_fract_x
_atom_site_fract_y
_atom_site_fract_z
Si Si1 0.687707 0.969437 0.683307
Si Si2 0.370486 0.227021 0.134876
Si Si3 0.641363 0.456764 0.471964
Si Si4 0.836349 0.601845 0.617420
Si Si5 0.849338 0.116560 0.452149
Si Si6 0.587435 0.736539 0.306750
Si Si7 0.567687 0.988711 0.206379
O O1 0.689725 0.955317 0.807062
O O2 0.617067 0.683646 0.561793
O O3 0.823470 0.086244 0.584021
O O4 0.591271 0.080481 0.751276
O O5 0.269171 0.342255 0.230884
O O6 0.520493 0.452082 0.184541
O O7 0.383679 0.104395 0.964820
O O8 0.784343 0.583322 0.514091
O O9 0.526077 0.281623 0.548986
O O10 0.644222 0.283132 0.301610
O O11 0.825751 0.343268 0.534887
O O12 0.994709 0.806788 0.631504
O O13 0.734324 0.881134 0.348095
O O14 0.589686 0.878990 0.257993
#
# Coordination Sequence:
#
# PCOD9094535 Si02
#       7
#     2   2   2   2   2   2   2
#     4  10  21  34  58  84 107 143 181 228 268 316
#     4  10  24  35  53  84 117 142 176 216 285 326
#     4  10  20  34  58  86 107 138 190 222 268 313
#     4   9  21  38  57  84 103 143 187 225 266 320
#     4  11  19  36  64  79 106 138 193 229 259 310
#     4  10  20  34  58  85 101 146 183 227 263 313
#     4  12  19  35  56  82 118 140 174 229 269 324
#
# _framework density 18.825454000000001
#
# number of rings (size 3 to 8) (size 9 to 14) (size 15 to 20)
#    0.000    2.000    2.857    3.429    2.000    2.286 
#    0.000    0.714    3.143    1.714    0.000    0.000 
#    0.000    0.000    0.000    0.000    0.000    0.000 
#
# Total GULP energy -78027.941248 kJ/mol
# GULP energy per Si atom -5573.424375 kJ/mol
# Density = 1.878261 g / cm^3
# Si number density = 18.825454 Si / 1000 Ang^3
#
#
#
# Elastic Constant Matrix: (Units=GPa)
#
#
# Indices 1 2 3 4 5 6 
#
# 1 67.5782 29.1981 31.0211 0.9498 3.9954 16.4665
# 2 29.1981 47.7658 29.0059 -10.0073 4.0476 7.6297
# 3 31.0211 29.0059 137.6026 8.3171 2.4184 9.4831
# 4 0.9498 -10.0073 8.3171 17.4232 -4.6889 8.3933
# 5 3.9954 4.0476 2.4184 -4.6889 19.6033 -3.8206
# 6 16.4665 7.6297 9.4831 8.3933 -3.8206 32.1541
#
#
#
# Elastic Compliance Matrix: (Units=1/GPa)
#
#
# Indices 1 2 3 4 5 6 
#
# 1 0.023246 -0.012775 -0.001617 -0.005466 -0.004675 -0.007525
# 2 -0.012775 0.041452 -0.007194 0.032823 0.000906 -0.009632
# 3 -0.001617 -0.007194 0.009631 -0.010044 -0.001356 0.002155
# 4 -0.005466 0.032823 -0.010044 0.097517 0.013866 -0.025835
# 5 -0.004675 0.000906 -0.001356 0.013866 0.056364 0.005656
# 6 -0.007525 -0.009632 0.002155 -0.025835 0.005656 0.044020
#
#
# Mechanical properties :
#
#
# Convention : Reuss Voigt Hill
#
# Bulk Modulus (GPa) = 32.09532 47.93298 40.01415
# Shear Modulus (GPa) = 15.34753 24.75088 20.04920
#
# Velocity S-wave (km/s) = 2.85836 3.62989 3.26698
# Velocity P-wave (km/s) = 5.28957 6.56393 5.96090
#
# Compressibility (1/GPa) = 0.03115719
#
# Stress axis : x y z
#
# Youngs Moduli (GPa) = 43.01760 24.12455 103.83662
#
# Poissons Ratio (x) = 0.30820 0.16785
# Poissons Ratio (y) = 0.54957 0.74697
# Poissons Ratio (z) = 0.06954 0.17355
#
# Static dielectric constant tensor:
#      x y z
#    x 1.688420 -0.022710 0.018380 
#    y -0.022710 1.693050 0.010360 
#    z 0.018380 0.010360 1.638680 
# 
# From -- ./inp_files/445176.got.cif
#   From: 2010.05.17/outbox.cif.g08.bks.cpg/sg2_223_cif.got.tgz:445176.got - 2010.06.03 11:33:40.
