data_PCOD9094083
_publ_section_title
;
Structure prediction by ZEFSAII (Michael W. Deem and Ramdas Pophale) SiO2 
 PCOD9094083
Probable space group: P -1
;
_chemical_formula_sum "Si O2"
_cell_formula_units_Z 12
_cell_length_a 5.435090
_cell_length_b 10.919289
_cell_length_c 11.655472
_cell_angle_alpha 87.892442
_cell_angle_beta 53.675743
_cell_angle_gamma 86.328701
_cell_volume 556.159841
_symmetry_space_group_name_H-M "P -1"
_symmetry_group_IT_number 2
_symmetry_cell_setting 'triclinic'
loop_
_space_group_symop_operation_xyz
x,y,z
-x,-y,-z
loop_
_atom_site_type_symbol
_atom_site_label
_atom_site_fract_x
_atom_site_fract_y
_atom_site_fract_z
Si Si1 0.344432 0.944693 0.888251
Si Si2 0.591499 0.608656 0.616387
Si Si3 0.270750 0.833156 0.136846
Si Si4 0.227163 0.649483 0.345261
Si Si5 0.943323 0.252550 0.380768
Si Si6 0.242718 0.982499 0.665004
O O1 0.379410 0.922550 0.745065
O O2 0.537186 0.057859 0.869588
O O3 0.360277 0.833179 0.978502
O O4 0.000000 0.000000 0.000000
O O5 0.569828 0.469361 0.668014
O O6 0.287799 0.669840 0.642149
O O7 0.873366 0.609197 0.446082
O O8 0.748007 0.681074 0.675464
O O9 0.319198 0.710530 0.200121
O O10 0.928179 0.889354 0.256523
O O11 0.219635 0.747943 0.448469
O O12 0.978249 0.117079 0.323805
O O13 0.500000 0.000000 0.500000
#
# Coordination Sequence:
#
# PCOD9094083 Si02
#       6
#     2   2   2   2   2   2
#     4   9  21  38  53  83 117 159 195 232 296 353
#     4   9  20  35  53  86 117 154 190 243 288 342
#     4  10  20  38  58  84 116 157 195 237 294 357
#     4   9  19  32  58  80 115 151 199 238 286 347
#     4  10  20  34  53  83 120 148 185 242 293 339
#     4  11  22  33  59  89 122 149 191 245 302 352
#
# _framework density 21.576532
#
# number of rings (size 3 to 8) (size 9 to 14) (size 15 to 20)
#    1.000    1.333    0.000    2.500    2.333    2.667 
#    0.000    0.000    0.000    2.000    0.000    0.000 
#    0.000    0.000    0.000    0.000    0.000    0.000 
#
# Total GULP energy -66907.064287 kJ/mol
# GULP energy per Si atom -5575.588691 kJ/mol
# Density = 2.152742 g / cm^3
# Si number density = 21.576532 Si / 1000 Ang^3
#
#
#
# Elastic Constant Matrix: (Units=GPa)
#
#
# Indices 1 2 3 4 5 6 
#
# 1 96.4984 12.9420 35.0659 -5.5665 16.9533 -3.4493
# 2 12.9420 51.4288 31.4544 -12.3067 17.4714 -8.3942
# 3 35.0659 31.4544 124.0610 -23.8928 36.3657 -6.1629
# 4 -5.5665 -12.3067 -23.8928 33.7998 -9.1651 12.1383
# 5 16.9533 17.4714 36.3657 -9.1651 39.4621 5.8301
# 6 -3.4493 -8.3942 -6.1629 12.1383 5.8301 31.1028
#
#
#
# Elastic Compliance Matrix: (Units=1/GPa)
#
#
# Indices 1 2 3 4 5 6 
#
# 1 0.011878 -0.000407 -0.002498 -0.001532 -0.003261 0.001922
# 2 -0.000407 0.026263 -0.003058 0.002221 -0.009197 0.007294
# 3 -0.002498 -0.003058 0.013095 0.004959 -0.008663 0.001181
# 4 -0.001532 0.002221 0.004959 0.041327 0.007074 -0.016042
# 5 -0.003261 -0.009197 -0.008663 0.007074 0.042704 -0.015326
# 6 0.001922 0.007294 0.001181 -0.016042 -0.015326 0.043701
#
#
# Mechanical properties :
#
#
# Convention : Reuss Voigt Hill
#
# Bulk Modulus (GPa) = 25.43782 47.87920 36.65851
# Shear Modulus (GPa) = 24.51014 33.70800 29.10907
#
# Velocity S-wave (km/s) = 3.37406 3.95682 3.67701
# Velocity P-wave (km/s) = 5.19560 6.56611 5.92064
#
# Compressibility (1/GPa) = 0.03931154
#
# Stress axis : x y z
#
# Youngs Moduli (GPa) = 84.18681 38.07588 76.36458
#
# Poissons Ratio (x) = 0.01548 0.19077
# Poissons Ratio (y) = 0.03422 0.23352
# Poissons Ratio (z) = 0.21031 0.11643
#
# Static dielectric constant tensor:
#      x y z
#    x 2.006410 -0.065960 -0.139600 
#    y -0.065960 1.832780 0.086940 
#    z -0.139600 0.086940 1.906100 
# 
# From -- ./inp_files/62133.got.cif
#   From: 2010.05.17/outbox.cif.g08.bks.cpg/sg2_32_cif.got.tgz:62133.got - 2010.06.03 11:33:40.
