data_PCOD9094987
_publ_section_title
;
Structure prediction by ZEFSAII (Michael W. Deem and Ramdas Pophale) SiO2 
 PCOD9094987
Probable space group: P -1
;
_chemical_formula_sum "Si O2"
_cell_formula_units_Z 14
_cell_length_a 12.760179
_cell_length_b 4.934319
_cell_length_c 12.686054
_cell_angle_alpha 79.749128
_cell_angle_beta 84.387606
_cell_angle_gamma 75.690547
_cell_volume 760.400151
_symmetry_space_group_name_H-M "P -1"
_symmetry_group_IT_number 2
_symmetry_cell_setting 'triclinic'
loop_
_space_group_symop_operation_xyz
x,y,z
-x,-y,-z
loop_
_atom_site_type_symbol
_atom_site_label
_atom_site_fract_x
_atom_site_fract_y
_atom_site_fract_z
Si Si1 0.913645 0.407132 0.402710
Si Si2 0.402887 0.411281 0.902354
Si Si3 0.865716 0.149270 0.870085
Si Si4 0.938568 0.165688 0.627335
Si Si5 0.192917 0.700376 0.795670
Si Si6 0.080332 0.240751 0.909120
Si Si7 0.371624 0.860839 0.050593
O O1 0.872356 0.358520 0.527402
O O2 0.840099 0.345556 0.318234
O O3 0.958981 0.689916 0.372658
O O4 0.019699 0.150747 0.397839
O O5 0.407158 0.682567 0.953428
O O6 0.357127 0.187113 0.994717
O O7 0.318218 0.547222 0.811652
O O8 0.525155 0.241621 0.875936
O O9 0.882382 0.127200 0.745068
O O10 0.737537 0.222261 0.896918
O O11 0.954969 0.323705 0.880668
O O12 0.905240 0.893188 0.967054
O O13 0.127985 0.512345 0.880877
O O14 0.150823 0.007062 0.835375
#
# Coordination Sequence:
#
# PCOD9094987 Si02
#       7
#     2   2   2   2   2   2   2
#     4  10  20  35  50  71 100 136 172 200 244 297
#     4  10  20  35  50  71 100 136 172 200 244 297
#     4  11  20  36  48  79 108 134 160 207 258 308
#     4  10  21  34  50  71 102 137 167 202 244 304
#     4  12  18  37  50  77 102 134 166 210 244 305
#     4  11  24  28  52  80 108 129 154 209 268 304
#     4  10  21  34  50  71 102 137 167 202 244 304
#
# _framework density 18.411359999999998
#
# number of rings (size 3 to 8) (size 9 to 14) (size 15 to 20)
#    0.000    1.429    5.714    0.000    0.000    5.714 
#    0.000    0.000    0.000    0.857    0.000    0.000 
#    0.000   16.000    0.000    0.000    0.000    2.571 
#
# Total GULP energy -77938.841181 kJ/mol
# GULP energy per Si atom -5567.060084 kJ/mol
# Density = 1.836946 g / cm^3
# Si number density = 18.411360 Si / 1000 Ang^3
#
#
#
# Elastic Constant Matrix: (Units=GPa)
#
#
# Indices 1 2 3 4 5 6 
#
# 1 100.2425 1.0919 16.9030 -0.4203 12.2932 -22.3812
# 2 1.0919 69.8939 2.8484 5.5331 6.1846 3.8981
# 3 16.9030 2.8484 118.0851 -0.2710 13.9448 -13.9855
# 4 -0.4203 5.5331 -0.2710 15.7808 1.1238 -0.1755
# 5 12.2932 6.1846 13.9448 1.1238 24.4282 -2.9667
# 6 -22.3812 3.8981 -13.9855 -0.1755 -2.9667 12.3121
#
#
#
# Elastic Compliance Matrix: (Units=1/GPa)
#
#
# Indices 1 2 3 4 5 6 
#
# 1 0.018074 -0.001956 0.002252 0.002002 -0.005767 0.034672
# 2 -0.001956 0.015702 -0.000946 -0.005443 -0.003478 -0.010517
# 3 0.002252 -0.000946 0.010577 0.001108 -0.005138 0.015186
# 4 0.002002 -0.005443 0.001108 0.065600 -0.002433 0.006971
# 5 -0.005767 -0.003478 -0.005138 -0.002433 0.047296 -0.003858
# 6 0.034672 -0.010517 0.015186 0.006971 -0.003858 0.163998
#
#
# Mechanical properties :
#
#
# Convention : Reuss Voigt Hill
#
# Bulk Modulus (GPa) = 23.22746 36.65645 29.94196
# Shear Modulus (GPa) = 14.84130 28.32942 21.58536
#
# Velocity S-wave (km/s) = 2.84226 3.92687 3.42774
# Velocity P-wave (km/s) = 4.83885 6.36501 5.65366
#
# Compressibility (1/GPa) = 0.04305249
#
# Stress axis : x y z
#
# Youngs Moduli (GPa) = 55.32704 63.68738 94.54688
#
# Poissons Ratio (x) = 0.12458 -0.21293
# Poissons Ratio (y) = 0.10822 0.08946
# Poissons Ratio (z) = -0.12460 0.06026
#
# Static dielectric constant tensor:
#      x y z
#    x 1.702550 -0.012220 0.036280 
#    y -0.012220 1.671090 -0.004710 
#    z 0.036280 -0.004710 1.701930 
# 
# From -- ./inp_files/408355.got.cif
#   From: 2010.05.17/outbox.cif.g08.bks.cpg/sg2_205_cif.got.tgz:408355.got - 2010.06.03 11:33:40.
