data_PCOD9094244
_publ_section_title
;
Structure prediction by ZEFSAII (Michael W. Deem and Ramdas Pophale) SiO2 
 PCOD9094244
Probable space group: P -1
;
_chemical_formula_sum "Si O2"
_cell_formula_units_Z 16
_cell_length_a 18.741972
_cell_length_b 15.589477
_cell_length_c 15.116739
_cell_angle_alpha 19.019980
_cell_angle_beta 50.485128
_cell_angle_gamma 40.235289
_cell_volume 849.728225
_symmetry_space_group_name_H-M "P -1"
_symmetry_group_IT_number 2
_symmetry_cell_setting 'triclinic'
loop_
_space_group_symop_operation_xyz
x,y,z
-x,-y,-z
loop_
_atom_site_type_symbol
_atom_site_label
_atom_site_fract_x
_atom_site_fract_y
_atom_site_fract_z
Si Si1 0.771483 0.733739 0.327230
Si Si2 0.328971 0.600550 0.353087
Si Si3 0.901579 0.083886 0.361573
Si Si4 0.462611 0.827554 0.262047
Si Si5 0.107399 0.054902 0.214288
Si Si6 0.189727 0.221548 0.150617
Si Si7 0.971499 0.594889 0.638972
Si Si8 0.079477 0.592929 0.310592
O O1 0.710046 0.585473 0.486278
O O2 0.797578 0.653043 0.489893
O O3 0.906901 0.508309 0.399766
O O4 0.697734 0.109796 0.975194
O O5 0.460553 0.320912 0.563260
O O6 0.237920 0.787745 0.326577
O O7 0.045288 0.892553 0.449310
O O8 0.829565 0.995603 0.559407
O O9 0.898289 0.969119 0.376540
O O10 0.849734 0.453907 0.077800
O O11 0.500000 0.500000 0.500000
O O12 0.321899 0.056942 0.171557
O O13 0.500000 0.000000 0.000000
O O14 0.116308 0.246559 0.099287
O O15 0.021695 0.327075 0.940420
O O16 0.909229 0.511952 0.698703
O O17 0.000000 0.500000 0.500000
O O18 0.000000 0.000000 0.000000
#
# Coordination Sequence:
#
# PCOD9094244 Si02
#       8
#     2   2   2   2   2   2   2   2
#     4  10  20  36  57  88 117 155 192 241 297 364
#     4  11  22  37  62  84 117 154 201 242 305 346
#     4  12  24  39  55  87 121 163 198 236 294 363
#     4  12  25  44  62  85 114 157 210 259 297 336
#     4  11  22  38  58  85 123 159 198 237 294 361
#     4  12  27  38  59  83 119 163 206 245 287 350
#     4  10  22  34  57  84 126 156 187 235 297 360
#     4  10  20  34  55  87 124 157 191 234 298 367
#
# _framework density 18.829550000000001
#
# number of rings (size 3 to 8) (size 9 to 14) (size 15 to 20)
#    0.000    1.000    3.750    4.500    5.250    0.000 
#    0.000    0.000    0.000    0.000    0.000    5.250 
#    0.000    0.000    0.000    0.000    0.000    0.000 
#
# Total GULP energy -89153.441060 kJ/mol
# GULP energy per Si atom -5572.090066 kJ/mol
# Density = 1.878669 g / cm^3
# Si number density = 18.829550 Si / 1000 Ang^3
#
#
#
# Elastic Constant Matrix: (Units=GPa)
#
#
# Indices 1 2 3 4 5 6 
#
# 1 208.9110 47.9894 86.0343 39.1340 -13.8378 -8.4151
# 2 47.9894 77.3541 28.3523 8.7619 -4.4419 0.3205
# 3 86.0343 28.3523 128.8977 35.4809 -29.3814 -10.6489
# 4 39.1340 8.7619 35.4809 50.1464 -0.3814 -39.7880
# 5 -13.8378 -4.4419 -29.3814 -0.3814 40.3652 1.2360
# 6 -8.4151 0.3205 -10.6489 -39.7880 1.2360 57.4700
#
#
#
# Elastic Compliance Matrix: (Units=1/GPa)
#
#
# Indices 1 2 3 4 5 6 
#
# 1 0.007795 -0.002956 -0.003030 -0.006549 0.000200 -0.003942
# 2 -0.002956 0.015301 -0.001649 0.000335 -0.000509 -0.000580
# 3 -0.003030 -0.001649 0.016009 -0.015011 0.010539 -0.008087
# 4 -0.006549 0.000335 -0.015011 0.072727 -0.013884 0.046907
# 5 0.000200 -0.000509 0.010539 -0.013884 0.032581 -0.008328
# 6 -0.003942 -0.000580 -0.008087 0.046907 -0.008328 0.047982
#
#
# Mechanical properties :
#
#
# Convention : Reuss Voigt Hill
#
# Bulk Modulus (GPa) = 41.95407 82.21276 62.08341
# Shear Modulus (GPa) = 23.19007 46.44878 34.81942
#
# Velocity S-wave (km/s) = 3.51319 4.97208 4.30489
# Velocity P-wave (km/s) = 6.22784 8.75891 7.59949
#
# Compressibility (1/GPa) = 0.02383559
#
# Stress axis : x y z
#
# Youngs Moduli (GPa) = 128.29306 65.35617 62.46346
#
# Poissons Ratio (x) = 0.19316 0.18926
# Poissons Ratio (y) = 0.37918 0.10301
# Poissons Ratio (z) = 0.38872 0.10778
#
# Static dielectric constant tensor:
#      x y z
#    x 1.655760 0.027180 -0.026250 
#    y 0.027180 1.687500 0.013600 
#    z -0.026250 0.013600 1.665100 
# 
# From -- ./inp_files/538855.got.cif
#   From: 2010.05.17/outbox.cif.g08.bks.cpg/sg2_270_cif.got.tgz:538855.got - 2010.06.03 11:33:40.
