data_PCOD9094410
_publ_section_title
;
Structure prediction by ZEFSAII (Michael W. Deem and Ramdas Pophale) SiO2 
 PCOD9094410
Probable space group: P -1
;
_chemical_formula_sum "Si O2"
_cell_formula_units_Z 16
_cell_length_a 12.091158
_cell_length_b 7.770829
_cell_length_c 8.091350
_cell_angle_alpha 116.358631
_cell_angle_beta 82.882156
_cell_angle_gamma 91.143800
_cell_volume 675.433138
_symmetry_space_group_name_H-M "P -1"
_symmetry_group_IT_number 2
_symmetry_cell_setting 'triclinic'
loop_
_space_group_symop_operation_xyz
x,y,z
-x,-y,-z
loop_
_atom_site_type_symbol
_atom_site_label
_atom_site_fract_x
_atom_site_fract_y
_atom_site_fract_z
Si Si1 0.235591 0.491480 0.500424
Si Si2 0.767261 0.805238 0.201061
Si Si3 0.049632 0.262728 0.574236
Si Si4 0.457211 0.813014 0.076022
Si Si5 0.651983 0.905355 0.570510
Si Si6 0.658681 0.536712 0.880994
Si Si7 0.750718 0.151760 0.110561
Si Si8 0.868138 0.119342 0.743893
O O1 0.109726 0.428965 0.535549
O O2 0.313133 0.308284 0.467115
O O3 0.271807 0.512102 0.314840
O O4 0.254482 0.677975 0.684227
O O5 0.868784 0.780108 0.300177
O O6 0.662265 0.885871 0.364208
O O7 0.783814 0.954960 0.115406
O O8 0.737466 0.602476 0.042679
O O9 0.928548 0.271714 0.683165
O O10 0.055407 0.076988 0.373160
O O11 0.410832 0.641862 0.124920
O O12 0.451989 0.000898 0.273470
O O13 0.573763 0.721634 0.950734
O O14 0.368460 0.851792 0.962021
O O15 0.751722 0.045368 0.662982
O O16 0.841503 0.180169 0.960819
#
# Coordination Sequence:
#
# PCOD9094410 Si02
#       8
#     2   2   2   2   2   2   2   2
#     4  10  21  35  55  79 113 145 184 225 268 322
#     4  10  20  34  57  82 113 146 180 222 275 326
#     4   9  18  37  59  82 110 145 182 229 276 323
#     4  10  22  38  59  80 108 143 184 231 280 325
#     4   9  19  38  59  83 111 145 181 229 275 323
#     4  11  22  38  57  82 109 144 184 229 278 329
#     4  11  21  36  56  83 113 148 185 225 269 326
#     4   8  17  34  60  81 109 144 184 224 275 322
#
# _framework density 23.688502
#
# number of rings (size 3 to 8) (size 9 to 14) (size 15 to 20)
#    0.000    2.500    0.000    4.500    0.000    4.000 
#    0.000    2.500    0.000   15.750    0.000    0.000 
#    0.000    0.000    0.000    0.000    0.000    0.000 
#
# Total GULP energy -89409.839619 kJ/mol
# GULP energy per Si atom -5588.114976 kJ/mol
# Density = 2.363459 g / cm^3
# Si number density = 23.688502 Si / 1000 Ang^3
#
#
#
# Elastic Constant Matrix: (Units=GPa)
#
#
# Indices 1 2 3 4 5 6 
#
# 1 66.8624 12.6139 28.0441 -9.6359 -12.0388 -8.0990
# 2 12.6139 69.0792 18.9594 -17.0543 -15.7167 6.1292
# 3 28.0441 18.9594 177.1539 -11.9051 -20.8484 9.6193
# 4 -9.6359 -17.0543 -11.9051 36.1868 4.1347 -6.5591
# 5 -12.0388 -15.7167 -20.8484 4.1347 21.8714 6.0339
# 6 -8.0990 6.1292 9.6193 -6.5591 6.0339 21.0911
#
#
#
# Elastic Compliance Matrix: (Units=1/GPa)
#
#
# Indices 1 2 3 4 5 6 
#
# 1 0.018755 -0.001672 -0.002619 0.004700 0.003131 0.009448
# 2 -0.001672 0.020585 0.000921 0.005897 0.016364 -0.009892
# 3 -0.002619 0.000921 0.007285 -0.000045 0.008082 -0.006922
# 4 0.004700 0.005897 -0.000045 0.034061 -0.002835 0.011515
# 5 0.003131 0.016364 0.008082 -0.002835 0.075656 -0.029765
# 6 0.009448 -0.009892 -0.006922 0.011515 -0.029765 0.069170
#
#
# Mechanical properties :
#
#
# Convention : Reuss Voigt Hill
#
# Bulk Modulus (GPa) = 25.07143 48.03669 36.55406
# Shear Modulus (GPa) = 20.36267 32.72840 26.54554
#
# Velocity S-wave (km/s) = 2.93508 3.72104 3.35118
# Velocity P-wave (km/s) = 4.70032 6.22768 5.51711
#
# Compressibility (1/GPa) = 0.03988604
#
# Stress axis : x y z
#
# Youngs Moduli (GPa) = 53.31808 48.57842 137.27096
#
# Poissons Ratio (x) = 0.08121 0.35949
# Poissons Ratio (y) = 0.08913 -0.12640
# Poissons Ratio (z) = 0.13963 -0.04473
#
# Static dielectric constant tensor:
#      x y z
#    x 1.966880 -0.008130 -0.036550 
#    y -0.008130 1.925450 -0.017280 
#    z -0.036550 -0.017280 1.876550 
# 
# From -- ./inp_files/296397.got.cif
#   From: 2010.05.17/outbox.cif.g08.bks.cpg/sg2_149_cif.got.tgz:296397.got - 2010.06.03 11:33:40.
