data_PCOD9094582
_publ_section_title
;
Structure prediction by ZEFSAII (Michael W. Deem and Ramdas Pophale) SiO2 
 PCOD9094582
Probable space group: P -1
;
_chemical_formula_sum "Si O2"
_cell_formula_units_Z 15
_cell_length_a 10.115397
_cell_length_b 12.730090
_cell_length_c 12.697842
_cell_angle_alpha 119.020554
_cell_angle_beta 33.813993
_cell_angle_gamma 97.883349
_cell_volume 666.390767
_symmetry_space_group_name_H-M "P -1"
_symmetry_group_IT_number 2
_symmetry_cell_setting 'triclinic'
loop_
_space_group_symop_operation_xyz
x,y,z
-x,-y,-z
loop_
_atom_site_type_symbol
_atom_site_label
_atom_site_fract_x
_atom_site_fract_y
_atom_site_fract_z
Si Si1 0.763687 0.684844 0.311985
Si Si2 0.500000 0.500000 0.500000
Si Si3 0.183017 0.618926 0.383302
Si Si4 0.388433 0.114976 0.037685
Si Si5 0.173189 0.261357 0.944740
Si Si6 0.597037 0.497208 0.235128
Si Si7 0.717441 0.007636 0.157780
Si Si8 0.512072 0.693155 0.053617
O O1 0.751674 0.713008 0.208687
O O2 0.652543 0.576430 0.338119
O O3 0.554947 0.830736 0.579156
O O4 0.099832 0.600618 0.069875
O O5 0.494809 0.424334 0.346562
O O6 0.163265 0.643965 0.771342
O O7 0.367850 0.602166 0.355864
O O8 0.284709 0.456323 0.213661
O O9 0.864205 0.734500 0.677165
O O10 0.267298 0.678602 0.257689
O O11 0.586238 0.163621 0.878160
O O12 0.272839 0.061441 0.994635
O O13 0.500000 0.000000 0.000000
O O14 0.302931 0.094084 0.794140
O O15 0.312313 0.304456 0.963008
O O16 0.000000 0.000000 0.000000
#
# Coordination Sequence:
#
# PCOD9094582 Si02
#       8
#     2   1   2   2   2   2   2   2
#     4  10  20  37  60  92 125 160 211 263 325 385
#     4  10  20  34  58  90 124 160 204 262 332 372
#     4  11  22  44  71  97 128 175 233 265 334 399
#     4  11  26  47  64  97 139 178 218 279 335 401
#     4  10  20  39  62  92 128 166 209 272 329 385
#     4  10  20  37  62  91 126 161 209 278 317 387
#     4  11  23  40  63  90 126 172 213 265 334 392
#     4  10  23  42  72  93 126 179 220 279 327 392
#
# _framework density 22.509314
#
# number of rings (size 3 to 8) (size 9 to 14) (size 15 to 20)
#    0.000    1.600    1.333    4.000    0.000    2.667 
#    9.600    0.000    0.000    0.000    0.000    0.000 
#    0.000    0.000    0.000    0.000    0.000    0.000 
#
# Total GULP energy -83621.176114 kJ/mol
# GULP energy per Si atom -5574.745074 kJ/mol
# Density = 2.245808 g / cm^3
# Si number density = 22.509314 Si / 1000 Ang^3
#
#
#
# Elastic Constant Matrix: (Units=GPa)
#
#
# Indices 1 2 3 4 5 6 
#
# 1 37.3748 40.6647 -11.6998 -4.6018 9.0068 -16.0514
# 2 40.6647 132.6660 25.2773 5.6726 1.0660 -18.9501
# 3 -11.6998 25.2773 75.2794 -4.9000 13.0144 3.8307
# 4 -4.6018 5.6726 -4.9000 24.6749 -3.6862 3.6443
# 5 9.0068 1.0660 13.0144 -3.6862 26.0356 8.9452
# 6 -16.0514 -18.9501 3.8307 3.6443 8.9452 35.4584
#
#
#
# Elastic Compliance Matrix: (Units=1/GPa)
#
#
# Indices 1 2 3 4 5 6 
#
# 1 0.134578 -0.043760 0.049032 0.024997 -0.083134 0.050640
# 2 -0.043760 0.023459 -0.019381 -0.012014 0.025752 -0.010440
# 3 0.049032 -0.019381 0.033767 0.012404 -0.036863 0.016215
# 4 0.024997 -0.012014 0.012404 0.049233 -0.007520 0.000392
# 5 -0.083134 0.025752 -0.036863 -0.007520 0.098589 -0.043987
# 6 0.050640 -0.010440 0.016215 0.000392 -0.043987 0.054851
#
#
# Mechanical properties :
#
#
# Convention : Reuss Voigt Hill
#
# Bulk Modulus (GPa) = 6.11299 39.31163 22.71231
# Shear Modulus (GPa) = 10.47724 29.97231 20.22477
#
# Velocity S-wave (km/s) = 2.15980 3.65300 3.00076
# Velocity P-wave (km/s) = 2.99020 5.94097 4.70300
#
# Compressibility (1/GPa) = 0.16358611
#
# Stress axis : x y z
#
# Youngs Moduli (GPa) = 7.43063 42.62678 29.61441
#
# Poissons Ratio (x) = 1.86537 -1.45206
# Poissons Ratio (y) = 0.32517 0.57396
# Poissons Ratio (z) = -0.36434 0.82616
#
# Static dielectric constant tensor:
#      x y z
#    x 1.876630 0.018000 0.035510 
#    y 0.018000 2.143550 -0.124810 
#    z 0.035510 -0.124810 1.862510 
# 
# From -- ./inp_files/519798.got.cif
#   From: 2010.05.17/outbox.cif.g08.bks.cpg/sg2_260_cif.got.tgz:519798.got - 2010.06.03 11:33:40.
