data_PCOD9094201
_publ_section_title
;
Structure prediction by ZEFSAII (Michael W. Deem and Ramdas Pophale) SiO2 
 PCOD9094201
Probable space group: P -1
;
_chemical_formula_sum "Si O2"
_cell_formula_units_Z 16
_cell_length_a 19.036407
_cell_length_b 5.428312
_cell_length_c 8.887974
_cell_angle_alpha 122.163249
_cell_angle_beta 121.999924
_cell_angle_gamma 61.846783
_cell_volume 635.908045
_symmetry_space_group_name_H-M "P -1"
_symmetry_group_IT_number 2
_symmetry_cell_setting 'triclinic'
loop_
_space_group_symop_operation_xyz
x,y,z
-x,-y,-z
loop_
_atom_site_type_symbol
_atom_site_label
_atom_site_fract_x
_atom_site_fract_y
_atom_site_fract_z
Si Si1 0.988196 0.978554 0.735460
Si Si2 0.840387 0.690810 0.151307
Si Si3 0.172704 0.940853 0.028301
Si Si4 0.570360 0.206789 0.037350
Si Si5 0.474457 0.812313 0.663899
Si Si6 0.041825 0.561082 0.369069
Si Si7 0.715863 0.961447 0.537593
Si Si8 0.257298 0.723855 0.632741
O O1 0.067198 0.025155 0.940194
O O2 0.926321 0.788965 0.670058
O O3 0.035821 0.771141 0.578919
O O4 0.932733 0.289662 0.702019
O O5 0.805814 0.422788 0.092934
O O6 0.942566 0.575116 0.224749
O O7 0.809647 0.823618 0.996519
O O8 0.819584 0.990241 0.322891
O O9 0.232987 0.954094 0.239331
O O10 0.550932 0.180913 0.185015
O O11 0.665480 0.243321 0.159685
O O12 0.500000 0.500000 0.000000
O O13 0.555371 0.953357 0.823131
O O14 0.500000 0.500000 0.500000
O O15 0.386790 0.006807 0.548944
O O16 0.756475 0.599977 0.450514
O O17 0.719580 0.195575 0.483616
#
# Coordination Sequence:
#
# PCOD9094201 Si02
#       8
#     2   2   2   2   2   2   2   2
#     4   8  14  26  46  73 105 136 166 228 269 303
#     4  10  20  34  56  83 105 143 186 227 265 324
#     4  10  20  34  55  83 109 137 189 227 267 324
#     4  10  21  41  58  81 113 145 187 231 282 335
#     4  10  23  39  60  84 110 147 188 233 280 334
#     4   8  14  26  46  74 104 132 177 218 268 312
#     4  11  23  40  55  81 113 146 178 221 284 335
#     4  11  23  39  58  77 114 149 176 223 283 329
#
# _framework density 25.160872000000001
#
# number of rings (size 3 to 8) (size 9 to 14) (size 15 to 20)
#    0.000    2.250    1.250    1.500    1.750    1.500 
#    0.000    0.000    0.000    1.500    0.000    0.000 
#    0.000    0.000    0.000    0.000    0.000    0.000 
#
# Total GULP energy -89314.423400 kJ/mol
# GULP energy per Si atom -5582.151462 kJ/mol
# Density = 2.510360 g / cm^3
# Si number density = 25.160872 Si / 1000 Ang^3
#
#
#
# Elastic Constant Matrix: (Units=GPa)
#
#
# Indices 1 2 3 4 5 6 
#
# 1 30.2029 18.9542 20.4872 -3.0912 11.9268 8.5398
# 2 18.9542 137.5510 56.3875 -5.8202 9.3776 17.2124
# 3 20.4872 56.3875 177.1195 -12.3363 17.9883 8.0685
# 4 -3.0912 -5.8202 -12.3363 56.6660 -5.8252 4.9525
# 5 11.9268 9.3776 17.9883 -5.8252 23.7004 9.9627
# 6 8.5398 17.2124 8.0685 4.9525 9.9627 27.8904
#
#
#
# Elastic Compliance Matrix: (Units=1/GPa)
#
#
# Indices 1 2 3 4 5 6 
#
# 1 0.045079 -0.003562 -0.002053 0.000245 -0.017663 -0.004745
# 2 -0.003562 0.009274 -0.002488 0.000878 0.002280 -0.004883
# 3 -0.002053 -0.002488 0.007039 0.000665 -0.003725 0.001341
# 4 0.000245 0.000878 0.000665 0.019130 0.006465 -0.006515
# 5 -0.017663 0.002280 -0.003725 0.006465 0.062298 -0.018323
# 6 -0.004745 -0.004883 0.001341 -0.006515 -0.018323 0.047635
#
#
# Mechanical properties :
#
#
# Convention : Reuss Voigt Hill
#
# Bulk Modulus (GPa) = 22.13129 59.61460 40.87294
# Shear Modulus (GPa) = 22.55069 38.25433 30.40251
#
# Velocity S-wave (km/s) = 2.99701 3.90345 3.47987
# Velocity P-wave (km/s) = 4.55972 6.63782 5.69437
#
# Compressibility (1/GPa) = 0.04518490
#
# Stress axis : x y z
#
# Youngs Moduli (GPa) = 22.18334 107.83255 142.06309
#
# Poissons Ratio (x) = 0.38407 0.29169
# Poissons Ratio (y) = 0.07901 0.35350
# Poissons Ratio (z) = 0.04555 0.26833
#
# Static dielectric constant tensor:
#      x y z
#    x 2.130470 0.130330 -0.039890 
#    y 0.130330 2.145460 0.000580 
#    z -0.039890 0.000580 1.996670 
# 
# From -- ./inp_files/10720.got.cif
#   From: 2010.05.17/outbox.cif.g08.bks.cpg/sg2_6_cif.got.tgz:10720.got - 2010.06.03 11:33:40.
