data_PCOD9094429
_publ_section_title
;
Structure prediction by ZEFSAII (Michael W. Deem and Ramdas Pophale) SiO2 
 PCOD9094429
Probable space group: P -1
;
_chemical_formula_sum "Si O2"
_cell_formula_units_Z 16
_cell_length_a 11.055549
_cell_length_b 12.956625
_cell_length_c 11.512745
_cell_angle_alpha 55.211344
_cell_angle_beta 42.077952
_cell_angle_gamma 33.045296
_cell_volume 596.592433
_symmetry_space_group_name_H-M "P -1"
_symmetry_group_IT_number 2
_symmetry_cell_setting 'triclinic'
loop_
_space_group_symop_operation_xyz
x,y,z
-x,-y,-z
loop_
_atom_site_type_symbol
_atom_site_label
_atom_site_fract_x
_atom_site_fract_y
_atom_site_fract_z
Si Si1 0.006274 0.416068 0.183686
Si Si2 0.030634 0.377319 0.446350
Si Si3 0.600446 0.180424 0.581053
Si Si4 0.216188 0.068585 0.170395
Si Si5 0.252013 0.040884 0.618813
Si Si6 0.466619 0.587420 0.683506
Si Si7 0.432617 0.733898 0.838160
Si Si8 0.441166 0.725560 0.107770
O O1 0.102463 0.302920 0.310616
O O2 0.714314 0.638447 0.263477
O O3 0.012675 0.295245 0.169917
O O4 0.252696 0.384745 0.011836
O O5 0.253126 0.367842 0.322895
O O6 0.709481 0.565963 0.533602
O O7 0.027080 0.263841 0.611057
O O8 0.760660 0.029547 0.668002
O O9 0.677040 0.058696 0.490908
O O10 0.676214 0.280336 0.414214
O O11 0.235302 0.949465 0.135769
O O12 0.500000 0.000000 0.000000
O O13 0.240549 0.947764 0.790128
O O14 0.500000 0.000000 0.500000
O O15 0.356211 0.664975 0.843579
O O16 0.583448 0.385896 0.723607
O O17 0.403987 0.714595 0.005280
#
# Coordination Sequence:
#
# PCOD9094429 Si02
#       8
#     2   2   2   2   2   2   2   2
#     4   9  19  37  63  83 110 145 194 235 275 330
#     4   9  16  32  57  84 107 144 192 230 278 327
#     4  10  20  37  62  86 107 147 195 233 278 330
#     4  10  21  37  62  80 117 146 192 238 273 330
#     4   9  17  30  58  86 110 137 189 243 270 320
#     4  10  20  34  57  84 117 146 184 233 286 340
#     4   9  18  33  55  79 113 151 187 229 277 336
#     4  10  21  35  54  82 119 153 179 230 292 331
#
# _framework density 26.81898
#
# number of rings (size 3 to 8) (size 9 to 14) (size 15 to 20)
#    0.000    2.500    1.250    0.750    1.750    5.500 
#    0.000    3.125   19.250    0.000    0.000    0.000 
#    0.000    0.000    0.000    0.000    0.000    0.000 
#
# Total GULP energy -89167.043836 kJ/mol
# GULP energy per Si atom -5572.940240 kJ/mol
# Density = 2.675794 g / cm^3
# Si number density = 26.818980 Si / 1000 Ang^3
#
#
#
# Elastic Constant Matrix: (Units=GPa)
#
#
# Indices 1 2 3 4 5 6 
#
# 1 52.0297 26.7599 41.5264 -7.6683 -1.2718 -12.6070
# 2 26.7599 125.4774 26.0855 -24.3809 15.6571 -11.3680
# 3 41.5264 26.0855 111.7021 -31.8092 23.6812 1.2550
# 4 -7.6683 -24.3809 -31.8092 43.4938 -15.3257 3.5448
# 5 -1.2718 15.6571 23.6812 -15.3257 46.9620 0.3074
# 6 -12.6070 -11.3680 1.2550 3.5448 0.3074 35.1582
#
#
#
# Elastic Compliance Matrix: (Units=1/GPa)
#
#
# Indices 1 2 3 4 5 6 
#
# 1 0.037963 -0.005889 -0.016722 -0.006659 0.009166 0.012897
# 2 -0.005889 0.010229 0.001813 0.004957 -0.002871 0.000656
# 3 -0.016722 0.001813 0.019284 0.010129 -0.007430 -0.007055
# 4 -0.006659 0.004957 0.010129 0.033834 0.004131 -0.004594
# 5 0.009166 -0.002871 -0.007430 0.004131 0.027581 0.001966
# 6 0.012897 0.000656 -0.007055 -0.004594 0.001966 0.033977
#
#
# Mechanical properties :
#
#
# Convention : Reuss Voigt Hill
#
# Bulk Modulus (GPa) = 38.63893 53.10587 45.87240
# Shear Modulus (GPa) = 23.46403 38.11196 30.78800
#
# Velocity S-wave (km/s) = 2.96109 3.77381 3.39188
# Velocity P-wave (km/s) = 5.11168 6.23165 5.69924
#
# Compressibility (1/GPa) = 0.02588064
#
# Stress axis : x y z
#
# Youngs Moduli (GPa) = 26.34166 97.75767 51.85527
#
# Poissons Ratio (x) = 0.57569 0.86714
# Poissons Ratio (y) = 0.15513 -0.09403
# Poissons Ratio (z) = 0.44049 -0.17726
#
# Static dielectric constant tensor:
#      x y z
#    x 2.198500 0.065220 0.096530 
#    y 0.065220 1.943130 0.031460 
#    z 0.096530 0.031460 2.190180 
# 
# From -- ./inp_files/427722.got.cif
#   From: 2010.05.17/outbox.cif.g08.bks.cpg/sg2_214_cif.got.tgz:427722.got - 2010.06.03 11:33:40.
