data_PCOD9094985
_publ_section_title
;
Structure prediction by ZEFSAII (Michael W. Deem and Ramdas Pophale) SiO2 
 PCOD9094985
Probable space group: P -1
;
_chemical_formula_sum "Si O2"
_cell_formula_units_Z 14
_cell_length_a 7.756967
_cell_length_b 10.853635
_cell_length_c 11.151153
_cell_angle_alpha 92.995493
_cell_angle_beta 62.250787
_cell_angle_gamma 138.121210
_cell_volume 480.867824
_symmetry_space_group_name_H-M "P -1"
_symmetry_group_IT_number 2
_symmetry_cell_setting 'triclinic'
loop_
_space_group_symop_operation_xyz
x,y,z
-x,-y,-z
loop_
_atom_site_type_symbol
_atom_site_label
_atom_site_fract_x
_atom_site_fract_y
_atom_site_fract_z
Si Si1 0.684733 0.416151 0.699526
Si Si2 0.005438 0.648850 0.090525
Si Si3 0.643583 0.125741 0.231796
Si Si4 0.639686 0.643385 0.580051
Si Si5 0.564505 0.244203 0.477425
Si Si6 0.234678 0.251529 0.053581
Si Si7 0.733829 0.981725 0.865452
O O1 0.768686 0.597362 0.622291
O O2 0.567808 0.273417 0.618543
O O3 0.394886 0.274137 0.884737
O O4 0.020984 0.532701 0.656536
O O5 0.648598 0.438698 0.249439
O O6 0.025260 0.807203 0.124669
O O7 0.076676 0.652830 0.927925
O O8 0.362835 0.797364 0.036439
O O9 0.529856 0.106645 0.398083
O O10 0.324042 0.979645 0.241517
O O11 0.865879 0.119310 0.161359
O O12 0.500000 0.500000 0.500000
O O13 0.720919 0.812464 0.489874
O O14 0.500000 0.500000 0.000000
O O15 0.208918 0.133345 0.156444
#
# Coordination Sequence:
#
# PCOD9094985 Si02
#       7
#     2   2   2   2   2   2   2
#     4  10  20  35  49  85 116 147 185 227 296 342
#     4   9  19  39  57  84 114 153 196 232 287 341
#     4  10  21  35  57  86 114 147 197 232 291 332
#     4  10  20  35  57  84 111 151 189 237 285 338
#     4  10  21  33  55  82 118 146 180 243 286 337
#     4  12  22  33  59  90 115 146 192 246 285 334
#     4   9  22  38  55  86 118 152 190 240 282 344
#
# _framework density 29.114028999999999
#
# number of rings (size 3 to 8) (size 9 to 14) (size 15 to 20)
#    0.857    1.143    2.857    0.857    2.000    1.714 
#    0.000    0.000    0.000    4.286    0.000    0.000 
#    0.000    0.000    0.000    0.000    0.000    0.000 
#
# Total GULP energy -77963.703833 kJ/mol
# GULP energy per Si atom -5568.835988 kJ/mol
# Density = 2.904776 g / cm^3
# Si number density = 29.114029 Si / 1000 Ang^3
#
#
#
# Elastic Constant Matrix: (Units=GPa)
#
#
# Indices 1 2 3 4 5 6 
#
# 1 195.2993 44.9858 44.4209 -2.3569 -2.7825 -0.4980
# 2 44.9858 60.0624 61.5450 10.7013 7.6145 2.3470
# 3 44.4209 61.5450 153.1482 39.0309 -10.5314 -16.6963
# 4 -2.3569 10.7013 39.0309 59.1506 -6.7595 4.9304
# 5 -2.7825 7.6145 -10.5314 -6.7595 41.9281 -2.4670
# 6 -0.4980 2.3470 -16.6963 4.9304 -2.4670 31.0387
#
#
#
# Elastic Compliance Matrix: (Units=1/GPa)
#
#
# Indices 1 2 3 4 5 6 
#
# 1 0.006367 -0.005418 0.000185 0.001259 0.001688 0.000546
# 2 -0.005418 0.041154 -0.018582 0.004394 -0.012669 -0.014900
# 3 0.000185 -0.018582 0.018137 -0.008862 0.007288 0.013151
# 4 0.001259 0.004394 -0.008862 0.022757 0.000218 -0.008677
# 5 0.001688 -0.012669 0.007288 0.000218 0.028549 0.007140
# 6 0.000546 -0.014900 0.013151 -0.008677 0.007140 0.042373
#
#
# Mechanical properties :
#
#
# Convention : Reuss Voigt Hill
#
# Bulk Modulus (GPa) = 55.47158 78.93482 67.20320
# Shear Modulus (GPa) = 23.47681 43.59403 33.53542
#
# Velocity S-wave (km/s) = 2.84275 3.87376 3.39760
# Velocity P-wave (km/s) = 5.46531 6.86871 6.20680
#
# Compressibility (1/GPa) = 0.01802725
#
# Stress axis : x y z
#
# Youngs Moduli (GPa) = 157.06247 24.29893 55.13661
#
# Poissons Ratio (x) = 0.13166 -0.01023
# Poissons Ratio (y) = 0.85104 1.02456
# Poissons Ratio (z) = -0.02914 0.45153
#
# Static dielectric constant tensor:
#      x y z
#    x 2.509610 -0.185300 -0.012480 
#    y -0.185300 2.452570 0.013330 
#    z -0.012480 0.013330 2.421390 
# 
# From -- ./inp_files/213262.got.cif
#   From: 2010.05.17/outbox.cif.g08.bks.cpg/sg2_107_cif.got.tgz:213262.got - 2010.06.03 11:33:40.
