data_PCOD9094367
_publ_section_title
;
Structure prediction by ZEFSAII (Michael W. Deem and Ramdas Pophale) SiO2 
 PCOD9094367
Probable space group: P -1
;
_chemical_formula_sum "Si O2"
_cell_formula_units_Z 16
_cell_length_a 12.083855
_cell_length_b 11.832359
_cell_length_c 8.421844
_cell_angle_alpha 72.082288
_cell_angle_beta 130.145105
_cell_angle_gamma 131.548869
_cell_volume 673.558082
_symmetry_space_group_name_H-M "P -1"
_symmetry_group_IT_number 2
_symmetry_cell_setting 'triclinic'
loop_
_space_group_symop_operation_xyz
x,y,z
-x,-y,-z
loop_
_atom_site_type_symbol
_atom_site_label
_atom_site_fract_x
_atom_site_fract_y
_atom_site_fract_z
Si Si1 0.134023 0.593960 0.304326
Si Si2 0.980218 0.908671 0.676418
Si Si3 0.905737 0.168411 0.737547
Si Si4 0.700681 0.405662 0.857012
Si Si5 0.432639 0.844671 0.919583
Si Si6 0.279393 0.313266 0.222637
Si Si7 0.984235 0.289398 0.425678
Si Si8 0.316635 0.120466 0.140445
O O1 0.176166 0.743242 0.350722
O O2 0.277081 0.639474 0.275854
O O3 0.127336 0.474087 0.461435
O O4 0.917147 0.500009 0.081361
O O5 0.016756 0.793502 0.695532
O O6 0.779435 0.789843 0.629282
O O7 0.000000 0.000000 0.500000
O O8 0.132613 0.031920 0.893472
O O9 0.994100 0.214725 0.623857
O O10 0.748315 0.993038 0.721035
O O11 0.077696 0.235280 0.986990
O O12 0.645923 0.515494 0.751156
O O13 0.562063 0.261186 0.905696
O O14 0.216197 0.754534 0.726559
O O15 0.538434 0.867205 0.847190
O O16 0.500000 0.000000 0.000000
O O17 0.378456 0.278768 0.202817
#
# Coordination Sequence:
#
# PCOD9094367 Si02
#       8
#     2   2   2   2   2   2   2   2
#     4   9  17  32  56  83 115 136 183 235 278 320
#     4  11  20  35  59  85 109 142 188 234 279 325
#     4  10  20  34  56  89 114 138 182 237 281 320
#     4   9  18  33  57  81 107 152 184 226 275 326
#     4  11  22  37  56  82 113 152 189 219 273 341
#     4  10  20  37  57  83 113 144 186 233 281 321
#     4  11  20  34  57  88 111 144 183 228 283 327
#     4  11  22  37  54  81 118 150 181 226 276 332
#
# _framework density 23.754448
#
# number of rings (size 3 to 8) (size 9 to 14) (size 15 to 20)
#    0.000    1.750    2.500    4.125    3.500    1.000 
#    0.000    0.000    0.000    0.750    0.000    0.000 
#    0.000    0.000    0.000    0.000    0.000    0.000 
#
# Total GULP energy -89402.116718 kJ/mol
# GULP energy per Si atom -5587.632295 kJ/mol
# Density = 2.370038 g / cm^3
# Si number density = 23.754448 Si / 1000 Ang^3
#
#
#
# Elastic Constant Matrix: (Units=GPa)
#
#
# Indices 1 2 3 4 5 6 
#
# 1 121.1079 44.3087 9.3683 -11.5877 -21.6973 -36.7273
# 2 44.3087 79.7214 23.9618 -27.3766 -1.0642 -21.1365
# 3 9.3683 23.9618 72.4578 -22.1351 -11.1048 4.6139
# 4 -11.5877 -27.3766 -22.1351 27.2484 7.5188 -4.4178
# 5 -21.6973 -1.0642 -11.1048 7.5188 27.9325 -0.0985
# 6 -36.7273 -21.1365 4.6139 -4.4178 -0.0985 44.7864
#
#
#
# Elastic Compliance Matrix: (Units=1/GPa)
#
#
# Indices 1 2 3 4 5 6 
#
# 1 0.015696 -0.006825 0.001223 -0.001183 0.012770 0.009436
# 2 -0.006825 0.031423 -0.002504 0.032496 -0.013803 0.012666
# 3 0.001223 -0.002504 0.018932 0.011793 0.005203 -0.000955
# 4 -0.001183 0.032496 0.011793 0.087002 -0.018335 0.021693
# 5 0.012770 -0.013803 0.005203 -0.018335 0.052204 0.001728
# 6 0.009436 0.012666 -0.000955 0.021693 0.001728 0.038285
#
#
# Mechanical properties :
#
#
# Convention : Reuss Voigt Hill
#
# Bulk Modulus (GPa) = 20.06517 47.61830 33.84174
# Shear Modulus (GPa) = 18.09188 33.03666 25.56427
#
# Velocity S-wave (km/s) = 2.76274 3.73333 3.28409
# Velocity P-wave (km/s) = 4.31767 6.21878 5.35329
#
# Compressibility (1/GPa) = 0.04983759
#
# Stress axis : x y z
#
# Youngs Moduli (GPa) = 63.71180 31.82402 52.82078
#
# Poissons Ratio (x) = 0.21721 -0.06458
# Poissons Ratio (y) = 0.43485 0.13225
# Poissons Ratio (z) = -0.07789 0.07968
#
# Static dielectric constant tensor:
#      x y z
#    x 1.902520 -0.009770 -0.004150 
#    y -0.009770 1.937010 -0.002000 
#    z -0.004150 -0.002000 1.964770 
# 
# From -- ./inp_files/257401.got.cif
#   From: 2010.05.17/outbox.cif.g08.bks.cpg/sg2_129_cif.got.tgz:257401.got - 2010.06.03 11:33:40.
