data_PCOD9094357
_publ_section_title
;
Structure prediction by ZEFSAII (Michael W. Deem and Ramdas Pophale) SiO2 
 PCOD9094357
Probable space group: P -1
;
_chemical_formula_sum "Si O2"
_cell_formula_units_Z 16
_cell_length_a 14.399850
_cell_length_b 27.047671
_cell_length_c 7.933064
_cell_angle_alpha 126.102291
_cell_angle_beta 51.001782
_cell_angle_gamma 165.113990
_cell_volume 614.096224
_symmetry_space_group_name_H-M "P -1"
_symmetry_group_IT_number 2
_symmetry_cell_setting 'triclinic'
loop_
_space_group_symop_operation_xyz
x,y,z
-x,-y,-z
loop_
_atom_site_type_symbol
_atom_site_label
_atom_site_fract_x
_atom_site_fract_y
_atom_site_fract_z
Si Si1 0.746016 0.806579 0.203472
Si Si2 0.101181 0.616703 0.172432
Si Si3 0.442362 0.153370 0.537465
Si Si4 0.014134 0.404191 0.091288
Si Si5 0.430175 0.906967 0.630379
Si Si6 0.253675 0.944155 0.808590
Si Si7 0.394766 0.550885 0.375504
Si Si8 0.444929 0.490560 0.739494
O O1 0.817081 0.913906 0.341098
O O2 0.407437 0.632634 0.106021
O O3 0.562442 0.683144 0.326531
O O4 0.095120 0.933075 0.018646
O O5 0.376600 0.750043 0.287908
O O6 0.729631 0.473009 0.365679
O O7 0.000000 0.500000 0.000000
O O8 0.196990 0.693437 0.039723
O O9 0.309789 0.017881 0.423484
O O10 0.754297 0.304916 0.336791
O O11 0.152159 0.401494 0.935013
O O12 0.453336 0.991344 0.799611
O O13 0.006754 0.674723 0.677613
O O14 0.523052 0.945555 0.401745
O O15 0.854786 0.715701 0.772560
O O16 0.640217 0.611332 0.260512
O O17 0.500000 0.500000 0.500000
#
# Coordination Sequence:
#
# PCOD9094357 Si02
#       8
#     2   2   2   2   2   2   2   2
#     4  11  20  34  56  90 112 139 197 239 279 331
#     4  11  19  31  52  80 118 151 178 234 293 331
#     4  11  22  35  57  86 116 150 196 232 286 347
#     4  11  20  32  54  85 118 144 185 241 284 339
#     4   9  19  37  55  78 116 152 194 228 283 351
#     4   9  21  35  56  82 113 153 190 235 285 342
#     4  10  20  34  57  86 116 144 191 242 281 339
#     4  10  20  34  56  87 117 145 192 239 293 336
#
# _framework density 26.054548
#
# number of rings (size 3 to 8) (size 9 to 14) (size 15 to 20)
#    0.000    1.750    5.000    1.125    1.750    2.000 
#    0.000    0.000    0.000    3.750    0.000    8.750 
#    0.000    0.000    0.000    0.000    0.000    0.000 
#
# Total GULP energy -89380.355767 kJ/mol
# GULP energy per Si atom -5586.272235 kJ/mol
# Density = 2.599525 g / cm^3
# Si number density = 26.054548 Si / 1000 Ang^3
#
#
#
# Elastic Constant Matrix: (Units=GPa)
#
#
# Indices 1 2 3 4 5 6 
#
# 1 200.1033 34.7595 63.3303 4.2672 -33.3280 -44.3755
# 2 34.7595 73.9380 30.8931 -11.7510 -3.1811 11.2168
# 3 63.3303 30.8931 103.5251 8.8529 -7.7574 -11.0367
# 4 4.2672 -11.7510 8.8529 9.8174 -14.4227 13.0031
# 5 -33.3280 -3.1811 -7.7574 -14.4227 63.3114 21.1594
# 6 -44.3755 11.2168 -11.0367 13.0031 21.1594 10.2671
#
#
#
# Elastic Compliance Matrix: (Units=1/GPa)
#
#
# Indices 1 2 3 4 5 6 
#
# 1 0.007192 0.000667 -0.005084 0.010551 0.005612 -0.000037
# 2 0.000667 0.010592 -0.001951 -0.009065 -0.005310 0.011636
# 3 -0.005084 -0.001951 0.012741 -0.000833 0.000961 -0.007074
# 4 0.010551 -0.009065 -0.000833 0.017330 -0.006332 0.045710
# 5 0.005612 -0.005310 0.000961 -0.006332 0.013131 0.012050
# 6 -0.000037 0.011636 -0.007074 0.045710 0.012050 -0.005801
#
#
# Mechanical properties :
#
#
# Convention : Reuss Voigt Hill
#
# Bulk Modulus (GPa) = 56.21580 70.61469 63.41524
# Shear Modulus (GPa) = 67.70279 33.25144 50.47712
#
# Velocity S-wave (km/s) = 5.10308 3.57630 4.40632
# Velocity P-wave (km/s) = 7.50633 6.64942 7.09083
#
# Compressibility (1/GPa) = 0.01778859
#
# Stress axis : x y z
#
# Youngs Moduli (GPa) = 139.03542 94.40971 78.48609
#
# Poissons Ratio (x) = -0.06297 0.39906
# Poissons Ratio (y) = -0.09273 0.15313
# Poissons Ratio (z) = 0.70692 0.18419
#
# Static dielectric constant tensor:
#      x y z
#    x 2.142060 -0.021490 0.007240 
#    y -0.021490 2.050490 0.033440 
#    z 0.007240 0.033440 2.029090 
# 
# From -- ./inp_files/320699.got.cif
#   From: 2010.05.17/outbox.cif.g08.bks.cpg/sg2_161_cif.got.tgz:320699.got - 2010.06.03 11:33:40.
