data_PCOD9094902
_publ_section_title
;
Structure prediction by ZEFSAII (Michael W. Deem and Ramdas Pophale) SiO2 
 PCOD9094902
Probable space group: P -1
;
_chemical_formula_sum "Si O2"
_cell_formula_units_Z 13
_cell_length_a 7.591323
_cell_length_b 11.550459
_cell_length_c 8.421550
_cell_angle_alpha 67.777179
_cell_angle_beta 53.528351
_cell_angle_gamma 81.550064
_cell_volume 546.684501
_symmetry_space_group_name_H-M "P -1"
_symmetry_group_IT_number 2
_symmetry_cell_setting 'triclinic'
loop_
_space_group_symop_operation_xyz
x,y,z
-x,-y,-z
loop_
_atom_site_type_symbol
_atom_site_label
_atom_site_fract_x
_atom_site_fract_y
_atom_site_fract_z
Si Si1 0.667724 0.793772 0.861432
Si Si2 0.876863 0.078713 0.382414
Si Si3 0.895929 0.881985 0.221852
Si Si4 0.459418 0.783048 0.320978
Si Si5 0.500000 0.500000 0.500000
Si Si6 0.685442 0.517837 0.028271
Si Si7 0.781340 0.255798 0.044857
O O1 0.476662 0.780722 0.837734
O O2 0.872534 0.898640 0.704911
O O3 0.533061 0.806878 0.088995
O O4 0.778136 0.662290 0.879899
O O5 0.711787 0.124607 0.576160
O O6 0.846545 0.176819 0.201847
O O7 0.839995 0.944160 0.384448
O O8 0.677831 0.816722 0.292233
O O9 0.074983 0.782929 0.161979
O O10 0.000000 0.000000 0.000000
O O11 0.394720 0.635625 0.459027
O O12 0.582843 0.503976 0.265580
O O13 0.830476 0.403705 0.978065
O O14 0.500000 0.500000 0.000000
#
# Coordination Sequence:
#
# PCOD9094902 Si02
#       7
#     2   2   2   2   1   2   2
#     4  10  22  39  62  93 125 161 211 260 319 388
#     4  11  22  41  62  91 123 170 210 257 322 379
#     4  10  21  40  64  89 122 174 211 255 321 379
#     4  11  21  40  63  91 130 157 216 266 309 391
#     4  10  20  34  64 100 120 172 216 258 336 388
#     4   9  19  37  62  95 128 168 212 268 327 384
#     4  10  20  40  62  87 127 164 206 261 318 373
#
# _framework density 23.779710999999999
#
# number of rings (size 3 to 8) (size 9 to 14) (size 15 to 20)
#    0.000    1.846    4.615    0.462    0.000    2.462 
#    2.769    0.769    0.000    7.385    0.000    0.000 
#    0.000    0.000    0.000    0.000    0.000    0.000 
#
# Total GULP energy -72434.851379 kJ/mol
# GULP energy per Si atom -5571.911645 kJ/mol
# Density = 2.372559 g / cm^3
# Si number density = 23.779711 Si / 1000 Ang^3
#
#
#
# Elastic Constant Matrix: (Units=GPa)
#
#
# Indices 1 2 3 4 5 6 
#
# 1 94.8758 22.6963 9.7305 1.4312 -0.2301 -8.2323
# 2 22.6963 195.6278 23.5221 37.6040 -10.1275 -14.3786
# 3 9.7305 23.5221 42.9524 7.6986 1.5695 -7.2158
# 4 1.4312 37.6040 7.6986 17.1001 -0.7987 -2.4920
# 5 -0.2301 -10.1275 1.5695 -0.7987 34.3347 4.9030
# 6 -8.2323 -14.3786 -7.2158 -2.4920 4.9030 32.4709
#
#
#
# Elastic Compliance Matrix: (Units=1/GPa)
#
#
# Indices 1 2 3 4 5 6 
#
# 1 0.011268 -0.001714 -0.001964 0.003985 -0.000540 0.002048
# 2 -0.001714 0.009503 -0.001035 -0.019943 0.002134 0.001691
# 3 -0.001964 -0.001035 0.026789 -0.009052 -0.002420 0.004667
# 4 0.003985 -0.019943 -0.009052 0.105757 -0.002797 -0.001294
# 5 -0.000540 0.002134 -0.002420 -0.002797 0.030445 -0.004542
# 6 0.002048 0.001691 0.004667 -0.001294 -0.004542 0.033689
#
#
# Mechanical properties :
#
#
# Convention : Reuss Voigt Hill
#
# Bulk Modulus (GPa) = 26.22475 49.48377 37.85426
# Shear Modulus (GPa) = 20.86911 35.28161 28.07536
#
# Velocity S-wave (km/s) = 2.96565 3.85604 3.43978
# Velocity P-wave (km/s) = 4.77272 6.37807 5.63288
#
# Compressibility (1/GPa) = 0.03813192
#
# Stress axis : x y z
#
# Youngs Moduli (GPa) = 88.74691 105.22686 37.32935
#
# Poissons Ratio (x) = 0.18041 0.07332
# Poissons Ratio (y) = 0.15215 0.03865
# Poissons Ratio (z) = 0.17431 0.10895
#
# Static dielectric constant tensor:
#      x y z
#    x 1.875900 -0.014370 0.034430 
#    y -0.014370 1.943070 -0.032920 
#    z 0.034430 -0.032920 1.902710 
# 
# From -- ./inp_files/167312.got.cif
#   From: 2010.05.17/outbox.cif.g08.bks.cpg/sg2_84_cif.got.tgz:167312.got - 2010.06.03 11:33:40.
