data_PCOD9094392
_publ_section_title
;
Structure prediction by ZEFSAII (Michael W. Deem and Ramdas Pophale) SiO2 
 PCOD9094392
Probable space group: P -1
;
_chemical_formula_sum "Si O2"
_cell_formula_units_Z 16
_cell_length_a 9.866872
_cell_length_b 4.991455
_cell_length_c 15.861225
_cell_angle_alpha 77.885072
_cell_angle_beta 79.115252
_cell_angle_gamma 73.351235
_cell_volume 724.810759
_symmetry_space_group_name_H-M "P -1"
_symmetry_group_IT_number 2
_symmetry_cell_setting 'triclinic'
loop_
_space_group_symop_operation_xyz
x,y,z
-x,-y,-z
loop_
_atom_site_type_symbol
_atom_site_label
_atom_site_fract_x
_atom_site_fract_y
_atom_site_fract_z
Si Si1 0.838062 0.281155 0.078016
Si Si2 0.809327 0.150875 0.642868
Si Si3 0.866523 0.548387 0.227454
Si Si4 0.137306 0.031434 0.662864
Si Si5 0.097961 0.728369 0.112838
Si Si6 0.364976 0.830998 0.172376
Si Si7 0.525990 0.311672 0.094402
Si Si8 0.839122 0.684539 0.526244
O O1 0.816788 0.503553 0.141998
O O2 0.694354 0.181089 0.090149
O O3 0.868126 0.400004 0.975762
O O4 0.970461 0.014582 0.100374
O O5 0.836952 0.897364 0.589368
O O6 0.964097 0.139500 0.667165
O O7 0.697584 0.126873 0.729206
O O8 0.163447 0.699492 0.695744
O O9 0.813494 0.831363 0.268982
O O10 0.035699 0.521316 0.193114
O O11 0.204067 0.132932 0.565352
O O12 0.760165 0.449073 0.579388
O O13 0.232843 0.810373 0.130157
O O14 0.476149 0.529165 0.163071
O O15 0.436004 0.079861 0.120948
O O16 0.500000 0.500000 0.000000
O O17 0.000000 0.500000 0.500000
#
# Coordination Sequence:
#
# PCOD9094392 Si02
#       8
#     2   2   2   2   2   2   2   2
#     4  11  26  44  66  94 134 179 222 275 325 394
#     4  11  20  36  60  90 136 170 220 256 334 403
#     4  12  22  39  60  95 128 170 213 269 316 394
#     4  11  21  34  60  93 134 163 210 266 337 382
#     4  11  25  42  69  94 135 172 229 271 332 382
#     4  12  26  44  68  99 130 185 220 277 326 392
#     4  12  28  46  67  94 137 177 229 272 335 383
#     4  10  20  34  56  94 133 176 198 270 339 402
#
# _framework density 22.074726999999999
#
# number of rings (size 3 to 8) (size 9 to 14) (size 15 to 20)
#    0.000    0.750    3.750    5.250    5.250    1.000 
#    0.000    0.000    0.000    0.000    0.000   17.500 
#    0.000    0.000    0.000    0.000    0.000    0.000 
#
# Total GULP energy -89505.215141 kJ/mol
# GULP energy per Si atom -5594.075946 kJ/mol
# Density = 2.202448 g / cm^3
# Si number density = 22.074727 Si / 1000 Ang^3
#
#
#
# Elastic Constant Matrix: (Units=GPa)
#
#
# Indices 1 2 3 4 5 6 
#
# 1 76.6142 22.1731 12.2077 0.9474 -9.8178 13.0888
# 2 22.1731 96.7553 27.4204 -2.9774 -2.0133 25.0348
# 3 12.2077 27.4204 114.9217 16.7758 -0.9878 11.6916
# 4 0.9474 -2.9774 16.7758 35.4451 12.1013 -4.1163
# 5 -9.8178 -2.0133 -0.9878 12.1013 19.7300 -0.9936
# 6 13.0888 25.0348 11.6916 -4.1163 -0.9936 35.4443
#
#
#
# Elastic Compliance Matrix: (Units=1/GPa)
#
#
# Indices 1 2 3 4 5 6 
#
# 1 0.015885 -0.002462 0.000132 -0.004740 0.010344 -0.004431
# 2 -0.002462 0.013636 -0.002524 0.002063 -0.001613 -0.007695
# 3 0.000132 -0.002524 0.010613 -0.007081 0.004558 -0.002461
# 4 -0.004740 0.002063 -0.007081 0.042228 -0.028063 0.006746
# 5 0.010344 -0.001613 0.004558 -0.028063 0.072835 -0.005402
# 6 -0.004431 -0.007695 -0.002461 0.006746 -0.005402 0.036729
#
#
# Mechanical properties :
#
#
# Convention : Reuss Voigt Hill
#
# Bulk Modulus (GPa) = 32.86732 45.76594 39.31663
# Shear Modulus (GPa) = 23.60983 33.22322 28.41652
#
# Velocity S-wave (km/s) = 3.27393 3.88369 3.59177
# Velocity P-wave (km/s) = 5.40490 6.39437 5.92034
#
# Compressibility (1/GPa) = 0.03042536
#
# Stress axis : x y z
#
# Youngs Moduli (GPa) = 62.95235 73.33622 94.22408
#
# Poissons Ratio (x) = 0.18053 -0.01240
# Poissons Ratio (y) = 0.15497 0.23783
# Poissons Ratio (z) = -0.00828 0.18511
#
# Static dielectric constant tensor:
#      x y z
#    x 1.803090 -0.002270 0.006670 
#    y -0.002270 1.828810 -0.025050 
#    z 0.006670 -0.025050 1.846420 
# 
# From -- ./inp_files/552684.got.cif
#   From: 2010.05.17/outbox.cif.g08.bks.cpg/sg2_277_cif.got.tgz:552684.got - 2010.06.03 11:33:40.
