data_PCOD9094113
_publ_section_title
;
Structure prediction by ZEFSAII (Michael W. Deem and Ramdas Pophale) SiO2 
 PCOD9094113
Probable space group: P -1
;
_chemical_formula_sum "Si O2"
_cell_formula_units_Z 16
_cell_length_a 8.387549
_cell_length_b 17.811825
_cell_length_c 17.475197
_cell_angle_alpha 158.575289
_cell_angle_beta 124.073539
_cell_angle_gamma 54.044735
_cell_volume 771.131057
_symmetry_space_group_name_H-M "P -1"
_symmetry_group_IT_number 2
_symmetry_cell_setting 'triclinic'
loop_
_space_group_symop_operation_xyz
x,y,z
-x,-y,-z
loop_
_atom_site_type_symbol
_atom_site_label
_atom_site_fract_x
_atom_site_fract_y
_atom_site_fract_z
Si Si1 0.805196 0.011281 0.509805
Si Si2 0.218181 0.986581 0.125653
Si Si3 0.647798 0.825341 0.153223
Si Si4 0.051060 0.999938 0.705965
Si Si5 0.666305 0.498893 0.949967
Si Si6 0.926798 0.682690 0.716597
Si Si7 0.992251 0.331964 0.514098
Si Si8 0.210590 0.561825 0.909286
O O1 0.695582 0.250182 0.716439
O O2 0.889457 0.940458 0.548326
O O3 0.663027 0.904786 0.319961
O O4 0.000000 0.000000 0.500000
O O5 0.430787 0.879777 0.113300
O O6 0.227812 0.129082 0.187572
O O7 0.104212 0.157828 0.318548
O O8 0.097350 0.805704 0.903685
O O9 0.783624 0.928598 0.232863
O O10 0.731383 0.580608 0.963706
O O11 0.126594 0.801390 0.592084
O O12 0.937731 0.210589 0.918314
O O13 0.433106 0.587193 0.980218
O O14 0.785035 0.524132 0.083558
O O15 0.875545 0.542363 0.639607
O O16 0.000000 0.500000 0.500000
O O17 0.146857 0.414222 0.688310
#
# Coordination Sequence:
#
# PCOD9094113 Si02
#       8
#     2   2   2   2   2   2   2   2
#     4   9  20  35  51  78 116 155 187 221 265 314
#     4  10  21  38  61  87 106 135 187 234 279 331
#     4  11  21  35  56  82 114 149 188 231 268 323
#     4  10  22  34  51  82 118 154 186 219 270 326
#     4  10  20  34  54  79 110 150 194 230 268 316
#     4   9  20  38  62  84 107 137 176 233 290 335
#     4  11  19  35  59  80 109 145 180 224 279 332
#     4  10  21  35  53  81 112 148 190 231 270 319
#
# _framework density 20.748743999999999
#
# number of rings (size 3 to 8) (size 9 to 14) (size 15 to 20)
#    0.000    2.000    0.000    3.750    0.000    7.500 
#    0.000    5.625    0.000   10.500    0.000    0.000 
#    0.000    0.000    0.000    0.000    0.000    0.000 
#
# Total GULP energy -89187.116704 kJ/mol
# GULP energy per Si atom -5574.194794 kJ/mol
# Density = 2.070152 g / cm^3
# Si number density = 20.748744 Si / 1000 Ang^3
#
#
#
# Elastic Constant Matrix: (Units=GPa)
#
#
# Indices 1 2 3 4 5 6 
#
# 1 39.3657 24.3948 14.1606 10.5773 9.2864 16.2633
# 2 24.3948 116.7461 13.3854 20.3239 19.0153 22.9604
# 3 14.1606 13.3854 75.4768 -7.7867 -1.1939 -1.3161
# 4 10.5773 20.3239 -7.7867 43.5959 12.7874 18.3724
# 5 9.2864 19.0153 -1.1939 12.7874 23.0536 10.0004
# 6 16.2633 22.9604 -1.3161 18.3724 10.0004 29.9966
#
#
#
# Elastic Compliance Matrix: (Units=1/GPa)
#
#
# Indices 1 2 3 4 5 6 
#
# 1 0.038048 -0.002849 -0.007064 -0.000478 -0.005924 -0.016490
# 2 -0.002849 0.011420 -0.001802 -0.001387 -0.005621 -0.004552
# 3 -0.007064 -0.001802 0.015330 0.003410 0.001858 0.003174
# 4 -0.000478 -0.001387 0.003410 0.034094 -0.010495 -0.015912
# 5 -0.005924 -0.005621 0.001858 -0.010495 0.058727 -0.005555
# 6 -0.016490 -0.004552 0.003174 -0.015912 -0.005555 0.057499
#
#
# Mechanical properties :
#
#
# Convention : Reuss Voigt Hill
#
# Bulk Modulus (GPa) = 24.17329 37.27448 30.72389
# Shear Modulus (GPa) = 19.81476 31.30575 25.56026
#
# Velocity S-wave (km/s) = 3.09364 3.88854 3.51364
# Velocity P-wave (km/s) = 4.94334 6.17776 5.59470
#
# Compressibility (1/GPa) = 0.04136797
#
# Stress axis : x y z
#
# Youngs Moduli (GPa) = 26.28278 87.56701 65.22988
#
# Poissons Ratio (x) = 0.24951 0.46075
# Poissons Ratio (y) = 0.07489 0.11755
# Poissons Ratio (z) = 0.18565 0.15780
#
# Static dielectric constant tensor:
#      x y z
#    x 1.695480 0.095900 0.041220 
#    y 0.095900 1.776280 0.022360 
#    z 0.041220 0.022360 1.821740 
# 
# From -- ./inp_files/99947.got.cif
#   From: 2010.05.17/outbox.cif.g08.bks.cpg/sg2_50_cif.got.tgz:99947.got - 2010.06.03 11:33:40.
