data_PCOD9094579
_publ_section_title
;
Structure prediction by ZEFSAII (Michael W. Deem and Ramdas Pophale) SiO2 
 PCOD9094579
Probable space group: P -1
;
_chemical_formula_sum "Si O2"
_cell_formula_units_Z 16
_cell_length_a 15.431378
_cell_length_b 19.519512
_cell_length_c 12.519524
_cell_angle_alpha 26.372660
_cell_angle_beta 28.951346
_cell_angle_gamma 22.516326
_cell_volume 616.073832
_symmetry_space_group_name_H-M "P -1"
_symmetry_group_IT_number 2
_symmetry_cell_setting 'triclinic'
loop_
_space_group_symop_operation_xyz
x,y,z
-x,-y,-z
loop_
_atom_site_type_symbol
_atom_site_label
_atom_site_fract_x
_atom_site_fract_y
_atom_site_fract_z
Si Si1 0.439457 0.923654 0.016995
Si Si2 0.872903 0.376731 0.806341
Si Si3 0.435871 0.038638 0.639355
Si Si4 0.081745 0.219580 0.242076
Si Si5 0.153326 0.629644 0.495856
Si Si6 0.202040 0.931270 0.690599
Si Si7 0.365629 0.632660 0.567833
Si Si8 0.906393 0.594716 0.291340
O O1 0.492544 0.879054 0.894303
O O2 0.318470 0.839310 0.308755
O O3 0.274518 0.165316 0.869792
O O4 0.679988 0.818144 0.969135
O O5 0.153611 0.203109 0.721779
O O6 0.872952 0.453800 0.815733
O O7 0.790147 0.541877 0.576469
O O8 0.771248 0.264779 0.061813
O O9 0.408064 0.909621 0.554852
O O10 0.500000 0.000000 0.500000
O O11 0.887552 0.308035 0.236434
O O12 0.168986 0.007920 0.496376
O O13 0.067567 0.633362 0.702036
O O14 0.434755 0.489147 0.386884
O O15 0.051221 0.549981 0.645810
O O16 0.030424 0.865583 0.284069
O O17 0.500000 0.500000 0.500000
#
# Coordination Sequence:
#
# PCOD9094579 Si02
#       8
#     2   2   2   2   2   2   2   2
#     4  10  21  38  58  82 123 154 183 246 295 339
#     4  10  21  38  61  78 122 163 184 237 300 345
#     4  10  20  34  58  90 115 147 201 240 280 343
#     4   8  18  37  59  84 114 148 195 239 283 343
#     4   9  20  35  59  89 115 143 204 244 273 354
#     4   9  19  38  58  84 113 152 197 238 280 343
#     4  10  20  37  62  86 112 153 200 236 293 341
#     4  10  21  37  57  90 118 153 194 236 303 346
#
# _framework density 25.970914
#
# number of rings (size 3 to 8) (size 9 to 14) (size 15 to 20)
#    0.750    1.750    0.000    2.250    0.000    4.500 
#    0.000   11.875    0.000   21.000    0.000    0.000 
#    0.000    0.000    0.000    0.000    0.000    0.000 
#
# Total GULP energy -89386.805289 kJ/mol
# GULP energy per Si atom -5586.675331 kJ/mol
# Density = 2.591180 g / cm^3
# Si number density = 25.970914 Si / 1000 Ang^3
#
#
#
# Elastic Constant Matrix: (Units=GPa)
#
#
# Indices 1 2 3 4 5 6 
#
# 1 94.6873 36.0769 17.8460 8.6602 -3.1385 4.0554
# 2 36.0769 65.7690 9.2971 6.9612 -4.0455 -11.4194
# 3 17.8460 9.2971 92.3746 -22.0773 -16.5725 -6.5301
# 4 8.6602 6.9612 -22.0773 43.1690 -10.3035 -3.7750
# 5 -3.1385 -4.0455 -16.5725 -10.3035 30.0625 4.7858
# 6 4.0554 -11.4194 -6.5301 -3.7750 4.7858 30.9127
#
#
#
# Elastic Compliance Matrix: (Units=1/GPa)
#
#
# Indices 1 2 3 4 5 6 
#
# 1 0.015209 -0.008462 -0.004177 -0.004980 -0.002571 -0.006214
# 2 -0.008462 0.021523 -0.000109 -0.001006 0.000194 0.008885
# 3 -0.004177 -0.000109 0.017414 0.013213 0.013076 0.003775
# 4 -0.004980 -0.001006 0.013213 0.035825 0.018169 0.004635
# 5 -0.002571 0.000194 0.013076 0.018169 0.046752 -0.001848
# 6 -0.006214 0.008885 0.003775 0.004635 -0.001848 0.038096
#
#
# Mechanical properties :
#
#
# Convention : Reuss Voigt Hill
#
# Bulk Modulus (GPa) = 34.90468 42.14121 38.52295
# Shear Modulus (GPa) = 23.82482 33.46957 28.64720
#
# Velocity S-wave (km/s) = 3.03209 3.59379 3.32482
# Velocity P-wave (km/s) = 5.07220 5.78636 5.44101
#
# Compressibility (1/GPa) = 0.02864945
#
# Stress axis : x y z
#
# Youngs Moduli (GPa) = 65.75081 46.46192 57.42471
#
# Poissons Ratio (x) = 0.39317 0.23988
# Poissons Ratio (y) = 0.55639 0.00625
# Poissons Ratio (z) = 0.27466 0.00506
#
# Static dielectric constant tensor:
#      x y z
#    x 2.128570 0.037850 0.035810 
#    y 0.037850 2.111430 -0.037920 
#    z 0.035810 -0.037920 2.009630 
# 
# From -- ./inp_files/522950.got.cif
#   From: 2010.05.17/outbox.cif.g08.bks.cpg/sg2_262_cif.got.tgz:522950.got - 2010.06.03 11:33:40.
