data_PCOD9094926
_publ_section_title
;
Structure prediction by ZEFSAII (Michael W. Deem and Ramdas Pophale) SiO2 
 PCOD9094926
Probable space group: P -1
;
_chemical_formula_sum "Si O2"
_cell_formula_units_Z 16
_cell_length_a 9.627662
_cell_length_b 11.574319
_cell_length_c 8.755420
_cell_angle_alpha 73.506889
_cell_angle_beta 111.493603
_cell_angle_gamma 122.262947
_cell_volume 762.791270
_symmetry_space_group_name_H-M "P -1"
_symmetry_group_IT_number 2
_symmetry_cell_setting 'triclinic'
loop_
_space_group_symop_operation_xyz
x,y,z
-x,-y,-z
loop_
_atom_site_type_symbol
_atom_site_label
_atom_site_fract_x
_atom_site_fract_y
_atom_site_fract_z
Si Si1 0.477790 0.047626 0.222167
Si Si2 0.756514 0.078188 0.113290
Si Si3 0.483659 0.171139 0.470709
Si Si4 0.225050 0.583247 0.205843
Si Si5 0.332502 0.410078 0.863305
Si Si6 0.944708 0.669331 0.989017
Si Si7 0.198389 0.557727 0.535413
Si Si8 0.388247 0.224754 0.708423
O O1 0.648091 0.127810 0.158264
O O2 0.422507 0.128511 0.289224
O O3 0.521738 0.951886 0.384751
O O4 0.332396 0.963160 0.073025
O O5 0.946674 0.198928 0.122442
O O6 0.723995 0.932760 0.224509
O O7 0.683299 0.278877 0.490660
O O8 0.388255 0.230171 0.520094
O O9 0.174825 0.468259 0.101270
O O10 0.224148 0.513768 0.393201
O O11 0.408968 0.713132 0.204177
O O12 0.084819 0.634436 0.134157
O O13 0.276691 0.511144 0.720073
O O14 0.349669 0.322198 0.764708
O O15 0.500000 0.500000 0.000000
O O16 0.175591 0.312486 0.945265
O O17 0.000000 0.500000 0.500000
#
# Coordination Sequence:
#
# PCOD9094926 Si02
#       8
#     2   2   2   2   2   2   2   2
#     4   9  18  35  59  96 125 164 209 266 315 377
#     4  10  20  34  64  90 128 170 214 261 314 382
#     4   9  20  35  61  92 128 160 211 260 320 377
#     4  10  21  39  65  97 128 162 220 274 315 380
#     4  12  26  43  63  93 134 175 209 266 332 390
#     4  11  22  39  65  97 130 168 220 268 315 378
#     4  11  23  39  65  96 122 167 215 270 312 378
#     4  10  22  42  59  91 130 167 212 261 327 386
#
# _framework density 20.975594999999998
#
# number of rings (size 3 to 8) (size 9 to 14) (size 15 to 20)
#    0.000    1.750    2.500    3.000    3.500    2.500 
#    0.000    0.000    0.000    1.500    0.000    0.000 
#    0.000    0.000    0.000    0.000    0.000    0.000 
#
# Total GULP energy -89194.165058 kJ/mol
# GULP energy per Si atom -5574.635316 kJ/mol
# Density = 2.092785 g / cm^3
# Si number density = 20.975595 Si / 1000 Ang^3
#
#
#
# Elastic Constant Matrix: (Units=GPa)
#
#
# Indices 1 2 3 4 5 6 
#
# 1 111.1246 48.6783 32.4868 6.6202 -29.3049 0.3779
# 2 48.6783 73.1638 21.3197 1.1101 -21.3156 13.3795
# 3 32.4868 21.3197 81.7319 5.8890 -17.6796 0.0861
# 4 6.6202 1.1101 5.8890 22.9513 -4.8463 -16.2964
# 5 -29.3049 -21.3156 -17.6796 -4.8463 32.4981 5.6028
# 6 0.3779 13.3795 0.0861 -16.2964 5.6028 30.9734
#
#
#
# Elastic Compliance Matrix: (Units=1/GPa)
#
#
# Indices 1 2 3 4 5 6 
#
# 1 0.014781 -0.007361 -0.002411 -0.000941 0.006828 0.001276
# 2 -0.007361 0.025467 -0.000555 -0.009201 0.011464 -0.017824
# 3 -0.002411 -0.000555 0.014795 -0.003934 0.005410 -0.002820
# 4 -0.000941 -0.009201 -0.003934 0.076123 -0.005435 0.045032
# 5 0.006828 0.011464 0.005410 -0.005435 0.049487 -0.016862
# 6 0.001276 -0.017824 -0.002820 0.045032 -0.016862 0.066721
#
#
# Mechanical properties :
#
#
# Convention : Reuss Voigt Hill
#
# Bulk Modulus (GPa) = 29.08125 52.33220 40.70672
# Shear Modulus (GPa) = 17.88956 28.18691 23.03823
#
# Velocity S-wave (km/s) = 2.92357 3.66976 3.31771
# Velocity P-wave (km/s) = 5.02899 6.55434 5.84167
#
# Compressibility (1/GPa) = 0.03438642
#
# Stress axis : x y z
#
# Youngs Moduli (GPa) = 67.65505 39.26690 67.59005
#
# Poissons Ratio (x) = 0.28905 0.16299
# Poissons Ratio (y) = 0.49803 0.03754
# Poissons Ratio (z) = 0.16315 0.02181
#
# Static dielectric constant tensor:
#      x y z
#    x 1.794100 -0.058490 -0.034560 
#    y -0.058490 1.798480 0.003490 
#    z -0.034560 0.003490 1.815370 
# 
# From -- ./inp_files/186157.got.cif
#   From: 2010.05.17/outbox.cif.g08.bks.cpg/sg2_94_cif.got.tgz:186157.got - 2010.06.03 11:33:40.
