data_PCOD9094145
_publ_section_title
;
Structure prediction by ZEFSAII (Michael W. Deem and Ramdas Pophale) SiO2 
 PCOD9094145
Probable space group: P -1
;
_chemical_formula_sum "Si O2"
_cell_formula_units_Z 16
_cell_length_a 12.701861
_cell_length_b 5.943145
_cell_length_c 16.508589
_cell_angle_alpha 121.016620
_cell_angle_beta 55.264403
_cell_angle_gamma 117.435931
_cell_volume 852.619422
_symmetry_space_group_name_H-M "P -1"
_symmetry_group_IT_number 2
_symmetry_cell_setting 'triclinic'
loop_
_space_group_symop_operation_xyz
x,y,z
-x,-y,-z
loop_
_atom_site_type_symbol
_atom_site_label
_atom_site_fract_x
_atom_site_fract_y
_atom_site_fract_z
Si Si1 0.508117 0.710283 0.656882
Si Si2 0.519762 0.761615 0.156795
Si Si3 0.611495 0.862382 0.461456
Si Si4 0.914110 0.114468 0.391951
Si Si5 0.151693 0.890661 0.230640
Si Si6 0.091882 0.701295 0.405411
Si Si7 0.612551 0.259303 0.962212
Si Si8 0.679432 0.548065 0.686837
O O1 0.574481 0.829511 0.566105
O O2 0.407834 0.431141 0.625512
O O3 0.625495 0.635574 0.643498
O O4 0.444140 0.923377 0.773537
O O5 0.426591 0.747853 0.116751
O O6 0.443089 0.617558 0.241063
O O7 0.606664 0.551232 0.054887
O O8 0.500000 0.000000 0.500000
O O9 0.763004 0.018911 0.414882
O O10 0.937311 0.090874 0.475476
O O11 0.975890 0.428983 0.402199
O O12 0.008981 0.937512 0.279121
O O13 0.138937 0.778990 0.308122
O O14 0.234122 0.751240 0.107238
O O15 0.250360 0.184068 0.247272
O O16 0.210907 0.620465 0.388139
O O17 0.500000 0.000000 0.000000
#
# Coordination Sequence:
#
# PCOD9094145 Si02
#       8
#     2   2   2   2   2   2   2   2
#     4  11  22  36  59  83 114 154 196 246 283 343
#     4  11  20  33  56  84 121 150 188 235 292 342
#     4  11  24  40  58  82 114 155 201 244 288 341
#     4  10  22  34  54  81 113 154 192 236 287 350
#     4  11  20  34  55  82 120 150 188 234 290 354
#     4  10  20  34  54  83 118 154 184 231 293 354
#     4  11  21  34  56  88 121 154 189 238 293 346
#     4  11  18  34  56  83 118 151 187 232 287 347
#
# _framework density 18.765698
#
# number of rings (size 3 to 8) (size 9 to 14) (size 15 to 20)
#    0.000    1.250    3.750    3.375    0.000    4.000 
#    0.000    0.000    0.000    0.750    0.000    7.000 
#    0.000    0.000    0.000    0.000    0.000    0.000 
#
# Total GULP energy -89126.042354 kJ/mol
# GULP energy per Si atom -5570.377647 kJ/mol
# Density = 1.872299 g / cm^3
# Si number density = 18.765698 Si / 1000 Ang^3
#
#
#
# Elastic Constant Matrix: (Units=GPa)
#
#
# Indices 1 2 3 4 5 6 
#
# 1 99.4329 35.5581 37.9660 -0.2286 -19.3256 6.3481
# 2 35.5581 76.0022 38.5310 17.9434 -9.4679 10.8346
# 3 37.9660 38.5310 101.2543 26.6939 -24.3952 4.7553
# 4 -0.2286 17.9434 26.6939 34.7519 -2.6185 9.6705
# 5 -19.3256 -9.4679 -24.3952 -2.6185 32.3765 -7.4758
# 6 6.3481 10.8346 4.7553 9.6705 -7.4758 29.8689
#
#
#
# Elastic Compliance Matrix: (Units=1/GPa)
#
#
# Indices 1 2 3 4 5 6 
#
# 1 0.014541 -0.005630 -0.004036 0.006857 0.004182 -0.001579
# 2 -0.005630 0.019571 -0.004031 -0.006147 -0.002045 -0.003782
# 3 -0.004036 -0.004031 0.018774 -0.013317 0.010955 0.006385
# 4 0.006857 -0.006147 -0.013317 0.045475 -0.007209 -0.013635
# 5 0.004182 -0.002045 0.010955 -0.007209 0.043046 0.011217
# 6 -0.001579 -0.003782 0.006385 -0.013635 0.011217 0.041393
#
#
# Mechanical properties :
#
#
# Convention : Reuss Voigt Hill
#
# Bulk Modulus (GPa) = 39.22779 55.64442 47.43611
# Shear Modulus (GPa) = 22.86354 30.37508 26.61931
#
# Velocity S-wave (km/s) = 3.49430 4.02761 3.77040
# Velocity P-wave (km/s) = 6.10160 7.16557 6.65488
#
# Compressibility (1/GPa) = 0.02549213
#
# Stress axis : x y z
#
# Youngs Moduli (GPa) = 68.77294 51.09668 53.26617
#
# Poissons Ratio (x) = 0.28766 0.21497
# Poissons Ratio (y) = 0.38717 0.21472
# Poissons Ratio (z) = 0.27755 0.20597
#
# Static dielectric constant tensor:
#      x y z
#    x 1.681060 -0.061510 -0.075610 
#    y -0.061510 1.718340 0.058060 
#    z -0.075610 0.058060 1.766700 
# 
# From -- ./inp_files/82766.got.cif
#   From: 2010.05.17/outbox.cif.g08.bks.cpg/sg2_42_cif.got.tgz:82766.got - 2010.06.03 11:33:40.
