data_PCOD9094624
_publ_section_title
;
Structure prediction by ZEFSAII (Michael W. Deem and Ramdas Pophale) SiO2 
 PCOD9094624
Probable space group: P -1
;
_chemical_formula_sum "Si O2"
_cell_formula_units_Z 12
_cell_length_a 8.894675
_cell_length_b 11.362784
_cell_length_c 9.533035
_cell_angle_alpha 52.317157
_cell_angle_beta 104.728051
_cell_angle_gamma 120.392208
_cell_volume 655.587451
_symmetry_space_group_name_H-M "P -1"
_symmetry_group_IT_number 2
_symmetry_cell_setting 'triclinic'
loop_
_space_group_symop_operation_xyz
x,y,z
-x,-y,-z
loop_
_atom_site_type_symbol
_atom_site_label
_atom_site_fract_x
_atom_site_fract_y
_atom_site_fract_z
Si Si1 0.008667 0.344652 0.195476
Si Si2 0.325438 0.822289 0.925771
Si Si3 0.330060 0.828436 0.254078
Si Si4 0.992643 0.337129 0.535653
Si Si5 0.404215 0.512029 0.107051
Si Si6 0.368507 0.502883 0.578573
O O1 0.839480 0.194166 0.193703
O O2 0.985674 0.349427 0.355670
O O3 0.203642 0.368433 0.191290
O O4 0.000000 0.500000 0.000000
O O5 0.494029 0.999954 0.819841
O O6 0.279082 0.795919 0.100515
O O7 0.381633 0.680542 0.995058
O O8 0.171865 0.817528 0.321584
O O9 0.362874 0.677377 0.430030
O O10 0.000000 0.500000 0.500000
O O11 0.178516 0.351896 0.612599
O O12 0.542571 0.510245 0.250813
O O13 0.500000 0.500000 0.000000
O O14 0.500000 0.500000 0.500000
#
# Coordination Sequence:
#
# PCOD9094624 Si02
#       6
#     2   2   2   2   2   2
#     4  10  20  36  56  83 115 149 190 230 276 341
#     4  10  22  41  57  84 118 149 190 231 283 338
#     4  10  22  39  62  82 112 156 188 231 283 338
#     4  10  20  34  59  84 109 153 192 225 278 342
#     4  11  23  36  59  86 114 148 187 237 283 328
#     4  11  19  38  59  84 113 146 192 234 277 332
#
# _framework density 18.304195
#
# number of rings (size 3 to 8) (size 9 to 14) (size 15 to 20)
#    0.000    1.667    3.333    3.000   11.667    0.667 
#    0.000    3.333    0.000    0.000    0.000    0.000 
#    0.000    0.000    0.000    0.000    0.000    0.000 
#
# Total GULP energy -66804.080917 kJ/mol
# GULP energy per Si atom -5567.006743 kJ/mol
# Density = 1.826253 g / cm^3
# Si number density = 18.304195 Si / 1000 Ang^3
#
#
#
# Elastic Constant Matrix: (Units=GPa)
#
#
# Indices 1 2 3 4 5 6 
#
# 1 624.1768 645.5466 1344.1417 126.7863 -215.9798 494.0332
# 2 645.5466 806.4654 1585.4953 150.0431 -238.8795 583.6897
# 3 1344.1417 1585.4953 3424.3870 314.7600 -515.4865 1219.3100
# 4 126.7863 150.0431 314.7600 65.8845 -42.5796 102.2523
# 5 -215.9798 -238.8795 -515.4865 -42.5796 115.0603 -174.9572
# 6 494.0332 583.6897 1219.3100 102.2523 -174.9572 470.0873
#
#
#
# Elastic Compliance Matrix: (Units=1/GPa)
#
#
# Indices 1 2 3 4 5 6 
#
# 1 0.013093 -0.002056 -0.000252 -0.003711 0.006880 -0.007186
# 2 -0.002056 0.017516 -0.002807 -0.004922 0.002355 -0.010360
# 3 -0.000252 -0.002807 0.007574 -0.006233 0.007412 -0.011782
# 4 -0.003711 -0.004922 -0.006233 0.033281 -0.009203 0.015516
# 5 0.006880 0.002355 0.007412 -0.009203 0.033786 -0.014803
# 6 -0.007186 -0.010360 -0.011782 0.015516 -0.014803 0.044218
#
#
# Mechanical properties :
#
#
# Convention : Reuss Voigt Hill
#
# Bulk Modulus (GPa) = 35.77436 1333.93293 684.85364
# Shear Modulus (GPa) = 29.58301 215.52947 122.55624
#
# Velocity S-wave (km/s) = 4.02455 10.86298 8.19150
# Velocity P-wave (km/s) = 6.41738 29.79395 21.55066
#
# Compressibility (1/GPa) = 0.02795298
#
# Stress axis : x y z
#
# Youngs Moduli (GPa) = 76.37634 57.09061 132.02768
#
# Poissons Ratio (x) = 0.11740 0.03325
# Poissons Ratio (y) = 0.15706 0.37059
# Poissons Ratio (z) = 0.01924 0.16025
#
# Static dielectric constant tensor:
#      x y z
#    x 1.593970 0.053510 0.029610 
#    y 0.053510 1.667050 -0.032670 
#    z 0.029610 -0.032670 1.574910 
# 
# From -- ./inp_files/144374.got.cif
#   From: 2010.05.17/outbox.cif.g08.bks.cpg/sg2_73_cif.got.tgz:144374.got - 2010.06.03 11:33:40.
