data_PCOD9094202
_publ_section_title
;
Structure prediction by ZEFSAII (Michael W. Deem and Ramdas Pophale) SiO2 
 PCOD9094202
Probable space group: P -1
;
_chemical_formula_sum "Si O2"
_cell_formula_units_Z 14
_cell_length_a 16.336428
_cell_length_b 19.708746
_cell_length_c 16.461014
_cell_angle_alpha 159.316326
_cell_angle_beta 30.563191
_cell_angle_gamma 160.006186
_cell_volume 632.846883
_symmetry_space_group_name_H-M "P -1"
_symmetry_group_IT_number 2
_symmetry_cell_setting 'triclinic'
loop_
_space_group_symop_operation_xyz
x,y,z
-x,-y,-z
loop_
_atom_site_type_symbol
_atom_site_label
_atom_site_fract_x
_atom_site_fract_y
_atom_site_fract_z
Si Si1 0.775133 0.797745 0.902173
Si Si2 0.354682 0.938260 0.632889
Si Si3 0.355585 0.637187 0.794816
Si Si4 0.816987 0.011121 0.927901
Si Si5 0.791230 0.384945 0.447379
Si Si6 0.045852 0.051486 0.631762
Si Si7 0.699464 0.969213 0.722816
O O1 0.836847 0.936047 0.915611
O O2 0.705280 0.515108 0.639014
O O3 0.594196 0.794218 0.090119
O O4 0.000000 0.000000 0.000000
O O5 0.377568 0.837535 0.583447
O O6 0.069303 0.660199 0.546158
O O7 0.500000 0.000000 0.500000
O O8 0.566790 0.749663 0.800356
O O9 0.135958 0.293792 0.600075
O O10 0.469293 0.744541 0.727197
O O11 0.289618 0.799025 0.053689
O O12 0.033045 0.125614 0.815501
O O13 0.807724 0.232046 0.195903
O O14 0.927908 0.113255 0.746001
O O15 0.279084 0.170519 0.522563
#
# Coordination Sequence:
#
# PCOD9094202 Si02
#       7
#     2   2   2   2   2   2   2
#     4   9  19  37  58  76 107 149 181 221 280 326
#     4   9  18  36  59  81 102 136 183 226 276 331
#     4  10  20  36  56  79 114 147 181 227 274 328
#     4  10  20  34  55  83 109 145 188 226 272 325
#     4   9  19  36  54  76 111 140 173 229 275 321
#     4  10  20  36  56  80 113 145 183 227 270 329
#     4   9  19  35  56  79 105 146 185 221 279 326
#
# _framework density 22.122254000000002
#
# number of rings (size 3 to 8) (size 9 to 14) (size 15 to 20)
#    0.000    2.571    0.000    3.000    0.000    5.143 
#    0.000   18.571    0.000    0.000    0.000    0.000 
#    0.000    0.000    0.000    0.000    0.000    0.000 
#
# Total GULP energy -78142.096738 kJ/mol
# GULP energy per Si atom -5581.578338 kJ/mol
# Density = 2.207190 g / cm^3
# Si number density = 22.122254 Si / 1000 Ang^3
#
#
#
# Elastic Constant Matrix: (Units=GPa)
#
#
# Indices 1 2 3 4 5 6 
#
# 1 102.4242 37.8511 43.9791 -13.1248 -5.9219 -8.5485
# 2 37.8511 84.8248 41.1442 -32.1744 -0.0626 -22.5721
# 3 43.9791 41.1442 145.4719 -37.7350 -25.6381 -25.8295
# 4 -13.1248 -32.1744 -37.7350 49.7947 -4.0320 19.5233
# 5 -5.9219 -0.0626 -25.6381 -4.0320 35.9843 -7.7985
# 6 -8.5485 -22.5721 -25.8295 19.5233 -7.7985 27.4051
#
#
#
# Elastic Compliance Matrix: (Units=1/GPa)
#
#
# Indices 1 2 3 4 5 6 
#
# 1 0.012733 -0.005423 -0.003506 -0.001773 -0.001237 -0.002889
# 2 -0.005423 0.019666 0.000265 0.007800 0.002343 0.009866
# 3 -0.003506 0.000265 0.013551 0.006217 0.012142 0.010923
# 4 -0.001773 0.007800 0.006217 0.034128 0.005594 -0.010990
# 5 -0.001237 0.002343 0.012142 0.005594 0.041371 0.020776
# 6 -0.002889 0.009866 0.010923 -0.010990 0.020776 0.067752
#
#
# Mechanical properties :
#
#
# Convention : Reuss Voigt Hill
#
# Bulk Modulus (GPa) = 34.93769 64.29664 49.61717
# Shear Modulus (GPa) = 23.14057 36.61991 29.88024
#
# Velocity S-wave (km/s) = 3.23775 4.07300 3.67916
# Velocity P-wave (km/s) = 5.45936 7.15866 6.36597
#
# Compressibility (1/GPa) = 0.02862238
#
# Stress axis : x y z
#
# Youngs Moduli (GPa) = 78.53438 50.84916 73.79330
#
# Poissons Ratio (x) = 0.27576 0.25875
# Poissons Ratio (y) = 0.42590 -0.01959
# Poissons Ratio (z) = 0.27537 -0.01350
#
# Static dielectric constant tensor:
#      x y z
#    x 1.839190 -0.006710 0.023340 
#    y -0.006710 1.812780 -0.004370 
#    z 0.023340 -0.004370 1.836740 
# 
# From -- ./inp_files/314942.got.cif
#   From: 2010.05.17/outbox.cif.g08.bks.cpg/sg2_158_cif.got.tgz:314942.got - 2010.06.03 11:33:40.
