data_PCOD9094133
_publ_section_title
;
Structure prediction by ZEFSAII (Michael W. Deem and Ramdas Pophale) SiO2 
 PCOD9094133
Probable space group: P -1
;
_chemical_formula_sum "Si O2"
_cell_formula_units_Z 16
_cell_length_a 24.219425
_cell_length_b 9.155161
_cell_length_c 14.692281
_cell_angle_alpha 130.004134
_cell_angle_beta 161.725156
_cell_angle_gamma 47.186388
_cell_volume 749.335570
_symmetry_space_group_name_H-M "P -1"
_symmetry_group_IT_number 2
_symmetry_cell_setting 'triclinic'
loop_
_space_group_symop_operation_xyz
x,y,z
-x,-y,-z
loop_
_atom_site_type_symbol
_atom_site_label
_atom_site_fract_x
_atom_site_fract_y
_atom_site_fract_z
Si Si1 0.587609 0.726436 0.949254
Si Si2 0.238538 0.881912 0.876310
Si Si3 0.285652 0.112147 0.209544
Si Si4 0.110279 0.136151 0.601035
Si Si5 0.728912 0.450108 0.588701
Si Si6 0.603709 0.607481 0.273892
Si Si7 0.979466 0.023175 0.796495
Si Si8 0.288471 0.155939 0.618778
O O1 0.467544 0.572994 0.694648
O O2 0.441543 0.939926 0.780441
O O3 0.764526 0.716839 0.159981
O O4 0.656017 0.731041 0.162312
O O5 0.095348 0.768989 0.644130
O O6 0.195257 0.969142 0.742698
O O7 0.446471 0.749687 0.147441
O O8 0.212120 0.062866 0.977533
O O9 0.242079 0.346843 0.249261
O O10 0.500000 0.000000 0.500000
O O11 0.185729 0.016363 0.092166
O O12 0.103749 0.028006 0.451013
O O13 0.730430 0.460943 0.485150
O O14 0.881018 0.245104 0.766266
O O15 0.695884 0.736283 0.406901
O O16 0.500000 0.500000 0.000000
O O17 0.912441 0.875046 0.697275
#
# Coordination Sequence:
#
# PCOD9094133 Si02
#       8
#     2   2   2   2   2   2   2   2
#     4   9  16  32  54  83 110 143 181 229 282 328
#     4  10  20  34  54  82 110 149 183 225 275 333
#     4  11  22  39  56  79 116 156 184 219 277 340
#     4   9  17  34  60  81 109 140 185 231 280 323
#     4  11  21  34  57  85 113 145 188 228 273 333
#     4  12  20  32  55  87 113 139 184 237 281 317
#     4   9  20  38  62  84 105 146 193 229 273 329
#     4   9  17  31  55  83 111 139 180 237 282 320
#
# _framework density 21.352249
#
# number of rings (size 3 to 8) (size 9 to 14) (size 15 to 20)
#    0.000    2.000    3.750    1.875    0.000    0.000 
#    0.000    3.125    0.000    0.000    0.000    0.000 
#    0.000    0.000    0.000    0.000    0.000    0.000 
#
# Total GULP energy -89297.336244 kJ/mol
# GULP energy per Si atom -5581.083515 kJ/mol
# Density = 2.130365 g / cm^3
# Si number density = 21.352249 Si / 1000 Ang^3
#
#
#
# Elastic Constant Matrix: (Units=GPa)
#
#
# Indices 1 2 3 4 5 6 
#
# 1 89.8148 21.0891 34.4977 16.1921 38.3365 14.2546
# 2 21.0891 35.4920 15.4973 17.5095 10.2371 3.9814
# 3 34.4977 15.4973 86.1482 19.7013 45.3314 5.7845
# 4 16.1921 17.5095 19.7013 24.9532 5.5296 1.5863
# 5 38.3365 10.2371 45.3314 5.5296 47.5602 11.3257
# 6 14.2546 3.9814 5.7845 1.5863 11.3257 25.2813
#
#
#
# Elastic Compliance Matrix: (Units=1/GPa)
#
#
# Indices 1 2 3 4 5 6 
#
# 1 0.020153 -0.003502 0.004392 -0.009948 -0.017748 -0.003241
# 2 -0.003502 0.046369 0.004249 -0.031947 -0.007243 -0.001051
# 3 0.004392 0.004249 0.031634 -0.023817 -0.033270 0.006015
# 4 -0.009948 -0.031947 -0.023817 0.081541 0.028548 -0.001816
# 5 -0.017748 -0.007243 -0.033270 0.028548 0.068555 -0.013743
# 6 -0.003241 -0.001051 0.006015 -0.001816 -0.013743 0.046442
#
#
# Mechanical properties :
#
#
# Convention : Reuss Voigt Hill
#
# Bulk Modulus (GPa) = 9.22225 39.29148 24.25686
# Shear Modulus (GPa) = 15.59764 28.91700 22.25732
#
# Velocity S-wave (km/s) = 2.70569 3.68405 3.23211
# Velocity P-wave (km/s) = 3.75360 6.04465 5.03127
#
# Compressibility (1/GPa) = 0.10843346
#
# Stress axis : x y z
#
# Youngs Moduli (GPa) = 49.62040 21.56633 31.61118
#
# Poissons Ratio (x) = 0.07552 -0.13882
# Poissons Ratio (y) = 0.17375 -0.13431
# Poissons Ratio (z) = -0.21791 -0.09163
#
# Static dielectric constant tensor:
#      x y z
#    x 1.784550 -0.017530 0.020460 
#    y -0.017530 1.757940 0.001920 
#    z 0.020460 0.001920 1.847840 
# 
# From -- ./inp_files/278572.got.cif
#   From: 2010.05.17/outbox.cif.g08.bks.cpg/sg2_140_cif.got.tgz:278572.got - 2010.06.03 11:33:40.
