data_PCOD9094393
_publ_section_title
;
Structure prediction by ZEFSAII (Michael W. Deem and Ramdas Pophale) SiO2 
 PCOD9094393
Probable space group: P -1
;
_chemical_formula_sum "Si O2"
_cell_formula_units_Z 14
_cell_length_a 24.839037
_cell_length_b 11.165444
_cell_length_c 5.159702
_cell_angle_alpha 117.910332
_cell_angle_beta 67.785395
_cell_angle_gamma 151.415498
_cell_volume 603.181477
_symmetry_space_group_name_H-M "P -1"
_symmetry_group_IT_number 2
_symmetry_cell_setting 'triclinic'
loop_
_space_group_symop_operation_xyz
x,y,z
-x,-y,-z
loop_
_atom_site_type_symbol
_atom_site_label
_atom_site_fract_x
_atom_site_fract_y
_atom_site_fract_z
Si Si1 0.719086 0.152469 0.246646
Si Si2 0.181820 0.784253 0.395320
Si Si3 0.033617 0.685869 0.327126
Si Si4 0.820229 0.588238 0.862232
Si Si5 0.979035 0.087204 0.803788
Si Si6 0.611766 0.316869 0.142468
Si Si7 0.473102 0.783685 0.305061
O O1 0.733704 0.072549 0.373205
O O2 0.937287 0.497603 0.534120
O O3 0.779098 0.405433 0.523284
O O4 0.589579 0.936464 0.223973
O O5 0.149152 0.868796 0.438636
O O6 0.225488 0.790430 0.064984
O O7 0.000000 0.500000 0.000000
O O8 0.035475 0.819229 0.273413
O O9 0.869544 0.826842 0.903009
O O10 0.715223 0.420463 0.061354
O O11 0.917087 0.712236 0.981510
O O12 0.000000 0.000000 0.500000
O O13 0.595812 0.381098 0.478101
O O14 0.607709 0.395174 0.970380
O O15 0.500000 0.000000 0.000000
O O16 0.500000 0.000000 0.500000
#
# Coordination Sequence:
#
# PCOD9094393 Si02
#       7
#     2   2   2   2   2   2   2
#     4  12  22  39  65 100 137 171 220 287 342 395
#     4  11  25  37  67  94 126 178 224 287 321 393
#     4  11  23  47  66  90 134 177 242 275 328 396
#     4  11  25  40  65  95 149 174 224 268 352 409
#     4  11  27  46  64 101 137 187 218 279 342 408
#     4  10  20  35  59  92 131 175 211 272 336 400
#     4  10  20  34  56  95 133 163 216 273 344 388
#
# _framework density 23.210263000000001
#
# number of rings (size 3 to 8) (size 9 to 14) (size 15 to 20)
#    0.000    1.143    4.286    2.571    6.000    3.429 
#    0.000    0.000    0.000    0.000    0.000    6.000 
#    0.000    0.000    0.000    0.000    0.000    0.000 
#
# Total GULP energy -78195.056387 kJ/mol
# GULP energy per Si atom -5585.361171 kJ/mol
# Density = 2.315743 g / cm^3
# Si number density = 23.210263 Si / 1000 Ang^3
#
#
#
# Elastic Constant Matrix: (Units=GPa)
#
#
# Indices 1 2 3 4 5 6 
#
# 1 173.7961 35.1321 41.6160 -11.6728 18.4572 8.8744
# 2 35.1321 58.9095 20.9671 -21.3277 -4.1392 19.4437
# 3 41.6160 20.9671 181.5072 -31.4692 15.4289 10.1158
# 4 -11.6728 -21.3277 -31.4692 32.3496 7.9549 -1.5385
# 5 18.4572 -4.1392 15.4289 7.9549 44.0472 -7.1210
# 6 8.8744 19.4437 10.1158 -1.5385 -7.1210 35.7865
#
#
#
# Elastic Compliance Matrix: (Units=1/GPa)
#
#
# Indices 1 2 3 4 5 6 
#
# 1 0.007139 -0.004418 -0.000997 -0.000578 -0.002903 0.000310
# 2 -0.004418 0.031757 0.002139 0.021234 -0.002388 -0.016326
# 3 -0.000997 0.002139 0.007696 0.009439 -0.004355 -0.003551
# 4 -0.000578 0.021234 0.009439 0.056547 -0.013598 -0.014337
# 5 -0.002903 -0.002388 -0.004355 -0.013598 0.029041 0.008443
# 6 0.000310 -0.016326 -0.003551 -0.014337 0.008443 0.038804
#
#
# Mechanical properties :
#
#
# Convention : Reuss Voigt Hill
#
# Bulk Modulus (GPa) = 24.97566 67.73814 46.35690
# Shear Modulus (GPa) = 26.19377 43.53649 34.86513
#
# Velocity S-wave (km/s) = 3.36302 4.33568 3.87995
# Velocity P-wave (km/s) = 5.08565 7.36968 6.33151
#
# Compressibility (1/GPa) = 0.04003897
#
# Stress axis : x y z
#
# Youngs Moduli (GPa) = 140.06603 31.48866 129.94500
#
# Poissons Ratio (x) = 0.13913 0.12960
# Poissons Ratio (y) = 0.61887 -0.27795
# Poissons Ratio (z) = 0.13969 -0.06735
#
# Static dielectric constant tensor:
#      x y z
#    x 1.907510 -0.005030 0.052620 
#    y -0.005030 1.907470 -0.009870 
#    z 0.052620 -0.009870 1.979260 
# 
# From -- ./inp_files/97134.got.cif
#   From: 2010.05.17/outbox.cif.g08.bks.cpg/sg2_49_cif.got.tgz:97134.got - 2010.06.03 11:33:40.
