data_PCOD9094812
_publ_section_title
;
Structure prediction by ZEFSAII (Michael W. Deem and Ramdas Pophale) SiO2 
 PCOD9094812
Probable space group: P -1
;
_chemical_formula_sum "Si O2"
_cell_formula_units_Z 14
_cell_length_a 7.474840
_cell_length_b 8.538939
_cell_length_c 15.521297
_cell_angle_alpha 112.887347
_cell_angle_beta 126.610250
_cell_angle_gamma 106.959107
_cell_volume 517.334925
_symmetry_space_group_name_H-M "P -1"
_symmetry_group_IT_number 2
_symmetry_cell_setting 'triclinic'
loop_
_space_group_symop_operation_xyz
x,y,z
-x,-y,-z
loop_
_atom_site_type_symbol
_atom_site_label
_atom_site_fract_x
_atom_site_fract_y
_atom_site_fract_z
Si Si1 0.701395 0.851060 0.039550
Si Si2 0.757731 0.517813 0.975733
Si Si3 0.445965 0.453606 0.613673
Si Si4 0.550238 0.061171 0.762600
Si Si5 0.306628 0.664277 0.739487
Si Si6 0.372588 0.177912 0.390351
Si Si7 0.920191 0.385293 0.151571
O O1 0.573636 0.589729 0.955888
O O2 0.652214 0.853869 0.925399
O O3 0.459022 0.848505 0.015267
O O4 0.028335 0.025112 0.217811
O O5 0.935436 0.536116 0.114725
O O6 0.072461 0.747865 0.063168
O O7 0.531757 0.254688 0.811028
O O8 0.277217 0.463855 0.643676
O O9 0.349800 0.223962 0.492304
O O10 0.426475 0.580132 0.557455
O O11 0.807101 0.605175 0.776147
O O12 0.329604 0.826415 0.710329
O O13 0.524085 0.952966 0.639441
O O14 0.076884 0.561292 0.734116
#
# Coordination Sequence:
#
# PCOD9094812 Si02
#       7
#     2   2   2   2   2   2   2
#     4   9  21  39  62  89 125 155 210 258 295 363
#     4  10  20  34  61  89 130 158 198 257 320 346
#     4  10  21  39  63  87 129 166 197 254 320 358
#     4   9  20  36  59  94 119 164 206 250 305 375
#     4   9  22  39  65  92 123 155 217 257 298 362
#     4   9  20  38  60  90 126 162 203 253 309 371
#     4  10  23  37  64  96 121 160 209 260 299 375
#
# _framework density 27.061772000000001
#
# number of rings (size 3 to 8) (size 9 to 14) (size 15 to 20)
#    0.857    1.714    0.000    0.429    8.000    5.143 
#    0.000   12.143    0.000    4.286    0.000    0.000 
#    0.000    0.000    0.000    0.000    0.000    0.000 
#
# Total GULP energy -77969.167484 kJ/mol
# GULP energy per Si atom -5569.226249 kJ/mol
# Density = 2.700018 g / cm^3
# Si number density = 27.061772 Si / 1000 Ang^3
#
#
#
# Elastic Constant Matrix: (Units=GPa)
#
#
# Indices 1 2 3 4 5 6 
#
# 1 97.7955 47.9137 34.9236 5.9434 -15.9494 -15.5451
# 2 47.9137 122.5113 18.9069 5.1534 -19.2024 -28.7156
# 3 34.9236 18.9069 115.6046 10.6846 -22.0339 -15.5316
# 4 5.9434 5.1534 10.6846 30.6354 -17.1065 -8.2365
# 5 -15.9494 -19.2024 -22.0339 -17.1065 44.9853 6.5235
# 6 -15.5451 -28.7156 -15.5316 -8.2365 6.5235 41.4247
#
#
#
# Elastic Compliance Matrix: (Units=1/GPa)
#
#
# Indices 1 2 3 4 5 6 
#
# 1 0.013911 -0.004588 -0.003105 0.000120 0.001400 0.000679
# 2 -0.004588 0.011907 0.000845 0.002567 0.003867 0.006750
# 3 -0.003105 0.000845 0.010593 -0.000306 0.003939 0.002711
# 4 0.000120 0.002567 -0.000306 0.043557 0.016423 0.007784
# 5 0.001400 0.003867 0.003939 0.016423 0.032132 0.002888
# 6 0.000679 0.006750 0.002711 0.007784 0.002888 0.031184
#
#
# Mechanical properties :
#
#
# Convention : Reuss Voigt Hill
#
# Bulk Modulus (GPa) = 44.02177 59.93330 51.97754
# Shear Modulus (GPa) = 30.38581 39.02025 34.70303
#
# Velocity S-wave (km/s) = 3.35450 3.80135 3.58490
# Velocity P-wave (km/s) = 5.59518 6.43909 6.03191
#
# Compressibility (1/GPa) = 0.02271603
#
# Stress axis : x y z
#
# Youngs Moduli (GPa) = 71.88561 83.98647 94.39949
#
# Poissons Ratio (x) = 0.38530 0.29312
# Poissons Ratio (y) = 0.32979 -0.07980
# Poissons Ratio (z) = 0.22321 -0.07100
#
# Static dielectric constant tensor:
#      x y z
#    x 2.267640 0.032820 -0.087220 
#    y 0.032820 2.195850 0.042080 
#    z -0.087220 0.042080 2.227910 
# 
# From -- ./inp_files/495511.got.cif
#   From: 2010.05.17/outbox.cif.g08.bks.cpg/sg2_248_cif.got.tgz:495511.got - 2010.06.03 11:33:40.
