data_PCOD9094452
_publ_section_title
;
Structure prediction by ZEFSAII (Michael W. Deem and Ramdas Pophale) SiO2 
 PCOD9094452
Probable space group: P -1
;
_chemical_formula_sum "Si O2"
_cell_formula_units_Z 16
_cell_length_a 9.639977
_cell_length_b 14.166685
_cell_length_c 8.706479
_cell_angle_alpha 130.623860
_cell_angle_beta 79.730188
_cell_angle_gamma 70.576636
_cell_volume 709.938178
_symmetry_space_group_name_H-M "P -1"
_symmetry_group_IT_number 2
_symmetry_cell_setting 'triclinic'
loop_
_space_group_symop_operation_xyz
x,y,z
-x,-y,-z
loop_
_atom_site_type_symbol
_atom_site_label
_atom_site_fract_x
_atom_site_fract_y
_atom_site_fract_z
Si Si1 0.602976 0.512202 0.699471
Si Si2 0.555828 0.811216 0.886903
Si Si3 0.658689 0.931967 0.275848
Si Si4 0.011997 0.595752 0.911557
Si Si5 0.077203 0.059221 0.926903
Si Si6 0.099291 0.612122 0.253733
Si Si7 0.208212 0.129066 0.245446
Si Si8 0.752623 0.340462 0.188574
O O1 0.599793 0.652191 0.773086
O O2 0.723574 0.441536 0.751127
O O3 0.669688 0.378918 0.415818
O O4 0.395821 0.594067 0.840683
O O5 0.676472 0.805694 0.722034
O O6 0.589980 0.890838 0.100841
O O7 0.350154 0.941792 0.025089
O O8 0.739581 0.022118 0.292793
O O9 0.831302 0.769708 0.132973
O O10 0.500000 0.000000 0.500000
O O11 0.102713 0.568701 0.030797
O O12 0.153367 0.577033 0.749936
O O13 0.961142 0.484610 0.758214
O O14 0.097823 0.167240 0.151525
O O15 0.915229 0.161173 0.950156
O O16 0.000000 0.000000 0.000000
O O17 0.936205 0.790892 0.507718
#
# Coordination Sequence:
#
# PCOD9094452 Si02
#       8
#     2   2   2   2   2   2   2   2
#     4  11  21  37  61  87 116 155 199 248 295 361
#     4  10  20  34  57  86 116 153 200 249 293 352
#     4  10  20  37  59  86 121 159 201 250 303 359
#     4  10  22  38  59  87 120 157 198 249 303 358
#     4  10  20  37  59  86 121 159 201 250 303 359
#     4  11  21  37  61  87 116 155 199 248 295 361
#     4  10  20  34  57  86 116 153 200 249 293 352
#     4  10  22  38  59  87 120 157 198 249 303 358
#
# _framework density 22.537174
#
# number of rings (size 3 to 8) (size 9 to 14) (size 15 to 20)
#    0.000    1.750    2.500    2.250    0.000    1.500 
#    0.000    6.250    0.000    4.500    0.000    0.000 
#    0.000    0.000    0.000    0.000    0.000    0.000 
#
# Total GULP energy -89092.531421 kJ/mol
# GULP energy per Si atom -5568.283214 kJ/mol
# Density = 2.248588 g / cm^3
# Si number density = 22.537174 Si / 1000 Ang^3
#
#
#
# Elastic Constant Matrix: (Units=GPa)
#
#
# Indices 1 2 3 4 5 6 
#
# 1 123.6646 30.7864 26.2522 -1.8601 -27.9389 -18.7535
# 2 30.7864 52.1921 7.4794 8.5377 -13.0808 -14.1517
# 3 26.2522 7.4794 54.6675 2.6992 -21.7432 -4.8260
# 4 -1.8601 8.5377 2.6992 20.7275 -3.2522 -2.4763
# 5 -27.9389 -13.0808 -21.7432 -3.2522 31.7722 -5.6977
# 6 -18.7535 -14.1517 -4.8260 -2.4763 -5.6977 52.7215
#
#
#
# Elastic Compliance Matrix: (Units=1/GPa)
#
#
# Indices 1 2 3 4 5 6 
#
# 1 0.012329 -0.004386 -0.001486 0.005084 0.009313 0.004317
# 2 -0.004386 0.027099 0.003357 -0.009664 0.009796 0.006626
# 3 -0.001486 0.003357 0.026592 -0.001428 0.018986 0.004791
# 4 0.005084 -0.009664 -0.001428 0.053984 0.005436 0.002207
# 5 0.009313 0.009796 0.018986 0.005436 0.059829 0.014401
# 6 0.004317 0.006626 0.004791 0.002207 0.014401 0.024380
#
#
# Mechanical properties :
#
#
# Convention : Reuss Voigt Hill
#
# Bulk Modulus (GPa) = 16.39641 39.95114 28.17377
# Shear Modulus (GPa) = 21.77944 32.11132 26.94538
#
# Velocity S-wave (km/s) = 3.11204 3.77877 3.46149
# Velocity P-wave (km/s) = 4.49490 6.06663 5.33892
#
# Compressibility (1/GPa) = 0.06098896
#
# Stress axis : x y z
#
# Youngs Moduli (GPa) = 81.10847 36.90190 37.60560
#
# Poissons Ratio (x) = 0.16187 0.05589
# Poissons Ratio (y) = 0.35577 -0.12625
# Poissons Ratio (z) = 0.12054 -0.12388
#
# Static dielectric constant tensor:
#      x y z
#    x 1.881360 0.042730 -0.052510 
#    y 0.042730 1.933210 0.015810 
#    z -0.052510 0.015810 1.856450 
# 
# From -- ./inp_files/208960.got.cif
#   From: 2010.05.17/outbox.cif.g08.bks.cpg/sg2_105_cif.got.tgz:208960.got - 2010.06.03 11:33:40.
