data_PCOD9094877
_publ_section_title
;
Structure prediction by ZEFSAII (Michael W. Deem and Ramdas Pophale) SiO2 
 PCOD9094877
Probable space group: P -1
;
_chemical_formula_sum "Si O2"
_cell_formula_units_Z 16
_cell_length_a 8.772848
_cell_length_b 11.483193
_cell_length_c 13.420675
_cell_angle_alpha 61.096236
_cell_angle_beta 47.148572
_cell_angle_gamma 46.545457
_cell_volume 719.209172
_symmetry_space_group_name_H-M "P -1"
_symmetry_group_IT_number 2
_symmetry_cell_setting 'triclinic'
loop_
_space_group_symop_operation_xyz
x,y,z
-x,-y,-z
loop_
_atom_site_type_symbol
_atom_site_label
_atom_site_fract_x
_atom_site_fract_y
_atom_site_fract_z
Si Si1 0.446733 0.415331 0.416286
Si Si2 0.123407 0.362898 0.921129
Si Si3 0.809009 0.718762 0.285450
Si Si4 0.638468 0.085319 0.878934
Si Si5 0.297639 0.720616 0.074250
Si Si6 0.330625 0.642434 0.873858
Si Si7 0.293730 0.984655 0.330845
Si Si8 0.163700 0.724674 0.531395
O O1 0.307725 0.334302 0.556307
O O2 0.537918 0.362255 0.285029
O O3 0.258072 0.605127 0.445460
O O4 0.686274 0.371500 0.396331
O O5 0.964765 0.283738 0.038458
O O6 0.102035 0.404114 0.796919
O O7 0.415885 0.253164 0.860085
O O8 0.000000 0.500000 0.000000
O O9 0.587942 0.889860 0.265423
O O10 0.048991 0.721060 0.203586
O O11 0.731482 0.134426 0.910431
O O12 0.803805 0.986999 0.751753
O O13 0.500000 0.000000 0.000000
O O14 0.530391 0.546084 0.079790
O O15 0.343068 0.725693 0.934031
O O16 0.237561 0.853782 0.442167
O O17 0.135131 0.158986 0.378066
#
# Coordination Sequence:
#
# PCOD9094877 Si02
#       8
#     2   2   2   2   2   2   2   2
#     4  10  20  34  63 100 117 155 213 263 292 354
#     4  10  20  36  62  90 120 160 205 254 307 358
#     4   9  21  38  61  88 126 162 203 245 315 371
#     4  11  23  37  65  93 115 157 214 255 295 366
#     4  10  21  42  61  88 131 165 195 252 320 373
#     4  10  21  37  63  93 126 161 200 255 314 357
#     4   9  19  39  57  89 122 168 196 243 314 364
#     4   9  19  34  63  88 127 155 204 259 296 354
#
# _framework density 22.246656999999999
#
# number of rings (size 3 to 8) (size 9 to 14) (size 15 to 20)
#    0.000    2.250    1.250    0.750    7.000    0.500 
#    0.000    5.625    2.750    7.500    0.000    0.000 
#    0.000    0.000    0.000    0.000    0.000    0.000 
#
# Total GULP energy -89178.709776 kJ/mol
# GULP energy per Si atom -5573.669361 kJ/mol
# Density = 2.219602 g / cm^3
# Si number density = 22.246657 Si / 1000 Ang^3
#
#
#
# Elastic Constant Matrix: (Units=GPa)
#
#
# Indices 1 2 3 4 5 6 
#
# 1 95.0352 20.4398 44.4954 2.4722 -2.5282 14.5437
# 2 20.4398 51.9809 24.4816 14.6688 -7.0671 2.5543
# 3 44.4954 24.4816 158.3778 9.7173 20.5468 11.9402
# 4 2.4722 14.6688 9.7173 21.6081 -9.4591 -11.5807
# 5 -2.5282 -7.0671 20.5468 -9.4591 22.7938 3.2031
# 6 14.5437 2.5543 11.9402 -11.5807 3.2031 21.9264
#
#
#
# Elastic Compliance Matrix: (Units=1/GPa)
#
#
# Indices 1 2 3 4 5 6 
#
# 1 0.014145 -0.002741 -0.003578 -0.000250 0.004961 -0.007972
# 2 -0.002741 0.029292 -0.000999 -0.027166 0.000581 -0.015484
# 3 -0.003578 -0.000999 0.011397 -0.016671 -0.016477 -0.010115
# 4 -0.000250 -0.027166 -0.016671 0.136298 0.052355 0.076748
# 5 0.004961 0.000581 -0.016477 0.052355 0.078109 0.021856
# 6 -0.007972 -0.015484 -0.010115 0.076748 0.021856 0.095549
#
#
# Mechanical properties :
#
#
# Convention : Reuss Voigt Hill
#
# Bulk Modulus (GPa) = 24.87610 53.80306 39.33958
# Shear Modulus (GPa) = 12.72829 27.66415 20.19622
#
# Velocity S-wave (km/s) = 2.39455 3.53018 3.01629
# Velocity P-wave (km/s) = 4.34182 6.39168 5.46374
#
# Compressibility (1/GPa) = 0.04019923
#
# Stress axis : x y z
#
# Youngs Moduli (GPa) = 70.69476 34.13890 87.74518
#
# Poissons Ratio (x) = 0.09356 0.31393
# Poissons Ratio (y) = 0.19374 0.08767
# Poissons Ratio (z) = 0.25293 0.03411
#
# Static dielectric constant tensor:
#      x y z
#    x 1.775890 -0.035660 -0.033870 
#    y -0.035660 1.899430 -0.011460 
#    z -0.033870 -0.011460 1.903970 
# 
# From -- ./inp_files/343661.got.cif
#   From: 2010.05.17/outbox.cif.g08.bks.cpg/sg2_172_cif.got.tgz:343661.got - 2010.06.03 11:33:40.
