data_PCOD9094051
_publ_section_title
;
Structure prediction by ZEFSAII (Michael W. Deem and Ramdas Pophale) SiO2 
 PCOD9094051
Probable space group: P -1
;
_chemical_formula_sum "Si O2"
_cell_formula_units_Z 14
_cell_length_a 12.307474
_cell_length_b 20.339306
_cell_length_c 5.198504
_cell_angle_alpha 56.209340
_cell_angle_beta 64.615158
_cell_angle_gamma 39.958071
_cell_volume 694.556900
_symmetry_space_group_name_H-M "P -1"
_symmetry_group_IT_number 2
_symmetry_cell_setting 'triclinic'
loop_
_space_group_symop_operation_xyz
x,y,z
-x,-y,-z
loop_
_atom_site_type_symbol
_atom_site_label
_atom_site_fract_x
_atom_site_fract_y
_atom_site_fract_z
Si Si1 0.301166 0.632895 0.195544
Si Si2 0.590993 0.175657 0.785546
Si Si3 0.631520 0.867536 0.724803
Si Si4 0.696052 0.890517 0.108338
Si Si5 0.512717 0.389909 0.445732
Si Si6 0.023638 0.123717 0.116704
Si Si7 0.173847 0.937543 0.715364
O O1 0.347396 0.518830 0.394050
O O2 0.354701 0.644725 0.390612
O O3 0.418615 0.616903 0.889277
O O4 0.114050 0.744268 0.061541
O O5 0.499699 0.301903 0.644730
O O6 0.688318 0.130389 0.511051
O O7 0.462907 0.163166 0.990595
O O8 0.728392 0.105230 0.026201
O O9 0.706451 0.819242 0.471003
O O10 0.500000 0.000000 0.500000
O O11 0.761637 0.836753 0.876401
O O12 0.799152 0.918004 0.046577
O O13 0.500000 0.000000 0.000000
O O14 0.942876 0.086048 0.134414
O O15 0.062222 0.066273 0.480366
#
# Coordination Sequence:
#
# PCOD9094051 Si02
#       7
#     2   2   2   2   2   2   2
#     4  10  21  37  56  83 114 148 183 225 285 340
#     4  12  20  39  58  84 118 146 192 228 285 340
#     4  10  20  34  53  75 106 150 190 223 262 326
#     4  10  21  36  52  74 106 155 189 221 263 328
#     4  10  20  37  58  82 113 146 186 227 280 343
#     4  11  22  38  56  84 122 145 189 229 287 344
#     4  11  24  32  56  90 116 149 170 239 297 342
#
# _framework density 20.156735999999999
#
# number of rings (size 3 to 8) (size 9 to 14) (size 15 to 20)
#    0.000    1.429    2.857    4.286    0.000    5.714 
#    0.000    0.000    0.000    1.714    0.000    0.000 
#    0.000    0.000    0.000    0.000    0.000    0.000 
#
# Total GULP energy -78097.464587 kJ/mol
# GULP energy per Si atom -5578.390328 kJ/mol
# Density = 2.011086 g / cm^3
# Si number density = 20.156736 Si / 1000 Ang^3
#
#
#
# Elastic Constant Matrix: (Units=GPa)
#
#
# Indices 1 2 3 4 5 6 
#
# 1 86.9033 19.6583 43.7244 2.9219 -17.5681 3.0499
# 2 19.6583 69.5445 38.0438 -27.1598 -8.0318 2.3597
# 3 43.7244 38.0438 107.1573 0.5682 2.5539 13.8387
# 4 2.9219 -27.1598 0.5682 46.2228 10.1108 2.3885
# 5 -17.5681 -8.0318 2.5539 10.1108 40.8171 5.2608
# 6 3.0499 2.3597 13.8387 2.3885 5.2608 25.0055
#
#
#
# Elastic Compliance Matrix: (Units=1/GPa)
#
#
# Indices 1 2 3 4 5 6 
#
# 1 0.016984 -0.001816 -0.006504 -0.003889 0.008281 0.000329
# 2 -0.001816 0.025459 -0.008516 0.014925 0.000947 0.000907
# 3 -0.006504 -0.008516 0.015902 -0.003647 -0.003786 -0.006058
# 4 -0.003889 0.014925 -0.003647 0.032124 -0.006384 -0.000641
# 5 0.008281 0.000947 -0.003786 -0.006384 0.030693 -0.004852
# 6 0.000329 0.000907 -0.006058 -0.000641 -0.004852 0.044300
#
#
# Mechanical properties :
#
#
# Convention : Reuss Voigt Hill
#
# Bulk Modulus (GPa) = 40.53509 51.82867 46.18188
# Shear Modulus (GPa) = 24.11277 33.22100 28.66689
#
# Velocity S-wave (km/s) = 3.46246 4.06413 3.77530
# Velocity P-wave (km/s) = 6.01152 6.91314 6.47804
#
# Compressibility (1/GPa) = 0.02466998
#
# Stress axis : x y z
#
# Youngs Moduli (GPa) = 58.88002 39.27934 62.88667
#
# Poissons Ratio (x) = 0.07134 0.40904
# Poissons Ratio (y) = 0.10695 0.53556
# Poissons Ratio (z) = 0.38298 0.33451
#
# Static dielectric constant tensor:
#      x y z
#    x 1.737610 0.053100 0.017980 
#    y 0.053100 1.859020 0.074880 
#    z 0.017980 0.074880 1.775780 
# 
# From -- ./inp_files/70159.got.cif
#   From: 2010.05.17/outbox.cif.g08.bks.cpg/sg2_36_cif.got.tgz:70159.got - 2010.06.03 11:33:40.
