data_PCOD9094340
_publ_section_title
;
Structure prediction by ZEFSAII (Michael W. Deem and Ramdas Pophale) SiO2 
 PCOD9094340
Probable space group: P -1
;
_chemical_formula_sum "Si O2"
_cell_formula_units_Z 16
_cell_length_a 8.051769
_cell_length_b 12.102996
_cell_length_c 14.074718
_cell_angle_alpha 145.254370
_cell_angle_beta 55.626905
_cell_angle_gamma 118.048969
_cell_volume 645.152880
_symmetry_space_group_name_H-M "P -1"
_symmetry_group_IT_number 2
_symmetry_cell_setting 'triclinic'
loop_
_space_group_symop_operation_xyz
x,y,z
-x,-y,-z
loop_
_atom_site_type_symbol
_atom_site_label
_atom_site_fract_x
_atom_site_fract_y
_atom_site_fract_z
Si Si1 0.995740 0.325119 0.110877
Si Si2 0.676469 0.521193 0.666806
Si Si3 0.753470 0.306095 0.790374
Si Si4 0.946693 0.286305 0.905498
Si Si5 0.602972 0.813412 0.067330
Si Si6 0.075589 0.369518 0.507770
Si Si7 0.386832 0.213683 0.446294
Si Si8 0.717502 0.956000 0.438859
O O1 0.135299 0.498526 0.140170
O O2 0.898659 0.418269 0.300061
O O3 0.158607 0.170758 0.979484
O O4 0.853701 0.276664 0.033384
O O5 0.813403 0.647039 0.640224
O O6 0.522651 0.401469 0.564563
O O7 0.836131 0.374156 0.561613
O O8 0.584631 0.659279 0.876317
O O9 0.824796 0.216469 0.804530
O O10 0.516009 0.290130 0.878504
O O11 0.808283 0.157487 0.586177
O O12 0.144596 0.158721 0.757824
O O13 0.000000 0.500000 0.000000
O O14 0.519380 0.030688 0.241300
O O15 0.210100 0.246547 0.450779
O O16 0.296084 0.165318 0.545462
O O17 0.500000 0.000000 0.500000
#
# Coordination Sequence:
#
# PCOD9094340 Si02
#       8
#     2   2   2   2   2   2   2   2
#     4  10  21  39  62  86 130 163 210 265 319 385
#     4  10  24  45  72  90 132 173 215 275 332 370
#     4  10  21  36  60  90 124 168 205 262 318 384
#     4  10  20  34  56  85 120 162 205 252 315 380
#     4  10  23  40  61  99 123 164 223 258 326 399
#     4  10  23  45  67  98 124 172 224 264 324 396
#     4  11  23  43  66  97 132 167 218 273 320 386
#     4  11  24  38  58  93 131 166 215 252 322 396
#
# _framework density 24.800322999999999
#
# number of rings (size 3 to 8) (size 9 to 14) (size 15 to 20)
#    0.000    1.750    0.000    4.125    8.750    1.500 
#    4.500    5.625    0.000    0.000    0.000    0.000 
#    0.000    0.000    0.000    0.000    0.000    0.000 
#
# Total GULP energy -89274.074401 kJ/mol
# GULP energy per Si atom -5579.629650 kJ/mol
# Density = 2.474388 g / cm^3
# Si number density = 24.800323 Si / 1000 Ang^3
#
#
#
# Elastic Constant Matrix: (Units=GPa)
#
#
# Indices 1 2 3 4 5 6 
#
# 1 109.4832 11.0137 22.8160 14.0446 4.0872 -22.7983
# 2 11.0137 14.1029 11.5786 -14.6647 0.9652 -10.5131
# 3 22.8160 11.5786 146.4409 -0.9998 -6.2044 2.4527
# 4 14.0446 -14.6647 -0.9998 29.5187 -8.3357 3.6022
# 5 4.0872 0.9652 -6.2044 -8.3357 32.8424 0.0117
# 6 -22.7983 -10.5131 2.4527 3.6022 0.0117 29.8713
#
#
#
# Elastic Compliance Matrix: (Units=1/GPa)
#
#
# Indices 1 2 3 4 5 6 
#
# 1 0.021857 -0.066784 0.001047 -0.046910 -0.012465 -0.001247
# 2 -0.066784 0.527593 -0.028288 0.298433 0.063171 0.101023
# 3 0.001047 -0.028288 0.008903 -0.013539 -0.001050 -0.008254
# 4 -0.046910 0.298433 -0.013539 0.212192 0.048350 0.044734
# 5 -0.012465 0.063171 -0.001050 0.048350 0.042214 0.006958
# 6 -0.001247 0.101023 -0.008254 0.044734 0.006958 0.063361
#
#
# Mechanical properties :
#
#
# Convention : Reuss Voigt Hill
#
# Bulk Modulus (GPa) = 2.70048 40.09375 21.39711
# Shear Modulus (GPa) = 4.21016 33.42105 18.81560
#
# Velocity S-wave (km/s) = 1.30434 3.67496 2.75741
# Velocity P-wave (km/s) = 1.83294 5.84883 4.33408
#
# Compressibility (1/GPa) = 0.37030451
#
# Stress axis : x y z
#
# Youngs Moduli (GPa) = 45.75147 1.89540 112.31653
#
# Poissons Ratio (x) = 0.12658 -0.11765
# Poissons Ratio (y) = 3.05549 3.17718
# Poissons Ratio (z) = -0.04792 0.05362
#
# Static dielectric constant tensor:
#      x y z
#    x 2.125840 0.061960 0.023820 
#    y 0.061960 2.027130 0.009950 
#    z 0.023820 0.009950 1.977770 
# 
# From -- ./inp_files/505702.got.cif
#   From: 2010.05.17/outbox.cif.g08.bks.cpg/sg2_253_cif.got.tgz:505702.got - 2010.06.03 11:33:40.
