data_PCOD9094061
_publ_section_title
;
Structure prediction by ZEFSAII (Michael W. Deem and Ramdas Pophale) SiO2 
 PCOD9094061
Probable space group: P -1
;
_chemical_formula_sum "Si O2"
_cell_formula_units_Z 12
_cell_length_a 6.914398
_cell_length_b 9.907301
_cell_length_c 9.765092
_cell_angle_alpha 77.927734
_cell_angle_beta 117.351006
_cell_angle_gamma 133.319079
_cell_volume 426.413606
_symmetry_space_group_name_H-M "P -1"
_symmetry_group_IT_number 2
_symmetry_cell_setting 'triclinic'
loop_
_space_group_symop_operation_xyz
x,y,z
-x,-y,-z
loop_
_atom_site_type_symbol
_atom_site_label
_atom_site_fract_x
_atom_site_fract_y
_atom_site_fract_z
Si Si1 0.988759 0.653064 0.509922
Si Si2 0.311617 0.840410 0.154615
Si Si3 0.887717 0.276554 0.174451
Si Si4 0.259396 0.197940 0.723245
Si Si5 0.523244 0.669773 0.939354
Si Si6 0.322385 0.071113 0.310959
O O1 0.911387 0.659424 0.641198
O O2 0.343665 0.833093 0.567714
O O3 0.000000 0.500000 0.500000
O O4 0.765220 0.652165 0.352505
O O5 0.470772 0.767153 0.265851
O O6 0.598379 0.056293 0.156347
O O7 0.187627 0.881284 0.225446
O O8 0.083138 0.727834 0.977671
O O9 0.798652 0.397510 0.145942
O O10 0.328037 0.199201 0.905292
O O11 0.919838 0.999102 0.637107
O O12 0.657278 0.791090 0.817685
O O13 0.500000 0.500000 0.000000
#
# Coordination Sequence:
#
# PCOD9094061 Si02
#       6
#     2   2   2   2   2   2
#     4  10  20  34  53  78 111 144 171 213 274 321
#     4   8  17  34  54  78 106 133 177 224 263 305
#     4   8  16  31  51  73 104 137 169 215 257 305
#     4  11  19  32  59  81 101 141 180 218 264 312
#     4   9  17  31  52  76 105 140 172 208 264 317
#     4  10  21  35  55  82 107 135 180 227 257 307
#
# _framework density 28.141691999999999
#
# number of rings (size 3 to 8) (size 9 to 14) (size 15 to 20)
#    0.000    3.000    0.000    4.000    0.000    2.667 
#    0.000    0.000    0.000   42.000    0.000    0.000 
#    0.000    0.000    0.000    0.000    0.000    0.000 
#
# Total GULP energy -67026.549994 kJ/mol
# GULP energy per Si atom -5585.545833 kJ/mol
# Density = 2.807764 g / cm^3
# Si number density = 28.141692 Si / 1000 Ang^3
#
#
#
# Elastic Constant Matrix: (Units=GPa)
#
#
# Indices 1 2 3 4 5 6 
#
# 1 113.7407 44.3759 27.8580 -5.8553 20.5950 -7.7780
# 2 44.3759 112.1090 27.3001 -23.7898 -4.8231 -26.8778
# 3 27.8580 27.3001 140.4842 -11.3561 -2.0228 -12.7413
# 4 -5.8553 -23.7898 -11.3561 44.5271 -16.6564 11.3602
# 5 20.5950 -4.8231 -2.0228 -16.6564 42.3040 -12.0904
# 6 -7.7780 -26.8778 -12.7413 11.3602 -12.0904 48.0978
#
#
#
# Elastic Compliance Matrix: (Units=1/GPa)
#
#
# Indices 1 2 3 4 5 6 
#
# 1 0.013756 -0.007611 -0.002259 -0.005990 -0.011181 -0.004023
# 2 -0.007611 0.016719 0.000059 0.010259 0.012158 0.008760
# 3 -0.002259 0.000059 0.007969 0.002383 0.002988 0.001967
# 4 -0.005990 0.010259 0.002383 0.034064 0.018159 0.001915
# 5 -0.011181 0.012158 0.002988 0.018159 0.041141 0.011830
# 6 -0.004023 0.008760 0.001967 0.001915 0.011830 0.028078
#
#
# Mechanical properties :
#
#
# Convention : Reuss Voigt Hill
#
# Bulk Modulus (GPa) = 53.13088 62.82242 57.97665
# Shear Modulus (GPa) = 29.82904 44.77243 37.30074
#
# Velocity S-wave (km/s) = 3.25923 3.99302 3.64464
# Velocity P-wave (km/s) = 5.75189 6.60538 6.19335
#
# Compressibility (1/GPa) = 0.01882145
#
# Stress axis : x y z
#
# Youngs Moduli (GPa) = 72.69681 59.81349 125.49193
#
# Poissons Ratio (x) = 0.45527 0.28345
# Poissons Ratio (y) = 0.55333 -0.00745
# Poissons Ratio (z) = 0.16420 -0.00355
#
# Static dielectric constant tensor:
#      x y z
#    x 2.228350 0.000920 -0.011990 
#    y 0.000920 2.282420 0.012980 
#    z -0.011990 0.012980 2.285490 
# 
# From -- ./inp_files/382135.got.cif
#   From: 2010.05.17/outbox.cif.g08.bks.cpg/sg2_192_cif.got.tgz:382135.got - 2010.06.03 11:33:40.
