data_PCOD9094970
_publ_section_title
;
Structure prediction by ZEFSAII (Michael W. Deem and Ramdas Pophale) SiO2 
 PCOD9094970
Probable space group: P -1
;
_chemical_formula_sum "Si O2"
_cell_formula_units_Z 15
_cell_length_a 7.439218
_cell_length_b 15.534998
_cell_length_c 7.468807
_cell_angle_alpha 47.891698
_cell_angle_beta 95.905542
_cell_angle_gamma 113.379779
_cell_volume 570.652272
_symmetry_space_group_name_H-M "P -1"
_symmetry_group_IT_number 2
_symmetry_cell_setting 'triclinic'
loop_
_space_group_symop_operation_xyz
x,y,z
-x,-y,-z
loop_
_atom_site_type_symbol
_atom_site_label
_atom_site_fract_x
_atom_site_fract_y
_atom_site_fract_z
Si Si1 0.067975 0.734958 0.118751
Si Si2 0.673734 0.983060 0.381638
Si Si3 0.640677 0.500004 0.737389
Si Si4 0.324386 0.045042 0.947634
Si Si5 0.803554 0.112921 0.536456
Si Si6 0.650738 0.716248 0.193516
Si Si7 0.915070 0.592698 0.949024
Si Si8 0.000000 0.500000 0.500000
O O1 0.888217 0.765164 0.117749
O O2 0.143892 0.655544 0.363858
O O3 0.946270 0.604366 0.154270
O O4 0.240243 0.862993 0.875121
O O5 0.791140 0.001236 0.552697
O O6 0.734817 0.927651 0.292204
O O7 0.430992 0.909188 0.473587
O O8 0.585521 0.606820 0.493199
O O9 0.462454 0.356303 0.896383
O O10 0.709239 0.540302 0.891415
O O11 0.813814 0.499762 0.621295
O O12 0.389682 0.167767 0.906419
O O13 0.500000 0.000000 0.000000
O O14 0.161972 0.925626 0.208818
O O15 0.955433 0.257513 0.301010
O O16 0.000000 0.500000 0.000000
#
# Coordination Sequence:
#
# PCOD9094970 Si02
#       8
#     2   2   2   2   2   2   2   1
#     4  10  22  40  63  96 134 170 220 269 336 386
#     4   9  20  39  62  91 130 164 212 274 325 389
#     4  10  23  41  66  92 137 172 217 272 329 388
#     4  10  22  39  69  92 121 175 225 264 328 393
#     4   9  21  38  60  99 128 159 223 275 324 383
#     4  10  24  44  60  97 134 174 218 272 330 397
#     4  11  22  40  66 101 126 172 223 275 326 393
#     4  10  20  34  68  92 124 174 218 272 306 396
#
# _framework density 26.285710999999999
#
# number of rings (size 3 to 8) (size 9 to 14) (size 15 to 20)
#    0.000    2.133    1.333    0.000    7.467    3.200 
#    7.200    1.333    0.000    0.000    0.000    0.000 
#    0.000    0.000    0.000    0.000    0.000    0.000 
#
# Total GULP energy -83558.742363 kJ/mol
# GULP energy per Si atom -5570.582824 kJ/mol
# Density = 2.622588 g / cm^3
# Si number density = 26.285711 Si / 1000 Ang^3
#
#
#
# Elastic Constant Matrix: (Units=GPa)
#
#
# Indices 1 2 3 4 5 6 
#
# 1 97.1496 52.4135 27.3786 -12.1137 -8.5482 -1.9209
# 2 52.4135 169.2861 20.3112 -1.5738 4.5987 24.4923
# 3 27.3786 20.3112 54.4465 -11.2429 -11.7598 -0.4631
# 4 -12.1137 -1.5738 -11.2429 52.1400 0.0041 5.8411
# 5 -8.5482 4.5987 -11.7598 0.0041 26.6325 -5.6076
# 6 -1.9209 24.4923 -0.4631 5.8411 -5.6076 39.5069
#
#
#
# Elastic Compliance Matrix: (Units=1/GPa)
#
#
# Indices 1 2 3 4 5 6 
#
# 1 0.014764 -0.004739 -0.004249 0.001926 0.004515 0.003962
# 2 -0.004739 0.008688 -0.002184 -0.000603 -0.005313 -0.006307
# 3 -0.004249 -0.002184 0.024367 0.003942 0.010258 0.002306
# 4 0.001926 -0.000603 0.003942 0.020712 0.001982 -0.002267
# 5 0.004515 -0.005313 0.010258 0.001982 0.046538 0.009946
# 6 0.003962 -0.006307 0.002306 -0.002267 0.009946 0.031189
#
#
# Mechanical properties :
#
#
# Convention : Reuss Voigt Hill
#
# Bulk Modulus (GPa) = 39.25522 57.89872 48.57697
# Shear Modulus (GPa) = 28.23379 38.37449 33.30414
#
# Velocity S-wave (km/s) = 3.28092 3.82501 3.56336
# Velocity P-wave (km/s) = 5.41471 6.44842 5.95404
#
# Compressibility (1/GPa) = 0.02547432
#
# Stress axis : x y z
#
# Youngs Moduli (GPa) = 67.73433 115.10558 41.03881
#
# Poissons Ratio (x) = 0.54550 0.17439
# Poissons Ratio (y) = 0.32100 0.08961
# Poissons Ratio (z) = 0.28783 0.25134
#
# Static dielectric constant tensor:
#      x y z
#    x 4.584050 1.129550 4.539460 
#    y 1.129550 2.739080 2.210220 
#    z 4.539460 2.210220 10.628850 
# 
# From -- ./inp_files/195254.got.cif
#   From: 2010.05.17/outbox.cif.g08.bks.cpg/sg2_98_cif.got.tgz:195254.got - 2010.06.03 11:33:40.
