data_PCOD9094156
_publ_section_title
;
Structure prediction by ZEFSAII (Michael W. Deem and Ramdas Pophale) SiO2 
 PCOD9094156
Probable space group: P -1
;
_chemical_formula_sum "Si O2"
_cell_formula_units_Z 16
_cell_length_a 8.914936
_cell_length_b 21.040693
_cell_length_c 15.560362
_cell_angle_alpha 25.461349
_cell_angle_beta 37.155187
_cell_angle_gamma 37.638710
_cell_volume 727.898172
_symmetry_space_group_name_H-M "P -1"
_symmetry_group_IT_number 2
_symmetry_cell_setting 'triclinic'
loop_
_space_group_symop_operation_xyz
x,y,z
-x,-y,-z
loop_
_atom_site_type_symbol
_atom_site_label
_atom_site_fract_x
_atom_site_fract_y
_atom_site_fract_z
Si Si1 0.901915 0.093142 0.060292
Si Si2 0.697086 0.709891 0.374010
Si Si3 0.584170 0.826928 0.708721
Si Si4 0.403490 0.753273 0.135772
Si Si5 0.102749 0.347753 0.081066
Si Si6 0.759411 0.516740 0.899682
Si Si7 0.644448 0.129233 0.800097
Si Si8 0.999505 0.447274 0.428241
O O1 0.742986 0.098161 0.037937
O O2 0.136854 0.166652 0.846388
O O3 0.681923 0.191369 0.104607
O O4 0.054463 0.937878 0.229701
O O5 0.421561 0.768274 0.381173
O O6 0.861080 0.589173 0.377975
O O7 0.733239 0.633920 0.543996
O O8 0.795766 0.797069 0.725518
O O9 0.695646 0.685572 0.766277
O O10 0.500000 0.000000 0.500000
O O11 0.474720 0.792337 0.151417
O O12 0.192845 0.659673 0.354160
O O13 0.646225 0.658426 0.084959
O O14 0.000000 0.500000 0.000000
O O15 0.873912 0.374468 0.085103
O O16 0.953693 0.510103 0.740899
O O17 0.500000 0.500000 0.000000
O O18 0.500000 0.000000 0.000000
#
# Coordination Sequence:
#
# PCOD9094156 Si02
#       8
#     2   2   2   2   2   2   2   2
#     4   9  19  37  58  79 120 163 190 240 307 369
#     4   9  19  36  55  88 119 152 190 248 309 351
#     4  10  22  41  60  89 120 161 206 256 303 363
#     4  10  20  36  62  92 116 156 204 250 300 358
#     4   9  21  42  65  89 121 163 205 248 311 378
#     4  11  23  41  64  88 123 167 209 249 312 370
#     4  10  20  34  54  86 120 157 193 238 303 362
#     4  10  21  37  61  88 120 151 206 257 293 355
#
# _framework density 21.981096999999998
#
# number of rings (size 3 to 8) (size 9 to 14) (size 15 to 20)
#    0.000    2.250    0.000    1.875    1.750    6.000 
#    9.000    0.625    0.000    0.000    0.000    0.000 
#    0.000    0.000    0.000    0.000    0.000    0.000 
#
# Total GULP energy -89139.349555 kJ/mol
# GULP energy per Si atom -5571.209347 kJ/mol
# Density = 2.193107 g / cm^3
# Si number density = 21.981097 Si / 1000 Ang^3
#
#
#
# Elastic Constant Matrix: (Units=GPa)
#
#
# Indices 1 2 3 4 5 6 
#
# 1 156.2321 34.4933 38.2335 -13.1786 33.3636 -19.8073
# 2 34.4933 85.8643 10.9719 2.4482 4.5898 -0.1669
# 3 38.2335 10.9719 33.2985 -9.6081 13.6610 -6.9755
# 4 -13.1786 2.4482 -9.6081 26.8432 -9.9400 8.5823
# 5 33.3636 4.5898 13.6610 -9.9400 30.0019 -9.8542
# 6 -19.8073 -0.1669 -6.9755 8.5823 -9.8542 46.5647
#
#
#
# Elastic Compliance Matrix: (Units=1/GPa)
#
#
# Indices 1 2 3 4 5 6 
#
# 1 0.010824 -0.002872 -0.008233 -0.000749 -0.007467 0.001919
# 2 -0.002872 0.013135 -0.002468 -0.002827 0.001112 -0.000788
# 3 -0.008233 -0.002468 0.046564 0.009750 -0.008481 -0.000127
# 4 -0.000749 -0.002827 0.009750 0.046143 0.010416 -0.005168
# 5 -0.007467 0.001112 -0.008481 0.010416 0.050175 0.004256
# 6 0.001919 -0.000788 -0.000127 -0.005168 0.004256 0.024123
#
#
# Mechanical properties :
#
#
# Convention : Reuss Voigt Hill
#
# Bulk Modulus (GPa) = 23.05337 49.19917 36.12627
# Shear Modulus (GPa) = 21.49905 33.46170 27.48037
#
# Velocity S-wave (km/s) = 3.13080 3.90589 3.53963
# Velocity P-wave (km/s) = 4.85591 6.54006 5.75987
#
# Compressibility (1/GPa) = 0.04337761
#
# Stress axis : x y z
#
# Youngs Moduli (GPa) = 92.38491 76.13268 21.47597
#
# Poissons Ratio (x) = 0.21866 0.17681
# Poissons Ratio (y) = 0.26533 0.05299
# Poissons Ratio (z) = 0.76061 0.18786
#
# Static dielectric constant tensor:
#      x y z
#    x 1.856830 -0.029680 0.078140 
#    y -0.029680 1.761870 -0.131900 
#    z 0.078140 -0.131900 1.762040 
# 
# From -- ./inp_files/508106.got.cif
#   From: 2010.05.17/outbox.cif.g08.bks.cpg/sg2_255_cif.got.tgz:508106.got - 2010.06.03 11:33:40.
