data_PCOD9094118
_publ_section_title
;
Structure prediction by ZEFSAII (Michael W. Deem and Ramdas Pophale) SiO2 
 PCOD9094118
Probable space group: P -1
;
_chemical_formula_sum "Si O2"
_cell_formula_units_Z 15
_cell_length_a 8.574816
_cell_length_b 13.116377
_cell_length_c 13.322586
_cell_angle_alpha 23.671299
_cell_angle_beta 64.911018
_cell_angle_gamma 62.587993
_cell_volume 534.031376
_symmetry_space_group_name_H-M "P -1"
_symmetry_group_IT_number 2
_symmetry_cell_setting 'triclinic'
loop_
_space_group_symop_operation_xyz
x,y,z
-x,-y,-z
loop_
_atom_site_type_symbol
_atom_site_label
_atom_site_fract_x
_atom_site_fract_y
_atom_site_fract_z
Si Si1 0.400865 0.656651 0.478317
Si Si2 0.595062 0.678922 0.905371
Si Si3 0.745958 0.136609 0.249531
Si Si4 0.000000 0.000000 0.500000
Si Si5 0.032893 0.707663 0.098746
Si Si6 0.826807 0.564025 0.107315
Si Si7 0.695976 0.045685 0.933223
Si Si8 0.647484 0.510400 0.689024
O O1 0.500000 0.500000 0.500000
O O2 0.313385 0.473702 0.736572
O O3 0.256650 0.860716 0.276373
O O4 0.545709 0.736968 0.439279
O O5 0.685500 0.444894 0.020057
O O6 0.748196 0.758889 0.862918
O O7 0.484567 0.544195 0.138683
O O8 0.452558 0.901502 0.691854
O O9 0.865917 0.993303 0.435561
O O10 0.843905 0.100419 0.147087
O O11 0.895606 0.288272 0.289342
O O12 0.166281 0.481063 0.321848
O O13 0.973896 0.638867 0.067050
O O14 0.860565 0.814209 0.115331
O O15 0.687409 0.260702 0.827296
O O16 0.500000 0.000000 0.000000
#
# Coordination Sequence:
#
# PCOD9094118 Si02
#       8
#     2   2   2   1   2   2   2   2
#     4   9  18  36  57  78 108 145 180 223 273 322
#     4   8  16  33  55  75 104 144 179 215 269 321
#     4   9  18  33  56  80 106 143 182 227 273 323
#     4  10  20  34  54  80 108 138 180 228 272 314
#     4  11  21  35  56  83 111 144 186 226 272 325
#     4  10  20  36  56  78 108 145 183 226 275 325
#     4  11  21  36  57  83 111 145 185 222 272 330
#     4   9  19  36  56  81 113 145 182 228 269 319
#
# _framework density 28.088238
#
# number of rings (size 3 to 8) (size 9 to 14) (size 15 to 20)
#    0.000    2.400    0.000    3.600    0.000    2.133 
#    0.000   12.667    0.000   28.000    0.000    0.000 
#    0.000    0.000    0.000    0.000    0.000    0.000 
#
# Total GULP energy -83532.331257 kJ/mol
# GULP energy per Si atom -5568.822084 kJ/mol
# Density = 2.802431 g / cm^3
# Si number density = 28.088238 Si / 1000 Ang^3
#
#
#
# Elastic Constant Matrix: (Units=GPa)
#
#
# Indices 1 2 3 4 5 6 
#
# 1 133.8183 32.3161 23.5500 6.5948 51.3692 3.8944
# 2 32.3161 124.9468 15.6928 2.2398 0.1814 -14.0971
# 3 23.5500 15.6928 70.7008 8.7441 23.3013 2.0476
# 4 6.5948 2.2398 8.7441 41.4132 8.2955 7.3108
# 5 51.3692 0.1814 23.3013 8.2955 42.7494 -2.4562
# 6 3.8944 -14.0971 2.0476 7.3108 -2.4562 54.4004
#
#
#
# Elastic Compliance Matrix: (Units=1/GPa)
#
#
# Indices 1 2 3 4 5 6 
#
# 1 0.016807 -0.005143 0.002743 0.002189 -0.022321 -0.003941
# 2 -0.005143 0.010170 -0.003244 -0.001377 0.008384 0.003689
# 3 0.002743 -0.003244 0.018534 -0.001127 -0.013291 -0.002183
# 4 0.002189 -0.001377 -0.001127 0.026355 -0.007375 -0.004346
# 5 -0.022321 0.008384 -0.013291 -0.007375 0.059310 0.007940
# 6 -0.003941 0.003689 -0.002183 -0.004346 0.007940 0.020645
#
#
# Mechanical properties :
#
#
# Convention : Reuss Voigt Hill
#
# Bulk Modulus (GPa) = 29.22068 52.50930 40.86499
# Shear Modulus (GPa) = 28.65066 44.90638 36.77852
#
# Velocity S-wave (km/s) = 3.19725 4.00279 3.62248
# Velocity P-wave (km/s) = 4.90465 6.33230 5.66364
#
# Compressibility (1/GPa) = 0.03422234
#
# Stress axis : x y z
#
# Youngs Moduli (GPa) = 59.49816 98.33070 53.95631
#
# Poissons Ratio (x) = 0.50572 -0.14800
# Poissons Ratio (y) = 0.30600 0.17503
# Poissons Ratio (z) = -0.16320 0.31898
#
# Static dielectric constant tensor:
#      x y z
#    x 2.566960 -0.272330 -0.002990 
#    y -0.272330 2.102120 0.190090 
#    z -0.002990 0.190090 2.340430 
# 
# From -- ./inp_files/291506.got.cif
#   From: 2010.05.17/outbox.cif.g08.bks.cpg/sg2_146_cif.got.tgz:291506.got - 2010.06.03 11:33:40.
