data_PCOD9094287
_publ_section_title
;
Structure prediction by ZEFSAII (Michael W. Deem and Ramdas Pophale) SiO2 
 PCOD9094287
Probable space group: P -1
;
_chemical_formula_sum "Si O2"
_cell_formula_units_Z 16
_cell_length_a 19.209285
_cell_length_b 12.049287
_cell_length_c 5.326083
_cell_angle_alpha 84.585148
_cell_angle_beta 93.729717
_cell_angle_gamma 138.327489
_cell_volume 815.946241
_symmetry_space_group_name_H-M "P -1"
_symmetry_group_IT_number 2
_symmetry_cell_setting 'triclinic'
loop_
_space_group_symop_operation_xyz
x,y,z
-x,-y,-z
loop_
_atom_site_type_symbol
_atom_site_label
_atom_site_fract_x
_atom_site_fract_y
_atom_site_fract_z
Si Si1 0.514540 0.118325 0.279328
Si Si2 0.405172 0.390045 0.201176
Si Si3 0.707917 0.022255 0.294998
Si Si4 0.321680 0.809190 0.025234
Si Si5 0.508503 0.318900 0.563754
Si Si6 0.011576 0.665148 0.212715
Si Si7 0.892686 0.469247 0.720645
Si Si8 0.781917 0.988451 0.825468
O O1 0.600826 0.188669 0.078034
O O2 0.544673 0.269268 0.386940
O O3 0.500000 0.000000 0.500000
O O4 0.398985 0.982182 0.162086
O O5 0.445800 0.345489 0.414729
O O6 0.405660 0.514745 0.288675
O O7 0.291364 0.208607 0.136956
O O8 0.500000 0.500000 0.000000
O O9 0.583802 0.852435 0.272981
O O10 0.726662 0.174950 0.216487
O O11 0.742900 0.015608 0.571751
O O12 0.764217 0.026944 0.079853
O O13 0.228859 0.659629 0.213123
O O14 0.931527 0.566154 0.447129
O O15 0.077872 0.627764 0.256721
O O16 0.093366 0.864161 0.210692
O O17 0.956284 0.595034 0.945141
#
# Coordination Sequence:
#
# PCOD9094287 Si02
#       8
#     2   2   2   2   2   2   2   2
#     4  11  24  37  57  83 116 157 198 228 281 353
#     4  10  20  34  56  80 113 153 185 236 291 341
#     4  11  20  32  56  77 116 155 184 226 282 339
#     4  11  23  36  54  82 112 161 190 232 284 342
#     4  10  21  35  51  83 114 149 195 229 279 348
#     4  10  21  34  51  83 108 148 192 235 285 343
#     4  10  22  34  54  77 113 147 191 238 282 338
#     4  11  21  34  55  82 113 152 188 233 289 345
#
# _framework density 19.609135999999999
#
# number of rings (size 3 to 8) (size 9 to 14) (size 15 to 20)
#    0.000    1.500    3.750    2.250    5.250    0.000 
#    0.000    0.000    0.000    0.000    0.000    1.750 
#    0.000    0.000    0.000    0.000    0.000    0.000 
#
# Total GULP energy -89272.967061 kJ/mol
# GULP energy per Si atom -5579.560441 kJ/mol
# Density = 1.956450 g / cm^3
# Si number density = 19.609136 Si / 1000 Ang^3
#
#
#
# Elastic Constant Matrix: (Units=GPa)
#
#
# Indices 1 2 3 4 5 6 
#
# 1 38.8601 31.3954 19.7654 7.4876 -27.8272 2.9514
# 2 31.3954 154.5990 46.5657 3.8748 -29.3919 11.3265
# 3 19.7654 46.5657 95.0325 -6.1993 -18.7714 5.5321
# 4 7.4876 3.8748 -6.1993 28.3371 4.1528 -12.6348
# 5 -27.8272 -29.3919 -18.7714 4.1528 32.7528 -2.6226
# 6 2.9514 11.3265 5.5321 -12.6348 -2.6226 26.7081
#
#
#
# Elastic Compliance Matrix: (Units=1/GPa)
#
#
# Indices 1 2 3 4 5 6 
#
# 1 0.110130 0.001545 -0.006754 -0.057989 0.096080 -0.029425
# 2 0.001545 0.009232 -0.003338 -0.006004 0.008010 -0.005449
# 3 -0.006754 -0.003338 0.013533 0.006440 -0.001614 0.002247
# 4 -0.057989 -0.006004 0.006440 0.078804 -0.057816 0.039223
# 5 0.096080 0.008010 -0.001614 -0.057816 0.123442 -0.028910
# 6 -0.029425 -0.005449 0.002247 0.039223 -0.028910 0.058255
#
#
# Mechanical properties :
#
#
# Convention : Reuss Voigt Hill
#
# Bulk Modulus (GPa) = 8.63536 53.77162 31.20349
# Shear Modulus (GPa) = 11.13361 30.27727 20.70544
#
# Velocity S-wave (km/s) = 2.38539 3.93369 3.25300
# Velocity P-wave (km/s) = 3.46412 6.93636 5.48239
#
# Compressibility (1/GPa) = 0.11580295
#
# Stress axis : x y z
#
# Youngs Moduli (GPa) = 9.08015 108.31524 73.89113
#
# Poissons Ratio (x) = -0.16737 0.49908
# Poissons Ratio (y) = -0.01403 0.24661
# Poissons Ratio (z) = 0.06133 0.36150
#
# Static dielectric constant tensor:
#      x y z
#    x 0.708620 0.355490 -0.789010 
#    y 0.355490 1.629050 0.307230 
#    z -0.789010 0.307230 1.121590 
# 
# From -- ./inp_files/93580.got.cif
#   From: 2010.05.17/outbox.cif.g08.bks.cpg/sg2_47_cif.got.tgz:93580.got - 2010.06.03 11:33:40.
