data_PCOD9094847
_publ_section_title
;
Structure prediction by ZEFSAII (Michael W. Deem and Ramdas Pophale) SiO2 
 PCOD9094847
Probable space group: P -1
;
_chemical_formula_sum "Si O2"
_cell_formula_units_Z 16
_cell_length_a 12.328622
_cell_length_b 12.514571
_cell_length_c 8.780368
_cell_angle_alpha 72.494177
_cell_angle_beta 120.755294
_cell_angle_gamma 66.869973
_cell_volume 827.211109
_symmetry_space_group_name_H-M "P -1"
_symmetry_group_IT_number 2
_symmetry_cell_setting 'triclinic'
loop_
_space_group_symop_operation_xyz
x,y,z
-x,-y,-z
loop_
_atom_site_type_symbol
_atom_site_label
_atom_site_fract_x
_atom_site_fract_y
_atom_site_fract_z
Si Si1 0.504830 0.412671 0.396966
Si Si2 0.839115 0.331875 0.117279
Si Si3 0.183445 0.695582 0.531041
Si Si4 0.694625 0.825575 0.810559
Si Si5 0.971339 0.438198 0.648772
Si Si6 0.036678 0.006860 0.344999
Si Si7 0.113712 0.357583 0.254022
Si Si8 0.628999 0.101723 0.533252
O O1 0.500000 0.500000 0.500000
O O2 0.637877 0.384506 0.383751
O O3 0.569225 0.245881 0.524622
O O4 0.317504 0.521060 0.144854
O O5 0.794166 0.331871 0.259735
O O6 0.997364 0.323229 0.238119
O O7 0.896812 0.184231 0.135303
O O8 0.108091 0.629947 0.431429
O O9 0.052335 0.876347 0.334234
O O10 0.736707 0.775307 0.684826
O O11 0.524314 0.855643 0.699498
O O12 0.676109 0.970603 0.734630
O O13 0.850938 0.691683 0.082181
O O14 0.847253 0.581858 0.607814
O O15 0.000000 0.500000 0.500000
O O16 0.215116 0.956519 0.441016
O O17 0.000000 0.000000 0.500000
O O18 0.000000 0.500000 0.000000
#
# Coordination Sequence:
#
# PCOD9094847 Si02
#       8
#     2   2   2   2   2   2   2   2
#     4  11  25  37  60  92 122 158 203 256 302 360
#     4  11  20  41  62  86 120 163 204 250 305 359
#     4  10  23  39  60  87 123 160 202 251 310 364
#     4  10  22  38  66  87 123 165 199 255 303 370
#     4  11  22  38  61  94 122 155 206 255 309 359
#     4   9  20  39  64  86 118 163 209 246 295 376
#     4  10  20  34  62  87 116 158 198 250 299 364
#     4  10  21  41  61  93 124 160 206 246 314 360
#
# _framework density 19.342099000000001
#
# number of rings (size 3 to 8) (size 9 to 14) (size 15 to 20)
#    0.000    1.750    2.500    1.875    5.250    1.000 
#    0.000    2.500    0.000    6.000    0.000    0.000 
#    0.000    0.000    0.000    0.000    0.000    0.000 
#
# Total GULP energy -89183.254286 kJ/mol
# GULP energy per Si atom -5573.953393 kJ/mol
# Density = 1.929808 g / cm^3
# Si number density = 19.342099 Si / 1000 Ang^3
#
#
#
# Elastic Constant Matrix: (Units=GPa)
#
#
# Indices 1 2 3 4 5 6 
#
# 1 94.8898 44.8489 11.2726 -2.1925 -1.0684 3.4311
# 2 44.8489 152.6885 32.1144 -11.5084 -5.5826 6.0229
# 3 11.2726 32.1144 54.7340 -8.4072 0.0016 -1.0731
# 4 -2.1925 -11.5084 -8.4072 28.7591 3.5856 0.5133
# 5 -1.0684 -5.5826 0.0016 3.5856 20.6594 -1.5175
# 6 3.4311 6.0229 -1.0731 0.5133 -1.5175 36.2906
#
#
#
# Elastic Compliance Matrix: (Units=1/GPa)
#
#
# Indices 1 2 3 4 5 6 
#
# 1 0.012273 -0.003516 -0.000568 -0.000595 -0.000256 -0.000596
# 2 -0.003516 0.008697 -0.004124 0.001807 0.001768 -0.001185
# 3 -0.000568 -0.004124 0.021573 0.004827 -0.001893 0.001229
# 4 -0.000595 0.001807 0.004827 0.037642 -0.006141 -0.000890
# 5 -0.000256 0.001768 -0.001893 -0.006141 0.050071 0.001855
# 6 -0.000596 -0.001185 0.001229 -0.000890 0.001855 0.027935
#
#
# Mechanical properties :
#
#
# Convention : Reuss Voigt Hill
#
# Bulk Modulus (GPa) = 38.27589 53.19823 45.73706
# Shear Modulus (GPa) = 27.27543 31.41359 29.34451
#
# Velocity S-wave (km/s) = 3.75928 4.03439 3.89926
# Velocity P-wave (km/s) = 6.21891 7.01892 6.63099
#
# Compressibility (1/GPa) = 0.02612610
#
# Stress axis : x y z
#
# Youngs Moduli (GPa) = 81.48117 114.98031 46.35519
#
# Poissons Ratio (x) = 0.40429 0.02631
# Poissons Ratio (y) = 0.28650 0.19119
# Poissons Ratio (z) = 0.04625 0.47423
#
# Static dielectric constant tensor:
#      x y z
#    x 1.673870 -0.141790 -0.053360 
#    y -0.141790 0.506270 -0.412940 
#    z -0.053360 -0.412940 1.523880 
# 
# From -- ./inp_files/175198.got.cif
#   From: 2010.05.17/outbox.cif.g08.bks.cpg/sg2_88_cif.got.tgz:175198.got - 2010.06.03 11:33:40.
