data_PCOD9094929
_publ_section_title
;
Structure prediction by ZEFSAII (Michael W. Deem and Ramdas Pophale) SiO2 
 PCOD9094929
Probable space group: P -1
;
_chemical_formula_sum "Si O2"
_cell_formula_units_Z 14
_cell_length_a 7.119678
_cell_length_b 9.764341
_cell_length_c 14.558346
_cell_angle_alpha 37.261367
_cell_angle_beta 94.421138
_cell_angle_gamma 111.518893
_cell_volume 526.953565
_symmetry_space_group_name_H-M "P -1"
_symmetry_group_IT_number 2
_symmetry_cell_setting 'triclinic'
loop_
_space_group_symop_operation_xyz
x,y,z
-x,-y,-z
loop_
_atom_site_type_symbol
_atom_site_label
_atom_site_fract_x
_atom_site_fract_y
_atom_site_fract_z
Si Si1 0.031508 0.716977 0.128414
Si Si2 0.970682 0.950469 0.184742
Si Si3 0.582087 0.165406 0.148820
Si Si4 0.619564 0.567249 0.079379
Si Si5 0.886046 0.197584 0.457230
Si Si6 0.673316 0.375953 0.511118
Si Si7 0.226885 0.050865 0.600858
O O1 0.060405 0.863607 0.146091
O O2 0.065511 0.474122 0.270323
O O3 0.770790 0.588061 0.159996
O O4 0.154864 0.921042 0.941744
O O5 0.828930 0.680079 0.376278
O O6 0.184366 0.198579 0.099413
O O7 0.539687 0.297782 0.167511
O O8 0.781502 0.139242 0.215108
O O9 0.403963 0.856629 0.293698
O O10 0.559249 0.341348 0.975272
O O11 0.783908 0.287803 0.484572
O O12 0.737750 0.033978 0.453508
O O13 0.008472 0.058196 0.577370
O O14 0.445441 0.323074 0.487960
#
# Coordination Sequence:
#
# PCOD9094929 Si02
#       7
#     2   2   2   2   2   2   2
#     4   8  14  27  46  70  87 127 155 183 237 280
#     4   8  15  27  48  70  93 121 161 189 237 268
#     4   9  18  28  46  74  95 119 166 184 231 284
#     4   9  15  29  47  68  95 131 149 193 232 286
#     4  10  16  30  50  67 101 120 153 203 230 269
#     4   9  18  30  46  77  87 122 161 198 220 283
#     4   9  18  28  45  76  92 125 155 190 243 266
#
# _framework density 26.567805
#
# number of rings (size 3 to 8) (size 9 to 14) (size 15 to 20)
#    1.714    1.429    1.429    0.429    0.000    0.571 
#    0.000    0.714    0.000    6.857    7.429    0.000 
#    0.000    0.000    0.000    0.000    0.000    0.000 
#
# Total GULP energy -77955.757676 kJ/mol
# GULP energy per Si atom -5568.268405 kJ/mol
# Density = 2.650734 g / cm^3
# Si number density = 26.567805 Si / 1000 Ang^3
#
#
#
# Elastic Constant Matrix: (Units=GPa)
#
#
# Indices 1 2 3 4 5 6 
#
# 1 87.9444 12.5010 46.3701 16.2241 18.3556 -5.4465
# 2 12.5010 53.1073 24.0153 -9.1868 -8.5750 14.1757
# 3 46.3701 24.0153 96.5863 -15.6678 28.0497 -6.6491
# 4 16.2241 -9.1868 -15.6678 51.5587 -0.0523 1.1780
# 5 18.3556 -8.5750 28.0497 -0.0523 42.0170 4.7004
# 6 -5.4465 14.1757 -6.6491 1.1780 4.7004 24.0468
#
#
#
# Elastic Compliance Matrix: (Units=1/GPa)
#
#
# Indices 1 2 3 4 5 6 
#
# 1 0.019434 -0.005821 -0.007278 -0.009539 -0.005659 0.007394
# 2 -0.005821 0.043616 -0.017814 0.005076 0.027548 -0.037589
# 3 -0.007278 -0.017814 0.026695 0.006753 -0.020496 0.019910
# 4 -0.009539 0.005076 0.006753 0.025464 0.001262 -0.004780
# 5 -0.005659 0.027548 -0.020496 0.001262 0.049257 -0.032879
# 6 0.007394 -0.037589 0.019910 -0.004780 -0.032879 0.077586
#
#
# Mechanical properties :
#
#
# Convention : Reuss Voigt Hill
#
# Bulk Modulus (GPa) = 35.81883 44.82341 40.32112
# Shear Modulus (GPa) = 15.96500 33.84127 24.90314
#
# Velocity S-wave (km/s) = 2.45402 3.57286 3.06493
# Velocity P-wave (km/s) = 4.64122 5.82481 5.26637
#
# Compressibility (1/GPa) = 0.02791828
#
# Stress axis : x y z
#
# Youngs Moduli (GPa) = 51.45499 22.92757 37.45982
#
# Poissons Ratio (x) = 0.13346 0.27263
# Poissons Ratio (y) = 0.29953 0.66733
# Poissons Ratio (z) = 0.37448 0.40844
#
# Static dielectric constant tensor:
#      x y z
#    x 2.168240 -0.043420 0.017880 
#    y -0.043420 2.019600 0.006890 
#    z 0.017880 0.006890 2.188430 
# 
# From -- ./inp_files/497487.got.cif
#   From: 2010.05.17/outbox.cif.g08.bks.cpg/sg2_249_cif.got.tgz:497487.got - 2010.06.03 11:33:40.
