data_PCOD9094822
_publ_section_title
;
Structure prediction by ZEFSAII (Michael W. Deem and Ramdas Pophale) SiO2 
 PCOD9094822
Probable space group: P -1
;
_chemical_formula_sum "Si O2"
_cell_formula_units_Z 16
_cell_length_a 9.602182
_cell_length_b 13.638915
_cell_length_c 12.825647
_cell_angle_alpha 42.953064
_cell_angle_beta 35.833392
_cell_angle_gamma 43.289091
_cell_volume 630.797508
_symmetry_space_group_name_H-M "P -1"
_symmetry_group_IT_number 2
_symmetry_cell_setting 'triclinic'
loop_
_space_group_symop_operation_xyz
x,y,z
-x,-y,-z
loop_
_atom_site_type_symbol
_atom_site_label
_atom_site_fract_x
_atom_site_fract_y
_atom_site_fract_z
Si Si1 0.140770 0.586078 0.079963
Si Si2 0.147733 0.783802 0.102342
Si Si3 0.482879 0.168676 0.006480
Si Si4 0.653565 0.556106 0.725361
Si Si5 0.742700 0.862694 0.427779
Si Si6 0.235660 0.461784 0.807642
Si Si7 0.078302 0.950068 0.311390
Si Si8 0.893029 0.200813 0.370905
O O1 0.122638 0.740250 0.033043
O O2 0.266159 0.454403 0.192094
O O3 0.885203 0.579102 0.192703
O O4 0.366653 0.563220 0.880065
O O5 0.386292 0.819789 0.972633
O O6 0.182389 0.617388 0.269151
O O7 0.891388 0.900969 0.210360
O O8 0.446909 0.316577 0.839480
O O9 0.695959 0.040697 0.908294
O O10 0.196897 0.176920 0.198528
O O11 0.681336 0.712022 0.551575
O O12 0.938876 0.850310 0.412881
O O13 0.500000 0.000000 0.500000
O O14 0.277091 0.622840 0.650972
O O15 0.000000 0.500000 0.000000
O O16 0.164474 0.876779 0.429524
O O17 0.876197 0.113042 0.342764
#
# Coordination Sequence:
#
# PCOD9094822 Si02
#       8
#     2   2   2   2   2   2   2   2
#     4   9  19  35  63  87 111 147 199 230 290 351
#     4   9  20  38  59  87 109 150 196 229 295 353
#     4  10  21  38  64  87 114 150 197 247 289 341
#     4   9  18  35  61  80 114 154 184 235 289 346
#     4  11  23  37  55  85 120 150 189 245 285 340
#     4  10  20  34  61  92 115 145 194 249 288 336
#     4  10  23  40  58  83 116 162 198 224 294 361
#     4  10  21  40  59  82 119 158 188 240 290 350
#
# _framework density 25.364716999999999
#
# number of rings (size 3 to 8) (size 9 to 14) (size 15 to 20)
#    0.750    1.500    0.000    3.000    1.750    3.500 
#    4.500    0.625    0.000    0.000    0.000    0.000 
#    0.000    0.000    0.000    0.000    0.000    0.000 
#
# Total GULP energy -89252.999828 kJ/mol
# GULP energy per Si atom -5578.312489 kJ/mol
# Density = 2.530699 g / cm^3
# Si number density = 25.364717 Si / 1000 Ang^3
#
#
#
# Elastic Constant Matrix: (Units=GPa)
#
#
# Indices 1 2 3 4 5 6 
#
# 1 100.3819 32.2807 3.5750 -5.3935 1.3188 11.3092
# 2 32.2807 65.4034 9.1474 11.2047 -3.1516 3.3094
# 3 3.5750 9.1474 47.7607 6.2090 -6.2556 -1.6523
# 4 -5.3935 11.2047 6.2090 44.0912 4.2487 6.9797
# 5 1.3188 -3.1516 -6.2556 4.2487 22.5708 0.0805
# 6 11.3092 3.3094 -1.6523 6.9797 0.0805 38.4320
#
#
#
# Elastic Compliance Matrix: (Units=1/GPa)
#
#
# Indices 1 2 3 4 5 6 
#
# 1 0.012951 -0.006968 -0.000697 0.004353 -0.002728 -0.004026
# 2 -0.006968 0.020201 -0.001976 -0.006295 0.003860 0.001361
# 3 -0.000697 -0.001976 0.022818 -0.003772 0.006792 0.002027
# 4 0.004353 -0.006295 -0.003772 0.026956 -0.007232 -0.005781
# 5 -0.002728 0.003860 0.006792 -0.007232 0.048240 0.001975
# 6 -0.004026 0.001361 0.002027 -0.005781 0.001975 0.028220
#
#
# Mechanical properties :
#
#
# Convention : Reuss Voigt Hill
#
# Bulk Modulus (GPa) = 27.25787 33.72802 30.49294
# Shear Modulus (GPa) = 26.19183 32.25500 29.22342
#
# Velocity S-wave (km/s) = 3.21691 3.56989 3.39798
# Velocity P-wave (km/s) = 4.95658 5.50620 5.23860
#
# Compressibility (1/GPa) = 0.03668666
#
# Stress axis : x y z
#
# Youngs Moduli (GPa) = 77.21474 49.50261 43.82415
#
# Poissons Ratio (x) = 0.34494 0.03056
# Poissons Ratio (y) = 0.53804 0.08661
# Poissons Ratio (z) = 0.05385 0.09783
#
# Static dielectric constant tensor:
#      x y z
#    x 1.974390 0.030070 0.023830 
#    y 0.030070 2.112280 -0.055030 
#    z 0.023830 -0.055030 2.041090 
# 
# From -- ./inp_files/521412.got.cif
#   From: 2010.05.17/outbox.cif.g08.bks.cpg/sg2_261_cif.got.tgz:521412.got - 2010.06.03 11:33:40.
