data_PCOD9094542
_publ_section_title
;
Structure prediction by ZEFSAII (Michael W. Deem and Ramdas Pophale) SiO2 
 PCOD9094542
Probable space group: P -1
;
_chemical_formula_sum "Si O2"
_cell_formula_units_Z 16
_cell_length_a 11.979714
_cell_length_b 7.060726
_cell_length_c 8.133325
_cell_angle_alpha 112.353278
_cell_angle_beta 83.436401
_cell_angle_gamma 84.895559
_cell_volume 625.493340
_symmetry_space_group_name_H-M "P -1"
_symmetry_group_IT_number 2
_symmetry_cell_setting 'triclinic'
loop_
_space_group_symop_operation_xyz
x,y,z
-x,-y,-z
loop_
_atom_site_type_symbol
_atom_site_label
_atom_site_fract_x
_atom_site_fract_y
_atom_site_fract_z
Si Si1 0.801934 0.786619 0.026955
Si Si2 0.572838 0.396574 0.803183
Si Si3 0.397550 0.144027 0.150485
Si Si4 0.574214 0.672728 0.477958
Si Si5 0.184076 0.706774 0.180863
Si Si6 0.984686 0.265573 0.473526
Si Si7 0.060803 0.743006 0.883254
Si Si8 0.816752 0.703026 0.350170
O O1 0.777398 0.836446 0.239617
O O2 0.713464 0.893134 0.943853
O O3 0.798496 0.541598 0.930124
O O4 0.930529 0.808680 0.973073
O O5 0.605065 0.606444 0.784333
O O6 0.489378 0.284513 0.669417
O O7 0.688712 0.254088 0.787191
O O8 0.500000 0.500000 0.000000
O O9 0.421305 0.136524 0.337933
O O10 0.500000 0.000000 0.000000
O O11 0.500000 0.500000 0.500000
O O12 0.708823 0.604046 0.401584
O O13 0.098932 0.746608 0.363115
O O14 0.133634 0.796373 0.045693
O O15 0.933768 0.189121 0.287142
O O16 0.000000 0.500000 0.500000
O O17 0.113403 0.185073 0.489254
O O18 0.092720 0.491853 0.789168
#
# Coordination Sequence:
#
# PCOD9094542 Si02
#       8
#     2   2   2   2   2   2   2   2
#     4  10  16  30  48  73 112 143 175 236 291 340
#     4  10  21  38  56  81 119 156 187 236 297 352
#     4  10  22  37  56  81 117 154 200 242 282 337
#     4  10  21  33  53  80 113 149 194 232 284 349
#     4  10  17  30  45  78 115 140 181 233 292 344
#     4  10  17  23  45  72 111 140 173 225 304 333
#     4  10  17  25  46  76 112 143 168 233 307 335
#     4  10  17  29  48  77 113 141 181 237 302 336
#
# _framework density 25.579809999999998
#
# number of rings (size 3 to 8) (size 9 to 14) (size 15 to 20)
#    0.000    2.000    3.750    3.750    8.750    0.000 
#    0.000    2.500    0.000    0.000    0.000    8.750 
#    0.000    0.000    0.000    0.000    0.000    0.000 
#
# Total GULP energy -89306.542708 kJ/mol
# GULP energy per Si atom -5581.658919 kJ/mol
# Density = 2.552159 g / cm^3
# Si number density = 25.579810 Si / 1000 Ang^3
#
#
#
# Elastic Constant Matrix: (Units=GPa)
#
#
# Indices 1 2 3 4 5 6 
#
# 1 234.2085 47.1855 103.0133 -17.6148 22.3042 -37.5182
# 2 47.1855 88.4969 30.9670 4.5249 21.0504 -1.4408
# 3 103.0133 30.9670 166.1276 -37.9131 38.2263 -17.6353
# 4 -17.6148 4.5249 -37.9131 22.3475 -11.8852 1.3734
# 5 22.3042 21.0504 38.2263 -11.8852 44.4924 -14.2427
# 6 -37.5182 -1.4408 -17.6353 1.3734 -14.2427 36.0620
#
#
#
# Elastic Compliance Matrix: (Units=1/GPa)
#
#
# Indices 1 2 3 4 5 6 
#
# 1 0.007619 -0.003764 -0.003643 0.002317 0.004122 0.007534
# 2 -0.003764 0.017928 -0.003413 -0.017800 -0.011172 -0.008603
# 3 -0.003643 -0.003413 0.014456 0.020622 -0.003109 0.001130
# 4 0.002317 -0.017800 0.020622 0.094822 0.020019 0.016079
# 5 0.004122 -0.011172 -0.003109 0.020019 0.039165 0.017027
# 6 0.007534 -0.008603 0.001130 0.016079 0.017027 0.041890
#
#
# Mechanical properties :
#
#
# Convention : Reuss Voigt Hill
#
# Bulk Modulus (GPa) = 54.45226 94.57383 74.51304
# Shear Modulus (GPa) = 20.52211 41.09152 30.80682
#
# Velocity S-wave (km/s) = 2.83552 4.01235 3.47413
# Velocity P-wave (km/s) = 5.66160 7.64968 6.72946
#
# Compressibility (1/GPa) = 0.01836471
#
# Stress axis : x y z
#
# Youngs Moduli (GPa) = 131.25426 55.77756 69.17599
#
# Poissons Ratio (x) = 0.20994 0.25198
# Poissons Ratio (y) = 0.49402 0.23608
# Poissons Ratio (z) = 0.47811 0.19035
#
# Static dielectric constant tensor:
#      x y z
#    x 2.082740 -0.122320 0.075260 
#    y -0.122320 2.330750 -0.103090 
#    z 0.075260 -0.103090 2.100970 
# 
# From -- ./inp_files/245022.got.cif
#   From: 2010.05.17/outbox.cif.g08.bks.cpg/sg2_123_cif.got.tgz:245022.got - 2010.06.03 11:33:40.
