data_PCOD9094315
_publ_section_title
;
Structure prediction by ZEFSAII (Michael W. Deem and Ramdas Pophale) SiO2 
 PCOD9094315
Probable space group: P -1
;
_chemical_formula_sum "Si O2"
_cell_formula_units_Z 16
_cell_length_a 16.587036
_cell_length_b 11.721377
_cell_length_c 11.554119
_cell_angle_alpha 114.068706
_cell_angle_beta 158.662244
_cell_angle_gamma 66.064986
_cell_volume 744.057631
_symmetry_space_group_name_H-M "P -1"
_symmetry_group_IT_number 2
_symmetry_cell_setting 'triclinic'
loop_
_space_group_symop_operation_xyz
x,y,z
-x,-y,-z
loop_
_atom_site_type_symbol
_atom_site_label
_atom_site_fract_x
_atom_site_fract_y
_atom_site_fract_z
Si Si1 0.779436 0.775573 0.485978
Si Si2 0.813028 0.579193 0.628630
Si Si3 0.044578 0.777971 0.269832
Si Si4 0.989900 0.353885 0.457129
Si Si5 0.355225 0.960968 0.680235
Si Si6 0.661956 0.724040 0.900295
Si Si7 0.647665 0.350776 0.182140
Si Si8 0.734067 0.441225 0.688379
O O1 0.803423 0.718388 0.622494
O O2 0.982040 0.733106 0.654689
O O3 0.697688 0.919482 0.422760
O O4 0.593532 0.693832 0.147684
O O5 0.685242 0.488079 0.336653
O O6 0.714020 0.549408 0.609214
O O7 0.075378 0.528517 0.953400
O O8 0.205998 0.743152 0.578828
O O9 0.124570 0.673550 0.238648
O O10 0.804648 0.762375 0.996497
O O11 0.119528 0.910072 0.380996
O O12 0.000000 0.500000 0.500000
O O13 0.752071 0.338362 0.190406
O O14 0.174277 0.314326 0.787596
O O15 0.502007 0.845313 0.772210
O O16 0.500000 0.000000 0.000000
O O17 0.496406 0.614102 0.609563
#
# Coordination Sequence:
#
# PCOD9094315 Si02
#       8
#     2   2   2   2   2   2   2   2
#     4  12  22  36  56  85 122 148 178 236 284 335
#     4  10  20  36  59  81 115 149 192 230 278 341
#     4   9  19  37  59  82 110 145 193 232 272 330
#     4  11  21  32  53  85 116 144 179 226 287 341
#     4  11  20  36  58  86 114 152 186 223 283 341
#     4  10  21  38  60  81 116 151 187 233 279 334
#     4  10  20  34  56  83 114 150 179 225 293 333
#     4   9  20  40  58  81 109 153 194 231 280 329
#
# _framework density 21.503710999999999
#
# number of rings (size 3 to 8) (size 9 to 14) (size 15 to 20)
#    0.000    1.750    3.750    1.875    1.750    1.500 
#    0.000   15.000    0.000    1.500    0.000    0.000 
#    0.000    0.000    0.000    0.000    0.000    0.000 
#
# Total GULP energy -89316.876923 kJ/mol
# GULP energy per Si atom -5582.304808 kJ/mol
# Density = 2.145477 g / cm^3
# Si number density = 21.503711 Si / 1000 Ang^3
#
#
#
# Elastic Constant Matrix: (Units=GPa)
#
#
# Indices 1 2 3 4 5 6 
#
# 1 66.7230 37.0405 30.0001 3.5801 18.3134 15.3126
# 2 37.0405 142.9018 22.7506 -13.5104 -4.6115 32.2846
# 3 30.0001 22.7506 61.8142 7.3763 18.5229 13.5926
# 4 3.5801 -13.5104 7.3763 31.2630 5.5233 -0.4539
# 5 18.3134 -4.6115 18.5229 5.5233 29.5080 1.7090
# 6 15.3126 32.2846 13.5926 -0.4539 1.7090 38.2448
#
#
#
# Elastic Compliance Matrix: (Units=1/GPa)
#
#
# Indices 1 2 3 4 5 6 
#
# 1 0.024508 -0.005416 -0.005437 -0.001757 -0.012153 -0.002786
# 2 -0.005416 0.010851 -0.002323 0.004704 0.006004 -0.006378
# 3 -0.005437 -0.002323 0.024469 -0.004214 -0.011322 -0.004103
# 4 -0.001757 0.004704 -0.004214 0.035571 -0.002114 -0.001253
# 5 -0.012153 0.006004 -0.011322 -0.002114 0.049782 0.001572
# 6 -0.002786 -0.006378 -0.004103 -0.001253 0.001572 0.034020
#
#
# Mechanical properties :
#
#
# Convention : Reuss Voigt Hill
#
# Bulk Modulus (GPa) = 29.87208 50.11348 39.99278
# Shear Modulus (GPa) = 23.07219 31.91301 27.49260
#
# Velocity S-wave (km/s) = 3.27913 3.85654 3.57950
# Velocity P-wave (km/s) = 5.31589 6.57158 5.97680
#
# Compressibility (1/GPa) = 0.03347608
#
# Stress axis : x y z
#
# Youngs Moduli (GPa) = 40.80328 92.15751 40.86806
#
# Poissons Ratio (x) = 0.49911 0.22219
# Poissons Ratio (y) = 0.22098 0.09495
# Poissons Ratio (z) = 0.22184 0.21410
#
# Static dielectric constant tensor:
#      x y z
#    x 1.838270 -0.001350 -0.032410 
#    y -0.001350 1.799360 0.003970 
#    z -0.032410 0.003970 1.848310 
# 
# From -- ./inp_files/464716.got.cif
#   From: 2010.05.17/outbox.cif.g08.bks.cpg/sg2_233_cif.got.tgz:464716.got - 2010.06.03 11:33:40.
