data_PCOD9094278
_publ_section_title
;
Structure prediction by ZEFSAII (Michael W. Deem and Ramdas Pophale) SiO2 
 PCOD9094278
Probable space group: P -1
;
_chemical_formula_sum "Si O2"
_cell_formula_units_Z 16
_cell_length_a 8.607260
_cell_length_b 17.593607
_cell_length_c 11.223061
_cell_angle_alpha 65.965479
_cell_angle_beta 40.132553
_cell_angle_gamma 57.830391
_cell_volume 927.273132
_symmetry_space_group_name_H-M "P -1"
_symmetry_group_IT_number 2
_symmetry_cell_setting 'triclinic'
loop_
_space_group_symop_operation_xyz
x,y,z
-x,-y,-z
loop_
_atom_site_type_symbol
_atom_site_label
_atom_site_fract_x
_atom_site_fract_y
_atom_site_fract_z
Si Si1 0.480358 0.909662 0.217929
Si Si2 0.277770 0.410678 0.215354
Si Si3 0.706940 0.719940 0.499710
Si Si4 0.289106 0.590264 0.215384
Si Si5 0.288906 0.580949 0.500953
Si Si6 0.701365 0.240607 0.499686
Si Si7 0.538048 0.078918 0.498362
Si Si8 0.083873 0.090141 0.216344
O O1 0.389147 0.825350 0.323357
O O2 0.519466 0.924393 0.325117
O O3 0.258487 0.999876 0.240703
O O4 0.736334 0.892321 0.000957
O O5 0.345451 0.332911 0.324109
O O6 0.265421 0.500674 0.232661
O O7 0.994491 0.424857 0.321892
O O8 0.493333 0.390432 0.999975
O O9 0.516500 0.722733 0.499859
O O10 0.646008 0.823042 0.501529
O O11 0.006030 0.668638 0.321714
O O12 0.356561 0.575742 0.324463
O O13 0.500000 0.500000 0.500000
O O14 0.272146 0.676448 0.501098
O O15 0.962534 0.174312 0.323238
O O16 0.832642 0.075299 0.320793
O O17 0.500000 0.000000 0.500000
#
# Coordination Sequence:
#
# PCOD9094278 Si02
#       8
#     2   2   2   2   2   2   2   2
#     4   9  19  36  56  77 105 141 176 214 262 312
#     4  10  21  37  56  78 106 139 173 212 261 314
#     4   9  19  36  56  75 104 143 173 211 260 310
#     4  10  21  37  56  78 106 139 173 212 261 314
#     4  11  22  37  55  80 108 135 174 219 260 306
#     4  10  20  34  56  79 105 138 175 219 260 307
#     4  10  21  35  53  80 109 138 176 219 260 305
#     4   9  19  36  56  77 105 141 176 214 262 312
#
# _framework density 17.254894
#
# number of rings (size 3 to 8) (size 9 to 14) (size 15 to 20)
#    0.000    2.500    0.000    4.500    0.000   10.000 
#    0.000    2.500    0.000    0.000    0.000    0.000 
#    0.000    0.000    0.000    0.000    0.000    0.000 
#
# Total GULP energy -89269.837151 kJ/mol
# GULP energy per Si atom -5579.364822 kJ/mol
# Density = 1.721562 g / cm^3
# Si number density = 17.254894 Si / 1000 Ang^3
#
#
#
# Elastic Constant Matrix: (Units=GPa)
#
#
# Indices 1 2 3 4 5 6 
#
# 1 85.8331 71.1347 68.9227 0.9102 -1.8706 8.7300
# 2 71.1347 143.6011 94.5886 -0.8508 -2.0935 3.5862
# 3 68.9227 94.5886 186.7220 -3.4444 -1.2238 -2.9292
# 4 0.9102 -0.8508 -3.4444 56.3670 -1.2690 -0.8734
# 5 -1.8706 -2.0935 -1.2238 -1.2690 2.9411 -0.5164
# 6 8.7300 3.5862 -2.9292 -0.8734 -0.5164 43.2500
#
#
#
# Elastic Compliance Matrix: (Units=1/GPa)
#
#
# Indices 1 2 3 4 5 6 
#
# 1 0.022236 -0.008110 -0.004138 -0.000670 0.005649 -0.004042
# 2 -0.008110 0.013550 -0.003843 0.000173 0.003014 0.000293
# 3 -0.004138 -0.003843 0.008860 0.000552 -0.001135 0.001752
# 4 -0.000670 0.000173 0.000552 0.017973 0.007789 0.000614
# 5 0.005649 0.003014 -0.001135 0.007789 0.349138 0.002858
# 6 -0.004042 0.000293 0.001752 0.000614 0.002858 0.024078
#
#
# Mechanical properties :
#
#
# Convention : Reuss Voigt Hill
#
# Bulk Modulus (GPa) = 80.23202 98.38315 89.30759
# Shear Modulus (GPa) = 10.58937 32.61230 21.60083
#
# Velocity S-wave (km/s) = 2.47999 4.35217 3.54201
# Velocity P-wave (km/s) = 7.40267 9.07725 8.28239
#
# Compressibility (1/GPa) = 0.01246385
#
# Stress axis : x y z
#
# Youngs Moduli (GPa) = 44.97278 73.80048 112.86512
#
# Poissons Ratio (x) = 0.59849 0.46706
# Poissons Ratio (y) = 0.36471 0.43376
# Poissons Ratio (z) = 0.18611 0.28363
#
# Static dielectric constant tensor:
#      x y z
#    x 1.570130 -0.005360 -0.000360 
#    y -0.005360 1.576590 0.000140 
#    z -0.000360 0.000140 1.574070 
# 
# From -- ./inp_files/401151.got.cif
#   From: 2010.05.17/outbox.cif.g08.bks.cpg/sg2_201_cif.got.tgz:401151.got - 2010.06.03 11:33:40.
