data_PCOD9094595
_publ_section_title
;
Structure prediction by ZEFSAII (Michael W. Deem and Ramdas Pophale) SiO2 
 PCOD9094595
Probable space group: P -1
;
_chemical_formula_sum "Si O2"
_cell_formula_units_Z 16
_cell_length_a 9.453688
_cell_length_b 19.001711
_cell_length_c 12.418917
_cell_angle_alpha 135.454335
_cell_angle_beta 144.318870
_cell_angle_gamma 70.169746
_cell_volume 739.787580
_symmetry_space_group_name_H-M "P -1"
_symmetry_group_IT_number 2
_symmetry_cell_setting 'triclinic'
loop_
_space_group_symop_operation_xyz
x,y,z
-x,-y,-z
loop_
_atom_site_type_symbol
_atom_site_label
_atom_site_fract_x
_atom_site_fract_y
_atom_site_fract_z
Si Si1 0.554291 0.975590 0.388484
Si Si2 0.811432 0.945437 0.175972
Si Si3 0.336910 0.126060 0.340710
Si Si4 0.097026 0.185677 0.742103
Si Si5 0.712376 0.288459 0.127071
Si Si6 0.932462 0.603004 0.312818
Si Si7 0.325154 0.758596 0.529157
Si Si8 0.533198 0.338724 0.861876
O O1 0.500000 0.000000 0.500000
O O2 0.540024 0.073961 0.417551
O O3 0.315132 0.837741 0.046574
O O4 0.865035 0.990372 0.606062
O O5 0.784320 0.830528 0.091209
O O6 0.528045 0.886831 0.861860
O O7 0.855970 0.044113 0.397178
O O8 0.439258 0.210492 0.387295
O O9 0.398739 0.213459 0.575243
O O10 0.000000 0.000000 0.000000
O O11 0.952023 0.257888 0.721385
O O12 0.384446 0.247215 0.912212
O O13 0.915221 0.357756 0.431579
O O14 0.754915 0.351360 0.106470
O O15 0.727747 0.653948 0.241496
O O16 0.163012 0.656428 0.413078
O O17 0.715779 0.454794 0.020459
#
# Coordination Sequence:
#
# PCOD9094595 Si02
#       8
#     2   2   2   2   2   2   2   2
#     4  11  21  37  59  93 130 165 202 258 327 391
#     4  10  21  34  55  89 127 164 204 256 312 381
#     4  12  26  42  65  99 133 172 208 262 338 390
#     4  10  20  34  58  92 124 162 206 261 317 367
#     4  11  21  40  69  94 127 166 218 269 318 377
#     4  11  25  43  69  95 122 177 225 263 315 370
#     4  12  23  39  64  92 132 166 215 261 318 387
#     4  11  25  46  65  93 134 168 220 272 310 380
#
# _framework density 21.627831
#
# number of rings (size 3 to 8) (size 9 to 14) (size 15 to 20)
#    0.000    1.000    5.000    2.250    1.750    2.500 
#    0.000    0.000    0.000    1.500    0.000    0.000 
#    0.000    0.000    0.000    0.000    0.000    0.000 
#
# Total GULP energy -89152.340690 kJ/mol
# GULP energy per Si atom -5572.021293 kJ/mol
# Density = 2.157860 g / cm^3
# Si number density = 21.627831 Si / 1000 Ang^3
#
#
#
# Elastic Constant Matrix: (Units=GPa)
#
#
# Indices 1 2 3 4 5 6 
#
# 1 78.3090 28.4996 20.3409 17.0717 8.2453 21.7392
# 2 28.4996 90.2944 38.3803 -6.9208 -8.7678 9.0800
# 3 20.3409 38.3803 67.3152 6.2566 0.1067 3.7576
# 4 17.0717 -6.9208 6.2566 26.0936 0.1885 -1.2332
# 5 8.2453 -8.7678 0.1067 0.1885 24.9172 0.9576
# 6 21.7392 9.0800 3.7576 -1.2332 0.9576 33.4026
#
#
#
# Elastic Compliance Matrix: (Units=1/GPa)
#
#
# Indices 1 2 3 4 5 6 
#
# 1 0.025681 -0.009351 0.000260 -0.019955 -0.011077 -0.014620
# 2 -0.009351 0.020157 -0.010085 0.013902 0.010049 0.001966
# 3 0.000260 -0.010085 0.021269 -0.007918 -0.003665 -0.000008
# 4 -0.019955 0.013902 -0.007918 0.057451 0.010637 0.011915
# 5 -0.011077 0.010049 -0.003665 0.010637 0.047119 0.003931
# 6 -0.014620 0.001966 -0.000008 0.011915 0.003931 0.039247
#
#
# Mechanical properties :
#
#
# Convention : Reuss Voigt Hill
#
# Bulk Modulus (GPa) = 34.77669 45.59558 40.18614
# Shear Modulus (GPa) = 19.31549 26.79586 23.05568
#
# Velocity S-wave (km/s) = 2.99170 3.52369 3.26854
# Velocity P-wave (km/s) = 5.29605 6.13864 5.73285
#
# Compressibility (1/GPa) = 0.02875489
#
# Stress axis : x y z
#
# Youngs Moduli (GPa) = 38.93942 49.61170 47.01675
#
# Poissons Ratio (x) = 0.46392 -0.01221
# Poissons Ratio (y) = 0.36412 0.47415
# Poissons Ratio (z) = -0.01012 0.50032
#
# Static dielectric constant tensor:
#      x y z
#    x 1.828950 0.058180 0.055280 
#    y 0.058180 1.872880 0.019210 
#    z 0.055280 0.019210 1.788390 
# 
# From -- ./inp_files/403292.got.cif
#   From: 2010.05.17/outbox.cif.g08.bks.cpg/sg2_202_cif.got.tgz:403292.got - 2010.06.03 11:33:40.
