data_PCOD9094333
_publ_section_title
;
Structure prediction by ZEFSAII (Michael W. Deem and Ramdas Pophale) SiO2 
 PCOD9094333
Probable space group: P -1
;
_chemical_formula_sum "Si O2"
_cell_formula_units_Z 16
_cell_length_a 8.233208
_cell_length_b 7.426069
_cell_length_c 17.268651
_cell_angle_alpha 51.275238
_cell_angle_beta 47.630150
_cell_angle_gamma 76.978082
_cell_volume 572.193856
_symmetry_space_group_name_H-M "P -1"
_symmetry_group_IT_number 2
_symmetry_cell_setting 'triclinic'
loop_
_space_group_symop_operation_xyz
x,y,z
-x,-y,-z
loop_
_atom_site_type_symbol
_atom_site_label
_atom_site_fract_x
_atom_site_fract_y
_atom_site_fract_z
Si Si1 0.837398 0.609288 0.839195
Si Si2 0.891196 0.368669 0.464690
Si Si3 0.369597 0.105049 0.896935
Si Si4 0.541486 0.773666 0.446109
Si Si5 0.184041 0.705497 0.828914
Si Si6 0.181520 0.806921 0.165434
Si Si7 0.656152 0.574471 0.613431
Si Si8 0.518654 0.258203 0.148701
O O1 0.791206 0.400470 0.845845
O O2 0.749885 0.811595 0.771810
O O3 0.081655 0.647848 0.790916
O O4 0.661175 0.518883 0.993089
O O5 0.711018 0.206625 0.502739
O O6 0.750050 0.387680 0.581737
O O7 0.978378 0.647320 0.328578
O O8 0.127012 0.318542 0.426002
O O9 0.597378 0.104533 0.872542
O O10 0.420567 0.374459 0.776493
O O11 0.354226 0.917562 0.882794
O O12 0.172340 0.011447 0.051527
O O13 0.500000 0.500000 0.500000
O O14 0.597151 0.756300 0.523648
O O15 0.744098 0.995170 0.280532
O O16 0.428743 0.712811 0.786365
O O17 0.000000 0.500000 0.000000
#
# Coordination Sequence:
#
# PCOD9094333 Si02
#       8
#     2   2   2   2   2   2   2   2
#     4   9  19  34  54  81 116 153 191 235 293 356
#     4   9  18  33  54  81 116 151 188 240 298 344
#     4   9  17  33  60  87 117 153 199 251 295 342
#     4  10  20  34  56  85 113 147 197 246 287 343
#     4  10  21  36  57  86 117 152 199 248 290 345
#     4   9  18  34  56  88 123 155 191 246 306 351
#     4   9  18  33  56  84 111 149 195 239 288 347
#     4   9  17  33  57  83 111 151 197 241 286 343
#
# _framework density 27.962551999999999
#
# number of rings (size 3 to 8) (size 9 to 14) (size 15 to 20)
#    0.000    2.750    0.000    1.500    0.000    6.000 
#    0.000    6.250    0.000   13.500    0.000    0.000 
#    0.000    0.000    0.000    0.000    0.000    0.000 
#
# Total GULP energy -89235.605023 kJ/mol
# GULP energy per Si atom -5577.225314 kJ/mol
# Density = 2.789891 g / cm^3
# Si number density = 27.962552 Si / 1000 Ang^3
#
#
#
# Elastic Constant Matrix: (Units=GPa)
#
#
# Indices 1 2 3 4 5 6 
#
# 1 239.1062 47.4622 31.8920 -1.2833 15.6966 16.2552
# 2 47.4622 80.9313 19.9752 -11.7290 12.0613 17.3735
# 3 31.8920 19.9752 176.4723 -23.1391 9.4343 -10.7011
# 4 -1.2833 -11.7290 -23.1391 24.6918 0.3781 -0.1346
# 5 15.6966 12.0613 9.4343 0.3781 37.9632 0.9066
# 6 16.2552 17.3735 -10.7011 -0.1346 0.9066 30.5270
#
#
#
# Elastic Compliance Matrix: (Units=1/GPa)
#
#
# Indices 1 2 3 4 5 6 
#
# 1 0.004947 -0.002460 -0.000882 -0.001731 -0.000991 -0.001522
# 2 -0.002460 0.017631 -0.000889 0.007430 -0.004225 -0.008877
# 3 -0.000882 -0.000889 0.007010 0.006139 -0.001240 0.003497
# 4 -0.001731 0.007430 0.006139 0.049743 -0.003646 -0.000827
# 5 -0.000991 -0.004225 -0.001240 -0.003646 0.028399 0.001638
# 6 -0.001522 -0.008877 0.003497 -0.000827 0.001638 0.039794
#
#
# Mechanical properties :
#
#
# Convention : Reuss Voigt Hill
#
# Bulk Modulus (GPa) = 47.33684 77.24095 62.28890
# Shear Modulus (GPa) = 30.66961 45.11510 37.89235
#
# Velocity S-wave (km/s) = 3.31541 4.02109 3.68518
# Velocity P-wave (km/s) = 5.62328 7.01725 6.35858
#
# Compressibility (1/GPa) = 0.02112519
#
# Stress axis : x y z
#
# Youngs Moduli (GPa) = 202.12419 56.71942 142.65596
#
# Poissons Ratio (x) = 0.13955 0.12580
# Poissons Ratio (y) = 0.49728 0.12685
# Poissons Ratio (z) = 0.17825 0.05044
#
# Static dielectric constant tensor:
#      x y z
#    x 2.219900 -0.072570 -0.049650 
#    y -0.072570 2.206070 0.044790 
#    z -0.049650 0.044790 2.253580 
# 
# From -- ./inp_files/556846.got.cif
#   From: 2010.05.17/outbox.cif.g08.bks.cpg/sg2_279_cif.got.tgz:556846.got - 2010.06.03 11:33:40.
