data_PCOD9094132
_publ_section_title
;
Structure prediction by ZEFSAII (Michael W. Deem and Ramdas Pophale) SiO2 
 PCOD9094132
Probable space group: P -1
;
_chemical_formula_sum "Si O2"
_cell_formula_units_Z 16
_cell_length_a 19.328477
_cell_length_b 13.254353
_cell_length_c 7.929405
_cell_angle_alpha 33.252121
_cell_angle_beta 45.608348
_cell_angle_gamma 46.745359
_cell_volume 769.462831
_symmetry_space_group_name_H-M "P -1"
_symmetry_group_IT_number 2
_symmetry_cell_setting 'triclinic'
loop_
_space_group_symop_operation_xyz
x,y,z
-x,-y,-z
loop_
_atom_site_type_symbol
_atom_site_label
_atom_site_fract_x
_atom_site_fract_y
_atom_site_fract_z
Si Si1 0.341665 0.871713 0.355278
Si Si2 0.495364 0.649324 0.645718
Si Si3 0.883306 0.473041 0.921270
Si Si4 0.665491 0.720929 0.029670
Si Si5 0.046578 0.676248 0.348038
Si Si6 0.064284 0.958505 0.178671
Si Si7 0.866626 0.067614 0.559492
Si Si8 0.511401 0.942409 0.751105
O O1 0.394679 0.698213 0.632334
O O2 0.234350 0.882780 0.444084
O O3 0.420303 0.863631 0.082246
O O4 0.333632 0.077707 0.166490
O O5 0.595127 0.614269 0.406316
O O6 0.491029 0.859442 0.429864
O O7 0.500000 0.500000 0.000000
O O8 0.890348 0.438686 0.753825
O O9 0.976623 0.549671 0.713352
O O10 0.777509 0.602200 0.977808
O O11 0.893558 0.266532 0.266493
O O12 0.610026 0.785346 0.857370
O O13 0.102768 0.772169 0.257534
O O14 0.967830 0.857146 0.143430
O O15 0.133300 0.003065 0.149737
O O16 0.958171 0.948331 0.458253
O O17 0.500000 0.000000 0.500000
#
# Coordination Sequence:
#
# PCOD9094132 Si02
#       8
#     2   2   2   2   2   2   2   2
#     4   9  19  37  57  79 113 150 184 226 277 337
#     4   9  19  37  59  82 110 145 187 235 281 326
#     4  10  20  34  54  82 110 140 183 231 276 322
#     4   9  19  37  56  78 113 150 183 227 280 334
#     4   9  19  37  57  78 108 145 184 229 274 327
#     4   9  19  37  57  77 108 148 184 224 277 332
#     4  10  20  34  55  82 109 143 186 227 276 330
#     4   9  19  35  55  79 110 149 184 218 275 341
#
# _framework density 20.793727000000001
#
# number of rings (size 3 to 8) (size 9 to 14) (size 15 to 20)
#    0.000    2.750    0.000    2.250    0.000    3.500 
#    0.000   16.250    0.000    0.000    0.000    2.625 
#    0.000    0.000    0.000    0.000    0.000    0.000 
#
# Total GULP energy -89163.761460 kJ/mol
# GULP energy per Si atom -5572.735091 kJ/mol
# Density = 2.074640 g / cm^3
# Si number density = 20.793727 Si / 1000 Ang^3
#
#
#
# Elastic Constant Matrix: (Units=GPa)
#
#
# Indices 1 2 3 4 5 6 
#
# 1 86.1750 -5.3300 27.1443 -0.3545 11.9234 -13.2202
# 2 -5.3300 54.6889 3.9303 -0.4682 2.4078 -5.3703
# 3 27.1443 3.9303 78.9474 -11.8995 14.9334 -12.7610
# 4 -0.3545 -0.4682 -11.8995 10.6810 4.9073 -2.4615
# 5 11.9234 2.4078 14.9334 4.9073 28.6870 -0.3047
# 6 -13.2202 -5.3703 -12.7610 -2.4615 -0.3047 29.8646
#
#
#
# Elastic Compliance Matrix: (Units=1/GPa)
#
#
# Indices 1 2 3 4 5 6 
#
# 1 0.014198 0.002328 -0.003321 0.000068 -0.004324 0.005246
# 2 0.002328 0.019150 0.000224 0.003795 -0.003290 0.004849
# 3 -0.003321 0.000224 0.025172 0.039211 -0.018318 0.012371
# 4 0.000068 0.003795 0.039211 0.167080 -0.049014 0.030738
# 5 -0.004324 -0.003290 -0.018318 -0.049014 0.054706 -0.013815
# 6 0.005246 0.004849 0.012371 0.030738 -0.013815 0.044357
#
#
# Mechanical properties :
#
#
# Convention : Reuss Voigt Hill
#
# Bulk Modulus (GPa) = 17.54934 30.14452 23.84693
# Shear Modulus (GPa) = 14.48459 26.78429 20.63444
#
# Velocity S-wave (km/s) = 2.64215 3.59290 3.15356
# Velocity P-wave (km/s) = 4.21497 5.63385 4.97525
#
# Compressibility (1/GPa) = 0.05698219
#
# Stress axis : x y z
#
# Youngs Moduli (GPa) = 70.43327 52.22048 39.72620
#
# Poissons Ratio (x) = -0.12160 0.13195
# Poissons Ratio (y) = -0.16400 -0.00891
# Poissons Ratio (z) = 0.23394 -0.01171
#
# Static dielectric constant tensor:
#      x y z
#    x 1.834200 0.054880 0.025030 
#    y 0.054880 1.786740 0.012790 
#    z 0.025030 0.012790 1.757150 
# 
# From -- ./inp_files/327820.got.cif
#   From: 2010.05.17/outbox.cif.g08.bks.cpg/sg2_164_cif.got.tgz:327820.got - 2010.06.03 11:33:40.
