data_PCOD9094753
_publ_section_title
;
Structure prediction by ZEFSAII (Michael W. Deem and Ramdas Pophale) SiO2 
 PCOD9094753
Probable space group: P -1
;
_chemical_formula_sum "Si O2"
_cell_formula_units_Z 16
_cell_length_a 15.687426
_cell_length_b 14.187847
_cell_length_c 5.626743
_cell_angle_alpha 75.098108
_cell_angle_beta 73.934860
_cell_angle_gamma 132.491392
_cell_volume 691.488246
_symmetry_space_group_name_H-M "P -1"
_symmetry_group_IT_number 2
_symmetry_cell_setting 'triclinic'
loop_
_space_group_symop_operation_xyz
x,y,z
-x,-y,-z
loop_
_atom_site_type_symbol
_atom_site_label
_atom_site_fract_x
_atom_site_fract_y
_atom_site_fract_z
Si Si1 0.219465 0.142310 0.834243
Si Si2 0.405715 0.669943 0.189886
Si Si3 0.520432 0.422262 0.184230
Si Si4 0.005966 0.917433 0.738415
Si Si5 0.211928 0.428278 0.880768
Si Si6 0.302034 0.924672 0.661056
Si Si7 0.662674 0.263672 0.182111
Si Si8 0.722971 0.997255 0.882403
O O1 0.394442 0.311428 0.553259
O O2 0.126490 0.157663 0.938531
O O3 0.202322 0.043360 0.112369
O O4 0.155450 0.047916 0.693187
O O5 0.277240 0.492884 0.523678
O O6 0.485274 0.676680 0.918554
O O7 0.327119 0.695978 0.127932
O O8 0.543286 0.820774 0.150440
O O9 0.683200 0.557050 0.078188
O O10 0.500000 0.500000 0.000000
O O11 0.950444 0.758899 0.830901
O O12 0.000000 0.000000 0.500000
O O13 0.256111 0.574276 0.853144
O O14 0.272576 0.782979 0.768270
O O15 0.481911 0.095709 0.448427
O O16 0.260267 0.935814 0.430531
O O17 0.234075 0.907434 0.970353
#
# Coordination Sequence:
#
# PCOD9094753 Si02
#       8
#     2   2   2   2   2   2   2   2
#     4  11  24  42  59  91 123 170 217 264 319 393
#     4  10  20  34  60  92 129 163 208 261 322 375
#     4  11  22  35  61  90 126 163 212 268 321 379
#     4  11  27  42  63  86 126 172 218 261 326 385
#     4  11  21  39  60  94 122 168 210 266 319 380
#     4  10  21  35  62  99 130 171 206 266 323 388
#     4   9  20  34  57  92 134 161 204 260 322 385
#     4  11  21  37  63  94 128 166 216 261 321 381
#
# _framework density 23.138496
#
# number of rings (size 3 to 8) (size 9 to 14) (size 15 to 20)
#    0.000    1.500    2.500    3.000    7.000    5.500 
#    0.000    0.000    0.000    1.500    0.000    0.000 
#    0.000    0.000    0.000    0.000    0.000    0.000 
#
# Total GULP energy -89262.724573 kJ/mol
# GULP energy per Si atom -5578.920286 kJ/mol
# Density = 2.308583 g / cm^3
# Si number density = 23.138496 Si / 1000 Ang^3
#
#
#
# Elastic Constant Matrix: (Units=GPa)
#
#
# Indices 1 2 3 4 5 6 
#
# 1 110.0708 12.1075 27.8659 1.2570 35.9605 -11.5542
# 2 12.1075 72.8017 6.5873 -11.0311 5.1389 -7.0802
# 3 27.8659 6.5873 56.0250 -1.9207 19.2654 -7.4094
# 4 1.2570 -11.0311 -1.9207 33.9613 -0.1265 8.2846
# 5 35.9605 5.1389 19.2654 -0.1265 38.4564 -2.6802
# 6 -11.5542 -7.0802 -7.4094 8.2846 -2.6802 31.1238
#
#
#
# Elastic Compliance Matrix: (Units=1/GPa)
#
#
# Indices 1 2 3 4 5 6 
#
# 1 0.014012 -0.001233 -0.002442 -0.002051 -0.011450 0.003900
# 2 -0.001233 0.014852 -0.000642 0.004454 -0.000388 0.001549
# 3 -0.002442 -0.000642 0.022608 0.000272 -0.008711 0.003507
# 4 -0.002051 0.004454 0.000272 0.033039 0.000709 -0.008417
# 5 -0.011450 -0.000388 -0.008711 0.000709 0.040914 -0.003078
# 6 0.003900 0.001549 0.003507 -0.008417 -0.003078 0.036740
#
#
# Mechanical properties :
#
#
# Convention : Reuss Voigt Hill
#
# Bulk Modulus (GPa) = 23.34346 36.89099 30.11723
# Shear Modulus (GPa) = 27.01552 33.53075 30.27314
#
# Velocity S-wave (km/s) = 3.42066 3.81088 3.62103
# Velocity P-wave (km/s) = 5.07067 5.94490 5.52511
#
# Compressibility (1/GPa) = 0.04283856
#
# Stress axis : x y z
#
# Youngs Moduli (GPa) = 71.36556 67.33109 44.23233
#
# Poissons Ratio (x) = 0.08300 0.10801
# Poissons Ratio (y) = 0.08797 0.02841
# Poissons Ratio (z) = 0.17426 0.04325
#
# Static dielectric constant tensor:
#      x y z
#    x 1.850320 -0.048260 -0.003870 
#    y -0.048260 1.959950 0.064390 
#    z -0.003870 0.064390 1.980310 
# 
# From -- ./inp_files/96912.got.cif
#   From: 2010.05.17/outbox.cif.g08.bks.cpg/sg2_49_cif.got.tgz:96912.got - 2010.06.03 11:33:40.
