data_PCOD9094430
_publ_section_title
;
Structure prediction by ZEFSAII (Michael W. Deem and Ramdas Pophale) SiO2 
 PCOD9094430
Probable space group: P -1
;
_chemical_formula_sum "Si O2"
_cell_formula_units_Z 16
_cell_length_a 24.390984
_cell_length_b 15.730765
_cell_length_c 15.967656
_cell_angle_alpha 152.086185
_cell_angle_beta 15.976487
_cell_angle_gamma 150.862755
_cell_volume 775.693695
_symmetry_space_group_name_H-M "P -1"
_symmetry_group_IT_number 2
_symmetry_cell_setting 'triclinic'
loop_
_space_group_symop_operation_xyz
x,y,z
-x,-y,-z
loop_
_atom_site_type_symbol
_atom_site_label
_atom_site_fract_x
_atom_site_fract_y
_atom_site_fract_z
Si Si1 0.399821 0.963901 0.205593
Si Si2 0.863392 0.516397 0.094461
Si Si3 0.838665 0.583344 0.750011
Si Si4 0.061994 0.005309 0.090881
Si Si5 0.575713 0.458872 0.166567
Si Si6 0.953833 0.614094 0.855195
Si Si7 0.765064 0.098102 0.893143
Si Si8 0.919110 0.093326 0.834788
O O1 0.180198 0.011721 0.564246
O O2 0.386126 0.748383 0.057163
O O3 0.500000 0.000000 0.000000
O O4 0.544413 0.081775 0.163638
O O5 0.644708 0.529204 0.465558
O O6 0.024841 0.685444 0.041916
O O7 0.874394 0.552252 0.010186
O O8 0.889130 0.306950 0.888215
O O9 0.000000 0.500000 0.500000
O O10 0.861443 0.803227 0.901647
O O11 0.900373 0.514864 0.509697
O O12 0.622140 0.506474 0.042626
O O13 0.132876 0.995182 0.074559
O O14 0.083631 0.820373 0.849157
O O15 0.752025 0.591791 0.075279
O O16 0.759401 0.042182 0.949944
O O17 0.882817 0.972882 0.553165
#
# Coordination Sequence:
#
# PCOD9094430 Si02
#       8
#     2   2   2   2   2   2   2   2
#     4  12  19  34  58  87 119 151 186 241 294 337
#     4  11  20  37  58  87 113 152 195 243 286 343
#     4  10  21  37  54  84 123 155 190 237 289 350
#     4  11  20  37  59  83 115 154 194 237 291 346
#     4  11  21  36  53  87 126 145 192 242 288 345
#     4  10  20  34  57  84 117 155 190 235 295 344
#     4  11  21  35  58  86 119 155 188 242 296 339
#     4  10  22  37  56  88 117 151 195 240 291 348
#
# _framework density 20.626697
#
# number of rings (size 3 to 8) (size 9 to 14) (size 15 to 20)
#    0.000    1.250    5.000    3.750    0.000    2.000 
#    2.250    0.000    0.000    1.500    0.000    0.000 
#    0.000    0.000    0.000    0.000    0.000    0.000 
#
# Total GULP energy -89323.652347 kJ/mol
# GULP energy per Si atom -5582.728272 kJ/mol
# Density = 2.057975 g / cm^3
# Si number density = 20.626697 Si / 1000 Ang^3
#
#
#
# Elastic Constant Matrix: (Units=GPa)
#
#
# Indices 1 2 3 4 5 6 
#
# 1 57.5234 18.5824 -9.7945 -20.6365 -9.1706 3.4571
# 2 18.5824 98.1453 4.6191 11.9929 9.0447 -23.4936
# 3 -9.7945 4.6191 38.1289 -12.0131 15.6794 2.4744
# 4 -20.6365 11.9929 -12.0131 27.4105 -10.6050 8.2470
# 5 -9.1706 9.0447 15.6794 -10.6050 14.7358 4.8659
# 6 3.4571 -23.4936 2.4744 8.2470 4.8659 17.5382
#
#
#
# Elastic Compliance Matrix: (Units=1/GPa)
#
#
# Indices 1 2 3 4 5 6 
#
# 1 0.005095 0.008294 0.004351 -0.014197 -0.024335 0.022920
# 2 0.008294 0.002479 -0.000229 0.015440 0.018523 -0.010682
# 3 0.004351 -0.000229 0.046843 0.007988 -0.041215 -0.000094
# 4 -0.014197 0.015440 0.007988 -0.004666 -0.042136 0.036239
# 5 -0.024335 0.018523 -0.041215 -0.042136 0.040334 0.044047
# 6 0.022920 -0.010682 -0.000094 0.036239 0.044047 0.008944
#
#
# Mechanical properties :
#
#
# Convention : Reuss Voigt Hill
#
# Bulk Modulus (GPa) = 12.61832 24.51242 18.56537
# Shear Modulus (GPa) = 49.69522 23.96295 36.82908
#
# Velocity S-wave (km/s) = 4.91375 3.41213 4.23011
# Velocity P-wave (km/s) = 6.19064 5.23767 5.73399
#
# Compressibility (1/GPa) = 0.07924986
#
# Stress axis : x y z
#
# Youngs Moduli (GPa) = 196.25191 403.43265 21.34770
#
# Poissons Ratio (x) = -3.34620 -0.09287
# Poissons Ratio (y) = -1.62777 0.00488
# Poissons Ratio (z) = -0.85381 0.09231
#
# Static dielectric constant tensor:
#      x y z
#    x 1.774690 -0.003810 0.008390 
#    y -0.003810 1.767340 0.026450 
#    z 0.008390 0.026450 1.743890 
# 
# From -- ./inp_files/274524.got.cif
#   From: 2010.05.17/outbox.cif.g08.bks.cpg/sg2_138_cif.got.tgz:274524.got - 2010.06.03 11:33:40.
