data_PCOD9094041
_publ_section_title
;
Structure prediction by ZEFSAII (Michael W. Deem and Ramdas Pophale) SiO2 
 PCOD9094041
Probable space group: P -1
;
_chemical_formula_sum "Si O2"
_cell_formula_units_Z 14
_cell_length_a 24.533050
_cell_length_b 10.436776
_cell_length_c 11.286964
_cell_angle_alpha 26.482366
_cell_angle_beta 148.319562
_cell_angle_gamma 143.672518
_cell_volume 664.781410
_symmetry_space_group_name_H-M "P -1"
_symmetry_group_IT_number 2
_symmetry_cell_setting 'triclinic'
loop_
_space_group_symop_operation_xyz
x,y,z
-x,-y,-z
loop_
_atom_site_type_symbol
_atom_site_label
_atom_site_fract_x
_atom_site_fract_y
_atom_site_fract_z
Si Si1 0.075106 0.798377 0.858973
Si Si2 0.754255 0.136351 0.082949
Si Si3 0.422867 0.192781 0.140324
Si Si4 0.724527 0.748515 0.555314
Si Si5 0.493881 0.670026 0.225055
Si Si6 0.243315 0.161586 0.032448
Si Si7 0.283732 0.778097 0.645683
O O1 0.162460 0.776000 0.939465
O O2 0.000000 0.000000 0.500000
O O3 0.000000 0.500000 0.000000
O O4 0.141902 0.944954 0.972461
O O5 0.750964 0.438108 0.896718
O O6 0.642331 0.986977 0.939995
O O7 0.783372 0.900215 0.423829
O O8 0.329311 0.225735 0.032021
O O9 0.500000 0.000000 0.500000
O O10 0.500000 0.500000 0.000000
O O11 0.600753 0.655571 0.367269
O O12 0.732689 0.996007 0.467291
O O13 0.500000 0.500000 0.500000
O O14 0.386886 0.631491 0.985916
O O15 0.500000 0.000000 0.000000
O O16 0.288923 0.980495 0.371394
O O17 0.206091 0.465989 0.746889
#
# Coordination Sequence:
#
# PCOD9094041 Si02
#       7
#     2   2   2   2   2   2   2
#     4  11  24  47  74  92 117 156 218 282 329 386
#     4  11  24  40  64  95 120 166 217 254 324 381
#     4  11  24  39  57  87 128 170 204 263 312 360
#     4  11  22  38  60  90 135 170 211 253 299 374
#     4  10  20  34  52  83 126 183 221 228 275 354
#     4  11  24  40  65  95 123 165 221 256 328 380
#     4  11  22  38  62  92 135 174 211 257 301 375
#
# _framework density 21.059553999999999
#
# number of rings (size 3 to 8) (size 9 to 14) (size 15 to 20)
#    0.000    1.143    0.000    7.714    6.000    4.571 
#    0.000    0.000    0.000   17.143    0.000    0.000 
#    0.000    0.000    0.000    0.000    0.000    0.000 
#
# Total GULP energy -78100.301441 kJ/mol
# GULP energy per Si atom -5578.592960 kJ/mol
# Density = 2.101162 g / cm^3
# Si number density = 21.059554 Si / 1000 Ang^3
#
#
#
# Elastic Constant Matrix: (Units=GPa)
#
#
# Indices 1 2 3 4 5 6 
#
# 1 53.7383 49.6640 25.6180 -12.1703 -14.9943 -4.6163
# 2 49.6640 133.0981 48.5358 -30.8329 -9.6417 0.6515
# 3 25.6180 48.5358 147.3244 -32.6796 -20.2763 0.1000
# 4 -12.1703 -30.8329 -32.6796 39.7970 1.1053 -1.5604
# 5 -14.9943 -9.6417 -20.2763 1.1053 38.4532 -7.4346
# 6 -4.6163 0.6515 0.1000 -1.5604 -7.4346 35.1844
#
#
#
# Elastic Compliance Matrix: (Units=1/GPa)
#
#
# Indices 1 2 3 4 5 6 
#
# 1 0.033097 -0.011197 -0.000252 0.001200 0.011282 0.006987
# 2 -0.011197 0.013407 -0.001529 0.005697 -0.002353 -0.001957
# 3 -0.000252 -0.001529 0.009363 0.006349 0.004505 0.001202
# 4 0.001200 0.005697 0.006349 0.035091 0.004736 0.002591
# 5 0.011282 -0.002353 0.004505 0.004736 0.033766 0.008856
# 6 0.006987 -0.001957 0.001202 0.002591 0.008856 0.031357
#
#
# Mechanical properties :
#
#
# Convention : Reuss Voigt Hill
#
# Bulk Modulus (GPa) = 33.43217 64.64406 49.03811
# Shear Modulus (GPa) = 26.04060 36.70980 31.37520
#
# Velocity S-wave (km/s) = 3.52024 4.17962 3.86402
# Velocity P-wave (km/s) = 5.69493 7.35220 6.57598
#
# Compressibility (1/GPa) = 0.02991131
#
# Stress axis : x y z
#
# Youngs Moduli (GPa) = 30.21465 74.58533 106.80558
#
# Poissons Ratio (x) = 0.83510 0.02694
# Poissons Ratio (y) = 0.33830 0.16330
# Poissons Ratio (z) = 0.00762 0.11404
#
# Static dielectric constant tensor:
#      x y z
#    x 1.803040 -0.059970 -0.009060 
#    y -0.059970 2.019460 0.051430 
#    z -0.009060 0.051430 1.775790 
# 
# From -- ./inp_files/476610.got.cif
#   From: 2010.05.17/outbox.cif.g08.bks.cpg/sg2_239_cif.got.tgz:476610.got - 2010.06.03 11:33:40.
