data_PCOD9094178
_publ_section_title
;
Structure prediction by ZEFSAII (Michael W. Deem and Ramdas Pophale) SiO2 
 PCOD9094178
Probable space group: P -1
;
_chemical_formula_sum "Si O2"
_cell_formula_units_Z 16
_cell_length_a 6.006930
_cell_length_b 10.839258
_cell_length_c 16.549593
_cell_angle_alpha 32.040132
_cell_angle_beta 85.751876
_cell_angle_gamma 88.106479
_cell_volume 569.184462
_symmetry_space_group_name_H-M "P -1"
_symmetry_group_IT_number 2
_symmetry_cell_setting 'triclinic'
loop_
_space_group_symop_operation_xyz
x,y,z
-x,-y,-z
loop_
_atom_site_type_symbol
_atom_site_label
_atom_site_fract_x
_atom_site_fract_y
_atom_site_fract_z
Si Si1 0.168069 0.547973 0.543621
Si Si2 0.412152 0.620184 0.215365
Si Si3 0.314522 0.354098 0.137149
Si Si4 0.962150 0.342648 0.931212
Si Si5 0.306917 0.015977 0.095870
Si Si6 0.648339 0.267534 0.320578
Si Si7 0.928991 0.954341 0.383871
Si Si8 0.598417 0.856472 0.298211
O O1 0.386202 0.706853 0.423380
O O2 0.273947 0.297179 0.686359
O O3 0.000000 0.500000 0.500000
O O4 0.035476 0.699815 0.528051
O O5 0.310808 0.743418 0.226999
O O6 0.521419 0.369425 0.347175
O O7 0.210944 0.632800 0.149920
O O8 0.601131 0.815272 0.071925
O O9 0.454038 0.269357 0.258089
O O10 0.153745 0.562406 0.041183
O O11 0.135577 0.133992 0.252518
O O12 0.500000 0.500000 0.000000
O O13 0.172662 0.522504 0.816041
O O14 0.061467 0.093933 0.075615
O O15 0.479170 0.058207 0.141201
O O16 0.797013 0.048250 0.414545
O O17 0.755371 0.931996 0.326528
#
# Coordination Sequence:
#
# PCOD9094178 Si02
#       8
#     2   2   2   2   2   2   2   2
#     4   9  20  37  55  80 110 142 187 237 283 334
#     4   9  19  35  52  78 111 145 188 225 267 331
#     4  10  21  33  48  79 117 149 184 224 271 339
#     4   9  19  33  48  72 107 146 186 221 266 325
#     4  10  20  34  55  78 108 148 185 229 275 325
#     4   9  19  32  50  75 104 143 181 219 267 328
#     4  10  20  35  56  79 111 150 181 225 286 334
#     4  10  21  36  56  84 111 143 189 234 282 332
#
# _framework density 28.110396000000001
#
# number of rings (size 3 to 8) (size 9 to 14) (size 15 to 20)
#    0.000    2.500    0.000    1.125    0.000   12.000 
#    0.000    3.125    0.000    0.750    0.000   22.750 
#    0.000    0.000    0.000    0.000    0.000    0.000 
#
# Total GULP energy -89412.926748 kJ/mol
# GULP energy per Si atom -5588.307922 kJ/mol
# Density = 2.804642 g / cm^3
# Si number density = 28.110396 Si / 1000 Ang^3
#
#
#
# Elastic Constant Matrix: (Units=GPa)
#
#
# Indices 1 2 3 4 5 6 
#
# 1 173.1976 75.6263 64.6845 -33.1301 15.4916 -3.7280
# 2 75.6263 125.9621 55.1158 -46.8052 20.2734 -25.9272
# 3 64.6845 55.1158 98.1036 -22.0268 -11.9776 -15.6668
# 4 -33.1301 -46.8052 -22.0268 52.1105 -4.5618 21.6579
# 5 15.4916 20.2734 -11.9776 -4.5618 71.6035 -27.5072
# 6 -3.7280 -25.9272 -15.6668 21.6579 -27.5072 65.8811
#
#
#
# Elastic Compliance Matrix: (Units=1/GPa)
#
#
# Indices 1 2 3 4 5 6 
#
# 1 0.009782 -0.002678 -0.005422 0.002997 -0.003740 -0.004337
# 2 -0.002678 0.016708 -0.005867 0.010575 -0.004601 -0.000369
# 3 -0.005422 -0.005867 0.018393 -0.002739 0.008049 0.006019
# 4 0.002997 0.010575 -0.002739 0.032886 -0.005652 -0.009491
# 5 -0.003740 -0.004601 0.008049 -0.005652 0.021124 0.010570
# 6 -0.004337 -0.000369 0.006019 -0.009491 0.010570 0.023753
#
#
# Mechanical properties :
#
#
# Convention : Reuss Voigt Hill
#
# Bulk Modulus (GPa) = 58.99763 87.56849 73.28306
# Shear Modulus (GPa) = 32.00390 51.37480 41.68935
#
# Velocity S-wave (km/s) = 3.37784 4.27969 3.85523
# Velocity P-wave (km/s) = 6.02050 7.45924 6.77815
#
# Compressibility (1/GPa) = 0.01694983
#
# Stress axis : x y z
#
# Youngs Moduli (GPa) = 102.22386 59.85184 54.36713
#
# Poissons Ratio (x) = 0.16027 0.29477
# Poissons Ratio (y) = 0.27373 0.31899
# Poissons Ratio (z) = 0.55424 0.35117
#
# Static dielectric constant tensor:
#      x y z
#    x 2.193980 -0.083940 0.006430 
#    y -0.083940 2.303950 -0.047960 
#    z 0.006430 -0.047960 2.200730 
# 
# From -- ./inp_files/93617.got.cif
#   From: 2010.05.17/outbox.cif.g08.bks.cpg/sg2_47_cif.got.tgz:93617.got - 2010.06.03 11:33:40.
