data_PCOD9094378
_publ_section_title
;
Structure prediction by ZEFSAII (Michael W. Deem and Ramdas Pophale) SiO2 
 PCOD9094378
Probable space group: P -1
;
_chemical_formula_sum "Si O2"
_cell_formula_units_Z 16
_cell_length_a 21.026906
_cell_length_b 6.512054
_cell_length_c 10.122751
_cell_angle_alpha 100.603135
_cell_angle_beta 134.189254
_cell_angle_gamma 65.495560
_cell_volume 892.555066
_symmetry_space_group_name_H-M "P -1"
_symmetry_group_IT_number 2
_symmetry_cell_setting 'triclinic'
loop_
_space_group_symop_operation_xyz
x,y,z
-x,-y,-z
loop_
_atom_site_type_symbol
_atom_site_label
_atom_site_fract_x
_atom_site_fract_y
_atom_site_fract_z
Si Si1 0.225369 0.411559 0.385947
Si Si2 0.364371 0.624889 0.698151
Si Si3 0.556560 0.885952 0.701900
Si Si4 0.689512 0.379724 0.845432
Si Si5 0.121803 0.784802 0.049617
Si Si6 0.639956 0.094234 0.517332
Si Si7 0.412954 0.714122 0.069420
Si Si8 0.941787 0.720576 0.850963
O O1 0.291468 0.498925 0.580577
O O2 0.174862 0.605121 0.223980
O O3 0.145117 0.343191 0.333828
O O4 0.297843 0.172036 0.399327
O O5 0.325956 0.819895 0.554395
O O6 0.471755 0.448962 0.785246
O O7 0.376521 0.718978 0.868579
O O8 0.640546 0.643089 0.764464
O O9 0.471822 0.857856 0.660155
O O10 0.500000 0.000000 0.500000
O O11 0.595049 0.046701 0.855449
O O12 0.804021 0.279061 0.972174
O O13 0.649461 0.241037 0.671351
O O14 0.650105 0.366342 0.931875
O O15 0.100037 0.042307 0.097546
O O16 0.020940 0.758026 0.876867
O O17 0.000000 0.500000 0.000000
#
# Coordination Sequence:
#
# PCOD9094378 Si02
#       8
#     2   2   2   2   2   2   2   2
#     4  11  19  35  60  82 114 153 185 231 285 332
#     4  11  23  39  52  78 115 156 201 233 268 334
#     4  12  22  34  55  81 113 153 190 233 282 329
#     4  12  22  35  56  84 117 147 185 236 287 332
#     4  10  20  34  56  91 117 139 184 238 286 340
#     4  12  21  34  58  82 112 153 192 230 275 337
#     4  11  25  37  52  79 116 156 197 236 274 327
#     4   9  19  34  57  88 117 142 179 235 292 337
#
# _framework density 17.926065999999999
#
# number of rings (size 3 to 8) (size 9 to 14) (size 15 to 20)
#    0.000    1.000    6.250    1.875    0.000    1.500 
#    0.000    0.000    0.000    0.750    0.000   13.125 
#    0.000    0.000    0.000    0.000    0.000    0.000 
#
# Total GULP energy -89255.115408 kJ/mol
# GULP energy per Si atom -5578.444713 kJ/mol
# Density = 1.788527 g / cm^3
# Si number density = 17.926066 Si / 1000 Ang^3
#
#
#
# Elastic Constant Matrix: (Units=GPa)
#
#
# Indices 1 2 3 4 5 6 
#
# 1 123.0840 22.5639 32.5873 8.1666 26.4697 3.8026
# 2 22.5639 129.4990 28.0553 5.6357 -2.1116 -3.9617
# 3 32.5873 28.0553 52.0277 14.1930 3.0297 3.3919
# 4 8.1666 5.6357 14.1930 22.0329 3.6885 7.8349
# 5 26.4697 -2.1116 3.0297 3.6885 31.0707 1.9298
# 6 3.8026 -3.9617 3.3919 7.8349 1.9298 28.1607
#
#
#
# Elastic Compliance Matrix: (Units=1/GPa)
#
#
# Indices 1 2 3 4 5 6 
#
# 1 0.012198 -0.000862 -0.007163 0.002288 -0.009970 -0.000859
# 2 -0.000862 0.008927 -0.004491 0.000012 0.001666 0.001796
# 3 -0.007163 -0.004491 0.030408 -0.016963 0.004779 0.001065
# 4 0.002288 0.000012 -0.016963 0.061933 -0.006713 -0.015035
# 5 -0.009970 0.001666 0.004779 -0.006713 0.041119 0.000055
# 6 -0.000859 0.001796 0.001065 -0.015035 0.000055 0.039930
#
#
# Mechanical properties :
#
#
# Convention : Reuss Voigt Hill
#
# Bulk Modulus (GPa) = 37.73377 52.33598 45.03487
# Shear Modulus (GPa) = 21.89327 31.01313 26.45320
#
# Velocity S-wave (km/s) = 3.49852 4.16391 3.84563
# Velocity P-wave (km/s) = 6.11677 7.23715 6.70042
#
# Compressibility (1/GPa) = 0.02650146
#
# Stress axis : x y z
#
# Youngs Moduli (GPa) = 81.98251 112.02203 32.88563
#
# Poissons Ratio (x) = 0.09656 0.23555
# Poissons Ratio (y) = 0.07067 0.14769
# Poissons Ratio (z) = 0.58722 0.50310
#
# Static dielectric constant tensor:
#      x y z
#    x 1.693480 0.018620 0.036490 
#    y 0.018620 1.626150 -0.018600 
#    z 0.036490 -0.018600 1.581410 
# 
# From -- ./inp_files/44637.got.cif
#   From: 2010.05.17/outbox.cif.g08.bks.cpg/sg2_23_cif.got.tgz:44637.got - 2010.06.03 11:33:40.
