data_PCOD9094857
_publ_section_title
;
Structure prediction by ZEFSAII (Michael W. Deem and Ramdas Pophale) SiO2 
 PCOD9094857
Probable space group: P -1
;
_chemical_formula_sum "Si O2"
_cell_formula_units_Z 16
_cell_length_a 9.636193
_cell_length_b 15.721985
_cell_length_c 8.426140
_cell_angle_alpha 68.353825
_cell_angle_beta 43.763619
_cell_angle_gamma 55.583578
_cell_volume 726.682676
_symmetry_space_group_name_H-M "P -1"
_symmetry_group_IT_number 2
_symmetry_cell_setting 'triclinic'
loop_
_space_group_symop_operation_xyz
x,y,z
-x,-y,-z
loop_
_atom_site_type_symbol
_atom_site_label
_atom_site_fract_x
_atom_site_fract_y
_atom_site_fract_z
Si Si1 0.654525 0.718347 0.086908
Si Si2 0.044473 0.548396 0.766489
Si Si3 0.548401 0.855849 0.533983
Si Si4 0.911846 0.918755 0.685444
Si Si5 0.127217 0.700401 0.773581
Si Si6 0.674222 0.090387 0.976193
Si Si7 0.423469 0.351810 0.475999
Si Si8 0.169527 0.068396 0.596120
O O1 0.463781 0.821802 0.099172
O O2 0.561395 0.670675 0.330490
O O3 0.789291 0.638758 0.886747
O O4 0.861345 0.728428 0.000074
O O5 0.179186 0.612127 0.658824
O O6 0.194117 0.459844 0.581188
O O7 0.000000 0.500000 0.000000
O O8 0.590530 0.743455 0.528582
O O9 0.768145 0.873612 0.357253
O O10 0.356640 0.948072 0.526656
O O11 0.451360 0.883129 0.772947
O O12 0.826610 0.890929 0.612852
O O13 0.099268 0.812005 0.672917
O O14 0.728370 0.981196 0.927056
O O15 0.000000 0.000000 0.500000
O O16 0.334509 0.652218 0.759076
O O17 0.919380 0.082581 0.816128
#
# Coordination Sequence:
#
# PCOD9094857 Si02
#       8
#     2   2   2   2   2   2   2   2
#     4   9  21  35  60  85 110 147 196 240 276 334
#     4   8  19  38  57  90 112 140 197 251 279 329
#     4  11  24  35  55  85 119 155 189 225 288 356
#     4  10  20  36  61  87 112 150 196 231 276 344
#     4  10  20  34  62  91 110 148 191 241 293 324
#     4  11  21  38  56  83 119 150 187 238 280 343
#     4  11  19  38  60  85 117 149 190 242 287 336
#     4  10  22  39  54  81 121 154 187 232 286 334
#
# _framework density 22.017862000000001
#
# number of rings (size 3 to 8) (size 9 to 14) (size 15 to 20)
#    0.750    1.250    0.000    5.250    0.000    5.000 
#    0.000    0.625    0.000    0.750    0.000    0.000 
#    0.000    0.000    0.000    0.000    0.000    0.000 
#
# Total GULP energy -89106.313648 kJ/mol
# GULP energy per Si atom -5569.144603 kJ/mol
# Density = 2.196775 g / cm^3
# Si number density = 22.017862 Si / 1000 Ang^3
#
#
#
# Elastic Constant Matrix: (Units=GPa)
#
#
# Indices 1 2 3 4 5 6 
#
# 1 68.8883 11.7784 14.4770 16.5532 -25.1555 5.8147
# 2 11.7784 98.3769 8.2616 34.8460 -6.3324 16.5139
# 3 14.4770 8.2616 43.4812 8.5449 -11.3693 -5.0643
# 4 16.5532 34.8460 8.5449 33.7023 -2.4220 -0.5277
# 5 -25.1555 -6.3324 -11.3693 -2.4220 35.5415 0.5806
# 6 5.8147 16.5139 -5.0643 -0.5277 0.5806 30.1072
#
#
#
# Elastic Compliance Matrix: (Units=1/GPa)
#
#
# Indices 1 2 3 4 5 6 
#
# 1 0.024948 0.005595 -0.002830 -0.016255 0.016788 -0.008972
# 2 0.005595 0.020423 -0.001135 -0.023359 0.005856 -0.012996
# 3 -0.002830 -0.001135 0.027151 -0.003793 0.006131 0.005552
# 4 -0.016255 -0.023359 -0.003793 0.062100 -0.012920 0.016651
# 5 0.016788 0.005856 0.006131 -0.012920 0.042248 -0.006464
# 6 -0.008972 -0.012996 0.005552 0.016651 -0.006464 0.043426
#
#
# Mechanical properties :
#
#
# Convention : Reuss Voigt Hill
#
# Bulk Modulus (GPa) = 13.19595 31.08671 22.14133
# Shear Modulus (GPa) = 20.63573 31.61883 26.12728
#
# Velocity S-wave (km/s) = 3.06474 3.79364 3.44850
# Velocity P-wave (km/s) = 4.30462 5.77395 5.09256
#
# Compressibility (1/GPa) = 0.07578083
#
# Stress axis : x y z
#
# Youngs Moduli (GPa) = 40.08351 48.96487 36.83041
#
# Poissons Ratio (x) = -0.27396 0.10425
# Poissons Ratio (y) = -0.22427 0.04181
# Poissons Ratio (z) = 0.11345 0.05559
#
# Static dielectric constant tensor:
#      x y z
#    x 1.850860 0.017370 -0.066460 
#    y 0.017370 1.835990 -0.003980 
#    z -0.066460 -0.003980 1.952000 
# 
# From -- ./inp_files/214975.got.cif
#   From: 2010.05.17/outbox.cif.g08.bks.cpg/sg2_108_cif.got.tgz:214975.got - 2010.06.03 11:33:40.
