data_PCOD9094399
_publ_section_title
;
Structure prediction by ZEFSAII (Michael W. Deem and Ramdas Pophale) SiO2 
 PCOD9094399
Probable space group: P -1
;
_chemical_formula_sum "Si O2"
_cell_formula_units_Z 12
_cell_length_a 6.927467
_cell_length_b 11.226751
_cell_length_c 12.022680
_cell_angle_alpha 139.374498
_cell_angle_beta 121.379747
_cell_angle_gamma 55.317645
_cell_volume 493.702917
_symmetry_space_group_name_H-M "P -1"
_symmetry_group_IT_number 2
_symmetry_cell_setting 'triclinic'
loop_
_space_group_symop_operation_xyz
x,y,z
-x,-y,-z
loop_
_atom_site_type_symbol
_atom_site_label
_atom_site_fract_x
_atom_site_fract_y
_atom_site_fract_z
Si Si1 0.151510 0.635411 0.102481
Si Si2 0.380706 0.793171 0.451053
Si Si3 0.384871 0.329828 0.348778
Si Si4 0.081088 0.699962 0.880684
Si Si5 0.957774 0.930609 0.585026
Si Si6 0.796371 0.132669 0.175104
O O1 0.377090 0.632763 0.245244
O O2 0.997514 0.861343 0.234934
O O3 0.000000 0.500000 0.000000
O O4 0.204566 0.616131 0.973767
O O5 0.583686 0.753965 0.575669
O O6 0.151821 0.809255 0.472280
O O7 0.295569 0.995607 0.501094
O O8 0.500000 0.500000 0.500000
O O9 0.111772 0.402124 0.283480
O O10 0.553904 0.177978 0.205047
O O11 0.229356 0.728228 0.839212
O O12 0.908459 0.917318 0.010507
O O13 0.009567 0.840969 0.658301
#
# Coordination Sequence:
#
# PCOD9094399 Si02
#       6
#     2   2   2   2   2   2
#     4   9  15  27  49  74  99 132 170 205 255 309
#     4   8  15  30  48  70 100 132 173 205 251 307
#     4  11  21  33  54  81 109 137 171 220 264 309
#     4  10  20  34  57  80 101 143 175 214 264 305
#     4   7  14  29  51  68  95 139 166 208 251 299
#     4   9  19  37  55  77 108 134 182 215 253 316
#
# _framework density 24.306115999999999
#
# number of rings (size 3 to 8) (size 9 to 14) (size 15 to 20)
#    1.000    2.000    0.000    1.500    0.000    0.667 
#    0.000    0.833    0.000    4.000    0.000    0.000 
#    0.000    0.000    0.000    0.000    0.000    0.000 
#
# Total GULP energy -66837.236284 kJ/mol
# GULP energy per Si atom -5569.769690 kJ/mol
# Density = 2.425079 g / cm^3
# Si number density = 24.306116 Si / 1000 Ang^3
#
#
#
# Elastic Constant Matrix: (Units=GPa)
#
#
# Indices 1 2 3 4 5 6 
#
# 1 63.5465 30.9491 29.6873 -22.2645 -3.8595 17.7619
# 2 30.9491 89.2519 35.3560 -26.4121 -22.4303 9.8884
# 3 29.6873 35.3560 92.9501 -33.5350 -19.7225 10.6867
# 4 -22.2645 -26.4121 -33.5350 47.4262 12.0940 -16.1828
# 5 -3.8595 -22.4303 -19.7225 12.0940 6.4466 -5.6856
# 6 17.7619 9.8884 10.6867 -16.1828 -5.6856 24.6961
#
#
#
# Elastic Compliance Matrix: (Units=1/GPa)
#
#
# Indices 1 2 3 4 5 6 
#
# 1 0.009695 0.012253 0.007667 -0.002739 0.077855 0.000932
# 2 0.012253 -0.005555 -0.016437 0.010024 -0.093893 -0.014524
# 3 0.007667 -0.016437 0.006715 0.012317 -0.062322 -0.008115
# 4 -0.002739 0.010024 0.012317 0.035405 0.023159 0.021158
# 5 0.077855 -0.093893 -0.062322 0.023159 -0.424286 -0.073936
# 6 0.000932 -0.014524 -0.008115 0.021158 -0.073936 0.045992
#
#
# Mechanical properties :
#
#
# Convention : Reuss Voigt Hill
#
# Bulk Modulus (GPa) = 56.11039 48.63702 52.37370
# Shear Modulus (GPa) = -15.01236 25.69750 5.34257
#
# Velocity S-wave (km/s) = -2.48793 3.25506 1.48419
# Velocity P-wave (km/s) = 3.85771 5.84644 4.95292
#
# Compressibility (1/GPa) = 0.01782201
#
# Stress axis : x y z
#
# Youngs Moduli (GPa) = 103.14104 -180.02976 148.91770
#
# Poissons Ratio (x) = 2.20594 -1.14173
# Poissons Ratio (y) = -1.26381 2.44776
# Poissons Ratio (z) = -0.79077 -2.95915
#
# Static dielectric constant tensor:
#      x y z
#    x 1.904010 0.005600 0.025260 
#    y 0.005600 2.022210 -0.047610 
#    z 0.025260 -0.047610 2.105600 
# 
# From -- ./inp_files/213899.got.cif
#   From: 2010.05.17/outbox.cif.g08.bks.cpg/sg2_107_cif.got.tgz:213899.got - 2010.06.03 11:33:40.
