data_PCOD9094209
_publ_section_title
;
Structure prediction by ZEFSAII (Michael W. Deem and Ramdas Pophale) SiO2 
 PCOD9094209
Probable space group: P -1
;
_chemical_formula_sum "Si O2"
_cell_formula_units_Z 16
_cell_length_a 17.524876
_cell_length_b 7.175665
_cell_length_c 16.091739
_cell_angle_alpha 85.177791
_cell_angle_beta 159.119867
_cell_angle_gamma 102.009422
_cell_volume 669.176041
_symmetry_space_group_name_H-M "P -1"
_symmetry_group_IT_number 2
_symmetry_cell_setting 'triclinic'
loop_
_space_group_symop_operation_xyz
x,y,z
-x,-y,-z
loop_
_atom_site_type_symbol
_atom_site_label
_atom_site_fract_x
_atom_site_fract_y
_atom_site_fract_z
Si Si1 0.356427 0.396616 0.937977
Si Si2 0.767266 0.551316 0.023540
Si Si3 0.569282 0.029251 0.951255
Si Si4 0.061792 0.009418 0.157647
Si Si5 0.124917 0.863361 0.590966
Si Si6 0.707138 0.954477 0.932226
Si Si7 0.563265 0.579137 0.466983
Si Si8 0.198013 0.661244 0.375925
O O1 0.083764 0.328614 0.644621
O O2 0.500000 0.500000 0.000000
O O3 0.392165 0.526917 0.054366
O O4 0.416878 0.195054 0.018914
O O5 0.816615 0.790974 0.077707
O O6 0.632005 0.483239 0.801184
O O7 0.019744 0.543921 0.270471
O O8 0.300768 0.983457 0.693437
O O9 0.686470 0.098900 0.978807
O O10 0.713033 0.159146 0.169092
O O11 0.308512 0.182946 0.414053
O O12 0.079738 0.798191 0.206012
O O13 0.000000 0.000000 0.000000
O O14 0.864664 0.049080 0.010078
O O15 0.000000 0.000000 0.500000
O O16 0.444846 0.814750 0.651128
O O17 0.500000 0.500000 0.500000
O O18 0.747212 0.486283 0.625605
#
# Coordination Sequence:
#
# PCOD9094209 Si02
#       8
#     2   2   2   2   2   2   2   2
#     4  10  20  34  55  83 116 152 192 240 295 352
#     4   9  20  38  58  84 115 154 202 245 296 360
#     4   9  18  35  56  79 111 151 196 242 286 345
#     4  11  24  40  61  92 120 152 201 244 293 364
#     4   9  18  33  53  76 106 146 189 232 284 341
#     4   9  19  36  59  84 111 152 202 246 294 352
#     4  11  24  41  62  90 122 157 200 246 296 358
#     4  10  21  41  65  84 121 163 191 247 304 343
#
# _framework density 23.910001999999999
#
# number of rings (size 3 to 8) (size 9 to 14) (size 15 to 20)
#    0.000    2.250    0.000    3.000    0.000    7.500 
#    0.000    7.500    0.000    0.000    0.000    0.000 
#    0.000    0.000    0.000    0.000    0.000    0.000 
#
# Total GULP energy -89349.095784 kJ/mol
# GULP energy per Si atom -5584.318487 kJ/mol
# Density = 2.385558 g / cm^3
# Si number density = 23.910002 Si / 1000 Ang^3
#
#
#
# Elastic Constant Matrix: (Units=GPa)
#
#
# Indices 1 2 3 4 5 6 
#
# 1 180.9370 9.9417 49.8486 4.3576 30.1541 -2.8163
# 2 9.9417 48.0049 7.3188 3.9922 5.7018 -2.5399
# 3 49.8486 7.3188 115.7691 11.5589 21.4002 3.4886
# 4 4.3576 3.9922 11.5589 33.7435 -6.5710 5.0259
# 5 30.1541 5.7018 21.4002 -6.5710 45.0628 1.3500
# 6 -2.8163 -2.5399 3.4886 5.0259 1.3500 33.1671
#
#
#
# Elastic Compliance Matrix: (Units=1/GPa)
#
#
# Indices 1 2 3 4 5 6 
#
# 1 0.006793 -0.000513 -0.002161 -0.000939 -0.003623 0.001055
# 2 -0.000513 0.021714 -0.000385 -0.003246 -0.002762 0.002264
# 3 -0.002161 -0.000385 0.010800 -0.004114 -0.004217 -0.000554
# 4 -0.000939 -0.003246 -0.004114 0.033926 0.008100 -0.005366
# 5 -0.003623 -0.002762 -0.004217 0.008100 0.028223 -0.002452
# 6 0.001055 0.002264 -0.000554 -0.005366 -0.002452 0.031384
#
#
# Mechanical properties :
#
#
# Convention : Reuss Voigt Hill
#
# Bulk Modulus (GPa) = 30.13133 53.21435 41.67284
# Shear Modulus (GPa) = 33.32851 40.90148 37.11500
#
# Velocity S-wave (km/s) = 3.73757 4.14048 3.94417
# Velocity P-wave (km/s) = 5.59064 6.72031 6.18133
#
# Compressibility (1/GPa) = 0.03318805
#
# Stress axis : x y z
#
# Youngs Moduli (GPa) = 147.20732 46.05315 92.59550
#
# Poissons Ratio (x) = 0.02363 0.20009
# Poissons Ratio (y) = 0.07555 0.03568
# Poissons Ratio (z) = 0.31810 0.01774
#
# Static dielectric constant tensor:
#      x y z
#    x 1.996840 0.056690 0.011130 
#    y 0.056690 2.037740 -0.018890 
#    z 0.011130 -0.018890 1.957540 
# 
# From -- ./inp_files/105828.got.cif
#   From: 2010.05.17/outbox.cif.g08.bks.cpg/sg2_53_cif.got.tgz:105828.got - 2010.06.03 11:33:40.
