data_PCOD9094272
_publ_section_title
;
Structure prediction by ZEFSAII (Michael W. Deem and Ramdas Pophale) SiO2 
 PCOD9094272
Probable space group: P -1
;
_chemical_formula_sum "Si O2"
_cell_formula_units_Z 14
_cell_length_a 11.512168
_cell_length_b 16.006443
_cell_length_c 6.630728
_cell_angle_alpha 85.976324
_cell_angle_beta 123.172529
_cell_angle_gamma 127.235887
_cell_volume 749.226523
_symmetry_space_group_name_H-M "P -1"
_symmetry_group_IT_number 2
_symmetry_cell_setting 'triclinic'
loop_
_space_group_symop_operation_xyz
x,y,z
-x,-y,-z
loop_
_atom_site_type_symbol
_atom_site_label
_atom_site_fract_x
_atom_site_fract_y
_atom_site_fract_z
Si Si1 0.264140 0.808321 0.861805
Si Si2 0.429011 0.376726 0.952511
Si Si3 0.223716 0.059814 0.873468
Si Si4 0.525080 0.262891 0.823041
Si Si5 0.062989 0.200087 0.370810
Si Si6 0.514185 0.037167 0.282557
Si Si7 0.695212 0.772569 0.761027
O O1 0.293398 0.846045 0.648112
O O2 0.083454 0.782879 0.778089
O O3 0.299768 0.726797 0.965657
O O4 0.446931 0.928288 0.113762
O O5 0.553308 0.365584 0.932376
O O6 0.222074 0.286765 0.669724
O O7 0.500000 0.500000 0.000000
O O8 0.413572 0.331700 0.168393
O O9 0.345833 0.151777 0.796289
O O10 0.362697 0.048231 0.106497
O O11 0.193155 0.115910 0.009559
O O12 0.048964 0.931572 0.658193
O O13 0.453835 0.243488 0.529331
O O14 0.164833 0.221339 0.252574
O O15 0.500000 0.000000 0.500000
#
# Coordination Sequence:
#
# PCOD9094272 Si02
#       7
#     2   2   2   2   2   2   2
#     4   9  18  32  48  78 110 134 170 211 254 301
#     4  10  23  41  56  72  97 137 185 225 262 304
#     4   9  18  31  49  82 113 138 171 204 251 309
#     4   9  19  35  56  78 108 141 170 209 253 313
#     4  10  21  33  53  81 112 138 167 216 259 306
#     4   9  16  27  48  72 109 151 170 194 242 311
#     4  10  20  34  56  78 102 141 174 209 263 317
#
# _framework density 18.685936999999999
#
# number of rings (size 3 to 8) (size 9 to 14) (size 15 to 20)
#    0.000    2.571    0.000    2.143    0.000   10.857 
#    0.000    0.714    0.000    1.714    0.000    0.000 
#    0.000    0.000    0.000    0.000    0.000    0.000 
#
# Total GULP energy -78010.772010 kJ/mol
# GULP energy per Si atom -5572.198001 kJ/mol
# Density = 1.864341 g / cm^3
# Si number density = 18.685937 Si / 1000 Ang^3
#
#
#
# Elastic Constant Matrix: (Units=GPa)
#
#
# Indices 1 2 3 4 5 6 
#
# 1 95.3131 22.5597 34.0146 -6.9157 8.9896 -21.0135
# 2 22.5597 99.8766 51.0784 -5.3695 -8.5394 -27.5177
# 3 34.0146 51.0784 88.2078 -17.3794 -15.7368 -5.1854
# 4 -6.9157 -5.3695 -17.3794 17.6259 0.1287 -3.0179
# 5 8.9896 -8.5394 -15.7368 0.1287 26.8165 -7.6104
# 6 -21.0135 -27.5177 -5.1854 -3.0179 -7.6104 27.9963
#
#
#
# Elastic Compliance Matrix: (Units=1/GPa)
#
#
# Indices 1 2 3 4 5 6 
#
# 1 0.016008 0.003799 -0.008261 0.001547 -0.005341 0.012934
# 2 0.003799 0.022495 -0.011847 0.000805 0.005873 0.024451
# 3 -0.008261 -0.011847 0.026731 0.018122 0.012452 -0.007556
# 4 0.001547 0.000805 0.018122 0.078402 0.015063 0.017855
# 5 -0.005341 0.005873 0.012452 0.015063 0.053965 0.020363
# 6 0.012934 0.024451 -0.007556 0.017855 0.020363 0.075521
#
#
# Mechanical properties :
#
#
# Convention : Reuss Voigt Hill
#
# Bulk Modulus (GPa) = 30.66036 55.41142 43.03589
# Shear Modulus (GPa) = 15.79221 26.20406 20.99813
#
# Velocity S-wave (km/s) = 2.91028 3.74885 3.35586
# Velocity P-wave (km/s) = 5.26658 6.96110 6.17227
#
# Compressibility (1/GPa) = 0.03261540
#
# Stress axis : x y z
#
# Youngs Moduli (GPa) = 62.46845 44.45375 37.41040
#
# Poissons Ratio (x) = -0.16887 0.30903
# Poissons Ratio (y) = -0.23730 0.44322
# Poissons Ratio (z) = 0.51602 0.52666
#
# Static dielectric constant tensor:
#      x y z
#    x 1.719110 0.005660 -0.024860 
#    y 0.005660 1.666270 -0.032210 
#    z -0.024860 -0.032210 1.705340 
# 
# From -- ./inp_files/65639.got.cif
#   From: 2010.05.17/outbox.cif.g08.bks.cpg/sg2_33_cif.got.tgz:65639.got - 2010.06.03 11:33:40.
