data_PCOD9094711
_publ_section_title
;
Structure prediction by ZEFSAII (Michael W. Deem and Ramdas Pophale) SiO2 
 PCOD9094711
Probable space group: P -1
;
_chemical_formula_sum "Si O2"
_cell_formula_units_Z 16
_cell_length_a 9.369097
_cell_length_b 10.506345
_cell_length_c 7.216090
_cell_angle_alpha 107.357215
_cell_angle_beta 117.282351
_cell_angle_gamma 70.871490
_cell_volume 587.088946
_symmetry_space_group_name_H-M "P -1"
_symmetry_group_IT_number 2
_symmetry_cell_setting 'triclinic'
loop_
_space_group_symop_operation_xyz
x,y,z
-x,-y,-z
loop_
_atom_site_type_symbol
_atom_site_label
_atom_site_fract_x
_atom_site_fract_y
_atom_site_fract_z
Si Si1 0.204533 0.461828 0.240964
Si Si2 0.687781 0.396954 0.969658
Si Si3 0.385935 0.311312 0.624274
Si Si4 0.777677 0.231469 0.276189
Si Si5 0.571316 0.124904 0.369660
Si Si6 0.843042 0.873242 0.543504
Si Si7 0.979497 0.275705 0.868945
Si Si8 0.242852 0.042490 0.044541
O O1 0.287413 0.482031 0.100171
O O2 0.329659 0.402685 0.449400
O O3 0.091464 0.611990 0.281245
O O4 0.084341 0.359767 0.094527
O O5 0.502131 0.378528 0.848184
O O6 0.813289 0.272573 0.879049
O O7 0.758157 0.369680 0.205660
O O8 0.501810 0.172364 0.551005
O O9 0.231163 0.261310 0.589494
O O10 0.648602 0.240517 0.369593
O O11 0.965820 0.164502 0.407216
O O12 0.726539 0.114498 0.064165
O O13 0.413130 0.093684 0.157502
O O14 0.721693 0.995352 0.418406
O O15 0.825632 0.919272 0.771043
O O16 0.102230 0.130961 0.865242
#
# Coordination Sequence:
#
# PCOD9094711 Si02
#       8
#     2   2   2   2   2   2   2   2
#     4   9  17  35  57  90 109 137 188 240 273 315
#     4  10  20  34  60  86 109 145 190 228 269 332
#     4  11  20  37  60  83 115 143 189 231 278 322
#     4  12  23  37  55  85 117 149 185 224 283 336
#     4  11  24  36  53  84 120 149 177 232 285 330
#     4  11  21  37  55  82 110 154 183 232 272 329
#     4   9  18  33  60  88 107 140 190 240 268 317
#     4  11  20  38  60  81 110 149 192 229 270 330
#
# _framework density 27.25311
#
# number of rings (size 3 to 8) (size 9 to 14) (size 15 to 20)
#    0.750    0.750    3.750    4.500    1.750    0.000 
#    0.000    0.625    0.000    0.000    0.000    5.250 
#    0.000    0.000    0.000    0.000    0.000    0.000 
#
# Total GULP energy -89607.122840 kJ/mol
# GULP energy per Si atom -5600.445177 kJ/mol
# Density = 2.719108 g / cm^3
# Si number density = 27.253110 Si / 1000 Ang^3
#
#
#
# Elastic Constant Matrix: (Units=GPa)
#
#
# Indices 1 2 3 4 5 6 
#
# 1 131.8896 24.2758 26.7666 2.0482 25.5860 3.5762
# 2 24.2758 85.0325 29.3687 -19.4024 -3.9932 -3.7169
# 3 26.7666 29.3687 90.4788 -19.6386 21.7349 -0.4029
# 4 2.0482 -19.4024 -19.6386 66.4438 -4.6893 3.1051
# 5 25.5860 -3.9932 21.7349 -4.6893 39.3425 2.3870
# 6 3.5762 -3.7169 -0.4029 3.1051 2.3870 44.4756
#
#
#
# Elastic Compliance Matrix: (Units=1/GPa)
#
#
# Indices 1 2 3 4 5 6 
#
# 1 0.009603 -0.003270 -0.000649 -0.001868 -0.006406 -0.000577
# 2 -0.003270 0.015587 -0.004937 0.003632 0.006814 0.000902
# 3 -0.000649 -0.004937 0.015387 0.002540 -0.008280 0.000046
# 4 -0.001868 0.003632 0.002540 0.017119 0.002272 -0.000840
# 5 -0.006406 0.006814 -0.008280 0.002272 0.035184 -0.001037
# 6 -0.000577 0.000902 0.000046 -0.000840 -0.001037 0.022721
#
#
# Mechanical properties :
#
#
# Convention : Reuss Voigt Hill
#
# Bulk Modulus (GPa) = 43.73087 52.02478 47.87783
# Shear Modulus (GPa) = 35.47800 45.18504 40.33152
#
# Velocity S-wave (km/s) = 3.61196 4.07624 3.85110
# Velocity P-wave (km/s) = 5.78584 6.42536 6.11397
#
# Compressibility (1/GPa) = 0.02286714
#
# Stress axis : x y z
#
# Youngs Moduli (GPa) = 104.13370 64.15665 64.98966
#
# Poissons Ratio (x) = 0.20978 0.04215
# Poissons Ratio (y) = 0.34050 0.32082
# Poissons Ratio (z) = 0.06753 0.31671
#
# Static dielectric constant tensor:
#      x y z
#    x 2.039940 -0.011370 -0.048860 
#    y -0.011370 2.191740 0.034070 
#    z -0.048860 0.034070 2.138300 
# 
# From -- ./inp_files/187856.got.cif
#   From: 2010.05.17/outbox.cif.g08.bks.cpg/sg2_94_cif.got.tgz:187856.got - 2010.06.03 11:33:40.
