data_PCOD9094995
_publ_section_title
;
Structure prediction by ZEFSAII (Michael W. Deem and Ramdas Pophale) SiO2 
 PCOD9094995
Probable space group: P -1
;
_chemical_formula_sum "Si O2"
_cell_formula_units_Z 16
_cell_length_a 11.289593
_cell_length_b 5.425920
_cell_length_c 21.934218
_cell_angle_alpha 92.504884
_cell_angle_beta 148.431137
_cell_angle_gamma 78.043292
_cell_volume 664.612163
_symmetry_space_group_name_H-M "P -1"
_symmetry_group_IT_number 2
_symmetry_cell_setting 'triclinic'
loop_
_space_group_symop_operation_xyz
x,y,z
-x,-y,-z
loop_
_atom_site_type_symbol
_atom_site_label
_atom_site_fract_x
_atom_site_fract_y
_atom_site_fract_z
Si Si1 0.079055 0.530979 0.655891
Si Si2 0.741742 0.874232 0.422730
Si Si3 0.988320 0.760344 0.272737
Si Si4 0.915149 0.787221 0.997325
Si Si5 0.435646 0.735619 0.546740
Si Si6 0.421524 0.784900 0.749037
Si Si7 0.654192 0.358727 0.740974
Si Si8 0.910669 0.773733 0.709407
O O1 0.300919 0.625879 0.737920
O O2 0.918141 0.604832 0.525214
O O3 0.140070 0.263892 0.719160
O O4 0.915868 0.722486 0.638193
O O5 0.477357 0.849298 0.304405
O O6 0.726410 0.089977 0.469267
O O7 0.770268 0.978259 0.369239
O O8 0.262609 0.702421 0.417188
O O9 0.961845 0.524872 0.218095
O O10 0.946608 0.024316 0.220582
O O11 0.064537 0.750507 0.124871
O O12 0.629747 0.866128 0.873453
O O13 0.000000 0.500000 0.000000
O O14 0.000000 0.000000 0.000000
O O15 0.574529 0.470964 0.640694
O O16 0.642943 0.850391 0.617806
O O17 0.544614 0.586668 0.745424
#
# Coordination Sequence:
#
# PCOD9094995 Si02
#       8
#     2   2   2   2   2   2   2   2
#     4  10  22  34  53  83 117 153 183 216 279 338
#     4  11  20  33  53  83 118 148 181 222 280 335
#     4  10  20  35  51  80 111 151 185 223 264 327
#     4  10  20  40  59  81 106 141 194 232 272 318
#     4  11  20  34  53  82 114 146 188 232 277 315
#     4  10  22  37  55  81 114 151 181 231 275 335
#     4  10  21  35  56  83 110 146 184 235 278 323
#     4  10  22  34  56  77 115 149 191 222 269 329
#
# _framework density 24.074189000000001
#
# number of rings (size 3 to 8) (size 9 to 14) (size 15 to 20)
#    0.750    1.000    3.750    1.125    1.750    1.500 
#    0.000    0.000    0.000    0.750    0.000    1.750 
#    0.000    0.000    0.000    0.000    0.000    0.000 
#
# Total GULP energy -89215.662633 kJ/mol
# GULP energy per Si atom -5575.978915 kJ/mol
# Density = 2.401940 g / cm^3
# Si number density = 24.074189 Si / 1000 Ang^3
#
#
#
# Elastic Constant Matrix: (Units=GPa)
#
#
# Indices 1 2 3 4 5 6 
#
# 1 103.5836 27.8038 10.2136 7.3261 16.2452 20.9740
# 2 27.8038 151.9784 14.7184 17.8694 8.6645 31.0750
# 3 10.2136 14.7184 81.1082 14.5364 16.6779 5.9282
# 4 7.3261 17.8694 14.5364 26.4252 8.1715 10.0061
# 5 16.2452 8.6645 16.6779 8.1715 24.6373 12.4007
# 6 20.9740 31.0750 5.9282 10.0061 12.4007 41.4385
#
#
#
# Elastic Compliance Matrix: (Units=1/GPa)
#
#
# Indices 1 2 3 4 5 6 
#
# 1 0.011500 -0.001163 0.000078 0.000610 -0.005720 -0.003395
# 2 -0.001163 0.008237 -0.000794 -0.003495 0.002234 -0.005299
# 3 0.000078 -0.000794 0.015287 -0.005966 -0.009473 0.002644
# 4 0.000610 -0.003495 -0.005966 0.048094 -0.008046 -0.006040
# 5 -0.005720 0.002234 -0.009473 -0.008046 0.059316 -0.013233
# 6 -0.003395 -0.005299 0.002644 -0.006040 -0.013233 0.034865
#
#
# Mechanical properties :
#
#
# Convention : Reuss Voigt Hill
#
# Bulk Modulus (GPa) = 31.98327 49.12688 40.55508
# Shear Modulus (GPa) = 26.11264 37.42917 31.77091
#
# Velocity S-wave (km/s) = 3.29701 3.94730 3.63672
# Velocity P-wave (km/s) = 5.27332 6.42072 5.87510
#
# Compressibility (1/GPa) = 0.03126634
#
# Stress axis : x y z
#
# Youngs Moduli (GPa) = 86.95744 121.40964 65.41365
#
# Poissons Ratio (x) = 0.14117 -0.00510
# Poissons Ratio (y) = 0.10111 0.05193
# Poissons Ratio (z) = -0.00677 0.09639
#
# Static dielectric constant tensor:
#      x y z
#    x 1.942110 -0.016790 0.021920 
#    y -0.016790 2.089590 -0.034850 
#    z 0.021920 -0.034850 1.878590 
# 
# From -- ./inp_files/473207.got.cif
#   From: 2010.05.17/outbox.cif.g08.bks.cpg/sg2_237_cif.got.tgz:473207.got - 2010.06.03 11:33:40.
