data_PCOD9094060
_publ_section_title
;
Structure prediction by ZEFSAII (Michael W. Deem and Ramdas Pophale) SiO2 
 PCOD9094060
Probable space group: P -1
;
_chemical_formula_sum "Si O2"
_cell_formula_units_Z 16
_cell_length_a 8.109373
_cell_length_b 19.698590
_cell_length_c 17.371175
_cell_angle_alpha 21.029621
_cell_angle_beta 123.986570
_cell_angle_gamma 124.630054
_cell_volume 815.524185
_symmetry_space_group_name_H-M "P -1"
_symmetry_group_IT_number 2
_symmetry_cell_setting 'triclinic'
loop_
_space_group_symop_operation_xyz
x,y,z
-x,-y,-z
loop_
_atom_site_type_symbol
_atom_site_label
_atom_site_fract_x
_atom_site_fract_y
_atom_site_fract_z
Si Si1 0.544601 0.813310 0.804155
Si Si2 0.217041 0.462164 0.122483
Si Si3 0.196259 0.572663 0.348680
Si Si4 0.786678 0.502928 0.229464
Si Si5 0.380190 0.890952 0.156019
Si Si6 0.404542 0.290790 0.793402
Si Si7 0.508184 0.241208 0.334819
Si Si8 0.467390 0.397057 0.386481
O O1 0.528105 0.785665 0.736835
O O2 0.536312 0.030709 0.594020
O O3 0.355730 0.669421 0.939620
O O4 0.734811 0.717596 0.981447
O O5 0.323345 0.328925 0.232642
O O6 0.255710 0.379508 0.304997
O O7 0.000000 0.500000 0.000000
O O8 0.192911 0.747254 0.223399
O O9 0.236416 0.392357 0.600241
O O10 0.393820 0.645422 0.272392
O O11 0.010026 0.517352 0.302735
O O12 0.709075 0.390388 0.250504
O O13 0.636402 0.387512 0.375557
O O14 0.512680 0.756234 0.379479
O O15 0.500000 0.000000 0.000000
O O16 0.341664 0.063892 0.017333
O O17 0.464118 0.394622 0.779005
#
# Coordination Sequence:
#
# PCOD9094060 Si02
#       8
#     2   2   2   2   2   2   2   2
#     4   9  19  37  56  76 106 146 184 219 264 319
#     4  10  21  36  56  83 114 141 174 224 274 319
#     4   9  19  34  52  76 100 134 178 217 263 319
#     4  10  20  34  53  78 109 136 175 226 269 314
#     4   9  18  35  53  72 103 138 173 216 261 309
#     4   9  18  34  53  71 103 139 172 217 263 312
#     4   9  19  37  57  77 107 145 182 220 266 322
#     4   9  20  34  52  77 104 139 175 212 267 320
#
# _framework density 19.619284
#
# number of rings (size 3 to 8) (size 9 to 14) (size 15 to 20)
#    0.000    3.000    0.000    2.250    0.000    9.500 
#    0.000    6.250    0.000    0.000    0.000    0.000 
#    0.000    0.000    0.000    0.000    0.000    0.000 
#
# Total GULP energy -89110.929527 kJ/mol
# GULP energy per Si atom -5569.433095 kJ/mol
# Density = 1.957463 g / cm^3
# Si number density = 19.619284 Si / 1000 Ang^3
#
#
#
# Elastic Constant Matrix: (Units=GPa)
#
#
# Indices 1 2 3 4 5 6 
#
# 1 16.4778 29.4584 21.9000 3.1701 11.1440 5.6383
# 2 29.4584 102.1951 47.7210 6.2901 33.2739 4.0726
# 3 21.9000 47.7210 118.0726 -5.3265 19.5909 2.2397
# 4 3.1701 6.2901 -5.3265 38.6900 -7.7036 7.3429
# 5 11.1440 33.2739 19.5909 -7.7036 24.1742 9.8136
# 6 5.6383 4.0726 2.2397 7.3429 9.8136 25.7326
#
#
#
# Elastic Compliance Matrix: (Units=1/GPa)
#
#
# Indices 1 2 3 4 5 6 
#
# 1 0.153721 -0.036786 -0.013283 -0.003639 -0.000245 -0.025572
# 2 -0.036786 0.037295 -0.001299 -0.018182 -0.049865 0.026476
# 3 -0.013283 -0.001299 0.011825 0.002136 -0.001882 0.002195
# 4 -0.003639 -0.018182 0.002136 0.045021 0.051016 -0.028814
# 5 -0.000245 -0.049865 -0.001882 0.051016 0.154422 -0.065340
# 6 -0.025572 0.026476 0.002195 -0.028814 -0.065340 0.073224
#
#
# Mechanical properties :
#
#
# Convention : Reuss Voigt Hill
#
# Bulk Modulus (GPa) = 9.98944 48.32270 29.15607
# Shear Modulus (GPa) = 8.17512 26.89709 17.53611
#
# Velocity S-wave (km/s) = 2.04351 3.70665 2.99293
# Velocity P-wave (km/s) = 3.26659 6.55765 5.18041
#
# Compressibility (1/GPa) = 0.10010568
#
# Stress axis : x y z
#
# Youngs Moduli (GPa) = 6.50530 26.81303 84.56552
#
# Poissons Ratio (x) = 0.98634 1.12328
# Poissons Ratio (y) = 0.23930 0.10987
# Poissons Ratio (z) = 0.08641 0.03484
#
# Static dielectric constant tensor:
#      x y z
#    x 1.730100 -0.064700 0.004980 
#    y -0.064700 1.750960 0.024660 
#    z 0.004980 0.024660 1.721330 
# 
# From -- ./inp_files/562886.got.cif
#   From: 2010.05.17/outbox.cif.g08.bks.cpg/sg2_282_cif.got.tgz:562886.got - 2010.06.03 11:33:40.
