data_PCOD9094100
_publ_section_title
;
Structure prediction by ZEFSAII (Michael W. Deem and Ramdas Pophale) SiO2 
 PCOD9094100
Probable space group: P -1
;
_chemical_formula_sum "Si O2"
_cell_formula_units_Z 10
_cell_length_a 5.077499
_cell_length_b 14.508851
_cell_length_c 5.339224
_cell_angle_alpha 105.401536
_cell_angle_beta 99.645781
_cell_angle_gamma 64.444786
_cell_volume 341.474842
_symmetry_space_group_name_H-M "P -1"
_symmetry_group_IT_number 2
_symmetry_cell_setting 'triclinic'
loop_
_space_group_symop_operation_xyz
x,y,z
-x,-y,-z
loop_
_atom_site_type_symbol
_atom_site_label
_atom_site_fract_x
_atom_site_fract_y
_atom_site_fract_z
Si Si1 0.932326 0.862287 0.040960
Si Si2 0.588186 0.263717 0.385075
Si Si3 0.055431 0.337401 0.978450
Si Si4 0.274005 0.460569 0.705568
Si Si5 0.388173 0.938782 0.636575
O O1 0.950780 0.772538 0.178328
O O2 0.627221 0.901219 0.869998
O O3 0.175664 0.799173 0.831431
O O4 0.909862 0.971521 0.233335
O O5 0.278067 0.302745 0.222226
O O6 0.567702 0.375996 0.562754
O O7 0.613315 0.172375 0.520154
O O8 0.756801 0.430115 0.097072
O O9 0.191152 0.390546 0.841242
O O10 0.000000 0.500000 0.500000
O O11 0.500000 0.000000 0.500000
#
# Coordination Sequence:
#
# PCOD9094100 Si02
#       5
#     2   2   2   2   2
#     4  10  21  35  53  77 103 134 172 210 252 302
#     4  10  20  34  54  78 102 134 173 208 250 303
#     4   9  19  36  53  74 106 136 166 209 254 299
#     4   9  18  35  55  75 104 136 167 209 255 299
#     4  10  21  36  53  75 105 136 168 211 256 298
#
# _framework density 29.284738999999998
#
# number of rings (size 3 to 8) (size 9 to 14) (size 15 to 20)
#    0.000    2.400    0.000    1.800    0.000    3.200 
#    0.000    9.000    0.000    0.000    0.000    0.000 
#    0.000    0.000    0.000    0.000    0.000    0.000 
#
# Total GULP energy -56005.292591 kJ/mol
# GULP energy per Si atom -5600.529259 kJ/mol
# Density = 2.921809 g / cm^3
# Si number density = 29.284739 Si / 1000 Ang^3
#
#
#
# Elastic Constant Matrix: (Units=GPa)
#
#
# Indices 1 2 3 4 5 6 
#
# 1 78.0200 60.3071 19.5773 17.5310 -9.0948 -6.1914
# 2 60.3071 298.9990 85.4615 28.2507 -19.9032 -21.6294
# 3 19.5773 85.4615 87.9141 23.5837 -21.0429 9.0651
# 4 17.5310 28.2507 23.5837 90.0845 -0.9310 -7.7865
# 5 -9.0948 -19.9032 -21.0429 -0.9310 65.9620 10.1274
# 6 -6.1914 -21.6294 9.0651 -7.7865 10.1274 68.2292
#
#
#
# Elastic Compliance Matrix: (Units=1/GPa)
#
#
# Indices 1 2 3 4 5 6 
#
# 1 0.015670 -0.002944 0.000276 -0.002184 0.001329 0.000005
# 2 -0.002944 0.005516 -0.005241 0.000409 -0.000767 0.002338
# 3 0.000276 -0.005241 0.019301 -0.003878 0.005395 -0.005444
# 4 -0.002184 0.000409 -0.003878 0.012579 -0.001562 0.002114
# 5 0.001329 -0.000767 0.005395 -0.001562 0.017363 -0.003595
# 6 0.000005 0.002338 -0.005444 0.002114 -0.003595 0.016896
#
#
# Mechanical properties :
#
#
# Convention : Reuss Voigt Hill
#
# Bulk Modulus (GPa) = 40.53748 88.40276 64.47012
# Shear Modulus (GPa) = 44.89734 64.82763 54.86248
#
# Velocity S-wave (km/s) = 3.91977 4.71010 4.33299
# Velocity P-wave (km/s) = 5.86163 7.73517 6.86264
#
# Compressibility (1/GPa) = 0.02466853
#
# Stress axis : x y z
#
# Youngs Moduli (GPa) = 63.81670 181.30244 51.81184
#
# Poissons Ratio (x) = 0.53380 -0.01430
# Poissons Ratio (y) = 0.18789 0.27152
# Poissons Ratio (z) = -0.01761 0.95013
#
# Static dielectric constant tensor:
#      x y z
#    x 2.323010 0.048010 0.070390 
#    y 0.048010 2.221070 0.087510 
#    z 0.070390 0.087510 2.395350 
# 
# From -- ./inp_files/1441.got.cif
#   From: 2010.05.17/outbox.cif.g08.bks.cpg/sg2_1_cif.got.tgz:1441.got - 2010.06.03 11:33:40.
