data_PCOD9094141
_publ_section_title
;
Structure prediction by ZEFSAII (Michael W. Deem and Ramdas Pophale) SiO2 
 PCOD9094141
Probable space group: P -1
;
_chemical_formula_sum "Si O2"
_cell_formula_units_Z 16
_cell_length_a 12.096354
_cell_length_b 9.023042
_cell_length_c 17.595134
_cell_angle_alpha 65.597787
_cell_angle_beta 149.182345
_cell_angle_gamma 103.545135
_cell_volume 865.515318
_symmetry_space_group_name_H-M "P -1"
_symmetry_group_IT_number 2
_symmetry_cell_setting 'triclinic'
loop_
_space_group_symop_operation_xyz
x,y,z
-x,-y,-z
loop_
_atom_site_type_symbol
_atom_site_label
_atom_site_fract_x
_atom_site_fract_y
_atom_site_fract_z
Si Si1 0.755782 0.812420 0.481976
Si Si2 0.456939 0.543560 0.172910
Si Si3 0.982224 0.733475 0.790288
Si Si4 0.285721 0.923306 0.398511
Si Si5 0.802858 0.490425 0.827884
Si Si6 0.363046 0.687358 0.352513
Si Si7 0.245839 0.819670 0.567377
Si Si8 0.852097 0.682461 0.399506
O O1 0.530231 0.774293 0.388166
O O2 0.834303 0.711377 0.473136
O O3 0.930605 0.756841 0.665972
O O4 0.724353 0.012284 0.410372
O O5 0.394857 0.521268 0.229605
O O6 0.596976 0.356083 0.271178
O O7 0.607827 0.675856 0.228613
O O8 0.225730 0.616840 0.977033
O O9 0.798954 0.649318 0.738412
O O10 0.930690 0.917475 0.758508
O O11 0.273740 0.798935 0.349401
O O12 0.303937 0.836644 0.509798
O O13 0.500000 0.000000 0.500000
O O14 0.822525 0.340428 0.810904
O O15 0.000000 0.500000 0.000000
O O16 0.500000 0.500000 0.500000
O O17 0.989361 0.809823 0.423027
O O18 0.000000 0.500000 0.500000
#
# Coordination Sequence:
#
# PCOD9094141 Si02
#       8
#     2   2   2   2   2   2   2   2
#     4  11  21  37  61  88 115 152 206 238 290 354
#     4  10  20  38  58  84 121 157 194 240 302 338
#     4  10  21  37  59  89 123 154 187 250 301 347
#     4  11  20  36  60  92 121 150 198 242 297 352
#     4  10  20  34  54  82 120 154 186 238 297 344
#     4  12  20  33  62  89 115 156 201 241 288 358
#     4  10  21  37  61  87 118 159 197 243 288 355
#     4  10  22  38  61  84 112 160 209 239 282 355
#
# _framework density 18.486097000000001
#
# number of rings (size 3 to 8) (size 9 to 14) (size 15 to 20)
#    0.000    1.500    5.000    1.875    1.750    0.000 
#    0.000   10.000    0.000    0.000    0.000    0.000 
#    0.000    0.000    0.000    0.000    0.000    0.000 
#
# Total GULP energy -89142.174952 kJ/mol
# GULP energy per Si atom -5571.385934 kJ/mol
# Density = 1.844402 g / cm^3
# Si number density = 18.486097 Si / 1000 Ang^3
#
#
#
# Elastic Constant Matrix: (Units=GPa)
#
#
# Indices 1 2 3 4 5 6 
#
# 1 71.0412 30.8022 17.3253 6.4988 1.3854 -12.7567
# 2 30.8022 127.9030 43.7538 8.0531 -2.8422 -15.6584
# 3 17.3253 43.7538 82.1884 1.3915 0.8938 -3.6741
# 4 6.4988 8.0531 1.3915 27.2855 1.8783 -1.2511
# 5 1.3854 -2.8422 0.8938 1.8783 19.8132 11.5006
# 6 -12.7567 -15.6584 -3.6741 -1.2511 11.5006 46.4037
#
#
#
# Elastic Compliance Matrix: (Units=1/GPa)
#
#
# Indices 1 2 3 4 5 6 
#
# 1 0.016840 -0.002834 -0.001758 -0.002620 -0.003815 0.004409
# 2 -0.002834 0.010603 -0.004925 -0.002169 0.000914 0.002124
# 3 -0.001758 -0.004925 0.015121 0.001138 -0.000982 -0.000674
# 4 -0.002620 -0.002169 0.001138 0.038178 -0.004211 0.000711
# 5 -0.003815 0.000914 -0.000982 -0.004211 0.060567 -0.015942
# 6 0.004409 0.002124 -0.000674 0.000711 -0.015942 0.027396
#
#
# Mechanical properties :
#
#
# Convention : Reuss Voigt Hill
#
# Bulk Modulus (GPa) = 42.50175 51.65501 47.07838
# Shear Modulus (GPa) = 25.56479 31.31725 28.44102
#
# Velocity S-wave (km/s) = 3.72280 4.12041 3.92664
# Velocity P-wave (km/s) = 6.44361 7.11620 6.78824
#
# Compressibility (1/GPa) = 0.02352844
#
# Stress axis : x y z
#
# Youngs Moduli (GPa) = 59.38365 94.31604 66.13272
#
# Poissons Ratio (x) = 0.26730 0.11627
# Poissons Ratio (y) = 0.16830 0.32572
# Poissons Ratio (z) = 0.10440 0.46453
#
# Static dielectric constant tensor:
#      x y z
#    x 1.647990 0.013200 0.009840 
#    y 0.013200 1.672940 0.006570 
#    z 0.009840 0.006570 1.663770 
# 
# From -- ./inp_files/270232.got.cif
#   From: 2010.05.17/outbox.cif.g08.bks.cpg/sg2_136_cif.got.tgz:270232.got - 2010.06.03 11:33:40.
