data_PCOD9094928
_publ_section_title
;
Structure prediction by ZEFSAII (Michael W. Deem and Ramdas Pophale) SiO2 
 PCOD9094928
Probable space group: P -1
;
_chemical_formula_sum "Si O2"
_cell_formula_units_Z 11
_cell_length_a 4.932147
_cell_length_b 8.339241
_cell_length_c 19.848993
_cell_angle_alpha 37.833167
_cell_angle_beta 100.109833
_cell_angle_gamma 91.430465
_cell_volume 484.159275
_symmetry_space_group_name_H-M "P -1"
_symmetry_group_IT_number 2
_symmetry_cell_setting 'triclinic'
loop_
_space_group_symop_operation_xyz
x,y,z
-x,-y,-z
loop_
_atom_site_type_symbol
_atom_site_label
_atom_site_fract_x
_atom_site_fract_y
_atom_site_fract_z
Si Si1 0.852626 0.758936 0.048275
Si Si2 0.057326 0.072739 0.141588
Si Si3 0.500000 0.500000 0.000000
Si Si4 0.206874 0.413645 0.758225
Si Si5 0.613394 0.762934 0.633713
Si Si6 0.350399 0.266628 0.204814
O O1 0.100227 0.506669 0.134884
O O2 0.678537 0.701413 0.125247
O O3 0.744620 0.840228 0.939922
O O4 0.000000 0.000000 0.000000
O O5 0.224233 0.057234 0.223116
O O6 0.928311 0.817138 0.204321
O O7 0.799322 0.316959 0.051621
O O8 0.456711 0.623623 0.877916
O O9 0.455078 0.514469 0.697301
O O10 0.945387 0.658133 0.674506
O O11 0.534885 0.841011 0.682248
O O12 0.500000 0.000000 0.500000
#
# Coordination Sequence:
#
# PCOD9094928 Si02
#       6
#     2   2   1   2   2   2
#     4   8  16  35  56  90 127 160 199 244 310 376
#     4  10  21  38  59  97 133 167 203 255 315 388
#     4  10  20  34  64  90 136 162 200 240 330 374
#     4  10  23  42  66  93 125 167 214 261 315 373
#     4  11  25  46  68  88 121 169 221 268 314 365
#     4  10  22  35  61  91 127 164 210 256 315 371
#
# _framework density 22.719797
#
# number of rings (size 3 to 8) (size 9 to 14) (size 15 to 20)
#    0.000    2.182    0.000    2.727   10.182    0.000 
#    3.273    7.273    0.000    0.000    0.000    0.000 
#    0.000    0.000    0.000    0.000    0.000    0.000 
#
# Total GULP energy -61305.349200 kJ/mol
# GULP energy per Si atom -5573.213564 kJ/mol
# Density = 2.266809 g / cm^3
# Si number density = 22.719797 Si / 1000 Ang^3
#
#
#
# Elastic Constant Matrix: (Units=GPa)
#
#
# Indices 1 2 3 4 5 6 
#
# 1 99.8642 9.4466 26.9951 3.2569 -6.1911 2.6673
# 2 9.4466 106.7027 48.5119 22.0015 1.8973 20.5447
# 3 26.9951 48.5119 145.9765 31.9960 -3.9465 13.6693
# 4 3.2569 22.0015 31.9960 29.3228 1.8315 2.2963
# 5 -6.1911 1.8973 -3.9465 1.8315 30.7263 1.0063
# 6 2.6673 20.5447 13.6693 2.2963 1.0063 28.1829
#
#
#
# Elastic Compliance Matrix: (Units=1/GPa)
#
#
# Indices 1 2 3 4 5 6 
#
# 1 0.010681 -0.000280 -0.002100 0.001197 0.001827 0.000049
# 2 -0.000280 0.013376 -0.002102 -0.007047 -0.000466 -0.008114
# 3 -0.002100 -0.002102 0.010256 -0.009285 0.001661 -0.002546
# 4 0.001197 -0.007047 -0.009285 0.049174 -0.003632 0.005651
# 5 0.001827 -0.000466 0.001661 -0.003632 0.033422 -0.001536
# 6 0.000049 -0.008114 -0.002546 0.005651 -0.001536 0.042222
#
#
# Mechanical properties :
#
#
# Convention : Reuss Voigt Hill
#
# Bulk Modulus (GPa) = 39.44730 58.05008 48.74869
# Shear Modulus (GPa) = 28.32188 35.48570 31.90379
#
# Velocity S-wave (km/s) = 3.53451 3.95636 3.75137
# Velocity P-wave (km/s) = 5.83586 6.81735 6.34561
#
# Compressibility (1/GPa) = 0.02535028
#
# Stress axis : x y z
#
# Youngs Moduli (GPa) = 93.62819 74.76203 97.50840
#
# Poissons Ratio (x) = 0.02090 0.20474
# Poissons Ratio (y) = 0.02617 0.20492
# Poissons Ratio (z) = 0.19659 0.15712
#
# Static dielectric constant tensor:
#      x y z
#    x 1.367570 -0.238190 -0.074000 
#    y -0.238190 1.755520 0.013510 
#    z -0.074000 0.013510 1.806560 
# 
# From -- ./inp_files/546083.got.cif
#   From: 2010.05.17/outbox.cif.g08.bks.cpg/sg2_274_cif.got.tgz:546083.got - 2010.06.03 11:33:40.
