data_PCOD9094924
_publ_section_title
;
Structure prediction by ZEFSAII (Michael W. Deem and Ramdas Pophale) SiO2 
 PCOD9094924
Probable space group: P -1
;
_chemical_formula_sum "Si O2"
_cell_formula_units_Z 16
_cell_length_a 21.698878
_cell_length_b 14.600552
_cell_length_c 24.679456
_cell_angle_alpha 14.664376
_cell_angle_beta 161.322083
_cell_angle_gamma 152.589519
_cell_volume 592.718066
_symmetry_space_group_name_H-M "P -1"
_symmetry_group_IT_number 2
_symmetry_cell_setting 'triclinic'
loop_
_space_group_symop_operation_xyz
x,y,z
-x,-y,-z
loop_
_atom_site_type_symbol
_atom_site_label
_atom_site_fract_x
_atom_site_fract_y
_atom_site_fract_z
Si Si1 0.051351 0.711925 0.800371
Si Si2 0.436260 0.899959 0.153981
Si Si3 0.325579 0.964203 0.307693
Si Si4 0.639653 0.090012 0.429771
Si Si5 0.638155 0.971864 0.863232
Si Si6 0.088710 0.795566 0.105544
Si Si7 0.016140 0.055216 0.276560
Si Si8 0.400894 0.821538 0.973064
O O1 0.932287 0.994738 0.587849
O O2 0.923298 0.520818 0.767016
O O3 0.231746 0.345638 0.189172
O O4 0.165744 0.917273 0.739125
O O5 0.549265 0.443421 0.517492
O O6 0.412062 0.113406 0.068987
O O7 0.205783 0.968330 0.903285
O O8 0.548589 0.041115 0.120296
O O9 0.454812 0.219560 0.246261
O O10 0.253721 0.774349 0.303214
O O11 0.480788 0.632955 0.663048
O O12 0.121524 0.128539 0.079771
O O13 0.504898 0.123829 0.244312
O O14 0.830112 0.176601 0.509939
O O15 0.868510 0.881903 0.082609
O O16 0.000000 0.500000 0.000000
O O17 0.500000 0.000000 0.000000
#
# Coordination Sequence:
#
# PCOD9094924 Si02
#       8
#     2   2   2   2   2   2   2   2
#     4  10  19  31  55  83 113 141 181 228 273 330
#     4  11  20  32  55  81 116 146 177 230 281 329
#     4   9  21  39  58  80 112 148 184 229 278 324
#     4   9  17  31  52  80 106 137 179 232 267 312
#     4  10  19  33  54  81 109 144 187 227 271 323
#     4  10  20  37  59  83 108 145 193 232 259 326
#     4  10  16  30  49  83 110 134 180 227 270 320
#     4  11  20  38  53  80 118 150 176 224 291 327
#
# _framework density 26.994285000000001
#
# number of rings (size 3 to 8) (size 9 to 14) (size 15 to 20)
#    0.000    2.000    3.750    3.000    1.750    2.000 
#    0.000    4.375    0.000    0.000    0.000    6.125 
#    0.000    0.000    0.000    0.000    0.000    0.000 
#
# Total GULP energy -89372.179154 kJ/mol
# GULP energy per Si atom -5585.761197 kJ/mol
# Density = 2.693284 g / cm^3
# Si number density = 26.994285 Si / 1000 Ang^3
#
#
#
# Elastic Constant Matrix: (Units=GPa)
#
#
# Indices 1 2 3 4 5 6 
#
# 1 245.4765 64.8677 58.9837 19.8604 -17.0755 39.5084
# 2 64.8677 88.8483 28.8348 20.2943 -3.7579 16.8988
# 3 58.9837 28.8348 54.8158 13.4438 14.1332 5.1416
# 4 19.8604 20.2943 13.4438 23.2003 0.6586 9.4001
# 5 -17.0755 -3.7579 14.1332 0.6586 34.6290 10.2824
# 6 39.5084 16.8988 5.1416 9.4001 10.2824 69.5030
#
#
#
# Elastic Compliance Matrix: (Units=1/GPa)
#
#
# Indices 1 2 3 4 5 6 
#
# 1 0.008557 -0.001805 -0.010962 0.002527 0.010066 -0.005445
# 2 -0.001805 0.017105 -0.005579 -0.009474 0.004027 -0.002034
# 3 -0.010962 -0.005579 0.041999 -0.013442 -0.025905 0.010131
# 4 0.002527 -0.009474 -0.013442 0.059748 0.006709 -0.007212
# 5 0.010066 0.004027 -0.025905 0.006709 0.048546 -0.012874
# 6 -0.005445 -0.002034 0.010131 -0.007212 -0.012874 0.020108
#
#
# Mechanical properties :
#
#
# Convention : Reuss Voigt Hill
#
# Bulk Modulus (GPa) = 32.29189 77.16811 54.73000
# Shear Modulus (GPa) = 20.56936 41.23010 30.89973
#
# Velocity S-wave (km/s) = 2.76341 3.91239 3.38698
# Velocity P-wave (km/s) = 4.70854 7.00414 5.96776
#
# Compressibility (1/GPa) = 0.03096753
#
# Stress axis : x y z
#
# Youngs Moduli (GPa) = 116.86270 58.46149 23.81009
#
# Poissons Ratio (x) = 0.10555 0.26101
# Poissons Ratio (y) = 0.21099 0.13284
# Poissons Ratio (z) = 1.28109 0.32616
#
# Static dielectric constant tensor:
#      x y z
#    x 2.168010 0.014000 0.036130 
#    y 0.014000 2.146020 -0.130610 
#    z 0.036130 -0.130610 2.240140 
# 
# From -- ./inp_files/388206.got.cif
#   From: 2010.05.17/outbox.cif.g08.bks.cpg/sg2_195_cif.got.tgz:388206.got - 2010.06.03 11:33:40.
