data_PCOD9094373
_publ_section_title
;
Structure prediction by ZEFSAII (Michael W. Deem and Ramdas Pophale) SiO2 
 PCOD9094373
Probable space group: P -1
;
_chemical_formula_sum "Si O2"
_cell_formula_units_Z 16
_cell_length_a 8.748143
_cell_length_b 13.198707
_cell_length_c 8.276973
_cell_angle_alpha 70.014256
_cell_angle_beta 58.415151
_cell_angle_gamma 57.601680
_cell_volume 684.910155
_symmetry_space_group_name_H-M "P -1"
_symmetry_group_IT_number 2
_symmetry_cell_setting 'triclinic'
loop_
_space_group_symop_operation_xyz
x,y,z
-x,-y,-z
loop_
_atom_site_type_symbol
_atom_site_label
_atom_site_fract_x
_atom_site_fract_y
_atom_site_fract_z
Si Si1 0.203893 0.684550 0.820150
Si Si2 0.513527 0.423110 0.760551
Si Si3 0.857423 0.477387 0.468082
Si Si4 0.566633 0.102861 0.873140
Si Si5 0.841577 0.773144 0.523383
Si Si6 0.158612 0.822808 0.458054
Si Si7 0.181994 0.295007 0.794391
Si Si8 0.473032 0.747280 0.888548
O O1 0.337624 0.552824 0.737548
O O2 0.131089 0.790469 0.672158
O O3 0.334178 0.719607 0.856489
O O4 0.020893 0.675791 0.015258
O O5 0.685873 0.466584 0.673517
O O6 0.651266 0.303458 0.643775
O O7 0.439009 0.372024 0.980556
O O8 0.785546 0.587052 0.325182
O O9 0.000000 0.500000 0.500000
O O10 0.004366 0.345693 0.397378
O O11 0.752265 0.081755 0.665785
O O12 0.367721 0.204950 0.844769
O O13 0.626698 0.146366 0.983198
O O14 0.500000 0.000000 0.000000
O O15 0.836736 0.755758 0.343380
O O16 0.629975 0.784740 0.694633
O O17 0.955912 0.853619 0.453243
#
# Coordination Sequence:
#
# PCOD9094373 Si02
#       8
#     2   2   2   2   2   2   2   2
#     4  12  21  36  61  95 128 161 196 241 301 372
#     4  10  20  34  56  89 130 168 197 237 294 362
#     4   9  16  31  55  87 126 163 191 231 289 355
#     4  11  25  47  66  85 114 155 208 266 309 349
#     4  10  20  38  61  94 129 158 193 243 299 369
#     4  10  22  40  61  89 124 161 202 248 296 358
#     4  11  22  38  61  90 123 163 204 248 300 358
#     4  11  22  38  61  91 124 163 203 246 299 361
#
# _framework density 23.360727000000001
#
# number of rings (size 3 to 8) (size 9 to 14) (size 15 to 20)
#    0.000    1.500    0.000    8.250    0.000    3.000 
#    0.000   13.750    0.000    0.000    0.000    0.000 
#    0.000    0.000    0.000    0.000    0.000    0.000 
#
# Total GULP energy -89258.047829 kJ/mol
# GULP energy per Si atom -5578.627989 kJ/mol
# Density = 2.330756 g / cm^3
# Si number density = 23.360727 Si / 1000 Ang^3
#
#
#
# Elastic Constant Matrix: (Units=GPa)
#
#
# Indices 1 2 3 4 5 6 
#
# 1 114.9673 32.3651 22.9160 -10.6575 -16.2109 15.6404
# 2 32.3651 46.2361 15.7320 -6.5568 0.6149 21.8321
# 3 22.9160 15.7320 110.2398 -4.0741 -23.8499 12.9983
# 4 -10.6575 -6.5568 -4.0741 29.2185 2.2387 -9.5693
# 5 -16.2109 0.6149 -23.8499 2.2387 49.8263 -2.4206
# 6 15.6404 21.8321 12.9983 -9.5693 -2.4206 24.6405
#
#
#
# Elastic Compliance Matrix: (Units=1/GPa)
#
#
# Indices 1 2 3 4 5 6 
#
# 1 0.011720 -0.008537 -0.000547 0.002586 0.003627 0.001774
# 2 -0.008537 0.044247 -0.001792 -0.004511 -0.005686 -0.035151
# 3 -0.000547 -0.001792 0.010903 -0.000630 0.004918 -0.003578
# 4 0.002586 -0.004511 -0.000630 0.040057 -0.000320 0.018213
# 5 0.003627 -0.005686 0.004918 -0.000320 0.023802 0.002356
# 6 0.001774 -0.035151 -0.003578 0.018213 0.002356 0.079794
#
#
# Mechanical properties :
#
#
# Convention : Reuss Voigt Hill
#
# Bulk Modulus (GPa) = 22.16394 45.94103 34.05249
# Shear Modulus (GPa) = 20.21702 34.09906 27.15804
#
# Velocity S-wave (km/s) = 2.94501 3.82471 3.41332
# Velocity P-wave (km/s) = 4.59047 6.26204 5.49024
#
# Compressibility (1/GPa) = 0.04511833
#
# Stress axis : x y z
#
# Youngs Moduli (GPa) = 85.32232 22.60020 91.71714
#
# Poissons Ratio (x) = 0.19294 0.05017
# Poissons Ratio (y) = 0.72841 0.16437
# Poissons Ratio (z) = 0.04667 0.04050
#
# Static dielectric constant tensor:
#      x y z
#    x 1.950000 0.081100 -0.035930 
#    y 0.081100 2.016650 -0.006310 
#    z -0.035930 -0.006310 1.940610 
# 
# From -- ./inp_files/205821.got.cif
#   From: 2010.05.17/outbox.cif.g08.bks.cpg/sg2_103_cif.got.tgz:205821.got - 2010.06.03 11:33:40.
