data_PCOD9094622
_publ_section_title
;
Structure prediction by ZEFSAII (Michael W. Deem and Ramdas Pophale) SiO2 
 PCOD9094622
Probable space group: P -1
;
_chemical_formula_sum "Si O2"
_cell_formula_units_Z 14
_cell_length_a 15.670348
_cell_length_b 15.099915
_cell_length_c 9.258114
_cell_angle_alpha 106.906006
_cell_angle_beta 126.881830
_cell_angle_gamma 27.837269
_cell_volume 627.131465
_symmetry_space_group_name_H-M "P -1"
_symmetry_group_IT_number 2
_symmetry_cell_setting 'triclinic'
loop_
_space_group_symop_operation_xyz
x,y,z
-x,-y,-z
loop_
_atom_site_type_symbol
_atom_site_label
_atom_site_fract_x
_atom_site_fract_y
_atom_site_fract_z
Si Si1 0.805434 0.477156 0.139761
Si Si2 0.223088 0.382192 0.085826
Si Si3 0.972538 0.281136 0.784817
Si Si4 0.860020 0.837436 0.410478
Si Si5 0.080057 0.090834 0.071928
Si Si6 0.607336 0.321591 0.648162
Si Si7 0.220328 0.888023 0.590271
O O1 0.899885 0.407230 0.368168
O O2 0.850083 0.532574 0.113914
O O3 0.488237 0.698196 0.876886
O O4 0.017174 0.226543 0.177566
O O5 0.196171 0.502888 0.197657
O O6 0.540039 0.084992 0.265054
O O7 0.000000 0.500000 0.000000
O O8 0.729882 0.404154 0.548005
O O9 0.126960 0.197435 0.762699
O O10 0.157125 0.075899 0.990626
O O11 0.908382 0.909623 0.493234
O O12 0.788120 0.265755 0.847769
O O13 0.298837 0.840415 0.234839
O O14 0.683510 0.236921 0.520239
O O15 0.000000 0.000000 0.500000
#
# Coordination Sequence:
#
# PCOD9094622 Si02
#       7
#     2   2   2   2   2   2   2
#     4  10  21  40  60  86 125 162 201 248 302 352
#     4  10  23  45  66  88 119 152 202 261 307 363
#     4  11  22  39  62  85 122 158 193 250 303 355
#     4  11  23  40  61  91 123 157 204 247 301 362
#     4  10  20  34  59  83 120 168 202 236 296 351
#     4  11  20  35  55  86 120 161 207 241 285 353
#     4  11  22  35  55  88 127 163 206 246 282 349
#
# _framework density 22.323867
#
# number of rings (size 3 to 8) (size 9 to 14) (size 15 to 20)
#    0.000    1.429    5.714    1.286    2.000    6.286 
#    0.000    0.714    0.000    0.000    0.000    0.000 
#    0.000    0.000    0.000    0.000    0.000    0.000 
#
# Total GULP energy -78213.346451 kJ/mol
# GULP energy per Si atom -5586.667604 kJ/mol
# Density = 2.227306 g / cm^3
# Si number density = 22.323867 Si / 1000 Ang^3
#
#
#
# Elastic Constant Matrix: (Units=GPa)
#
#
# Indices 1 2 3 4 5 6 
#
# 1 133.0499 0.9612 62.7319 -18.9686 -15.1284 -31.5367
# 2 0.9612 39.0834 9.5587 -0.5047 -10.2316 -21.2800
# 3 62.7319 9.5587 86.9553 -14.1935 -41.9083 -12.3941
# 4 -18.9686 -0.5047 -14.1935 18.8286 4.9468 -3.7827
# 5 -15.1284 -10.2316 -41.9083 4.9468 38.1378 -4.3704
# 6 -31.5367 -21.2800 -12.3941 -3.7827 -4.3704 38.2028
#
#
#
# Elastic Compliance Matrix: (Units=1/GPa)
#
#
# Indices 1 2 3 4 5 6 
#
# 1 0.020707 0.018248 -0.006501 0.020342 0.006526 0.027910
# 2 0.018248 0.074505 0.021202 0.036862 0.054142 0.073287
# 3 -0.006501 0.021202 0.051187 0.023309 0.060026 0.032225
# 4 0.020342 0.036862 0.023309 0.093915 0.038099 0.058545
# 5 0.006526 0.054142 0.060026 0.038099 0.112566 0.071670
# 6 0.027910 0.073287 0.032225 0.058545 0.071670 0.114489
#
#
# Mechanical properties :
#
#
# Convention : Reuss Voigt Hill
#
# Bulk Modulus (GPa) = 4.71039 45.06578 24.88808
# Shear Modulus (GPa) = 10.58792 31.42298 21.00545
#
# Velocity S-wave (km/s) = 2.18018 3.75586 3.07080
# Velocity P-wave (km/s) = 2.90726 6.24818 4.87298
#
# Compressibility (1/GPa) = 0.21229675
#
# Stress axis : x y z
#
# Youngs Moduli (GPa) = 48.29341 13.42195 19.53624
#
# Poissons Ratio (x) = -0.24492 0.12700
# Poissons Ratio (y) = -0.88126 -0.41421
# Poissons Ratio (z) = 0.31394 -0.28457
#
# Static dielectric constant tensor:
#      x y z
#    x 1.835830 -0.000020 -0.024090 
#    y -0.000020 1.854790 0.027830 
#    z -0.024090 0.027830 1.854490 
# 
# From -- ./inp_files/215596.got.cif
#   From: 2010.05.17/outbox.cif.g08.bks.cpg/sg2_108_cif.got.tgz:215596.got - 2010.06.03 11:33:40.
