data_PCOD9094063
_publ_section_title
;
Structure prediction by ZEFSAII (Michael W. Deem and Ramdas Pophale) SiO2 
 PCOD9094063
Probable space group: P -1
;
_chemical_formula_sum "Si O2"
_cell_formula_units_Z 12
_cell_length_a 11.978828
_cell_length_b 24.444060
_cell_length_c 12.094699
_cell_angle_alpha 150.816766
_cell_angle_beta 156.387367
_cell_angle_gamma 27.723481
_cell_volume 622.340540
_symmetry_space_group_name_H-M "P -1"
_symmetry_group_IT_number 2
_symmetry_cell_setting 'triclinic'
loop_
_space_group_symop_operation_xyz
x,y,z
-x,-y,-z
loop_
_atom_site_type_symbol
_atom_site_label
_atom_site_fract_x
_atom_site_fract_y
_atom_site_fract_z
Si Si1 0.406228 0.841132 0.568884
Si Si2 0.213206 0.120993 0.831433
Si Si3 0.957231 0.303679 0.724118
Si Si4 0.586613 0.559043 0.948841
Si Si5 0.040487 0.398438 0.450469
Si Si6 0.498949 0.366431 0.240443
O O1 0.679821 0.730089 0.559455
O O2 0.096473 0.824217 0.277025
O O3 0.318149 0.973208 0.662528
O O4 0.529288 0.854106 0.825281
O O5 0.131485 0.188072 0.758553
O O6 0.698536 0.415879 0.758980
O O7 0.790579 0.276360 0.419515
O O8 0.195627 0.356971 0.992900
O O9 0.502043 0.642162 0.907891
O O10 0.286620 0.603809 0.832350
O O11 0.863022 0.564001 0.278683
O O12 0.000000 0.500000 0.500000
O O13 0.500000 0.500000 0.500000
#
# Coordination Sequence:
#
# PCOD9094063 Si02
#       6
#     2   2   2   2   2   2
#     4  10  21  36  53  79 108 139 174 212 263 306
#     4  10  20  36  57  77 104 137 178 222 251 303
#     4  11  19  34  57  80 103 135 181 217 259 305
#     4  11  21  34  52  77 109 136 165 215 265 309
#     4  12  22  34  53  78 109 139 169 205 262 325
#     4  10  20  34  53  79 107 136 174 219 262 303
#
# _framework density 19.282048
#
# number of rings (size 3 to 8) (size 9 to 14) (size 15 to 20)
#    0.000    1.333    0.000    9.500    0.000    0.000 
#    0.000    0.000    0.000    6.000    0.000    0.000 
#    0.000    0.000    0.000    0.000    0.000    0.000 
#
# Total GULP energy -67047.762996 kJ/mol
# GULP energy per Si atom -5587.313583 kJ/mol
# Density = 1.923816 g / cm^3
# Si number density = 19.282048 Si / 1000 Ang^3
#
#
#
# Elastic Constant Matrix: (Units=GPa)
#
#
# Indices 1 2 3 4 5 6 
#
# 1 77.6721 49.3353 5.2328 -1.3980 0.8349 16.4633
# 2 49.3353 96.7597 5.6939 -17.2082 -0.3863 18.0552
# 3 5.2328 5.6939 61.4406 -18.3176 -2.0325 4.7345
# 4 -1.3980 -17.2082 -18.3176 19.6308 1.6089 -6.8363
# 5 0.8349 -0.3863 -2.0325 1.6089 38.0473 -23.0694
# 6 16.4633 18.0552 4.7345 -6.8363 -23.0694 34.7620
#
#
#
# Elastic Compliance Matrix: (Units=1/GPa)
#
#
# Indices 1 2 3 4 5 6 
#
# 1 0.023828 -0.012764 -0.005663 -0.018584 -0.007932 -0.012803
# 2 -0.012764 0.020852 0.005905 0.022239 -0.001457 -0.002183
# 3 -0.005663 0.005905 0.024590 0.028747 0.002420 0.003525
# 4 -0.018584 0.022239 0.028747 0.102100 0.010016 0.020061
# 5 -0.007932 -0.001457 0.002420 0.010016 0.049997 0.039333
# 6 -0.012803 -0.002183 0.003525 0.020061 0.039333 0.065533
#
#
# Mechanical properties :
#
#
# Convention : Reuss Voigt Hill
#
# Bulk Modulus (GPa) = 22.61133 39.59961 31.10547
# Shear Modulus (GPa) = 15.30526 30.19540 22.75033
#
# Velocity S-wave (km/s) = 2.82043 3.96155 3.43865
# Velocity P-wave (km/s) = 4.72848 6.44257 5.65090
#
# Compressibility (1/GPa) = 0.04422561
#
# Stress axis : x y z
#
# Youngs Moduli (GPa) = 41.96783 47.95732 40.66729
#
# Poissons Ratio (x) = 0.61211 0.23030
# Poissons Ratio (y) = 0.53567 -0.24013
# Poissons Ratio (z) = 0.23766 -0.28318
#
# Static dielectric constant tensor:
#      x y z
#    x 1.669540 0.010960 -0.018660 
#    y 0.010960 1.673940 -0.014700 
#    z -0.018660 -0.014700 1.679660 
# 
# From -- ./inp_files/20286.got.cif
#   From: 2010.05.17/outbox.cif.g08.bks.cpg/sg2_11_cif.got.tgz:20286.got - 2010.06.03 11:33:40.
