data_PCOD9094729
_publ_section_title
;
Structure prediction by ZEFSAII (Michael W. Deem and Ramdas Pophale) SiO2 
 PCOD9094729
Probable space group: P -1
;
_chemical_formula_sum "Si O2"
_cell_formula_units_Z 14
_cell_length_a 16.033454
_cell_length_b 7.907365
_cell_length_c 18.981729
_cell_angle_alpha 43.367441
_cell_angle_beta 158.174210
_cell_angle_gamma 135.190075
_cell_volume 608.715174
_symmetry_space_group_name_H-M "P -1"
_symmetry_group_IT_number 2
_symmetry_cell_setting 'triclinic'
loop_
_space_group_symop_operation_xyz
x,y,z
-x,-y,-z
loop_
_atom_site_type_symbol
_atom_site_label
_atom_site_fract_x
_atom_site_fract_y
_atom_site_fract_z
Si Si1 0.754084 0.140846 0.910931
Si Si2 0.339193 0.953434 0.294436
Si Si3 0.921663 0.560095 0.747100
Si Si4 0.409523 0.509973 0.146881
Si Si5 0.310365 0.404525 0.936185
Si Si6 0.737088 0.665982 0.723169
Si Si7 0.896823 0.720099 0.524129
O O1 0.654870 0.071846 0.777562
O O2 0.659611 0.396238 0.777595
O O3 0.023076 0.223297 0.090537
O O4 0.725753 0.893871 0.008900
O O5 0.131562 0.740919 0.217763
O O6 0.557262 0.853626 0.527494
O O7 0.355930 0.247389 0.225856
O O8 0.785192 0.615146 0.693083
O O9 0.862808 0.694937 0.589349
O O10 0.186321 0.640557 0.945308
O O11 0.656500 0.641197 0.321760
O O12 0.395518 0.466917 0.064087
O O13 0.081513 0.532345 0.708401
O O14 0.500000 0.500000 0.000000
O O15 0.000000 0.000000 0.500000
#
# Coordination Sequence:
#
# PCOD9094729 Si02
#       7
#     2   2   2   2   2   2   2
#     4   9  19  35  56  87 117 144 188 235 284 333
#     4  10  20  37  60  89 118 149 193 235 282 343
#     4  10  22  37  58  88 118 154 190 230 288 346
#     4  10  23  41  59  84 120 152 186 240 292 339
#     4  10  23  41  62  84 111 150 196 240 284 340
#     4  10  20  34  60  89 118 151 187 235 282 336
#     4  11  26  42  58  84 116 154 198 238 285 342
#
# _framework density 22.999262999999999
#
# number of rings (size 3 to 8) (size 9 to 14) (size 15 to 20)
#    0.000    2.000    0.000    3.000    0.000   14.857 
#    0.000    0.000    0.000    0.000    0.000    0.000 
#    0.000    0.000    0.000    0.000    0.000    0.000 
#
# Total GULP energy -78314.133163 kJ/mol
# GULP energy per Si atom -5593.866654 kJ/mol
# Density = 2.294692 g / cm^3
# Si number density = 22.999263 Si / 1000 Ang^3
#
#
#
# Elastic Constant Matrix: (Units=GPa)
#
#
# Indices 1 2 3 4 5 6 
#
# 1 102.7781 37.2632 34.0263 -5.8796 7.4779 9.5915
# 2 37.2632 141.3704 53.7822 -18.4864 5.9756 16.9593
# 3 34.0263 53.7822 178.0197 8.3940 11.0833 6.1754
# 4 -5.8796 -18.4864 8.3940 35.8039 3.2941 -3.9956
# 5 7.4779 5.9756 11.0833 3.2941 29.3315 0.5769
# 6 9.5915 16.9593 6.1754 -3.9956 0.5769 39.6270
#
#
#
# Elastic Compliance Matrix: (Units=1/GPa)
#
#
# Indices 1 2 3 4 5 6 
#
# 1 0.011286 -0.002014 -0.001425 0.001167 -0.002030 -0.001500
# 2 -0.002014 0.009619 -0.002604 0.005034 -0.000974 -0.002701
# 3 -0.001425 -0.002604 0.006903 -0.003060 -0.001373 0.000095
# 4 0.001167 0.005034 -0.003060 0.031933 -0.003779 0.001315
# 5 -0.002030 -0.000974 -0.001373 -0.003779 0.035748 0.000221
# 6 -0.001500 -0.002701 0.000095 0.001315 0.000221 0.026869
#
#
# Mechanical properties :
#
#
# Convention : Reuss Voigt Hill
#
# Bulk Modulus (GPa) = 63.60943 74.70130 69.15537
# Shear Modulus (GPa) = 35.79483 40.75892 38.27688
#
# Velocity S-wave (km/s) = 3.94934 4.21430 4.08397
# Velocity P-wave (km/s) = 6.96517 7.49872 7.23686
#
# Compressibility (1/GPa) = 0.01572094
#
# Stress axis : x y z
#
# Youngs Moduli (GPa) = 88.60267 103.96357 144.86631
#
# Poissons Ratio (x) = 0.20941 0.20647
# Poissons Ratio (y) = 0.17847 0.37722
# Poissons Ratio (z) = 0.12628 0.27072
#
# Static dielectric constant tensor:
#      x y z
#    x 1.912260 -0.063810 0.000650 
#    y -0.063810 1.875290 -0.009900 
#    z 0.000650 -0.009900 1.845790 
# 
# From -- ./inp_files/299656.got.cif
#   From: 2010.05.17/outbox.cif.g08.bks.cpg/sg2_150_cif.got.tgz:299656.got - 2010.06.03 11:33:40.
