data_PCOD9094299
_publ_section_title
;
Structure prediction by ZEFSAII (Michael W. Deem and Ramdas Pophale) SiO2 
 PCOD9094299
Probable space group: P -1
;
_chemical_formula_sum "Si O2"
_cell_formula_units_Z 14
_cell_length_a 13.066508
_cell_length_b 11.878570
_cell_length_c 14.780279
_cell_angle_alpha 38.129670
_cell_angle_beta 30.575735
_cell_angle_gamma 56.908151
_cell_volume 654.580066
_symmetry_space_group_name_H-M "P -1"
_symmetry_group_IT_number 2
_symmetry_cell_setting 'triclinic'
loop_
_space_group_symop_operation_xyz
x,y,z
-x,-y,-z
loop_
_atom_site_type_symbol
_atom_site_label
_atom_site_fract_x
_atom_site_fract_y
_atom_site_fract_z
Si Si1 0.284873 0.093078 0.285694
Si Si2 0.807088 0.660368 0.325103
Si Si3 0.544410 0.959563 0.633672
Si Si4 0.191604 0.208195 0.108009
Si Si5 0.364967 0.737798 0.360038
Si Si6 0.315361 0.605430 0.684826
Si Si7 0.180959 0.022515 0.751766
O O1 0.315237 0.927599 0.301917
O O2 0.041339 0.984431 0.584728
O O3 0.460860 0.145954 0.199637
O O4 0.285109 0.254561 0.110652
O O5 0.798490 0.437843 0.470871
O O6 0.554654 0.616966 0.524464
O O7 0.867959 0.799535 0.279963
O O8 0.963082 0.818019 0.032884
O O9 0.323761 0.954558 0.757816
O O10 0.685444 0.194954 0.398806
O O11 0.673985 0.899077 0.496998
O O12 0.382511 0.188644 0.913537
O O13 0.149889 0.395298 0.984263
O O14 0.324087 0.623592 0.559264
#
# Coordination Sequence:
#
# PCOD9094299 Si02
#       7
#     2   2   2   2   2   2   2
#     4  10  22  34  54  81 107 143 167 209 275 318
#     4   9  17  30  50  77 102 132 169 217 264 298
#     4   9  19  33  51  78 103 135 176 217 253 305
#     4  10  20  35  51  82 112 136 168 208 276 321
#     4  10  20  34  56  82 105 135 173 223 264 306
#     4   9  19  32  54  83 102 132 172 222 269 302
#     4   9  18  31  50  75 106 135 174 219 252 297
#
# _framework density 21.38776
#
# number of rings (size 3 to 8) (size 9 to 14) (size 15 to 20)
#    0.000    2.571    0.000    2.143    6.000    1.143 
#    0.000    0.000    0.000   17.143    0.000    0.000 
#    0.000    0.000    0.000    0.000    0.000    0.000 
#
# Total GULP energy -78021.449412 kJ/mol
# GULP energy per Si atom -5572.960672 kJ/mol
# Density = 2.133908 g / cm^3
# Si number density = 21.387760 Si / 1000 Ang^3
#
#
#
# Elastic Constant Matrix: (Units=GPa)
#
#
# Indices 1 2 3 4 5 6 
#
# 1 72.1723 -4.0246 8.6626 -1.7966 21.9788 -1.0815
# 2 -4.0246 69.7096 17.2923 18.5321 4.4142 13.1720
# 3 8.6626 17.2923 62.7873 10.0490 6.2789 3.5381
# 4 -1.7966 18.5321 10.0490 18.1737 2.0812 3.3455
# 5 21.9788 4.4142 6.2789 2.0812 39.4274 -3.4393
# 6 -1.0815 13.1720 3.5381 3.3455 -3.4393 17.8139
#
#
#
# Elastic Compliance Matrix: (Units=1/GPa)
#
#
# Indices 1 2 3 4 5 6 
#
# 1 0.017243 0.001936 -0.002200 0.002497 -0.009812 -0.002311
# 2 0.001936 0.022828 -0.002435 -0.018884 -0.003418 -0.013392
# 3 -0.002200 -0.002435 0.018262 -0.007572 -0.001074 -0.000745
# 4 0.002497 -0.018884 -0.007572 0.078898 -0.002204 0.000376
# 5 -0.009812 -0.003418 -0.001074 -0.002204 0.032270 0.008789
# 6 -0.002311 -0.013392 -0.000745 0.000376 0.008789 0.067673
#
#
# Mechanical properties :
#
#
# Convention : Reuss Voigt Hill
#
# Bulk Modulus (GPa) = 18.89155 27.61442 23.25299
# Shear Modulus (GPa) = 19.21462 27.26559 23.24010
#
# Velocity S-wave (km/s) = 3.00057 3.57434 3.29995
# Velocity P-wave (km/s) = 4.56691 5.47484 5.04135
#
# Compressibility (1/GPa) = 0.05293373
#
# Stress axis : x y z
#
# Youngs Moduli (GPa) = 57.99347 43.80537 54.75734
#
# Poissons Ratio (x) = -0.08479 0.12048
# Poissons Ratio (y) = -0.11225 0.13336
# Poissons Ratio (z) = 0.12760 0.10668
#
# Static dielectric constant tensor:
#      x y z
#    x 1.823560 -0.005330 -0.000140 
#    y -0.005330 1.863590 -0.011320 
#    z -0.000140 -0.011320 1.818710 
# 
# From -- ./inp_files/174445.got.cif
#   From: 2010.05.17/outbox.cif.g08.bks.cpg/sg2_88_cif.got.tgz:174445.got - 2010.06.03 11:33:40.
