data_PCOD9094666
_publ_section_title
;
Structure prediction by ZEFSAII (Michael W. Deem and Ramdas Pophale) SiO2 
 PCOD9094666
Probable space group: P -1
;
_chemical_formula_sum "Si O2"
_cell_formula_units_Z 16
_cell_length_a 20.875826
_cell_length_b 30.672340
_cell_length_c 30.422910
_cell_angle_alpha 170.732046
_cell_angle_beta 166.014550
_cell_angle_gamma 15.435410
_cell_volume 748.399517
_symmetry_space_group_name_H-M "P -1"
_symmetry_group_IT_number 2
_symmetry_cell_setting 'triclinic'
loop_
_space_group_symop_operation_xyz
x,y,z
-x,-y,-z
loop_
_atom_site_type_symbol
_atom_site_label
_atom_site_fract_x
_atom_site_fract_y
_atom_site_fract_z
Si Si1 0.454232 0.977112 0.318950
Si Si2 0.978464 0.546667 0.695456
Si Si3 0.153316 0.121833 0.764344
Si Si4 0.538400 0.467515 0.808867
Si Si5 0.259654 0.006738 0.381700
Si Si6 0.082705 0.310262 0.782352
Si Si7 0.049721 0.684881 0.637694
Si Si8 0.570805 0.013884 0.867440
O O1 0.621355 0.984013 0.481562
O O2 0.572640 0.159648 0.542614
O O3 0.454666 0.675770 0.000507
O O4 0.155766 0.132575 0.285780
O O5 0.039296 0.271722 0.489848
O O6 0.097562 0.491491 0.670269
O O7 0.676320 0.695126 0.630858
O O8 0.120762 0.751109 0.022137
O O9 0.441931 0.133505 0.946467
O O10 0.000000 0.000000 0.500000
O O11 0.139121 0.892526 0.564546
O O12 0.013968 0.422404 0.985643
O O13 0.292019 0.513984 0.656310
O O14 0.801627 0.558577 0.052939
O O15 0.500000 0.000000 0.500000
O O16 0.340685 0.105360 0.769338
O O17 0.182169 0.874713 0.880448
#
# Coordination Sequence:
#
# PCOD9094666 Si02
#       8
#     2   2   2   2   2   2   2   2
#     4  12  25  43  61  87 122 176 212 254 291 371
#     4  12  24  38  62  92 123 165 197 258 322 354
#     4  10  20  34  59  90 125 164 196 241 319 383
#     4  11  26  40  63  89 128 168 212 242 310 369
#     4  12  25  42  63  84 122 163 224 261 306 346
#     4  10  22  37  59  88 129 163 199 250 304 379
#     4  11  25  38  63  92 136 158 203 252 317 372
#     4  10  22  35  60  92 131 156 198 250 320 376
#
# _framework density 21.378955000000001
#
# number of rings (size 3 to 8) (size 9 to 14) (size 15 to 20)
#    0.000    1.000    2.500    4.125   15.750    0.000 
#    0.000    0.000    0.000    0.000    0.000   17.500 
#    0.000    0.000    0.000    0.000    0.000    0.000 
#
# Total GULP energy -89321.125124 kJ/mol
# GULP energy per Si atom -5582.570320 kJ/mol
# Density = 2.133030 g / cm^3
# Si number density = 21.378955 Si / 1000 Ang^3
#
#
#
# Elastic Constant Matrix: (Units=GPa)
#
#
# Indices 1 2 3 4 5 6 
#
# 1 81.6528 30.7802 10.8944 -5.9451 6.7279 0.9953
# 2 30.7802 47.0705 16.6143 12.1322 2.3031 -4.7646
# 3 10.8944 16.6143 82.3009 2.2989 -1.5863 4.9809
# 4 -5.9451 12.1322 2.2989 22.1715 -2.1376 -5.0484
# 5 6.7279 2.3031 -1.5863 -2.1376 46.8286 -4.3425
# 6 0.9953 -4.7646 4.9809 -5.0484 -4.3425 38.7435
#
#
#
# Elastic Compliance Matrix: (Units=1/GPa)
#
#
# Indices 1 2 3 4 5 6 
#
# 1 0.019576 -0.016549 0.000390 0.013913 -0.001437 -0.000936
# 2 -0.016549 0.040968 -0.005541 -0.025728 -0.000745 0.002740
# 3 0.000390 -0.005541 0.013323 0.001311 0.000526 -0.002174
# 4 0.013913 -0.025728 0.001311 0.064169 0.002701 0.004974
# 5 -0.001437 -0.000745 0.000526 0.002701 0.021989 0.002694
# 6 -0.000936 0.002740 -0.002174 0.004974 0.002694 0.027401
#
#
# Mechanical properties :
#
#
# Convention : Reuss Voigt Hill
#
# Bulk Modulus (GPa) = 32.82405 36.40021 34.61213
# Shear Modulus (GPa) = 20.74844 31.73107 26.23976
#
# Velocity S-wave (km/s) = 3.11868 3.85674 3.50718
# Velocity P-wave (km/s) = 5.32494 6.07418 5.71186
#
# Compressibility (1/GPa) = 0.03046547
#
# Stress axis : x y z
#
# Youngs Moduli (GPa) = 51.08226 24.40957 75.06016
#
# Poissons Ratio (x) = 0.40396 -0.02926
# Poissons Ratio (y) = 0.84537 0.41591
# Poissons Ratio (z) = -0.01991 0.13525
#
# Static dielectric constant tensor:
#      x y z
#    x 1.810630 -0.040320 0.024560 
#    y -0.040320 1.811980 -0.022230 
#    z 0.024560 -0.022230 1.891150 
# 
# From -- ./inp_files/620549.got.cif
#   From: 2010.05.17/outbox.cif.g08.bks.cpg/sg2_311_cif.got.tgz:620549.got - 2010.06.03 11:33:40.
