data_PCOD9094075
_publ_section_title
;
Structure prediction by ZEFSAII (Michael W. Deem and Ramdas Pophale) SiO2 
 PCOD9094075
Probable space group: P -1
;
_chemical_formula_sum "Si O2"
_cell_formula_units_Z 14
_cell_length_a 5.748948
_cell_length_b 14.137521
_cell_length_c 12.547209
_cell_angle_alpha 138.180484
_cell_angle_beta 57.702090
_cell_angle_gamma 110.725263
_cell_volume 572.994135
_symmetry_space_group_name_H-M "P -1"
_symmetry_group_IT_number 2
_symmetry_cell_setting 'triclinic'
loop_
_space_group_symop_operation_xyz
x,y,z
-x,-y,-z
loop_
_atom_site_type_symbol
_atom_site_label
_atom_site_fract_x
_atom_site_fract_y
_atom_site_fract_z
Si Si1 0.393935 0.073558 0.477388
Si Si2 0.710940 0.436419 0.035378
Si Si3 0.787547 0.384734 0.738343
Si Si4 0.100348 0.592212 0.713918
Si Si5 0.319772 0.318660 0.288234
Si Si6 0.965401 0.123855 0.343024
Si Si7 0.112059 0.855527 0.215035
O O1 0.640625 0.134469 0.402113
O O2 0.149767 0.176896 0.674077
O O3 0.500000 0.000000 0.500000
O O4 0.281649 0.952725 0.331120
O O5 0.655278 0.375454 0.878815
O O6 0.736978 0.293773 0.977366
O O7 0.471698 0.556763 0.222907
O O8 0.000000 0.500000 0.000000
O O9 0.943094 0.235953 0.541445
O O10 0.991304 0.508937 0.773722
O O11 0.209035 0.462969 0.500205
O O12 0.354869 0.682626 0.760817
O O13 0.839355 0.668430 0.777143
O O14 0.181296 0.184951 0.262718
O O15 0.033602 0.961965 0.226624
#
# Coordination Sequence:
#
# PCOD9094075 Si02
#       7
#     2   2   2   2   2   2   2
#     4   9  17  30  51  78 109 145 179 235 288 339
#     4  11  23  37  55  82 114 157 194 230 290 360
#     4  10  22  36  55  84 116 152 192 239 292 348
#     4   9  19  36  56  85 120 151 195 248 295 350
#     4   9  19  34  58  88 116 151 196 244 302 349
#     4  10  20  34  59  86 114 148 186 245 295 348
#     4  10  20  34  53  81 114 146 191 237 289 352
#
# _framework density 24.433060000000001
#
# number of rings (size 3 to 8) (size 9 to 14) (size 15 to 20)
#    0.000    2.286    0.000    3.429    4.000    3.429 
#    2.571    0.000    0.000    1.714    0.000    0.000 
#    0.000    0.000    0.000    0.000    0.000    0.000 
#
# Total GULP energy -78069.539507 kJ/mol
# GULP energy per Si atom -5576.395679 kJ/mol
# Density = 2.437745 g / cm^3
# Si number density = 24.433060 Si / 1000 Ang^3
#
#
#
# Elastic Constant Matrix: (Units=GPa)
#
#
# Indices 1 2 3 4 5 6 
#
# 1 106.3346 48.5954 24.3531 0.5126 -18.0405 25.3460
# 2 48.5954 126.0178 24.8470 16.4672 -9.6994 20.9661
# 3 24.3531 24.8470 56.1674 19.8144 -12.5751 -15.4754
# 4 0.5126 16.4672 19.8144 33.9253 -9.7527 -3.3753
# 5 -18.0405 -9.6994 -12.5751 -9.7527 25.7742 -3.6105
# 6 25.3460 20.9661 -15.4754 -3.3753 -3.6105 48.2604
#
#
#
# Elastic Compliance Matrix: (Units=1/GPa)
#
#
# Indices 1 2 3 4 5 6 
#
# 1 0.016520 -0.003537 -0.009257 0.008149 0.007542 -0.008974
# 2 -0.003537 0.011194 -0.003697 -0.004368 -0.002374 -0.004674
# 3 -0.009257 -0.003697 0.034712 -0.014991 0.005772 0.016982
# 4 0.008149 -0.004368 -0.014991 0.043591 0.012794 -0.003183
# 5 0.007542 -0.002374 0.005772 0.012794 0.051354 0.003658
# 6 -0.008974 -0.004674 0.016982 -0.003183 0.003658 0.032961
#
#
# Mechanical properties :
#
#
# Convention : Reuss Voigt Hill
#
# Bulk Modulus (GPa) = 33.96084 53.79009 43.87547
# Shear Modulus (GPa) = 21.44751 34.30696 27.87723
#
# Velocity S-wave (km/s) = 2.96599 3.75122 3.38148
# Velocity P-wave (km/s) = 5.06549 6.38947 5.76561
#
# Compressibility (1/GPa) = 0.02944568
#
# Stress axis : x y z
#
# Youngs Moduli (GPa) = 60.53335 89.33476 28.80812
#
# Poissons Ratio (x) = 0.31594 0.26667
# Poissons Ratio (y) = 0.21408 0.10650
# Poissons Ratio (z) = 0.56034 0.33026
#
# Static dielectric constant tensor:
#      x y z
#    x 2.068340 -0.031920 -0.025600 
#    y -0.031920 1.985390 -0.026330 
#    z -0.025600 -0.026330 1.939710 
# 
# From -- ./inp_files/484419.got.cif
#   From: 2010.05.17/outbox.cif.g08.bks.cpg/sg2_243_cif.got.tgz:484419.got - 2010.06.03 11:33:40.
