data_PCOD9094011
_publ_section_title
;
Structure prediction by ZEFSAII (Michael W. Deem and Ramdas Pophale) SiO2 
 PCOD9094011
Probable space group: P -1
;
_chemical_formula_sum "Si O2"
_cell_formula_units_Z 14
_cell_length_a 6.475511
_cell_length_b 12.445931
_cell_length_c 8.666797
_cell_angle_alpha 101.393492
_cell_angle_beta 86.736405
_cell_angle_gamma 110.781301
_cell_volume 640.111908
_symmetry_space_group_name_H-M "P -1"
_symmetry_group_IT_number 2
_symmetry_cell_setting 'triclinic'
loop_
_space_group_symop_operation_xyz
x,y,z
-x,-y,-z
loop_
_atom_site_type_symbol
_atom_site_label
_atom_site_fract_x
_atom_site_fract_y
_atom_site_fract_z
Si Si1 0.782926 0.421662 0.684092
Si Si2 0.990216 0.652486 0.925977
Si Si3 0.200415 0.405359 0.546635
Si Si4 0.449307 0.825694 0.951588
Si Si5 0.620232 0.594326 0.151126
Si Si6 0.820516 0.792572 0.713128
Si Si7 0.186098 0.986242 0.873084
O O1 0.916611 0.519584 0.831983
O O2 0.752327 0.497838 0.560787
O O3 0.554935 0.351882 0.758009
O O4 0.941770 0.359833 0.591010
O O5 0.912534 0.719461 0.811045
O O6 0.250546 0.705730 0.958678
O O7 0.850098 0.667851 0.083044
O O8 0.325925 0.462075 0.712173
O O9 0.249660 0.292758 0.453458
O O10 0.611144 0.812063 0.806296
O O11 0.313370 0.906760 0.921697
O O12 0.615904 0.888593 0.101336
O O13 0.500000 0.500000 0.000000
O O14 0.030917 0.913376 0.720711
O O15 0.000000 0.000000 0.000000
#
# Coordination Sequence:
#
# PCOD9094011 Si02
#       7
#     2   2   2   2   2   2   2
#     4   9  20  35  51  71  99 135 174 214 249 287
#     4   9  19  31  46  73 100 131 171 203 245 298
#     4  10  20  34  52  73  99 133 175 212 249 294
#     4   9  16  29  52  75 101 129 155 203 253 293
#     4  10  21  34  48  69 100 137 174 211 250 295
#     4   9  18  31  50  76 101 127 165 206 247 297
#     4   8  15  29  49  78 102 121 157 203 250 297
#
# _framework density 21.871175000000001
#
# number of rings (size 3 to 8) (size 9 to 14) (size 15 to 20)
#    0.000    2.857    0.000    0.429    0.000   11.429 
#    0.000    0.000    0.000    0.857    0.000   35.000 
#    0.000    0.000    0.000    0.000    0.000    0.000 
#
# Total GULP energy -77993.308002 kJ/mol
# GULP energy per Si atom -5570.950572 kJ/mol
# Density = 2.182140 g / cm^3
# Si number density = 21.871175 Si / 1000 Ang^3
#
#
#
# Elastic Constant Matrix: (Units=GPa)
#
#
# Indices 1 2 3 4 5 6 
#
# 1 123.0262 33.0261 42.9594 7.0574 -19.4028 23.8393
# 2 33.0261 48.6362 30.1304 11.9492 0.3818 20.5950
# 3 42.9594 30.1304 106.8634 6.1983 3.7249 10.8319
# 4 7.0574 11.9492 6.1983 21.8872 -1.1500 -4.3459
# 5 -19.4028 0.3818 3.7249 -1.1500 43.4417 1.5925
# 6 23.8393 20.5950 10.8319 -4.3459 1.5925 42.2337
#
#
#
# Elastic Compliance Matrix: (Units=1/GPa)
#
#
# Indices 1 2 3 4 5 6 
#
# 1 0.012308 -0.004022 -0.003491 -0.001355 0.005959 -0.004455
# 2 -0.004022 0.040685 -0.006644 -0.022716 -0.001520 -0.018145
# 3 -0.003491 -0.006644 0.012403 0.001558 -0.002607 0.002288
# 4 -0.001355 -0.022716 0.001558 0.061637 0.000441 0.017769
# 5 0.005959 -0.001520 -0.002607 0.000441 0.026036 -0.002890
# 6 -0.004455 -0.018145 0.002288 0.017769 -0.002890 0.036391
#
#
# Mechanical properties :
#
#
# Convention : Reuss Voigt Hill
#
# Bulk Modulus (GPa) = 26.96858 54.52862 40.74860
# Shear Modulus (GPa) = 21.72624 33.00653 27.36638
#
# Velocity S-wave (km/s) = 3.15520 3.88897 3.54114
# Velocity P-wave (km/s) = 5.06272 6.71947 5.94905
#
# Compressibility (1/GPa) = 0.03708019
#
# Stress axis : x y z
#
# Youngs Moduli (GPa) = 81.24723 24.57919 80.62404
#
# Poissons Ratio (x) = 0.09886 0.28149
# Poissons Ratio (y) = 0.32679 0.53570
# Poissons Ratio (z) = 0.28367 0.16331
#
# Static dielectric constant tensor:
#      x y z
#    x 1.884550 0.017850 0.018750 
#    y 0.017850 1.885060 0.029070 
#    z 0.018750 0.029070 1.803110 
# 
# From -- ./inp_files/38116.got.cif
#   From: 2010.05.17/outbox.cif.g08.bks.cpg/sg2_20_cif.got.tgz:38116.got - 2010.06.03 11:33:40.
