data_PCOD9094347
_publ_section_title
;
Structure prediction by ZEFSAII (Michael W. Deem and Ramdas Pophale) SiO2 
 PCOD9094347
Probable space group: P -1
;
_chemical_formula_sum "Si O2"
_cell_formula_units_Z 15
_cell_length_a 9.754147
_cell_length_b 6.676804
_cell_length_c 12.042156
_cell_angle_alpha 91.778362
_cell_angle_beta 104.231978
_cell_angle_gamma 50.474570
_cell_volume 578.059030
_symmetry_space_group_name_H-M "P -1"
_symmetry_group_IT_number 2
_symmetry_cell_setting 'triclinic'
loop_
_space_group_symop_operation_xyz
x,y,z
-x,-y,-z
loop_
_atom_site_type_symbol
_atom_site_label
_atom_site_fract_x
_atom_site_fract_y
_atom_site_fract_z
Si Si1 0.377917 0.192147 0.580600
Si Si2 0.179284 0.698031 0.425687
Si Si3 0.908020 0.461411 0.150411
Si Si4 0.195223 0.510975 0.206606
Si Si5 0.746515 0.099191 0.356541
Si Si6 0.000000 0.000000 0.000000
Si Si7 0.449061 0.389608 0.792398
Si Si8 0.660606 0.910746 0.947421
O O1 0.207155 0.477603 0.503939
O O2 0.489451 0.242057 0.682503
O O3 0.500000 0.000000 0.500000
O O4 0.303739 0.082264 0.639556
O O5 0.276368 0.560485 0.326473
O O6 0.264365 0.792981 0.520595
O O7 0.961915 0.936165 0.363589
O O8 0.735033 0.547057 0.191166
O O9 0.065785 0.454719 0.236298
O O10 0.837439 0.690702 0.050309
O O11 0.977729 0.203128 0.093684
O O12 0.330706 0.248304 0.156072
O O13 0.099071 0.759212 0.110065
O O14 0.616733 0.328319 0.244495
O O15 0.618613 0.177478 0.905590
O O16 0.500000 0.000000 0.000000
#
# Coordination Sequence:
#
# PCOD9094347 Si02
#       8
#     2   2   2   2   2   1   2   2
#     4  11  23  40  61  89 125 161 196 244 303 362
#     4  10  22  38  63  91 118 158 203 248 301 354
#     4  10  21  38  61  86 118 156 200 251 299 354
#     4  11  21  38  62  88 117 155 202 250 297 354
#     4  10  22  41  62  90 122 155 202 252 296 357
#     4  10  20  34  56  86 114 146 194 242 290 342
#     4  10  21  39  60  85 119 159 199 243 299 357
#     4   9  19  37  58  83 118 156 193 240 298 351
#
# _framework density 25.948906999999998
#
# number of rings (size 3 to 8) (size 9 to 14) (size 15 to 20)
#    0.000    1.867    0.000    4.400    0.000    5.333 
#    0.000   10.667    0.000   22.400    0.000    0.000 
#    0.000    0.000    0.000    0.000    0.000    0.000 
#
# Total GULP energy -83680.596520 kJ/mol
# GULP energy per Si atom -5578.706435 kJ/mol
# Density = 2.588985 g / cm^3
# Si number density = 25.948907 Si / 1000 Ang^3
#
#
#
# Elastic Constant Matrix: (Units=GPa)
#
#
# Indices 1 2 3 4 5 6 
#
# 1 75.6064 14.6061 -9.1224 7.5779 -17.9512 15.7945
# 2 14.6061 132.3828 21.8478 -33.5821 -3.2534 18.1236
# 3 -9.1224 21.8478 61.0634 -8.5380 -12.5620 11.6475
# 4 7.5779 -33.5821 -8.5380 68.6194 1.2548 -9.5472
# 5 -17.9512 -3.2534 -12.5620 1.2548 24.6020 5.8641
# 6 15.7945 18.1236 11.6475 -9.5472 5.8641 35.8729
#
#
#
# Elastic Compliance Matrix: (Units=1/GPa)
#
#
# Indices 1 2 3 4 5 6 
#
# 1 0.031115 -0.003767 0.017609 -0.007344 0.037680 -0.025628
# 2 -0.003767 0.009773 -0.004176 0.004744 -0.003822 -0.000035
# 3 0.017609 -0.004176 0.031152 -0.003830 0.033711 -0.022288
# 4 -0.007344 0.004744 -0.003830 0.018605 -0.009689 0.008615
# 5 0.037680 -0.003822 0.033711 -0.009689 0.095792 -0.043842
# 6 -0.025628 -0.000035 -0.022288 0.008615 -0.043842 0.055874
#
#
# Mechanical properties :
#
#
# Convention : Reuss Voigt Hill
#
# Bulk Modulus (GPa) = 10.94426 35.96842 23.45634
# Shear Modulus (GPa) = 19.72876 41.93361 30.83119
#
# Velocity S-wave (km/s) = 2.76033 4.02432 3.45069
# Velocity P-wave (km/s) = 3.79289 5.95692 4.99354
#
# Compressibility (1/GPa) = 0.09137207
#
# Stress axis : x y z
#
# Youngs Moduli (GPa) = 32.13898 102.32149 32.10066
#
# Poissons Ratio (x) = 0.38549 -0.56527
# Poissons Ratio (y) = 0.12108 0.13404
# Poissons Ratio (z) = -0.56594 0.42727
#
# Static dielectric constant tensor:
#      x y z
#    x 2.100330 -0.043510 0.032540 
#    y -0.043510 2.019490 -0.034180 
#    z 0.032540 -0.034180 2.053510 
# 
# From -- ./inp_files/410563.got.cif
#   From: 2010.05.17/outbox.cif.g08.bks.cpg/sg2_206_cif.got.tgz:410563.got - 2010.06.03 11:33:40.
