data_PCOD9094385
_publ_section_title
;
Structure prediction by ZEFSAII (Michael W. Deem and Ramdas Pophale) SiO2 
 PCOD9094385
Probable space group: P -1
;
_chemical_formula_sum "Si O2"
_cell_formula_units_Z 14
_cell_length_a 12.397251
_cell_length_b 7.465675
_cell_length_c 18.941577
_cell_angle_alpha 38.703081
_cell_angle_beta 39.232106
_cell_angle_gamma 55.627390
_cell_volume 689.763712
_symmetry_space_group_name_H-M "P -1"
_symmetry_group_IT_number 2
_symmetry_cell_setting 'triclinic'
loop_
_space_group_symop_operation_xyz
x,y,z
-x,-y,-z
loop_
_atom_site_type_symbol
_atom_site_label
_atom_site_fract_x
_atom_site_fract_y
_atom_site_fract_z
Si Si1 0.926518 0.648045 0.561125
Si Si2 0.685509 0.413706 0.947566
Si Si3 0.956328 0.312140 0.359786
Si Si4 0.886530 0.686390 0.151721
Si Si5 0.631836 0.773850 0.141196
Si Si6 0.187865 0.385726 0.038898
Si Si7 0.659059 0.161146 0.826712
O O1 0.052950 0.632817 0.568876
O O2 0.000000 0.500000 0.500000
O O3 0.101811 0.015551 0.531515
O O4 0.745701 0.456771 0.723109
O O5 0.705198 0.402917 0.025404
O O6 0.706179 0.108334 0.996867
O O7 0.500000 0.500000 0.000000
O O8 0.839149 0.636009 0.774471
O O9 0.879916 0.542217 0.276706
O O10 0.702563 0.686147 0.207771
O O11 0.999297 0.484002 0.109483
O O12 0.000000 0.000000 0.000000
O O13 0.725117 0.611699 0.082022
O O14 0.431552 0.774551 0.221707
O O15 0.203234 0.070076 0.162570
O O16 0.500000 0.000000 0.000000
#
# Coordination Sequence:
#
# PCOD9094385 Si02
#       7
#     2   2   2   2   2   2   2
#     4  11  23  42  63  92 125 165 212 259 316 370
#     4  11  20  34  60  95 127 155 203 263 311 356
#     4  10  23  40  61  89 128 168 206 258 310 379
#     4  11  21  38  59  93 131 167 204 257 316 378
#     4  11  21  35  57  92 129 157 207 258 309 369
#     4  10  20  34  56  92 125 162 202 258 313 353
#     4  10  21  37  66  96 119 159 213 267 305 359
#
# _framework density 20.296804999999999
#
# number of rings (size 3 to 8) (size 9 to 14) (size 15 to 20)
#    0.000    1.429    4.286    3.857    2.000    0.000 
#    2.571    0.714    0.000    0.857    0.000    0.000 
#    0.000    0.000    0.000    0.000    0.000    0.000 
#
# Total GULP energy -78007.940473 kJ/mol
# GULP energy per Si atom -5571.995748 kJ/mol
# Density = 2.025061 g / cm^3
# Si number density = 20.296805 Si / 1000 Ang^3
#
#
#
# Elastic Constant Matrix: (Units=GPa)
#
#
# Indices 1 2 3 4 5 6 
#
# 1 142.7152 37.5380 25.2265 -20.1491 17.9117 -3.4001
# 2 37.5380 95.1508 31.1470 -16.4124 2.9637 14.4894
# 3 25.2265 31.1470 52.7231 -15.5282 3.1104 9.6610
# 4 -20.1491 -16.4124 -15.5282 32.8985 6.7449 2.3234
# 5 17.9117 2.9637 3.1104 6.7449 38.8689 1.3279
# 6 -3.4001 14.4894 9.6610 2.3234 1.3279 49.2061
#
#
#
# Elastic Compliance Matrix: (Units=1/GPa)
#
#
# Indices 1 2 3 4 5 6 
#
# 1 0.009207 -0.002400 -0.001665 0.004520 -0.004765 0.001585
# 2 -0.002400 0.014434 -0.005800 0.003230 0.000026 -0.003431
# 3 -0.001665 -0.005800 0.026904 0.009579 -0.002466 -0.004075
# 4 0.004520 0.003230 0.009579 0.041683 -0.010185 -0.004213
# 5 -0.004765 0.000026 -0.002466 -0.010185 0.029892 -0.000179
# 6 0.001585 -0.003431 -0.004075 -0.004213 -0.000179 0.022446
#
#
# Mechanical properties :
#
#
# Convention : Reuss Voigt Hill
#
# Bulk Modulus (GPa) = 32.45398 53.15690 42.80544
# Shear Modulus (GPa) = 28.64210 37.30654 32.97432
#
# Velocity S-wave (km/s) = 3.76062 4.29190 4.03501
# Velocity P-wave (km/s) = 5.90599 7.12792 6.54553
#
# Compressibility (1/GPa) = 0.03081287
#
# Stress axis : x y z
#
# Youngs Moduli (GPa) = 108.61743 69.28117 37.16963
#
# Poissons Ratio (x) = 0.16630 0.06189
# Poissons Ratio (y) = 0.26072 0.21560
# Poissons Ratio (z) = 0.18086 0.40185
#
# Static dielectric constant tensor:
#      x y z
#    x 1.806610 -0.000600 0.050690 
#    y -0.000600 1.777310 0.036460 
#    z 0.050690 0.036460 1.777240 
# 
# From -- ./inp_files/564703.got.cif
#   From: 2010.05.17/outbox.cif.g08.bks.cpg/sg2_283_cif.got.tgz:564703.got - 2010.06.03 11:33:40.
