data_PCOD9094803
_publ_section_title
;
Structure prediction by ZEFSAII (Michael W. Deem and Ramdas Pophale) SiO2 
 PCOD9094803
Probable space group: P -1
;
_chemical_formula_sum "Si O2"
_cell_formula_units_Z 16
_cell_length_a 9.659925
_cell_length_b 15.110068
_cell_length_c 10.666063
_cell_angle_alpha 87.011697
_cell_angle_beta 131.560645
_cell_angle_gamma 129.976950
_cell_volume 676.513079
_symmetry_space_group_name_H-M "P -1"
_symmetry_group_IT_number 2
_symmetry_cell_setting 'triclinic'
loop_
_space_group_symop_operation_xyz
x,y,z
-x,-y,-z
loop_
_atom_site_type_symbol
_atom_site_label
_atom_site_fract_x
_atom_site_fract_y
_atom_site_fract_z
Si Si1 0.865230 0.547025 0.216387
Si Si2 0.800077 0.111756 0.826142
Si Si3 0.469928 0.334455 0.206308
Si Si4 0.600963 0.842760 0.635066
Si Si5 0.269228 0.323871 0.720753
Si Si6 0.228708 0.409433 0.445826
Si Si7 0.371066 0.875129 0.026421
Si Si8 0.243319 0.023262 0.519806
O O1 0.708104 0.415163 0.228281
O O2 0.835964 0.628819 0.269256
O O3 0.231468 0.678153 0.398069
O O4 0.637958 0.456657 0.966596
O O5 0.534945 0.079589 0.630310
O O6 0.665160 0.963169 0.726556
O O7 0.821012 0.142441 0.983650
O O8 0.151873 0.259789 0.971551
O O9 0.327893 0.196892 0.206321
O O10 0.655195 0.464784 0.408817
O O11 0.785178 0.911335 0.606755
O O12 0.213290 0.322317 0.541476
O O13 0.061035 0.158280 0.645472
O O14 0.500000 0.500000 0.500000
O O15 0.884646 0.285120 0.185466
O O16 0.626600 0.919439 0.262414
O O17 0.500000 0.000000 0.000000
#
# Coordination Sequence:
#
# PCOD9094803 Si02
#       8
#     2   2   2   2   2   2   2   2
#     4  10  22  35  56  86 119 152 194 238 298 340
#     4  10  21  37  62  87 113 153 198 238 283 346
#     4  11  24  39  58  88 122 156 185 241 303 353
#     4  12  23  38  59  88 123 152 191 242 302 346
#     4  10  20  34  61  88 113 148 198 252 277 334
#     4  11  20  38  62  86 115 150 201 237 285 346
#     4  10  20  36  62  88 112 147 200 242 277 334
#     4  10  21  36  61  88 112 150 200 241 284 336
#
# _framework density 23.650689
#
# number of rings (size 3 to 8) (size 9 to 14) (size 15 to 20)
#    0.750    0.750    3.750    1.875    8.750    0.000 
#    0.000    0.625    0.000    1.500    0.000    0.000 
#    0.000    0.000    0.000    0.000    0.000    0.000 
#
# Total GULP energy -89338.440215 kJ/mol
# GULP energy per Si atom -5583.652513 kJ/mol
# Density = 2.359686 g / cm^3
# Si number density = 23.650689 Si / 1000 Ang^3
#
#
#
# Elastic Constant Matrix: (Units=GPa)
#
#
# Indices 1 2 3 4 5 6 
#
# 1 26.6243 13.3996 1.0373 0.4584 -9.0357 10.7750
# 2 13.3996 145.7522 17.3136 -3.9813 -7.2196 25.1065
# 3 1.0373 17.3136 106.1637 19.2329 -12.2984 -2.2279
# 4 0.4584 -3.9813 19.2329 38.1161 9.9098 -3.3553
# 5 -9.0357 -7.2196 -12.2984 9.9098 28.0615 1.1489
# 6 10.7750 25.1065 -2.2279 -3.3553 1.1489 25.3423
#
#
#
# Elastic Compliance Matrix: (Units=1/GPa)
#
#
# Indices 1 2 3 4 5 6 
#
# 1 0.056886 -0.000243 0.003934 -0.011541 0.025130 -0.026268
# 2 -0.000243 0.008635 -0.001472 0.000451 0.001691 -0.008598
# 3 0.003934 -0.001472 0.012325 -0.008951 0.009481 -0.000746
# 4 -0.011541 0.000451 -0.008951 0.037258 -0.021072 0.009561
# 5 0.025130 0.001691 0.009481 -0.021072 0.056450 -0.016875
# 6 -0.026268 -0.008598 -0.000746 0.009561 -0.016875 0.061111
#
#
# Mechanical properties :
#
#
# Convention : Reuss Voigt Hill
#
# Bulk Modulus (GPa) = 12.15279 38.00457 25.07868
# Shear Modulus (GPa) = 19.55743 34.75663 27.15703
#
# Velocity S-wave (km/s) = 2.87876 3.83767 3.39227
# Velocity P-wave (km/s) = 4.02483 5.97838 5.09609
#
# Compressibility (1/GPa) = 0.08228564
#
# Stress axis : x y z
#
# Youngs Moduli (GPa) = 17.57886 115.80368 81.13344
#
# Poissons Ratio (x) = 0.02813 -0.31921
# Poissons Ratio (y) = 0.00427 0.11945
# Poissons Ratio (z) = -0.06916 0.17049
#
# Static dielectric constant tensor:
#      x y z
#    x 1.899680 -0.010660 0.026550 
#    y -0.010660 1.990760 -0.087220 
#    z 0.026550 -0.087220 1.908090 
# 
# From -- ./inp_files/436749.got.cif
#   From: 2010.05.17/outbox.cif.g08.bks.cpg/sg2_219_cif.got.tgz:436749.got - 2010.06.03 11:33:40.
