data_PCOD9094528
_publ_section_title
;
Structure prediction by ZEFSAII (Michael W. Deem and Ramdas Pophale) SiO2 
 PCOD9094528
Probable space group: P -1
;
_chemical_formula_sum "Si O2"
_cell_formula_units_Z 14
_cell_length_a 11.441092
_cell_length_b 11.024983
_cell_length_c 5.640022
_cell_angle_alpha 104.598199
_cell_angle_beta 82.724445
_cell_angle_gamma 51.826589
_cell_volume 502.549908
_symmetry_space_group_name_H-M "P -1"
_symmetry_group_IT_number 2
_symmetry_cell_setting 'triclinic'
loop_
_space_group_symop_operation_xyz
x,y,z
-x,-y,-z
loop_
_atom_site_type_symbol
_atom_site_label
_atom_site_fract_x
_atom_site_fract_y
_atom_site_fract_z
Si Si1 0.744061 0.680985 0.083349
Si Si2 0.382749 0.765147 0.735472
Si Si3 0.419060 0.964368 0.190247
Si Si4 0.985004 0.398354 0.266490
Si Si5 0.844769 0.948244 0.450782
Si Si6 0.827658 0.211722 0.853433
Si Si7 0.274837 0.537365 0.383557
O O1 0.563467 0.842198 0.280319
O O2 0.852573 0.542732 0.187213
O O3 0.727852 0.585996 0.839764
O O4 0.843511 0.726012 0.969354
O O5 0.289333 0.898165 0.613283
O O6 0.565232 0.591123 0.564237
O O7 0.395825 0.855053 0.990757
O O8 0.270209 0.736240 0.855306
O O9 0.245152 0.104138 0.426715
O O10 0.500000 0.000000 0.000000
O O11 0.899165 0.344342 0.389194
O O12 0.000000 0.500000 0.500000
O O13 0.877341 0.035788 0.675739
O O14 0.012417 0.818219 0.204805
O O15 0.717892 0.352545 0.746710
#
# Coordination Sequence:
#
# PCOD9094528 Si02
#       7
#     2   2   2   2   2   2   2
#     4   9  19  36  53  81 117 146 184 235 277 329
#     4  10  21  40  58  82 115 150 187 237 280 334
#     4  10  22  38  58  84 113 149 192 230 280 342
#     4   9  18  34  54  80 115 147 180 232 281 329
#     4  10  22  40  58  81 118 149 187 236 284 333
#     4  10  22  38  58  85 113 148 191 234 280 339
#     4  10  20  34  58  84 111 145 190 231 281 335
#
# _framework density 27.857932000000002
#
# number of rings (size 3 to 8) (size 9 to 14) (size 15 to 20)
#    0.000    2.286    0.000    1.714    2.000    2.286 
#    7.714    0.000    0.000    0.000    0.000    0.000 
#    0.000    0.000    0.000    0.000    0.000    0.000 
#
# Total GULP energy -78415.993911 kJ/mol
# GULP energy per Si atom -5601.142422 kJ/mol
# Density = 2.779453 g / cm^3
# Si number density = 27.857932 Si / 1000 Ang^3
#
#
#
# Elastic Constant Matrix: (Units=GPa)
#
#
# Indices 1 2 3 4 5 6 
#
# 1 160.3174 33.1911 40.2225 9.1897 -31.0784 -17.5160
# 2 33.1911 101.5561 22.8250 -3.4752 -14.9128 -18.7500
# 3 40.2225 22.8250 94.0788 6.4080 -43.2312 -6.1322
# 4 9.1897 -3.4752 6.4080 51.3979 4.1067 -0.8608
# 5 -31.0784 -14.9128 -43.2312 4.1067 68.4439 -0.9010
# 6 -17.5160 -18.7500 -6.1322 -0.8608 -0.9010 50.2286
#
#
#
# Elastic Compliance Matrix: (Units=1/GPa)
#
#
# Indices 1 2 3 4 5 6 
#
# 1 0.007692 -0.001502 -0.001687 -0.001411 0.002210 0.001931
# 2 -0.001502 0.011531 -0.001658 0.001255 0.000755 0.003613
# 3 -0.001687 -0.001658 0.016266 -0.002568 0.009313 0.000902
# 4 -0.001411 0.001255 -0.002568 0.020369 -0.003212 -0.000045
# 5 0.002210 0.000755 0.009313 -0.003212 0.021887 0.002527
# 6 0.001931 0.003613 0.000902 -0.000045 0.002527 0.022086
#
#
# Mechanical properties :
#
#
# Convention : Reuss Voigt Hill
#
# Bulk Modulus (GPa) = 38.76697 60.93659 49.85178
# Shear Modulus (GPa) = 42.32841 51.32831 46.82836
#
# Velocity S-wave (km/s) = 3.90223 4.29709 4.10441
# Velocity P-wave (km/s) = 5.85229 6.82214 6.35574
#
# Compressibility (1/GPa) = 0.02579516
#
# Stress axis : x y z
#
# Youngs Moduli (GPa) = 130.00321 86.71975 61.47830
#
# Poissons Ratio (x) = 0.13026 0.10369
# Poissons Ratio (y) = 0.19527 0.10196
# Poissons Ratio (z) = 0.21927 0.14382
#
# Static dielectric constant tensor:
#      x y z
#    x 2.174510 0.015990 -0.029830 
#    y 0.015990 2.095110 -0.008610 
#    z -0.029830 -0.008610 2.216410 
# 
# From -- ./inp_files/26892.got.cif
#   From: 2010.05.17/outbox.cif.g08.bks.cpg/sg2_14_cif.got.tgz:26892.got - 2010.06.03 11:33:40.
