data_PCOD9094029
_publ_section_title
;
Structure prediction by ZEFSAII (Michael W. Deem and Ramdas Pophale) SiO2 
 PCOD9094029
Probable space group: P -1
;
_chemical_formula_sum "Si O2"
_cell_formula_units_Z 16
_cell_length_a 10.293700
_cell_length_b 8.577694
_cell_length_c 8.122381
_cell_angle_alpha 84.848862
_cell_angle_beta 120.699463
_cell_angle_gamma 80.922032
_cell_volume 596.565311
_symmetry_space_group_name_H-M "P -1"
_symmetry_group_IT_number 2
_symmetry_cell_setting 'triclinic'
loop_
_space_group_symop_operation_xyz
x,y,z
-x,-y,-z
loop_
_atom_site_type_symbol
_atom_site_label
_atom_site_fract_x
_atom_site_fract_y
_atom_site_fract_z
Si Si1 0.054724 0.493685 0.269721
Si Si2 0.293276 0.316236 0.654752
Si Si3 0.743174 0.084830 0.856868
Si Si4 0.401180 0.731808 0.980595
Si Si5 0.283206 0.974603 0.614932
Si Si6 0.749648 0.531314 0.927375
Si Si7 0.489490 0.216109 0.451989
Si Si8 0.941186 0.865401 0.792940
O O1 0.154883 0.471387 0.504520
O O2 0.150678 0.529878 0.169654
O O3 0.042102 0.309408 0.250792
O O4 0.876046 0.589782 0.120569
O O5 0.416928 0.344793 0.866243
O O6 0.376275 0.274030 0.531157
O O7 0.258281 0.141864 0.683349
O O8 0.629042 0.110979 0.933750
O O9 0.654392 0.211861 0.651267
O O10 0.797504 0.910130 0.825083
O O11 0.903314 0.114847 0.025278
O O12 0.310812 0.609616 0.011507
O O13 0.321135 0.811319 0.757226
O O14 0.436562 0.945503 0.595834
O O15 0.125480 0.004178 0.403304
O O16 0.597629 0.658369 0.752069
#
# Coordination Sequence:
#
# PCOD9094029 Si02
#       8
#     2   2   2   2   2   2   2   2
#     4   9  18  35  55  77 106 139 179 220 260 303
#     4   9  19  35  56  80 103 134 180 226 263 304
#     4   9  18  32  54  82 106 127 176 226 264 301
#     4  11  21  33  52  85 111 139 171 214 272 316
#     4  10  20  34  55  79 109 141 172 217 271 317
#     4  10  20  34  52  80 107 144 177 215 253 319
#     4   9  19  34  56  78 102 143 181 218 251 312
#     4   9  17  35  55  79 104 135 175 221 265 307
#
# _framework density 26.820198000000001
#
# number of rings (size 3 to 8) (size 9 to 14) (size 15 to 20)
#    0.000    2.500    1.250    0.750    0.000    8.500 
#    0.000    0.000    0.000    0.750    0.000    0.000 
#    0.000    0.000    0.000    0.000    0.000    0.000 
#
# Total GULP energy -89209.073688 kJ/mol
# GULP energy per Si atom -5575.567106 kJ/mol
# Density = 2.675915 g / cm^3
# Si number density = 26.820198 Si / 1000 Ang^3
#
#
#
# Elastic Constant Matrix: (Units=GPa)
#
#
# Indices 1 2 3 4 5 6 
#
# 1 64.7071 16.2218 56.4238 -15.6820 29.6589 -3.9745
# 2 16.2218 32.5240 35.9075 -4.4162 5.3510 -10.2433
# 3 56.4238 35.9075 250.5944 -46.9750 40.5105 17.9105
# 4 -15.6820 -4.4162 -46.9750 34.8284 -4.8958 0.6574
# 5 29.6589 5.3510 40.5105 -4.8958 42.8644 -1.6895
# 6 -3.9745 -10.2433 17.9105 0.6574 -1.6895 36.6461
#
#
#
# Elastic Compliance Matrix: (Units=1/GPa)
#
#
# Indices 1 2 3 4 5 6 
#
# 1 0.028007 -0.009326 -0.000774 0.008057 -0.016567 -0.000099
# 2 -0.009326 0.048573 -0.009397 -0.009805 0.008849 0.017742
# 3 -0.000774 -0.009397 0.008785 0.009636 -0.005787 -0.007444
# 4 0.008057 -0.009805 0.009636 0.042995 -0.008852 -0.007756
# 5 -0.016567 0.008849 -0.005787 -0.008852 0.038359 0.005432
# 6 -0.000099 0.017742 -0.007444 -0.007756 0.005432 0.036264
#
#
# Mechanical properties :
#
#
# Convention : Reuss Voigt Hill
#
# Bulk Modulus (GPa) = 21.56499 62.77021 42.16760
# Shear Modulus (GPa) = 19.42238 38.81927 29.12083
#
# Velocity S-wave (km/s) = 2.69396 3.80858 3.29869
# Velocity P-wave (km/s) = 4.21125 6.54181 5.50136
#
# Compressibility (1/GPa) = 0.04637146
#
# Stress axis : x y z
#
# Youngs Moduli (GPa) = 35.70482 20.58767 113.82937
#
# Poissons Ratio (x) = 0.19200 0.08815
# Poissons Ratio (y) = 0.33297 1.06963
# Poissons Ratio (z) = 0.02765 0.19346
#
# Static dielectric constant tensor:
#      x y z
#    x 2.199300 -0.064590 -0.019930 
#    y -0.064590 2.147010 0.021530 
#    z -0.019930 0.021530 2.198220 
# 
# From -- ./inp_files/257663.got.cif
#   From: 2010.05.17/outbox.cif.g08.bks.cpg/sg2_129_cif.got.tgz:257663.got - 2010.06.03 11:33:40.
