data_PCOD9094464
_publ_section_title
;
Structure prediction by ZEFSAII (Michael W. Deem and Ramdas Pophale) SiO2 
 PCOD9094464
Probable space group: P -1
;
_chemical_formula_sum "Si O2"
_cell_formula_units_Z 16
_cell_length_a 10.368415
_cell_length_b 9.394063
_cell_length_c 9.540486
_cell_angle_alpha 81.597239
_cell_angle_beta 117.938394
_cell_angle_gamma 87.235920
_cell_volume 804.870646
_symmetry_space_group_name_H-M "P -1"
_symmetry_group_IT_number 2
_symmetry_cell_setting 'triclinic'
loop_
_space_group_symop_operation_xyz
x,y,z
-x,-y,-z
loop_
_atom_site_type_symbol
_atom_site_label
_atom_site_fract_x
_atom_site_fract_y
_atom_site_fract_z
Si Si1 0.227955 0.449451 0.141874
Si Si2 0.014561 0.985467 0.676827
Si Si3 0.972579 0.273162 0.081651
Si Si4 0.292842 0.031892 0.991320
Si Si5 0.801591 0.115135 0.784487
Si Si6 0.341558 0.593762 0.426833
Si Si7 0.509015 0.251465 0.979292
Si Si8 0.433008 0.563388 0.772034
O O1 0.230331 0.511446 0.293025
O O2 0.397230 0.418146 0.185418
O O3 0.127117 0.323481 0.110926
O O4 0.144413 0.581378 0.989626
O O5 0.021505 0.820896 0.761342
O O6 0.158796 0.042075 0.810705
O O7 0.000000 0.000000 0.500000
O O8 0.878359 0.068598 0.684032
O O9 0.914609 0.178612 0.940130
O O10 0.386210 0.162707 0.995130
O O11 0.247740 0.015253 0.132054
O O12 0.387957 0.873945 0.032236
O O13 0.672599 0.246204 0.668932
O O14 0.500000 0.500000 0.500000
O O15 0.324448 0.602552 0.582458
O O16 0.438882 0.393355 0.837094
O O17 0.599892 0.326642 0.132365
#
# Coordination Sequence:
#
# PCOD9094464 Si02
#       8
#     2   2   2   2   2   2   2   2
#     4   9  18  33  62  84 111 150 195 235 284 350
#     4  11  24  37  59  86 121 150 188 244 291 342
#     4   9  18  36  60  86 112 152 193 233 285 348
#     4  10  21  41  61  81 122 153 201 231 293 350
#     4  10  21  38  63  84 112 158 193 232 292 350
#     4   9  18  35  57  83 116 148 187 242 286 340
#     4  10  22  36  60  87 113 161 191 245 284 348
#     4  10  20  34  57  87 118 148 196 242 293 334
#
# _framework density 19.878971
#
# number of rings (size 3 to 8) (size 9 to 14) (size 15 to 20)
#    0.000    2.250    0.000    4.500    5.250    1.000 
#    0.000    1.875    0.000    3.000    0.000    0.000 
#    0.000    0.000    0.000    0.000    0.000    0.000 
#
# Total GULP energy -89234.221262 kJ/mol
# GULP energy per Si atom -5577.138829 kJ/mol
# Density = 1.983373 g / cm^3
# Si number density = 19.878971 Si / 1000 Ang^3
#
#
#
# Elastic Constant Matrix: (Units=GPa)
#
#
# Indices 1 2 3 4 5 6 
#
# 1 71.3954 40.4151 28.0148 -7.5963 -11.6518 6.5321
# 2 40.4151 76.4184 52.3390 -11.0867 0.4058 4.5287
# 3 28.0148 52.3390 135.0399 -22.9419 -24.9298 0.0991
# 4 -7.5963 -11.0867 -22.9419 18.1069 -4.7116 -3.1274
# 5 -11.6518 0.4058 -24.9298 -4.7116 27.5500 -1.5627
# 6 6.5321 4.5287 0.0991 -3.1274 -1.5627 21.7868
#
#
#
# Elastic Compliance Matrix: (Units=1/GPa)
#
#
# Indices 1 2 3 4 5 6 
#
# 1 0.025288 -0.016285 0.007339 0.015063 0.020117 -0.000625
# 2 -0.016285 0.030565 -0.015460 -0.014907 -0.024176 -0.005274
# 3 0.007339 -0.015460 0.022662 0.031336 0.029624 0.007533
# 4 0.015063 -0.014907 0.031336 0.109476 0.054694 0.018078
# 5 0.020117 -0.024176 0.029624 0.054694 0.082037 0.012594
# 6 -0.000625 -0.005274 0.007533 0.018078 0.012594 0.050647
#
#
# Mechanical properties :
#
#
# Convention : Reuss Voigt Hill
#
# Bulk Modulus (GPa) = 33.66652 58.26574 45.96613
# Shear Modulus (GPa) = 13.17911 24.29439 18.73675
#
# Velocity S-wave (km/s) = 2.57761 3.49967 3.07341
# Velocity P-wave (km/s) = 5.08245 6.76048 5.98061
#
# Compressibility (1/GPa) = 0.02970310
#
# Stress axis : x y z
#
# Youngs Moduli (GPa) = 39.54414 32.71707 44.12723
#
# Poissons Ratio (x) = 0.53279 -0.32384
# Poissons Ratio (y) = 0.64397 0.68220
# Poissons Ratio (z) = -0.29020 0.50580
#
# Static dielectric constant tensor:
#      x y z
#    x 1.760110 -0.052690 -0.029230 
#    y -0.052690 1.719740 0.003300 
#    z -0.029230 0.003300 1.711680 
# 
# From -- ./inp_files/238706.got.cif
#   From: 2010.05.17/outbox.cif.g08.bks.cpg/sg2_120_cif.got.tgz:238706.got - 2010.06.03 11:33:40.
