data_PCOD9094571
_publ_section_title
;
Structure prediction by ZEFSAII (Michael W. Deem and Ramdas Pophale) SiO2 
 PCOD9094571
Probable space group: P -1
;
_chemical_formula_sum "Si O2"
_cell_formula_units_Z 14
_cell_length_a 17.227304
_cell_length_b 15.056629
_cell_length_c 11.998047
_cell_angle_alpha 37.412672
_cell_angle_beta 145.508900
_cell_angle_gamma 159.914611
_cell_volume 601.945693
_symmetry_space_group_name_H-M "P -1"
_symmetry_group_IT_number 2
_symmetry_cell_setting 'triclinic'
loop_
_space_group_symop_operation_xyz
x,y,z
-x,-y,-z
loop_
_atom_site_type_symbol
_atom_site_label
_atom_site_fract_x
_atom_site_fract_y
_atom_site_fract_z
Si Si1 0.215024 0.795533 0.905061
Si Si2 0.475482 0.211861 0.971837
Si Si3 0.783039 0.193523 0.349000
Si Si4 0.128350 0.280496 0.748777
Si Si5 0.598706 0.255298 0.504062
Si Si6 0.758459 0.095069 0.778347
Si Si7 0.791570 0.716548 0.913695
O O1 0.122699 0.761182 0.708070
O O2 0.000000 0.500000 0.000000
O O3 0.500000 0.000000 0.000000
O O4 0.274973 0.977276 0.881742
O O5 0.689866 0.277707 0.157479
O O6 0.580218 0.467287 0.833634
O O7 0.374639 0.112093 0.076179
O O8 0.976070 0.298700 0.561543
O O9 0.532846 0.888077 0.391827
O O10 0.316836 0.504783 0.656427
O O11 0.251285 0.327658 0.959101
O O12 0.922772 0.982031 0.771826
O O13 0.777294 0.273688 0.675687
O O14 0.407111 0.055430 0.376962
O O15 0.000589 0.222997 0.911609
#
# Coordination Sequence:
#
# PCOD9094571 Si02
#       7
#     2   2   2   2   2   2   2
#     4  10  24  42  67  98 127 164 215 272 322 374
#     4  10  22  39  63  89 120 160 210 261 318 367
#     4  10  22  39  64  88 121 158 211 264 309 376
#     4  11  23  36  57  87 132 165 208 246 320 383
#     4  10  20  35  57  92 119 162 203 264 314 375
#     4  10  20  34  58  88 122 154 209 260 318 374
#     4  11  23  37  55  90 128 171 199 255 312 389
#
# _framework density 23.257912000000001
#
# number of rings (size 3 to 8) (size 9 to 14) (size 15 to 20)
#    0.000    1.714    2.857    0.857   10.000    2.857 
#    0.000    0.714    0.000    1.714    0.000    0.000 
#    0.000    0.000    0.000    0.000    0.000    0.000 
#
# Total GULP energy -77938.688543 kJ/mol
# GULP energy per Si atom -5567.049182 kJ/mol
# Density = 2.320498 g / cm^3
# Si number density = 23.257912 Si / 1000 Ang^3
#
#
#
# Elastic Constant Matrix: (Units=GPa)
#
#
# Indices 1 2 3 4 5 6 
#
# 1 67.4556 30.3877 25.0391 -15.1200 -28.7763 3.6045
# 2 30.3877 137.5828 31.2974 -48.7924 -10.8526 -30.7242
# 3 25.0391 31.2974 59.7096 -25.2977 -11.8709 2.0437
# 4 -15.1200 -48.7924 -25.2977 58.5284 9.2240 2.0604
# 5 -28.7763 -10.8526 -11.8709 9.2240 33.8987 -3.6490
# 6 3.6045 -30.7242 2.0437 2.0604 -3.6490 34.2032
#
#
#
# Elastic Compliance Matrix: (Units=1/GPa)
#
#
# Indices 1 2 3 4 5 6 
#
# 1 0.027449 -0.005279 -0.005808 -0.002763 0.019790 -0.005010
# 2 -0.005279 0.015666 -0.002381 0.010434 -0.001635 0.013969
# 3 -0.005808 -0.002381 0.023457 0.006716 0.000339 -0.003296
# 4 -0.002763 0.010434 0.006716 0.028284 -0.003577 0.007177
# 5 0.019790 -0.001635 0.000339 -0.003577 0.047046 0.001660
# 6 -0.005010 0.013969 -0.003296 0.007177 0.001660 0.042255
#
#
# Mechanical properties :
#
#
# Convention : Reuss Voigt Hill
#
# Bulk Modulus (GPa) = 25.22894 48.68847 36.95870
# Shear Modulus (GPa) = 22.29093 37.19433 29.74263
#
# Velocity S-wave (km/s) = 3.09920 4.00335 3.57994
# Velocity P-wave (km/s) = 4.86598 6.50759 5.74571
#
# Compressibility (1/GPa) = 0.03963702
#
# Stress axis : x y z
#
# Youngs Moduli (GPa) = 36.43056 63.83057 42.63097
#
# Poissons Ratio (x) = 0.33696 0.24762
# Poissons Ratio (y) = 0.19232 0.10149
# Poissons Ratio (z) = 0.21161 0.15196
#
# Static dielectric constant tensor:
#      x y z
#    x 1.945430 0.103670 0.015210 
#    y 0.103670 2.160830 0.025850 
#    z 0.015210 0.025850 1.856130 
# 
# From -- ./inp_files/66574.got.cif
#   From: 2010.05.17/outbox.cif.g08.bks.cpg/sg2_34_cif.got.tgz:66574.got - 2010.06.03 11:33:40.
