data_PCOD9094584
_publ_section_title
;
Structure prediction by ZEFSAII (Michael W. Deem and Ramdas Pophale) SiO2 
 PCOD9094584
Probable space group: P -1
;
_chemical_formula_sum "Si O2"
_cell_formula_units_Z 11
_cell_length_a 5.039706
_cell_length_b 5.306219
_cell_length_c 15.801880
_cell_angle_alpha 103.293219
_cell_angle_beta 69.708087
_cell_angle_gamma 87.766290
_cell_volume 382.449020
_symmetry_space_group_name_H-M "P -1"
_symmetry_group_IT_number 2
_symmetry_cell_setting 'triclinic'
loop_
_space_group_symop_operation_xyz
x,y,z
-x,-y,-z
loop_
_atom_site_type_symbol
_atom_site_label
_atom_site_fract_x
_atom_site_fract_y
_atom_site_fract_z
Si Si1 0.000000 0.500000 0.500000
Si Si2 0.411883 0.573194 0.136570
Si Si3 0.792468 0.957945 0.416988
Si Si4 0.245088 0.481293 0.327658
Si Si5 0.022193 0.961623 0.773882
Si Si6 0.037142 0.743514 0.919823
O O1 0.943518 0.208052 0.444132
O O2 0.650491 0.558572 0.592373
O O3 0.375410 0.623267 0.246307
O O4 0.248943 0.351379 0.093192
O O5 0.746042 0.490130 0.081492
O O6 0.222737 0.829295 0.143001
O O7 0.041228 0.325653 0.591687
O O8 0.801050 0.925381 0.311613
O O9 0.500000 0.000000 0.500000
O O10 0.142343 0.247431 0.270056
O O11 0.197224 0.825024 0.821955
O O12 0.000000 0.000000 0.000000
#
# Coordination Sequence:
#
# PCOD9094584 Si02
#       6
#     1   2   2   2   2   2
#     4  10  20  34  58  90 130 174 224 282 334 394
#     4  10  23  42  65  96 134 176 227 282 346 419
#     4  10  21  38  61  94 135 182 232 282 343 411
#     4   9  20  38  58  91 131 177 228 279 339 407
#     4   9  22  42  63  96 138 179 225 287 346 405
#     4  11  24  43  69 100 133 175 229 285 349 423
#
# _framework density 28.762003
#
# number of rings (size 3 to 8) (size 9 to 14) (size 15 to 20)
#    0.000    2.182    0.000    1.091    0.000   13.091 
#    0.000    5.455    0.000    0.000    0.000    0.000 
#    0.000    0.000    0.000    0.000    0.000    0.000 
#
# Total GULP energy -61341.386043 kJ/mol
# GULP energy per Si atom -5576.489640 kJ/mol
# Density = 2.869654 g / cm^3
# Si number density = 28.762003 Si / 1000 Ang^3
#
#
#
# Elastic Constant Matrix: (Units=GPa)
#
#
# Indices 1 2 3 4 5 6 
#
# 1 138.4913 36.1009 24.0284 17.0623 -10.1967 -1.7927
# 2 36.1009 147.4321 16.2876 37.8566 12.4612 -4.1859
# 3 24.0284 16.2876 147.7317 3.6135 20.5686 6.4104
# 4 17.0623 37.8566 3.6135 61.4361 -1.6901 7.2828
# 5 -10.1967 12.4612 20.5686 -1.6901 37.8236 14.3509
# 6 -1.7927 -4.1859 6.4104 7.2828 14.3509 49.6971
#
#
#
# Elastic Compliance Matrix: (Units=1/GPa)
#
#
# Indices 1 2 3 4 5 6 
#
# 1 0.008431 -0.002045 -0.001665 -0.000786 0.004090 -0.000719
# 2 -0.002045 0.009225 0.000017 -0.005605 -0.004972 0.002958
# 3 -0.001665 0.000017 0.007692 -0.000174 -0.004780 0.000355
# 4 -0.000786 -0.005605 -0.000174 0.020651 0.004472 -0.004795
# 5 0.004090 -0.004972 -0.004780 0.004472 0.036045 -0.010719
# 6 -0.000719 0.002958 0.000355 -0.004795 -0.010719 0.024097
#
#
# Mechanical properties :
#
#
# Convention : Reuss Voigt Hill
#
# Bulk Modulus (GPa) = 55.67209 65.16543 60.41876
# Shear Modulus (GPa) = 41.83545 53.60726 47.72136
#
# Velocity S-wave (km/s) = 3.81798 4.32188 4.07772
# Velocity P-wave (km/s) = 6.23170 6.90006 6.57438
#
# Compressibility (1/GPa) = 0.01796232
#
# Stress axis : x y z
#
# Youngs Moduli (GPa) = 118.60727 108.39906 129.99956
#
# Poissons Ratio (x) = 0.22166 0.21643
# Poissons Ratio (y) = 0.24254 -0.00215
# Poissons Ratio (z) = 0.19746 -0.00179
#
# Static dielectric constant tensor:
#      x y z
#    x 2.619430 0.011840 -0.021210 
#    y 0.011840 2.459890 -0.304960 
#    z -0.021210 -0.304960 2.641480 
# 
# From -- ./inp_files/478086.got.cif
#   From: 2010.05.17/outbox.cif.g08.bks.cpg/sg2_240_cif.got.tgz:478086.got - 2010.06.03 11:33:40.
