data_PCOD9094493
_publ_section_title
;
Structure prediction by ZEFSAII (Michael W. Deem and Ramdas Pophale) SiO2 
 PCOD9094493
Probable space group: P -1
;
_chemical_formula_sum "Si O2"
_cell_formula_units_Z 16
_cell_length_a 9.339336
_cell_length_b 14.600212
_cell_length_c 11.286603
_cell_angle_alpha 100.430714
_cell_angle_beta 38.694162
_cell_angle_gamma 127.438581
_cell_volume 616.173106
_symmetry_space_group_name_H-M "P -1"
_symmetry_group_IT_number 2
_symmetry_cell_setting 'triclinic'
loop_
_space_group_symop_operation_xyz
x,y,z
-x,-y,-z
loop_
_atom_site_type_symbol
_atom_site_label
_atom_site_fract_x
_atom_site_fract_y
_atom_site_fract_z
Si Si1 0.997884 0.399467 0.813348
Si Si2 0.224017 0.470267 0.928305
Si Si3 0.782968 0.069305 0.586634
Si Si4 0.122137 0.327626 0.290399
Si Si5 0.861188 0.907319 0.184049
Si Si6 0.316812 0.072125 0.149839
Si Si7 0.777145 0.411323 0.506334
Si Si8 0.747689 0.182821 0.292249
O O1 0.273407 0.464635 0.756183
O O2 0.147189 0.489653 0.618581
O O3 0.796255 0.425747 0.010212
O O4 0.716243 0.232483 0.931347
O O5 0.524013 0.533430 0.841170
O O6 0.877144 0.306877 0.152625
O O7 0.913972 0.212411 0.503017
O O8 0.075857 0.086263 0.350747
O O9 0.742807 0.026330 0.737627
O O10 0.423813 0.942467 0.716728
O O11 0.965718 0.372179 0.345173
O O12 0.056443 0.242591 0.196531
O O13 0.632407 0.744097 0.261198
O O14 0.579421 0.886726 0.430033
O O15 0.169870 0.993045 0.100520
O O16 0.000000 0.000000 0.000000
O O17 0.000000 0.500000 0.500000
#
# Coordination Sequence:
#
# PCOD9094493 Si02
#       8
#     2   2   2   2   2   2   2   2
#     4  11  21  37  63  93 130 162 203 257 304 377
#     4  11  21  35  62  98 130 160 201 251 326 364
#     4  10  20  34  57  93 127 160 197 248 322 368
#     4  11  22  37  62  94 129 163 200 259 311 374
#     4  10  21  38  62  85 119 168 214 246 298 369
#     4  10  20  34  60  90 125 163 202 253 303 369
#     4  11  25  44  65  90 122 166 216 256 306 369
#     4  10  20  37  56  93 131 155 200 258 308 372
#
# _framework density 25.966728
#
# number of rings (size 3 to 8) (size 9 to 14) (size 15 to 20)
#    0.000    1.500    5.000    1.500    1.750    0.000 
#    0.000    3.125    0.000    3.750    0.000    0.000 
#    0.000    0.000    0.000    0.000    0.000    0.000 
#
# Total GULP energy -89490.403490 kJ/mol
# GULP energy per Si atom -5593.150218 kJ/mol
# Density = 2.590763 g / cm^3
# Si number density = 25.966728 Si / 1000 Ang^3
#
#
#
# Elastic Constant Matrix: (Units=GPa)
#
#
# Indices 1 2 3 4 5 6 
#
# 1 153.2872 47.6211 69.9821 0.3346 21.6691 30.0782
# 2 47.6211 107.0359 67.1556 -22.4910 14.6562 38.5786
# 3 69.9821 67.1556 122.1258 -35.5070 40.2162 17.1421
# 4 0.3346 -22.4910 -35.5070 44.8777 -1.5257 -4.0010
# 5 21.6691 14.6562 40.2162 -1.5257 60.4308 0.6657
# 6 30.0782 38.5786 17.1421 -4.0010 0.6657 59.3084
#
#
#
# Elastic Compliance Matrix: (Units=1/GPa)
#
#
# Indices 1 2 3 4 5 6 
#
# 1 0.010721 -0.000060 -0.008022 -0.006726 0.001378 -0.003549
# 2 -0.000060 0.018356 -0.008886 0.001398 0.001621 -0.009265
# 3 -0.008022 -0.008886 0.025573 0.015770 -0.011630 0.003651
# 4 -0.006726 0.001398 0.015770 0.035291 -0.007536 0.000409
# 5 0.001378 0.001621 -0.011630 -0.007536 0.023201 0.000840
# 6 -0.003549 -0.009265 0.003651 0.000409 0.000840 0.023650
#
#
# Mechanical properties :
#
#
# Convention : Reuss Voigt Hill
#
# Bulk Modulus (GPa) = 48.27418 83.55184 65.91301
# Shear Modulus (GPa) = 28.14807 46.10272 37.12540
#
# Velocity S-wave (km/s) = 3.29600 4.21818 3.78528
# Velocity P-wave (km/s) = 5.75464 7.48134 6.67407
#
# Compressibility (1/GPa) = 0.02071501
#
# Stress axis : x y z
#
# Youngs Moduli (GPa) = 93.27707 54.47890 39.10298
#
# Poissons Ratio (x) = 0.00326 0.31367
# Poissons Ratio (y) = 0.00558 0.34747
# Poissons Ratio (z) = 0.74824 0.48410
#
# Static dielectric constant tensor:
#      x y z
#    x 2.088880 -0.023520 -0.123930 
#    y -0.023520 2.283190 0.101710 
#    z -0.123930 0.101710 2.093020 
# 
# From -- ./inp_files/308290.got.cif
#   From: 2010.05.17/outbox.cif.g08.bks.cpg/sg2_155_cif.got.tgz:308290.got - 2010.06.03 11:33:40.
