data_PCOD9094954
_publ_section_title
;
Structure prediction by ZEFSAII (Michael W. Deem and Ramdas Pophale) SiO2 
 PCOD9094954
Probable space group: P -1
;
_chemical_formula_sum "Si O2"
_cell_formula_units_Z 13
_cell_length_a 10.407316
_cell_length_b 10.423507
_cell_length_c 7.972701
_cell_angle_alpha 120.789851
_cell_angle_beta 82.714318
_cell_angle_gamma 136.600650
_cell_volume 464.385313
_symmetry_space_group_name_H-M "P -1"
_symmetry_group_IT_number 2
_symmetry_cell_setting 'triclinic'
loop_
_space_group_symop_operation_xyz
x,y,z
-x,-y,-z
loop_
_atom_site_type_symbol
_atom_site_label
_atom_site_fract_x
_atom_site_fract_y
_atom_site_fract_z
Si Si1 0.064089 0.903320 0.338278
Si Si2 0.138066 0.856978 0.632092
Si Si3 0.551153 0.718430 0.661093
Si Si4 0.000000 0.000000 0.000000
Si Si5 0.344829 0.657434 0.982942
Si Si6 0.869078 0.352531 0.229140
Si Si7 0.290736 0.545585 0.271008
O O1 0.194249 0.941363 0.488672
O O2 0.862400 0.628130 0.159391
O O3 0.201113 0.047040 0.245237
O O4 0.000000 0.000000 0.500000
O O5 0.247094 0.846110 0.741820
O O6 0.080899 0.953667 0.808571
O O7 0.933436 0.571678 0.436825
O O8 0.500000 0.500000 0.500000
O O9 0.477947 0.706683 0.845002
O O10 0.430968 0.688777 0.508688
O O11 0.803656 0.706309 0.877034
O O12 0.262994 0.741813 0.979523
O O13 0.422101 0.706012 0.190526
O O14 0.088374 0.470554 0.240323
#
# Coordination Sequence:
#
# PCOD9094954 Si02
#       7
#     2   2   2   1   2   2   2
#     4  11  22  42  66  99 142 192 229 288 364 419
#     4   9  18  36  63  98 137 178 228 283 345 404
#     4  12  27  43  67 105 148 186 230 292 363 422
#     4  10  20  34  66 108 132 174 236 284 340 412
#     4  11  23  45  72 101 140 186 242 288 345 423
#     4   9  19  40  72  98 138 193 232 279 354 427
#     4  11  24  43  71 108 142 184 237 292 352 417
#
# _framework density 27.993995999999999
#
# number of rings (size 3 to 8) (size 9 to 14) (size 15 to 20)
#    0.000    1.538    1.538    6.000    2.154    0.615 
#    0.000    8.462    0.000    5.538    0.000    0.000 
#    0.000    0.000    0.000    0.000    0.000    0.000 
#
# Total GULP energy -72623.425547 kJ/mol
# GULP energy per Si atom -5586.417350 kJ/mol
# Density = 2.793028 g / cm^3
# Si number density = 27.993996 Si / 1000 Ang^3
#
#
#
# Elastic Constant Matrix: (Units=GPa)
#
#
# Indices 1 2 3 4 5 6 
#
# 1 109.3977 17.6245 30.9681 -1.6639 17.1759 8.1714
# 2 17.6245 120.5327 30.0149 -32.8927 -9.5829 12.5713
# 3 30.9681 30.0149 131.1556 -11.5665 -1.6536 14.2211
# 4 -1.6639 -32.8927 -11.5665 69.5370 -3.3392 1.6883
# 5 17.1759 -9.5829 -1.6536 -3.3392 55.5198 -4.7416
# 6 8.1714 12.5713 14.2211 1.6883 -4.7416 33.3264
#
#
#
# Elastic Compliance Matrix: (Units=1/GPa)
#
#
# Indices 1 2 3 4 5 6 
#
# 1 0.010684 -0.001404 -0.002149 -0.000908 -0.003809 -0.001669
# 2 -0.001404 0.010690 -0.001315 0.004988 0.002279 -0.003056
# 3 -0.002149 -0.001315 0.008811 0.000883 0.000522 -0.002707
# 4 -0.000908 0.004988 0.000883 0.017024 0.001968 -0.002618
# 5 -0.003809 0.002279 0.000522 0.001968 0.019938 0.002588
# 6 -0.001669 -0.003056 -0.002707 -0.002618 0.002588 0.033224
#
#
# Mechanical properties :
#
#
# Convention : Reuss Voigt Hill
#
# Bulk Modulus (GPa) = 48.89849 57.58899 53.24374
# Shear Modulus (GPa) = 42.76309 50.50856 46.63582
#
# Velocity S-wave (km/s) = 3.91267 4.25227 4.08600
# Velocity P-wave (km/s) = 6.15771 6.68772 6.42818
#
# Compressibility (1/GPa) = 0.02045053
#
# Stress axis : x y z
#
# Youngs Moduli (GPa) = 93.59619 93.54198 113.49709
#
# Poissons Ratio (x) = 0.13131 0.24386
# Poissons Ratio (y) = 0.13139 0.14926
# Poissons Ratio (z) = 0.20110 0.12301
#
# Static dielectric constant tensor:
#      x y z
#    x 2.567980 -0.056670 0.126510 
#    y -0.056670 2.266480 -0.082170 
#    z 0.126510 -0.082170 2.188940 
# 
# From -- ./inp_files/301620.got.cif
#   From: 2010.05.17/outbox.cif.g08.bks.cpg/sg2_151_cif.got.tgz:301620.got - 2010.06.03 11:33:40.
