data_PCOD9094127
_publ_section_title
;
Structure prediction by ZEFSAII (Michael W. Deem and Ramdas Pophale) SiO2 
 PCOD9094127
Probable space group: P -1
;
_chemical_formula_sum "Si O2"
_cell_formula_units_Z 16
_cell_length_a 5.345433
_cell_length_b 9.623089
_cell_length_c 23.977972
_cell_angle_alpha 134.558597
_cell_angle_beta 65.656855
_cell_angle_gamma 109.816395
_cell_volume 798.355972
_symmetry_space_group_name_H-M "P -1"
_symmetry_group_IT_number 2
_symmetry_cell_setting 'triclinic'
loop_
_space_group_symop_operation_xyz
x,y,z
-x,-y,-z
loop_
_atom_site_type_symbol
_atom_site_label
_atom_site_fract_x
_atom_site_fract_y
_atom_site_fract_z
Si Si1 0.538995 0.617179 0.191664
Si Si2 0.726977 0.346183 0.428772
Si Si3 0.628924 0.669939 0.321181
Si Si4 0.830914 0.237329 0.186350
Si Si5 0.528193 0.817519 0.906069
Si Si6 0.950482 0.161458 0.746851
Si Si7 0.509459 0.825980 0.695920
Si Si8 0.259081 0.588234 0.430382
O O1 0.455735 0.630810 0.268899
O O2 0.571074 0.389649 0.114361
O O3 0.304050 0.703237 0.200945
O O4 0.833807 0.743562 0.200934
O O5 0.500000 0.500000 0.500000
O O6 0.612435 0.159952 0.351127
O O7 0.797242 0.307739 0.476305
O O8 0.969434 0.471848 0.409076
O O9 0.779007 0.468666 0.259485
O O10 0.426611 0.709582 0.401546
O O11 0.868458 0.828763 0.323982
O O12 0.656048 0.165578 0.127752
O O13 0.699005 0.135996 0.225139
O O14 0.150351 0.202283 0.142681
O O15 0.500000 0.000000 0.000000
O O16 0.795855 0.952034 0.712744
O O17 0.563786 0.598673 0.630252
#
# Coordination Sequence:
#
# PCOD9094127 Si02
#       8
#     2   2   2   2   2   2   2   2
#     4   9  19  34  53  80 108 143 183 220 280 316
#     4   9  19  32  52  79 113 144 180 233 291 314
#     4   8  18  32  56  77 107 144 189 230 271 318
#     4  10  21  34  57  89 108 143 187 233 266 321
#     4  11  20  37  61  88 113 141 183 229 276 325
#     4  10  20  34  54  81 112 147 185 227 273 324
#     4  10  22  32  56  81 110 148 187 229 272 337
#     4   9  18  35  53  81 108 143 188 240 276 326
#
# _framework density 20.041184999999999
#
# number of rings (size 3 to 8) (size 9 to 14) (size 15 to 20)
#    0.750    1.750    1.250    0.375    7.000    1.000 
#    0.000    0.625    0.000   12.000    0.000    0.000 
#    0.000    0.000    0.000    0.000    0.000    0.000 
#
# Total GULP energy -89079.679663 kJ/mol
# GULP energy per Si atom -5567.479979 kJ/mol
# Density = 1.999557 g / cm^3
# Si number density = 20.041185 Si / 1000 Ang^3
#
#
#
# Elastic Constant Matrix: (Units=GPa)
#
#
# Indices 1 2 3 4 5 6 
#
# 1 97.0274 12.9269 23.9878 7.1861 2.8324 27.7798
# 2 12.9269 60.1003 32.2028 1.4597 4.8631 18.3678
# 3 23.9878 32.2028 62.1683 10.0653 5.4556 14.5313
# 4 7.1861 1.4597 10.0653 18.8375 8.4531 -5.7229
# 5 2.8324 4.8631 5.4556 8.4531 18.6225 3.2362
# 6 27.7798 18.3678 14.5313 -5.7229 3.2362 32.4559
#
#
#
# Elastic Compliance Matrix: (Units=1/GPa)
#
#
# Indices 1 2 3 4 5 6 
#
# 1 0.016338 0.002740 -0.001913 -0.013853 0.006740 -0.017792
# 2 0.002740 0.026019 -0.011783 0.000682 -0.002077 -0.011467
# 3 -0.001913 -0.011783 0.026960 -0.016920 0.004399 -0.007187
# 4 -0.013853 0.000682 -0.016920 0.100534 -0.045935 0.041353
# 5 0.006740 -0.002077 0.004399 -0.045935 0.076654 -0.022306
# 6 -0.017792 -0.011467 -0.007187 0.041353 -0.022306 0.065264
#
#
# Mechanical properties :
#
#
# Convention : Reuss Voigt Hill
#
# Bulk Modulus (GPa) = 21.09480 39.72566 30.41023
# Shear Modulus (GPa) = 14.30688 23.99507 19.15098
#
# Velocity S-wave (km/s) = 2.67474 3.46394 3.09460
# Velocity P-wave (km/s) = 4.48191 5.98862 5.28919
#
# Compressibility (1/GPa) = 0.04740505
#
# Stress axis : x y z
#
# Youngs Moduli (GPa) = 61.20835 38.43349 37.09169
#
# Poissons Ratio (x) = -0.10530 0.07095
# Poissons Ratio (y) = -0.16770 0.43704
# Poissons Ratio (z) = 0.11709 0.45285
#
# Static dielectric constant tensor:
#      x y z
#    x 1.794550 -0.052730 0.032160 
#    y -0.052730 1.762460 -0.000060 
#    z 0.032160 -0.000060 1.707240 
# 
# From -- ./inp_files/604325.got.cif
#   From: 2010.05.17/outbox.cif.g08.bks.cpg/sg2_303_cif.got.tgz:604325.got - 2010.06.03 11:33:40.
