data_PCOD9094349
_publ_section_title
;
Structure prediction by ZEFSAII (Michael W. Deem and Ramdas Pophale) SiO2 
 PCOD9094349
Probable space group: P -1
;
_chemical_formula_sum "Si O2"
_cell_formula_units_Z 16
_cell_length_a 17.456256
_cell_length_b 8.054596
_cell_length_c 5.403000
_cell_angle_alpha 59.002335
_cell_angle_beta 90.379975
_cell_angle_gamma 86.096096
_cell_volume 648.903919
_symmetry_space_group_name_H-M "P -1"
_symmetry_group_IT_number 2
_symmetry_cell_setting 'triclinic'
loop_
_space_group_symop_operation_xyz
x,y,z
-x,-y,-z
loop_
_atom_site_type_symbol
_atom_site_label
_atom_site_fract_x
_atom_site_fract_y
_atom_site_fract_z
Si Si1 0.471452 0.321157 0.844548
Si Si2 0.777649 0.420407 0.165381
Si Si3 0.385138 0.635848 0.888550
Si Si4 0.258012 0.847901 0.223700
Si Si5 0.577843 0.075809 0.695309
Si Si6 0.989768 0.633159 0.151674
Si Si7 0.157127 0.180181 0.217500
Si Si8 0.118353 0.892584 0.812414
O O1 0.406407 0.492522 0.765092
O O2 0.502614 0.207925 0.687370
O O3 0.549019 0.408930 0.876335
O O4 0.441933 0.143828 0.135890
O O5 0.702420 0.378779 0.035933
O O6 0.751404 0.360978 0.486611
O O7 0.854880 0.280097 0.245474
O O8 0.798951 0.626953 0.912871
O O9 0.397206 0.848863 0.625488
O O10 0.346964 0.890137 0.160654
O O11 0.223792 0.011020 0.295330
O O12 0.194768 0.893633 0.977796
O O13 0.000000 0.500000 0.500000
O O14 0.049710 0.800401 0.022486
O O15 0.000000 0.500000 0.000000
O O16 0.906426 0.753714 0.041374
O O17 0.108739 0.093812 0.507566
#
# Coordination Sequence:
#
# PCOD9094349 Si02
#       8
#     2   2   2   2   2   2   2   2
#     4  10  20  34  56  86 118 161 209 270 324 402
#     4  10  21  41  61  89 129 167 217 275 332 405
#     4  10  20  35  58  84 118 164 211 264 332 392
#     4  10  23  39  63  92 124 173 215 278 331 407
#     4  10  20  37  56  84 123 159 212 267 332 388
#     4  12  27  47  76 104 141 185 224 278 343 404
#     4  11  24  42  67  96 131 171 223 273 335 399
#     4  11  24  42  67  96 131 170 224 271 336 398
#
# _framework density 24.656963000000001
#
# number of rings (size 3 to 8) (size 9 to 14) (size 15 to 20)
#    0.000    1.500    1.250    3.375    3.500    1.500 
#    0.000    6.250    0.000    0.000    0.000    0.000 
#    0.000    0.000    0.000    0.000    0.000    0.000 
#
# Total GULP energy -89232.461281 kJ/mol
# GULP energy per Si atom -5577.028830 kJ/mol
# Density = 2.460084 g / cm^3
# Si number density = 24.656963 Si / 1000 Ang^3
#
#
#
# Elastic Constant Matrix: (Units=GPa)
#
#
# Indices 1 2 3 4 5 6 
#
# 1 131.0128 11.8575 30.0157 -15.3812 -7.3229 12.9640
# 2 11.8575 41.4411 38.5420 -16.5930 -16.5314 3.2801
# 3 30.0157 38.5420 148.0049 -35.0029 -16.3836 21.8244
# 4 -15.3812 -16.5930 -35.0029 42.8863 14.7900 -6.1979
# 5 -7.3229 -16.5314 -16.3836 14.7900 44.3045 -5.5847
# 6 12.9640 3.2801 21.8244 -6.1979 -5.5847 40.0514
#
#
#
# Elastic Compliance Matrix: (Units=1/GPa)
#
#
# Indices 1 2 3 4 5 6 
#
# 1 0.008278 -0.000813 -0.000772 0.001764 -0.000052 -0.001927
# 2 -0.000813 0.037159 -0.007813 0.004895 0.009659 0.003582
# 3 -0.000772 -0.007813 0.010675 0.005273 -0.001398 -0.004306
# 4 0.001764 0.004895 0.005273 0.032513 -0.006755 0.000244
# 5 -0.000052 0.009659 -0.001398 -0.006755 0.028268 0.002884
# 6 -0.001927 0.003582 -0.004306 0.000244 0.002884 0.028085
#
#
# Mechanical properties :
#
#
# Convention : Reuss Voigt Hill
#
# Bulk Modulus (GPa) = 26.79724 53.47659 40.13691
# Shear Modulus (GPa) = 28.37502 41.45136 34.91319
#
# Velocity S-wave (km/s) = 3.39601 4.10460 3.76700
# Velocity P-wave (km/s) = 5.12531 6.64823 5.93581
#
# Compressibility (1/GPa) = 0.03731728
#
# Stress axis : x y z
#
# Youngs Moduli (GPa) = 120.80149 26.91111 93.67874
#
# Poissons Ratio (x) = 0.02188 0.07228
# Poissons Ratio (y) = 0.09821 0.73191
# Poissons Ratio (z) = 0.09320 0.21026
#
# Static dielectric constant tensor:
#      x y z
#    x 1.953810 -0.037750 -0.030060 
#    y -0.037750 2.140020 0.144380 
#    z -0.030060 0.144380 2.038670 
# 
# From -- ./inp_files/57056.got.cif
#   From: 2010.05.17/outbox.cif.g08.bks.cpg/sg2_29_cif.got.tgz:57056.got - 2010.06.03 11:33:40.
