data_PCOD9094501
_publ_section_title
;
Structure prediction by ZEFSAII (Michael W. Deem and Ramdas Pophale) SiO2 
 PCOD9094501
Probable space group: P -1
;
_chemical_formula_sum "Si O2"
_cell_formula_units_Z 16
_cell_length_a 5.099295
_cell_length_b 9.098486
_cell_length_c 20.124894
_cell_angle_alpha 124.834062
_cell_angle_beta 90.729423
_cell_angle_gamma 81.326290
_cell_volume 754.527598
_symmetry_space_group_name_H-M "P -1"
_symmetry_group_IT_number 2
_symmetry_cell_setting 'triclinic'
loop_
_space_group_symop_operation_xyz
x,y,z
-x,-y,-z
loop_
_atom_site_type_symbol
_atom_site_label
_atom_site_fract_x
_atom_site_fract_y
_atom_site_fract_z
Si Si1 0.369514 0.513014 0.878359
Si Si2 0.138126 0.352200 0.016181
Si Si3 0.791592 0.954073 0.733418
Si Si4 0.575205 0.075841 0.620439
Si Si5 0.146802 0.170018 0.547910
Si Si6 0.055308 0.567296 0.670905
Si Si7 0.727392 0.872848 0.162725
Si Si8 0.398707 0.523262 0.278038
O O1 0.596797 0.584392 0.940323
O O2 0.337346 0.310882 0.850097
O O3 0.473952 0.503128 0.801108
O O4 0.084733 0.638796 0.925212
O O5 0.210727 0.171157 0.925760
O O6 0.000000 0.500000 0.000000
O O7 0.945657 0.748295 0.677570
O O8 0.659438 0.017751 0.679230
O O9 0.540857 0.981930 0.789929
O O10 0.013423 0.070785 0.787868
O O11 0.029146 0.377908 0.586144
O O12 0.694444 0.259572 0.654308
O O13 0.639968 0.899320 0.527770
O O14 0.274899 0.157581 0.618843
O O15 0.000000 0.000000 0.500000
O O16 0.857259 0.568549 0.733659
O O17 0.361634 0.550220 0.689327
#
# Coordination Sequence:
#
# PCOD9094501 Si02
#       8
#     2   2   2   2   2   2   2   2
#     4  11  20  35  64  96 121 163 216 265 307 362
#     4  10  20  34  57  96 132 155 204 270 321 354
#     4  12  25  40  63  94 130 170 208 252 318 382
#     4  10  23  38  66  94 120 163 213 255 313 372
#     4  10  21  42  66  91 124 164 204 267 310 364
#     4  11  25  42  61  92 131 169 205 258 318 372
#     4  11  22  38  62  92 133 165 201 264 321 366
#     4  11  22  40  65  90 127 163 216 260 306 370
#
# _framework density 21.205318999999999
#
# number of rings (size 3 to 8) (size 9 to 14) (size 15 to 20)
#    0.000    1.250    2.500    5.250    3.500    0.500 
#    0.000    0.625    0.000   15.000    0.000    0.000 
#    0.000    0.000    0.000    0.000    0.000    0.000 
#
# Total GULP energy -89236.885045 kJ/mol
# GULP energy per Si atom -5577.305315 kJ/mol
# Density = 2.115706 g / cm^3
# Si number density = 21.205319 Si / 1000 Ang^3
#
#
#
# Elastic Constant Matrix: (Units=GPa)
#
#
# Indices 1 2 3 4 5 6 
#
# 1 113.3262 14.3658 43.3914 6.9418 5.0523 -8.6026
# 2 14.3658 63.3674 36.4081 16.5950 5.5163 -19.3705
# 3 43.3914 36.4081 96.6457 9.7401 14.2720 -18.7483
# 4 6.9418 16.5950 9.7401 18.0471 -5.1995 -6.6772
# 5 5.0523 5.5163 14.2720 -5.1995 37.7066 7.5375
# 6 -8.6026 -19.3705 -18.7483 -6.6772 7.5375 21.7349
#
#
#
# Elastic Compliance Matrix: (Units=1/GPa)
#
#
# Indices 1 2 3 4 5 6 
#
# 1 0.010746 0.001148 -0.004925 -0.002453 -0.000147 0.000326
# 2 0.001148 0.031181 -0.004403 -0.021823 -0.010320 0.021321
# 3 -0.004925 -0.004403 0.017864 -0.001643 -0.008048 0.011823
# 4 -0.002453 -0.021823 -0.001643 0.080953 0.015795 -0.002444
# 5 -0.000147 -0.010320 -0.008048 0.015795 0.038189 -0.024589
# 6 0.000326 0.021321 0.011823 -0.002444 -0.024589 0.083114
#
#
# Mechanical properties :
#
#
# Convention : Reuss Voigt Hill
#
# Bulk Modulus (GPa) = 23.02431 51.29666 37.16048
# Shear Modulus (GPa) = 17.07162 27.44266 22.25714
#
# Velocity S-wave (km/s) = 2.84044 3.60132 3.24327
# Velocity P-wave (km/s) = 4.65176 6.44482 5.62025
#
# Compressibility (1/GPa) = 0.04343236
#
# Stress axis : x y z
#
# Youngs Moduli (GPa) = 93.05945 32.07072 55.97746
#
# Poissons Ratio (x) = -0.03683 0.27569
# Poissons Ratio (y) = -0.10687 0.24645
# Poissons Ratio (z) = 0.45833 0.14120
#
# Static dielectric constant tensor:
#      x y z
#    x 1.859460 0.012230 -0.077790 
#    y 0.012230 1.776510 0.033730 
#    z -0.077790 0.033730 1.860520 
# 
# From -- ./inp_files/582072.got.cif
#   From: 2010.05.17/outbox.cif.g08.bks.cpg/sg2_292_cif.got.tgz:582072.got - 2010.06.03 11:33:40.
