data_PCOD9094096
_publ_section_title
;
Structure prediction by ZEFSAII (Michael W. Deem and Ramdas Pophale) SiO2 
 PCOD9094096
Probable space group: P -1
;
_chemical_formula_sum "Si O2"
_cell_formula_units_Z 14
_cell_length_a 12.029409
_cell_length_b 5.723851
_cell_length_c 23.017712
_cell_angle_alpha 94.022463
_cell_angle_beta 149.693265
_cell_angle_gamma 96.038598
_cell_volume 753.309380
_symmetry_space_group_name_H-M "P -1"
_symmetry_group_IT_number 2
_symmetry_cell_setting 'triclinic'
loop_
_space_group_symop_operation_xyz
x,y,z
-x,-y,-z
loop_
_atom_site_type_symbol
_atom_site_label
_atom_site_fract_x
_atom_site_fract_y
_atom_site_fract_z
Si Si1 0.915843 0.021872 0.028879
Si Si2 0.362156 0.753157 0.398588
Si Si3 0.605420 0.839960 0.311440
Si Si4 0.992656 0.291093 0.445743
Si Si5 0.729953 0.482443 0.530606
Si Si6 0.223378 0.533634 0.059076
Si Si7 0.665692 0.966095 0.715110
O O1 0.136888 0.135014 0.173059
O O2 0.808392 0.728167 0.991094
O O3 0.770288 0.212745 0.966981
O O4 0.000000 0.000000 0.000000
O O5 0.559752 0.645447 0.463097
O O6 0.214544 0.576614 0.379566
O O7 0.242778 0.832531 0.291168
O O8 0.500000 0.000000 0.500000
O O9 0.790454 0.795522 0.438582
O O10 0.459411 0.602928 0.204649
O O11 0.418029 0.915450 0.265561
O O12 0.755847 0.064493 0.342741
O O13 0.050400 0.396827 0.409194
O O14 0.000000 0.500000 0.500000
O O15 0.562757 0.239873 0.417389
O O16 0.000000 0.500000 0.000000
#
# Coordination Sequence:
#
# PCOD9094096 Si02
#       7
#     2   2   2   2   2   2   2
#     4  10  21  31  52  82 108 148 182 233 287 333
#     4   9  20  34  52  77 105 145 184 238 278 324
#     4  11  22  33  49  79 115 150 183 227 278 344
#     4  11  23  33  53  79 112 155 184 219 282 344
#     4  10  20  34  54  75 111 145 190 226 278 337
#     4  10  21  34  51  77 114 146 189 229 280 333
#     4  11  19  32  54  77 115 140 185 235 283 334
#
# _framework density 18.584661000000001
#
# number of rings (size 3 to 8) (size 9 to 14) (size 15 to 20)
#    0.000    1.714    5.714    0.000    8.000    0.000 
#    0.000    0.000    0.000    0.000    0.000    2.000 
#    0.000    0.000    0.000    0.000    0.000    0.000 
#
# Total GULP energy -78006.552434 kJ/mol
# GULP energy per Si atom -5571.896602 kJ/mol
# Density = 1.854236 g / cm^3
# Si number density = 18.584661 Si / 1000 Ang^3
#
#
#
# Elastic Constant Matrix: (Units=GPa)
#
#
# Indices 1 2 3 4 5 6 
#
# 1 86.9768 20.1357 4.9069 -0.4997 -0.0574 28.2342
# 2 20.1357 78.5396 2.8590 -0.5759 -1.4281 3.7378
# 3 4.9069 2.8590 56.4858 2.8380 -8.3242 18.1871
# 4 -0.4997 -0.5759 2.8380 28.8169 6.3734 -3.6606
# 5 -0.0574 -1.4281 -8.3242 6.3734 6.5852 -3.5507
# 6 28.2342 3.7378 18.1871 -3.6606 -3.5507 31.8442
#
#
#
# Elastic Compliance Matrix: (Units=1/GPa)
#
#
# Indices 1 2 3 4 5 6 
#
# 1 0.018259 -0.004025 0.004149 -0.001679 -0.003937 -0.018718
# 2 -0.004025 0.013726 -0.000650 -0.000228 0.003811 0.002728
# 3 0.004149 -0.000650 0.030057 -0.014529 0.042403 -0.017711
# 4 -0.001679 -0.000228 -0.014529 0.051203 -0.063329 0.008638
# 5 -0.003937 0.003811 0.042403 -0.063329 0.268333 0.001466
# 6 -0.018718 0.002728 -0.017711 0.008638 0.001466 0.058950
#
#
# Mechanical properties :
#
#
# Convention : Reuss Voigt Hill
#
# Bulk Modulus (GPa) = 16.39666 30.86728 23.63197
# Shear Modulus (GPa) = 10.82456 26.38930 18.60693
#
# Velocity S-wave (km/s) = 2.41601 3.77231 3.16760
# Velocity P-wave (km/s) = 4.07733 5.96815 5.11094
#
# Compressibility (1/GPa) = 0.06098802
#
# Stress axis : x y z
#
# Youngs Moduli (GPa) = 54.76704 72.85498 33.26976
#
# Poissons Ratio (x) = 0.29326 -0.13802
# Poissons Ratio (y) = 0.22046 0.02164
# Poissons Ratio (z) = -0.22720 0.04738
#
# Static dielectric constant tensor:
#      x y z
#    x 1.634730 0.016620 -0.019490 
#    y 0.016620 1.772530 -0.005490 
#    z -0.019490 -0.005490 1.634730 
# 
# From -- ./inp_files/63512.got.cif
#   From: 2010.05.17/outbox.cif.g08.bks.cpg/sg2_32_cif.got.tgz:63512.got - 2010.06.03 11:33:40.
