data_PCOD9094123
_publ_section_title
;
Structure prediction by ZEFSAII (Michael W. Deem and Ramdas Pophale) SiO2 
 PCOD9094123
Probable space group: P -1
;
_chemical_formula_sum "Si O2"
_cell_formula_units_Z 16
_cell_length_a 24.103964
_cell_length_b 9.688040
_cell_length_c 9.391437
_cell_angle_alpha 62.948959
_cell_angle_beta 108.272194
_cell_angle_gamma 52.291626
_cell_volume 838.940241
_symmetry_space_group_name_H-M "P -1"
_symmetry_group_IT_number 2
_symmetry_cell_setting 'triclinic'
loop_
_space_group_symop_operation_xyz
x,y,z
-x,-y,-z
loop_
_atom_site_type_symbol
_atom_site_label
_atom_site_fract_x
_atom_site_fract_y
_atom_site_fract_z
Si Si1 0.212413 0.877930 0.390042
Si Si2 0.174015 0.315002 0.126130
Si Si3 0.598419 0.889263 0.815241
Si Si4 0.031921 0.009163 0.169451
Si Si5 0.126055 0.639564 0.693722
Si Si6 0.580277 0.603095 0.989709
Si Si7 0.507032 0.734344 0.176165
Si Si8 0.474667 0.654317 0.648016
O O1 0.340660 0.587594 0.530299
O O2 0.142339 0.209336 0.169576
O O3 0.128139 0.927805 0.266639
O O4 0.278497 0.714198 0.676919
O O5 0.327438 0.975564 0.433696
O O6 0.151441 0.415548 0.895327
O O7 0.090760 0.623173 0.018101
O O8 0.551302 0.828413 0.775154
O O9 0.575964 0.962605 0.931862
O O10 0.529830 0.194757 0.538739
O O11 0.750022 0.552946 0.070212
O O12 0.099123 0.727720 0.464305
O O13 0.000000 0.000000 0.000000
O O14 0.000000 0.000000 0.500000
O O15 0.562113 0.501830 0.920558
O O16 0.488694 0.801890 0.961119
O O17 0.482230 0.613796 0.249075
#
# Coordination Sequence:
#
# PCOD9094123 Si02
#       8
#     2   2   2   2   2   2   2   2
#     4   9  20  37  55  78 111 145 177 212 276 319
#     4   9  20  36  61  73 109 150 174 214 267 328
#     4  11  19  34  56  80 110 144 174 221 274 311
#     4  11  21  37  58  83 104 135 188 233 258 311
#     4   9  19  37  55  77 105 144 179 214 267 321
#     4  10  20  34  54  80 115 140 177 219 258 328
#     4   9  20  33  55  77 112 142 170 221 267 318
#     4  10  20  35  53  86 108 142 183 211 266 322
#
# _framework density 19.071679
#
# number of rings (size 3 to 8) (size 9 to 14) (size 15 to 20)
#    0.750    1.500    1.250    1.875    0.000    2.000 
#    0.000    1.875    0.000    0.000    0.000    0.000 
#    0.000    0.000    0.000    0.000    0.000    0.000 
#
# Total GULP energy -89088.552068 kJ/mol
# GULP energy per Si atom -5568.034504 kJ/mol
# Density = 1.902827 g / cm^3
# Si number density = 19.071679 Si / 1000 Ang^3
#
#
#
# Elastic Constant Matrix: (Units=GPa)
#
#
# Indices 1 2 3 4 5 6 
#
# 1 84.7357 29.6329 35.5327 13.5260 -22.4096 20.7448
# 2 29.6329 63.3999 17.3249 10.3322 3.9871 14.6151
# 3 35.5327 17.3249 55.6231 13.5969 -15.6272 17.7010
# 4 13.5260 10.3322 13.5969 29.5456 -1.8500 4.6985
# 5 -22.4096 3.9871 -15.6272 -1.8500 32.6166 0.7750
# 6 20.7448 14.6151 17.7010 4.6985 0.7750 24.9841
#
#
#
# Elastic Compliance Matrix: (Units=1/GPa)
#
#
# Indices 1 2 3 4 5 6 
#
# 1 0.023732 -0.007636 -0.003506 -0.003603 0.015653 -0.012563
# 2 -0.007636 0.022011 -0.002649 -0.002957 -0.009283 -0.003815
# 3 -0.003506 -0.002649 0.032461 -0.008819 0.013378 -0.017294
# 4 -0.003603 -0.002957 -0.008819 0.039751 -0.004171 0.003624
# 5 0.015653 -0.009283 0.013378 -0.004171 0.049145 -0.017785
# 6 -0.012563 -0.003815 -0.017294 0.003624 -0.017785 0.064811
#
#
# Mechanical properties :
#
#
# Convention : Reuss Voigt Hill
#
# Bulk Modulus (GPa) = 19.75393 40.97107 30.36250
# Shear Modulus (GPa) = 18.09198 25.51381 21.80289
#
# Velocity S-wave (km/s) = 3.08333 3.66154 3.38480
# Velocity P-wave (km/s) = 4.80167 6.27735 5.58844
#
# Compressibility (1/GPa) = 0.05062283
#
# Stress axis : x y z
#
# Youngs Moduli (GPa) = 42.13669 45.43225 30.80645
#
# Poissons Ratio (x) = 0.34690 0.10800
# Poissons Ratio (y) = 0.32174 0.08161
# Poissons Ratio (z) = 0.14772 0.12036
#
# Static dielectric constant tensor:
#      x y z
#    x 1.693820 -0.023280 -0.041980 
#    y -0.023280 1.628530 -0.009780 
#    z -0.041980 -0.009780 1.716300 
# 
# From -- ./inp_files/356411.got.cif
#   From: 2010.05.17/outbox.cif.g08.bks.cpg/sg2_179_cif.got.tgz:356411.got - 2010.06.03 11:33:40.
