data_PCOD9094908
_publ_section_title
;
Structure prediction by ZEFSAII (Michael W. Deem and Ramdas Pophale) SiO2 
 PCOD9094908
Probable space group: P -1
;
_chemical_formula_sum "Si O2"
_cell_formula_units_Z 13
_cell_length_a 12.818629
_cell_length_b 7.331086
_cell_length_c 5.267282
_cell_angle_alpha 85.383482
_cell_angle_beta 106.982286
_cell_angle_gamma 85.094771
_cell_volume 468.774570
_symmetry_space_group_name_H-M "P -1"
_symmetry_group_IT_number 2
_symmetry_cell_setting 'triclinic'
loop_
_space_group_symop_operation_xyz
x,y,z
-x,-y,-z
loop_
_atom_site_type_symbol
_atom_site_label
_atom_site_fract_x
_atom_site_fract_y
_atom_site_fract_z
Si Si1 0.693398 0.181319 0.775195
Si Si2 0.100743 0.123534 0.028173
Si Si3 0.587764 0.863393 0.837359
Si Si4 0.983902 0.784012 0.541221
Si Si5 0.232474 0.635538 0.710356
Si Si6 0.651461 0.708165 0.386305
Si Si7 0.500000 0.500000 0.000000
O O1 0.731792 0.252997 0.523761
O O2 0.792731 0.020117 0.930449
O O3 0.584604 0.074133 0.712167
O O4 0.693897 0.329502 0.990514
O O5 0.096137 0.229329 0.278646
O O6 0.066750 0.259343 0.758767
O O7 0.000000 0.000000 0.000000
O O8 0.662072 0.761562 0.676727
O O9 0.631586 0.879344 0.158081
O O10 0.507691 0.708313 0.848761
O O11 0.105905 0.688143 0.677867
O O12 0.000000 0.000000 0.500000
O O13 0.253703 0.426439 0.663720
O O14 0.555465 0.578559 0.284670
#
# Coordination Sequence:
#
# PCOD9094908 Si02
#       7
#     2   2   2   2   2   2   1
#     4  12  21  34  60  94 115 143 200 247 277 319
#     4  10  16  30  49  80 112 157 179 225 273 346
#     4  10  22  41  64  81 115 157 189 226 294 365
#     4  10  16  30  49  80 112 157 179 225 273 346
#     4  12  21  34  60  94 115 143 200 247 277 319
#     4  10  22  41  64  81 115 157 189 226 294 365
#     4   8  22  44  66  74 110 168 186 210 302 388
#
# _framework density 27.731877999999998
#
# number of rings (size 3 to 8) (size 9 to 14) (size 15 to 20)
#    0.923    0.615    6.154    2.308    0.000    0.000 
#    0.000    1.538    0.000    5.538    0.000    0.000 
#    0.000    0.000    0.000    0.000    0.000    0.000 
#
# Total GULP energy -72416.274145 kJ/mol
# GULP energy per Si atom -5570.482627 kJ/mol
# Density = 2.766876 g / cm^3
# Si number density = 27.731878 Si / 1000 Ang^3
#
#
#
# Elastic Constant Matrix: (Units=GPa)
#
#
# Indices 1 2 3 4 5 6 
#
# 1 100.7744 26.7001 30.3584 7.1394 -20.2924 15.3176
# 2 26.7001 109.0279 20.9895 22.0352 -4.9735 25.0208
# 3 30.3584 20.9895 137.5815 31.7597 -33.0669 12.2687
# 4 7.1394 22.0352 31.7597 46.6516 -7.6571 -15.9694
# 5 -20.2924 -4.9735 -33.0669 -7.6571 44.4682 -1.0429
# 6 15.3176 25.0208 12.2687 -15.9694 -1.0429 38.1032
#
#
#
# Elastic Compliance Matrix: (Units=1/GPa)
#
#
# Indices 1 2 3 4 5 6 
#
# 1 0.012153 -0.001358 -0.000654 -0.001493 0.004550 -0.004285
# 2 -0.001358 0.016005 0.003022 -0.015279 0.000380 -0.017330
# 3 -0.000654 0.003022 0.012397 -0.012290 0.006891 -0.010675
# 4 -0.001493 -0.015279 -0.012290 0.048852 -0.002296 0.035002
# 5 0.004550 0.000380 0.006891 -0.002296 0.029231 -0.004460
# 6 -0.004285 -0.017330 -0.010675 0.035002 -0.004460 0.057332
#
#
# Mechanical properties :
#
#
# Convention : Reuss Voigt Hill
#
# Bulk Modulus (GPa) = 23.48799 55.94222 39.71510
# Shear Modulus (GPa) = 26.57547 43.80032 35.18789
#
# Velocity S-wave (km/s) = 3.09900 3.97850 3.56597
# Velocity P-wave (km/s) = 4.61445 6.42814 5.59527
#
# Compressibility (1/GPa) = 0.04257496
#
# Stress axis : x y z
#
# Youngs Moduli (GPa) = 82.28277 62.47972 80.66397
#
# Poissons Ratio (x) = 0.08483 0.05278
# Poissons Ratio (y) = 0.11171 -0.24374
# Poissons Ratio (z) = 0.05383 -0.18879
#
# Static dielectric constant tensor:
#      x y z
#    x 2.495440 -0.168980 -0.024210 
#    y -0.168980 2.186080 0.056090 
#    z -0.024210 0.056090 2.349780 
# 
# From -- ./inp_files/86360.got.cif
#   From: 2010.05.17/outbox.cif.g08.bks.cpg/sg2_44_cif.got.tgz:86360.got - 2010.06.03 11:33:40.
