data_PCOD9094935
_publ_section_title
;
Structure prediction by ZEFSAII (Michael W. Deem and Ramdas Pophale) SiO2 
 PCOD9094935
Probable space group: P -1
;
_chemical_formula_sum "Si O2"
_cell_formula_units_Z 16
_cell_length_a 21.520569
_cell_length_b 5.405116
_cell_length_c 9.076326
_cell_angle_alpha 73.790907
_cell_angle_beta 63.131024
_cell_angle_gamma 58.228828
_cell_volume 799.489371
_symmetry_space_group_name_H-M "P -1"
_symmetry_group_IT_number 2
_symmetry_cell_setting 'triclinic'
loop_
_space_group_symop_operation_xyz
x,y,z
-x,-y,-z
loop_
_atom_site_type_symbol
_atom_site_label
_atom_site_fract_x
_atom_site_fract_y
_atom_site_fract_z
Si Si1 0.822324 0.017251 0.016821
Si Si2 0.631475 0.411693 0.734828
Si Si3 0.004949 0.191549 0.097440
Si Si4 0.459352 0.348179 0.473180
Si Si5 0.722934 0.766740 0.658413
Si Si6 0.295426 0.044894 0.039643
Si Si7 0.836827 0.531358 0.320529
Si Si8 0.707214 0.535193 0.251814
O O1 0.783899 0.964847 0.921097
O O2 0.907683 0.990846 0.899820
O O3 0.834574 0.781850 0.171841
O O4 0.756666 0.310181 0.110075
O O5 0.551326 0.566480 0.703000
O O6 0.668121 0.632511 0.677181
O O7 0.683898 0.116959 0.633514
O O8 0.639218 0.260501 0.911343
O O9 0.926517 0.279591 0.262808
O O10 0.000000 0.500000 0.000000
O O11 0.000000 0.000000 0.000000
O O12 0.500000 0.500000 0.500000
O O13 0.370826 0.466766 0.610398
O O14 0.500000 0.000000 0.500000
O O15 0.726819 0.732210 0.836280
O O16 0.802854 0.634673 0.501977
O O17 0.319664 0.151286 0.848674
O O18 0.771752 0.464823 0.321880
#
# Coordination Sequence:
#
# PCOD9094935 Si02
#       8
#     2   2   2   2   2   2   2   2
#     4  10  20  37  63  96 128 167 218 259 309 370
#     4  10  21  42  64  88 127 163 208 251 316 372
#     4  10  20  35  55  96 133 162 205 273 309 353
#     4  12  27  43  66 100 127 154 207 274 316 369
#     4  10  20  37  64  94 119 170 215 248 305 377
#     4   9  23  37  67  91 127 169 217 250 305 390
#     4  10  20  34  64  95 125 169 217 258 312 370
#     4  11  21  40  68  92 123 169 215 254 316 379
#
# _framework density 20.012774
#
# number of rings (size 3 to 8) (size 9 to 14) (size 15 to 20)
#    0.750    1.000    2.500    2.250    3.500    0.000 
#    0.000    1.875    0.000    1.500    0.000    0.000 
#    0.000    0.000    0.000    0.000    0.000    0.000 
#
# Total GULP energy -89069.579412 kJ/mol
# GULP energy per Si atom -5566.848713 kJ/mol
# Density = 1.996722 g / cm^3
# Si number density = 20.012774 Si / 1000 Ang^3
#
#
#
# Elastic Constant Matrix: (Units=GPa)
#
#
# Indices 1 2 3 4 5 6 
#
# 1 127.3452 30.5100 24.0552 -11.4045 -0.8315 6.4430
# 2 30.5100 71.6328 5.7434 3.9529 0.1881 6.7608
# 3 24.0552 5.7434 31.4167 -3.3955 1.1952 -6.2718
# 4 -11.4045 3.9529 -3.3955 19.0422 0.7987 3.5337
# 5 -0.8315 0.1881 1.1952 0.7987 26.0631 8.9971
# 6 6.4430 6.7608 -6.2718 3.5337 8.9971 31.4247
#
#
#
# Elastic Compliance Matrix: (Units=1/GPa)
#
#
# Indices 1 2 3 4 5 6 
#
# 1 0.011201 -0.004096 -0.008040 0.006852 0.002057 -0.004379
# 2 -0.004096 0.016323 -0.000977 -0.005592 0.000821 -0.002473
# 3 -0.008040 -0.000977 0.040815 0.000756 -0.006179 0.011689
# 4 0.006852 -0.005592 0.000756 0.059167 0.000805 -0.006935
# 5 0.002057 0.000821 -0.006179 0.000805 0.043666 -0.014424
# 6 -0.004379 -0.002473 0.011689 -0.006935 -0.014424 0.040495
#
#
# Mechanical properties :
#
#
# Convention : Reuss Voigt Hill
#
# Bulk Modulus (GPa) = 23.74555 39.00130 31.37343
# Shear Modulus (GPa) = 19.84670 26.64508 23.24589
#
# Velocity S-wave (km/s) = 3.15255 3.65280 3.41185
# Velocity P-wave (km/s) = 5.01421 6.10910 5.58853
#
# Compressibility (1/GPa) = 0.04211316
#
# Stress axis : x y z
#
# Youngs Moduli (GPa) = 89.27396 61.26319 24.50083
#
# Poissons Ratio (x) = 0.25096 0.19698
# Poissons Ratio (y) = 0.36571 0.02393
# Poissons Ratio (z) = 0.71775 0.05984
#
# Static dielectric constant tensor:
#      x y z
#    x 1.717370 -0.021200 0.010730 
#    y -0.021200 1.795680 -0.031370 
#    z 0.010730 -0.031370 1.729180 
# 
# From -- ./inp_files/340336.got.cif
#   From: 2010.05.17/outbox.cif.g08.bks.cpg/sg2_171_cif.got.tgz:340336.got - 2010.06.03 11:33:40.
