data_PCOD9094872
_publ_section_title
;
Structure prediction by ZEFSAII (Michael W. Deem and Ramdas Pophale) SiO2 
 PCOD9094872
Probable space group: P -1
;
_chemical_formula_sum "Si O2"
_cell_formula_units_Z 16
_cell_length_a 13.066394
_cell_length_b 9.527059
_cell_length_c 19.641857
_cell_angle_alpha 120.190946
_cell_angle_beta 159.055216
_cell_angle_gamma 70.267465
_cell_volume 683.043258
_symmetry_space_group_name_H-M "P -1"
_symmetry_group_IT_number 2
_symmetry_cell_setting 'triclinic'
loop_
_space_group_symop_operation_xyz
x,y,z
-x,-y,-z
loop_
_atom_site_type_symbol
_atom_site_label
_atom_site_fract_x
_atom_site_fract_y
_atom_site_fract_z
Si Si1 0.493583 0.809325 0.964689
Si Si2 0.592380 0.396239 0.778245
Si Si3 0.174167 0.506523 0.782246
Si Si4 0.159831 0.775507 0.388385
Si Si5 0.240598 0.762368 0.281734
Si Si6 0.714851 0.350903 0.349430
Si Si7 0.737792 0.132674 0.883659
Si Si8 0.082421 0.063433 0.953686
O O1 0.285650 0.711129 0.877445
O O2 0.329357 0.698585 0.768370
O O3 0.841996 0.809111 0.188291
O O4 0.500000 0.000000 0.000000
O O5 0.556300 0.273672 0.659656
O O6 0.324829 0.465030 0.625702
O O7 0.625192 0.287575 0.837397
O O8 0.909338 0.582693 0.021478
O O9 0.939246 0.406175 0.673471
O O10 0.022383 0.383143 0.591495
O O11 0.500000 0.500000 0.000000
O O12 0.298524 0.763317 0.397816
O O13 0.429924 0.944829 0.634982
O O14 0.164616 0.930709 0.254500
O O15 0.422282 0.193972 0.167610
O O16 0.984387 0.147452 0.979661
O O17 0.898711 0.113972 0.048960
#
# Coordination Sequence:
#
# PCOD9094872 Si02
#       8
#     2   2   2   2   2   2   2   2
#     4  11  25  45  67  94 117 162 231 274 314 376
#     4   9  19  34  64  93 120 166 216 238 314 402
#     4  10  24  44  66  92 125 167 221 270 317 371
#     4  11  21  41  61  92 135 165 198 275 317 358
#     4   9  18  38  61  87 130 169 205 247 312 391
#     4  11  20  45  70  85 130 174 199 270 334 365
#     4  10  20  34  62  96 133 159 207 255 304 387
#     4   9  18  36  61  92 125 167 203 243 312 389
#
# _framework density 23.424576999999999
#
# number of rings (size 3 to 8) (size 9 to 14) (size 15 to 20)
#    0.000    2.000    3.750    1.125    1.750    2.000 
#    2.250    3.125    0.000    0.000    0.000    0.000 
#    0.000    0.000    0.000    0.000    0.000    0.000 
#
# Total GULP energy -89325.256609 kJ/mol
# GULP energy per Si atom -5582.828538 kJ/mol
# Density = 2.337126 g / cm^3
# Si number density = 23.424577 Si / 1000 Ang^3
#
#
#
# Elastic Constant Matrix: (Units=GPa)
#
#
# Indices 1 2 3 4 5 6 
#
# 1 94.1840 58.8111 27.2633 3.1661 1.8143 36.1838
# 2 58.8111 125.4113 8.7848 0.0416 -5.9528 36.6731
# 3 27.2633 8.7848 71.9919 -16.3621 -1.8784 -2.3097
# 4 3.1661 0.0416 -16.3621 28.7775 11.2971 1.5491
# 5 1.8143 -5.9528 -1.8784 11.2971 35.1872 6.1053
# 6 36.1838 36.6731 -2.3097 1.5491 6.1053 44.6618
#
#
#
# Elastic Compliance Matrix: (Units=1/GPa)
#
#
# Indices 1 2 3 4 5 6 
#
# 1 0.023009 -0.005673 -0.010392 -0.008673 0.002613 -0.014578
# 2 -0.005673 0.012584 0.000460 -0.000207 0.003588 -0.006197
# 3 -0.010392 0.000460 0.021243 0.014494 -0.004511 0.009254
# 4 -0.008673 -0.000207 0.014494 0.049887 -0.016296 0.008444
# 5 0.002613 0.003588 -0.004511 -0.016296 0.035547 -0.009590
# 6 -0.014578 -0.006197 0.009254 0.008444 -0.009590 0.040786
#
#
# Mechanical properties :
#
#
# Convention : Reuss Voigt Hill
#
# Bulk Modulus (GPa) = 39.02007 53.47840 46.24923
# Shear Modulus (GPa) = 22.44081 34.84048 28.64065
#
# Velocity S-wave (km/s) = 3.09852 3.86080 3.50047
# Velocity P-wave (km/s) = 5.43093 6.53865 6.01036
#
# Compressibility (1/GPa) = 0.02562784
#
# Stress axis : x y z
#
# Youngs Moduli (GPa) = 43.46033 79.46536 47.07412
#
# Poissons Ratio (x) = 0.45077 0.48920
# Poissons Ratio (y) = 0.24653 -0.02167
# Poissons Ratio (z) = 0.45165 -0.03658
#
# Static dielectric constant tensor:
#      x y z
#    x 1.928130 0.028530 0.004840 
#    y 0.028530 1.937430 0.033570 
#    z 0.004840 0.033570 2.002300 
# 
# From -- ./inp_files/597419.got.cif
#   From: 2010.05.17/outbox.cif.g08.bks.cpg/sg2_299_cif.got.tgz:597419.got - 2010.06.03 11:33:40.
