data_PCOD9094478
_publ_section_title
;
Structure prediction by ZEFSAII (Michael W. Deem and Ramdas Pophale) SiO2 
 PCOD9094478
Probable space group: P -1
;
_chemical_formula_sum "Si O2"
_cell_formula_units_Z 10
_cell_length_a 10.999755
_cell_length_b 12.120934
_cell_length_c 9.748011
_cell_angle_alpha 106.060765
_cell_angle_beta 26.781313
_cell_angle_gamma 115.032588
_cell_volume 514.084893
_symmetry_space_group_name_H-M "P -1"
_symmetry_group_IT_number 2
_symmetry_cell_setting 'triclinic'
loop_
_space_group_symop_operation_xyz
x,y,z
-x,-y,-z
loop_
_atom_site_type_symbol
_atom_site_label
_atom_site_fract_x
_atom_site_fract_y
_atom_site_fract_z
Si Si1 0.645307 0.056707 0.016683
Si Si2 0.561245 0.111825 0.587118
Si Si3 0.266534 0.514696 0.841381
Si Si4 0.282272 0.214183 0.503682
Si Si5 0.806149 0.740410 0.077622
O O1 0.445735 0.121280 0.307965
O O2 0.614614 0.948285 0.118621
O O3 0.985418 0.154595 0.692786
O O4 0.500000 0.000000 0.000000
O O5 0.462919 0.222020 0.675860
O O6 0.500000 0.000000 0.500000
O O7 0.913632 0.172486 0.262335
O O8 0.500000 0.500000 0.500000
O O9 0.452643 0.653612 0.760861
O O10 0.208050 0.400407 0.965597
O O11 0.000000 0.500000 0.000000
O O12 0.159084 0.227609 0.783119
#
# Coordination Sequence:
#
# PCOD9094478 Si02
#       5
#     2   2   2   2   2
#     4  12  25  38  57  84 119 161 193 228 288 351
#     4  12  21  36  59  84 121 148 187 246 290 335
#     4  10  20  34  57  89 118 146 187 243 296 338
#     4  11  20  38  59  83 119 150 191 242 284 341
#     4  11  20  35  60  90 113 145 190 243 299 332
#
# _framework density 19.45204
#
# number of rings (size 3 to 8) (size 9 to 14) (size 15 to 20)
#    0.000    0.800    4.000    7.200    0.000    0.000 
#    0.000    0.000    0.000    7.200    0.000    0.000 
#    0.000    0.000    0.000    0.000    0.000    0.000 
#
# Total GULP energy -55718.157401 kJ/mol
# GULP energy per Si atom -5571.815740 kJ/mol
# Density = 1.940777 g / cm^3
# Si number density = 19.452040 Si / 1000 Ang^3
#
#
#
# Elastic Constant Matrix: (Units=GPa)
#
#
# Indices 1 2 3 4 5 6 
#
# 1 79.9267 40.7345 17.2410 -11.7071 -17.9112 -3.0768
# 2 40.7345 93.0370 23.9444 -12.1594 -8.0646 -10.1838
# 3 17.2410 23.9444 89.4384 -7.4408 -33.8588 -1.0901
# 4 -11.7071 -12.1594 -7.4408 33.5569 -7.9650 -10.7243
# 5 -17.9112 -8.0646 -33.8588 -7.9650 35.6531 -2.6563
# 6 -3.0768 -10.1838 -1.0901 -10.7243 -2.6563 15.8902
#
#
#
# Elastic Compliance Matrix: (Units=1/GPa)
#
#
# Indices 1 2 3 4 5 6 
#
# 1 0.021867 -0.005302 0.007212 0.017990 0.021931 0.017138
# 2 -0.005302 0.016996 -0.000875 0.010752 0.004073 0.017743
# 3 0.007212 -0.000875 0.025512 0.023989 0.034845 0.024601
# 4 0.017990 0.010752 0.023989 0.084524 0.059015 0.078930
# 5 0.021931 0.004073 0.034845 0.059015 0.091053 0.064298
# 6 0.017138 0.017743 0.024601 0.078930 0.064298 0.143327
#
#
# Mechanical properties :
#
#
# Convention : Reuss Voigt Hill
#
# Bulk Modulus (GPa) = 15.05012 47.36020 31.20516
# Shear Modulus (GPa) = 12.39594 29.05218 20.72406
#
# Velocity S-wave (km/s) = 2.52713 3.86881 3.26758
# Velocity P-wave (km/s) = 4.03349 6.66010 5.50572
#
# Compressibility (1/GPa) = 0.06644463
#
# Stress axis : x y z
#
# Youngs Moduli (GPa) = 45.73001 58.83907 39.19735
#
# Poissons Ratio (x) = 0.31198 -0.28270
# Poissons Ratio (y) = 0.24247 0.03430
# Poissons Ratio (z) = -0.32982 0.05149
#
# Static dielectric constant tensor:
#      x y z
#    x 1.662420 -0.015770 -0.020190 
#    y -0.015770 1.879710 -0.074120 
#    z -0.020190 -0.074120 1.670930 
# 
# From -- ./inp_files/769.got.cif
#   From: 2010.05.17/outbox.cif.g08.bks.cpg/sg2_1_cif.got.tgz:769.got - 2010.06.03 11:33:40.
