data_PCOD9094443
_publ_section_title
;
Structure prediction by ZEFSAII (Michael W. Deem and Ramdas Pophale) SiO2 
 PCOD9094443
Probable space group: P -1
;
_chemical_formula_sum "Si O2"
_cell_formula_units_Z 14
_cell_length_a 8.533120
_cell_length_b 5.306713
_cell_length_c 14.929094
_cell_angle_alpha 74.350995
_cell_angle_beta 107.936154
_cell_angle_gamma 120.228320
_cell_volume 550.284647
_symmetry_space_group_name_H-M "P -1"
_symmetry_group_IT_number 2
_symmetry_cell_setting 'triclinic'
loop_
_space_group_symop_operation_xyz
x,y,z
-x,-y,-z
loop_
_atom_site_type_symbol
_atom_site_label
_atom_site_fract_x
_atom_site_fract_y
_atom_site_fract_z
Si Si1 0.728452 0.683532 0.326350
Si Si2 0.618096 0.896404 0.658607
Si Si3 0.670990 0.830844 0.012745
Si Si4 0.190285 0.482599 0.287561
Si Si5 0.286171 0.237321 0.485452
Si Si6 0.543343 0.006501 0.155388
Si Si7 0.869076 0.611617 0.184648
O O1 0.597839 0.337020 0.356287
O O2 0.780408 0.831953 0.418703
O O3 0.888417 0.747701 0.275078
O O4 0.596901 0.799522 0.244572
O O5 0.725976 0.711170 0.727178
O O6 0.691227 0.982379 0.560895
O O7 0.668967 0.174980 0.702126
O O8 0.849335 0.795030 0.080221
O O9 0.629463 0.976155 0.078444
O O10 0.500000 0.500000 0.000000
O O11 0.654671 0.014629 0.907325
O O12 0.163932 0.352510 0.396086
O O13 0.013494 0.484065 0.212475
O O14 0.500000 0.500000 0.500000
O O15 0.666543 0.333236 0.181961
#
# Coordination Sequence:
#
# PCOD9094443 Si02
#       7
#     2   2   2   2   2   2   2
#     4  10  20  34  57  86 107 149 195 239 275 333
#     4   9  22  39  57  78 117 158 192 225 283 342
#     4   8  16  33  52  82 109 147 177 230 285 344
#     4  10  22  39  56  82 116 155 190 232 284 338
#     4   8  19  36  54  79 110 159 190 228 277 343
#     4   9  18  32  55  84 113 138 188 235 281 336
#     4  10  21  32  59  85 113 143 189 242 285 326
#
# _framework density 25.441376999999999
#
# number of rings (size 3 to 8) (size 9 to 14) (size 15 to 20)
#    0.857    2.000    0.000    0.000    6.000    4.000 
#    0.000    1.429    0.000    1.714    0.000    0.000 
#    0.000    0.000    0.000    0.000    0.000    0.000 
#
# Total GULP energy -78016.404109 kJ/mol
# GULP energy per Si atom -5572.600293 kJ/mol
# Density = 2.538347 g / cm^3
# Si number density = 25.441377 Si / 1000 Ang^3
#
#
#
# Elastic Constant Matrix: (Units=GPa)
#
#
# Indices 1 2 3 4 5 6 
#
# 1 68.1890 14.8851 7.5905 -8.4275 24.8055 -14.4882
# 2 14.8851 62.4918 3.7787 3.7044 -9.0251 -11.8600
# 3 7.5905 3.7787 106.5505 -10.8425 25.2738 -11.1823
# 4 -8.4275 3.7044 -10.8425 34.4972 -15.7943 0.4952
# 5 24.8055 -9.0251 25.2738 -15.7943 46.1457 -1.1055
# 6 -14.4882 -11.8600 -11.1823 0.4952 -1.1055 37.0463
#
#
#
# Elastic Compliance Matrix: (Units=1/GPa)
#
#
# Indices 1 2 3 4 5 6 
#
# 1 0.022668 -0.006341 0.002898 0.000274 -0.014745 0.007266
# 2 -0.006341 0.019487 -0.001863 -0.000553 0.008134 0.003446
# 3 0.002898 -0.001863 0.011603 0.000892 -0.007881 0.003792
# 4 0.000274 -0.000553 0.000892 0.034453 0.011050 0.000069
# 5 -0.014745 0.008134 -0.007881 0.011050 0.039177 -0.004520
# 6 0.007266 0.003446 0.003792 0.000069 -0.004520 0.031947
#
#
# Mechanical properties :
#
#
# Convention : Reuss Voigt Hill
#
# Bulk Modulus (GPa) = 23.17780 32.19332 27.68556
# Shear Modulus (GPa) = 27.12531 37.60297 32.36414
#
# Velocity S-wave (km/s) = 3.26880 3.84868 3.57053
# Velocity P-wave (km/s) = 4.83495 5.69484 5.28242
#
# Compressibility (1/GPa) = 0.04314474
#
# Stress axis : x y z
#
# Youngs Moduli (GPa) = 44.11441 51.31708 86.18495
#
# Poissons Ratio (x) = 0.32542 -0.24976
# Poissons Ratio (y) = 0.27975 0.16058
# Poissons Ratio (z) = -0.12784 0.09562
#
# Static dielectric constant tensor:
#      x y z
#    x 2.049120 0.030160 -0.044130 
#    y 0.030160 2.091150 -0.013790 
#    z -0.044130 -0.013790 2.122270 
# 
# From -- ./inp_files/38442.got.cif
#   From: 2010.05.17/outbox.cif.g08.bks.cpg/sg2_20_cif.got.tgz:38442.got - 2010.06.03 11:33:40.
