data_PCOD9094475
_publ_section_title
;
Structure prediction by ZEFSAII (Michael W. Deem and Ramdas Pophale) SiO2 
 PCOD9094475
Probable space group: P -1
;
_chemical_formula_sum "Si O2"
_cell_formula_units_Z 16
_cell_length_a 15.203261
_cell_length_b 12.497924
_cell_length_c 12.334548
_cell_angle_alpha 142.171475
_cell_angle_beta 47.036331
_cell_angle_gamma 143.368335
_cell_volume 850.324144
_symmetry_space_group_name_H-M "P -1"
_symmetry_group_IT_number 2
_symmetry_cell_setting 'triclinic'
loop_
_space_group_symop_operation_xyz
x,y,z
-x,-y,-z
loop_
_atom_site_type_symbol
_atom_site_label
_atom_site_fract_x
_atom_site_fract_y
_atom_site_fract_z
Si Si1 0.861207 0.363729 0.140893
Si Si2 0.807314 0.302760 0.893750
Si Si3 0.163220 0.701023 0.491000
Si Si4 0.686608 0.047059 0.231172
Si Si5 0.000479 0.159802 0.544716
Si Si6 0.992215 0.084789 0.245534
Si Si7 0.784589 0.747503 0.987602
Si Si8 0.361178 0.685596 0.141736
O O1 0.875435 0.583454 0.331620
O O2 0.034927 0.459022 0.058248
O O3 0.785856 0.195468 0.166206
O O4 0.782912 0.265480 0.012821
O O5 0.680776 0.297629 0.931608
O O6 0.851626 0.152348 0.683409
O O7 0.132761 0.872815 0.619866
O O8 0.228352 0.655904 0.299439
O O9 0.000000 0.500000 0.500000
O O10 0.274471 0.795169 0.574189
O O11 0.516604 0.897237 0.217786
O O12 0.732032 0.892348 0.108256
O O13 0.022638 0.097441 0.356881
O O14 0.000000 0.000000 0.500000
O O15 0.136749 0.260777 0.193862
O O16 0.915348 0.867364 0.065068
O O17 0.653582 0.527297 0.978258
#
# Coordination Sequence:
#
# PCOD9094475 Si02
#       8
#     2   2   2   2   2   2   2   2
#     4   9  21  39  58  87 114 148 205 241 289 347
#     4   9  21  37  61  86 113 151 201 246 287 342
#     4  11  19  38  60  86 110 150 200 240 288 343
#     4  11  24  38  57  86 124 158 188 238 300 360
#     4  10  20  34  62  90 113 141 197 261 283 327
#     4  10  20  34  57  89 112 149 198 248 291 331
#     4  10  24  33  58  87 121 157 195 238 289 350
#     4  12  22  38  59  85 123 156 193 239 298 357
#
# _framework density 18.816354
#
# number of rings (size 3 to 8) (size 9 to 14) (size 15 to 20)
#    0.750    1.000    2.500    2.250    7.000    0.500 
#    0.000    0.000    0.000    0.750    0.000    0.000 
#    0.000    0.000    0.000    0.000    0.000    0.000 
#
# Total GULP energy -89093.470148 kJ/mol
# GULP energy per Si atom -5568.341884 kJ/mol
# Density = 1.877353 g / cm^3
# Si number density = 18.816354 Si / 1000 Ang^3
#
#
#
# Elastic Constant Matrix: (Units=GPa)
#
#
# Indices 1 2 3 4 5 6 
#
# 1 92.4940 25.3831 26.7408 6.4183 21.3625 -21.0411
# 2 25.3831 35.4913 7.9937 14.1340 7.6029 -16.6242
# 3 26.7408 7.9937 60.6331 -5.9888 17.0189 -18.9324
# 4 6.4183 14.1340 -5.9888 26.8063 -4.4088 5.9528
# 5 21.3625 7.6029 17.0189 -4.4088 36.4989 -2.0977
# 6 -21.0411 -16.6242 -18.9324 5.9528 -2.0977 32.8141
#
#
#
# Elastic Compliance Matrix: (Units=1/GPa)
#
#
# Indices 1 2 3 4 5 6 
#
# 1 0.016590 -0.003713 -0.002775 -0.005635 -0.007882 0.007674
# 2 -0.003713 0.078323 0.007631 -0.053307 -0.021265 0.050013
# 3 -0.002775 0.007631 0.024456 -0.003252 -0.010837 0.016094
# 4 -0.005635 -0.053307 -0.003252 0.079920 0.022956 -0.045526
# 5 -0.007882 -0.021265 -0.010837 0.022956 0.042916 -0.023501
# 6 0.007674 0.050013 0.016094 -0.045526 -0.023501 0.076775
#
#
# Mechanical properties :
#
#
# Convention : Reuss Voigt Hill
#
# Bulk Modulus (GPa) = 8.21987 34.31708 21.26848
# Shear Modulus (GPa) = 13.99600 27.79058 20.89329
#
# Velocity S-wave (km/s) = 2.73027 3.84726 3.33585
# Velocity P-wave (km/s) = 3.78379 6.16545 5.11517
#
# Compressibility (1/GPa) = 0.12165637
#
# Stress axis : x y z
#
# Youngs Moduli (GPa) = 60.27734 12.76772 40.88918
#
# Poissons Ratio (x) = 0.04740 0.11347
# Poissons Ratio (y) = 0.22379 -0.31204
# Poissons Ratio (z) = 0.16727 -0.09744
#
# Static dielectric constant tensor:
#      x y z
#    x 1.683610 -0.019070 -0.013120 
#    y -0.019070 1.657580 0.038780 
#    z -0.013120 0.038780 1.735940 
# 
# From -- ./inp_files/452632.got.cif
#   From: 2010.05.17/outbox.cif.g08.bks.cpg/sg2_227_cif.got.tgz:452632.got - 2010.06.03 11:33:40.
