data_PCOD9094788
_publ_section_title
;
Structure prediction by ZEFSAII (Michael W. Deem and Ramdas Pophale) SiO2 
 PCOD9094788
Probable space group: P -1
;
_chemical_formula_sum "Si O2"
_cell_formula_units_Z 16
_cell_length_a 6.161839
_cell_length_b 7.847476
_cell_length_c 18.499367
_cell_angle_alpha 48.511864
_cell_angle_beta 80.045049
_cell_angle_gamma 84.127339
_cell_volume 659.910442
_symmetry_space_group_name_H-M "P -1"
_symmetry_group_IT_number 2
_symmetry_cell_setting 'triclinic'
loop_
_space_group_symop_operation_xyz
x,y,z
-x,-y,-z
loop_
_atom_site_type_symbol
_atom_site_label
_atom_site_fract_x
_atom_site_fract_y
_atom_site_fract_z
Si Si1 0.267175 0.285760 0.086375
Si Si2 0.916988 0.991063 0.263831
Si Si3 0.335392 0.767362 0.010665
Si Si4 0.426588 0.081581 0.800116
Si Si5 0.443561 0.785844 0.689861
Si Si6 0.746524 0.372053 0.792240
Si Si7 0.884591 0.323989 0.375188
Si Si8 0.841389 0.104706 0.581610
O O1 0.230929 0.541281 0.042644
O O2 0.450441 0.153826 0.161882
O O3 0.399970 0.275480 0.005912
O O4 0.056504 0.127748 0.157003
O O5 0.065913 0.872003 0.349109
O O6 0.731969 0.843333 0.274767
O O7 0.776344 0.179174 0.261699
O O8 0.258600 0.779837 0.093291
O O9 0.296499 0.995491 0.903391
O O10 0.614638 0.250912 0.769230
O O11 0.601565 0.588282 0.762015
O O12 0.354661 0.715422 0.635380
O O13 0.588957 0.016832 0.617968
O O14 0.980528 0.465355 0.725863
O O15 0.877895 0.310163 0.466033
O O16 0.024040 0.105935 0.401249
#
# Coordination Sequence:
#
# PCOD9094788 Si02
#       8
#     2   2   2   2   2   2   2   2
#     4   9  20  37  57  82 110 145 194 236 271 323
#     4  11  20  36  58  86 111 150 186 232 279 329
#     4   9  19  39  57  82 110 147 191 241 271 317
#     4  10  22  36  56  81 119 153 184 229 275 333
#     4  10  20  34  61  85 115 141 186 234 284 328
#     4  11  21  38  55  84 120 149 185 228 280 337
#     4   9  19  35  58  85 112 147 181 233 286 332
#     4   9  18  34  59  86 112 139 189 236 280 327
#
# _framework density 24.245716000000002
#
# number of rings (size 3 to 8) (size 9 to 14) (size 15 to 20)
#    0.750    1.500    0.000    4.500    0.000    2.500 
#    2.250    1.250    0.000    3.750    0.000    0.000 
#    0.000    0.000    0.000    0.000    0.000    0.000 
#
# Total GULP energy -89297.318839 kJ/mol
# GULP energy per Si atom -5581.082427 kJ/mol
# Density = 2.419053 g / cm^3
# Si number density = 24.245716 Si / 1000 Ang^3
#
#
#
# Elastic Constant Matrix: (Units=GPa)
#
#
# Indices 1 2 3 4 5 6 
#
# 1 81.0719 18.8089 40.5701 12.0009 -3.3789 24.9584
# 2 18.8089 70.0837 24.6685 5.9127 -1.5849 16.0076
# 3 40.5701 24.6685 94.2768 22.1584 -7.4327 17.4712
# 4 12.0009 5.9127 22.1584 20.6419 1.2887 10.0798
# 5 -3.3789 -1.5849 -7.4327 1.2887 22.5598 1.4618
# 6 24.9584 16.0076 17.4712 10.0798 1.4618 49.8243
#
#
#
# Elastic Compliance Matrix: (Units=1/GPa)
#
#
# Indices 1 2 3 4 5 6 
#
# 1 0.017621 -0.001140 -0.005898 -0.000573 0.001058 -0.006308
# 2 -0.001140 0.016549 -0.003492 0.001542 0.000002 -0.003833
# 3 -0.005898 -0.003492 0.018048 -0.015665 0.005664 0.000750
# 4 -0.000573 0.001542 -0.015665 0.069888 -0.008573 -0.008603
# 5 0.001058 0.000002 0.005664 -0.008573 0.046981 -0.002160
# 6 -0.006308 -0.003833 0.000750 -0.008603 -0.002160 0.026003
#
#
# Mechanical properties :
#
#
# Convention : Reuss Voigt Hill
#
# Bulk Modulus (GPa) = 32.09296 45.94750 39.02023
# Shear Modulus (GPa) = 22.07159 29.36420 25.71789
#
# Velocity S-wave (km/s) = 3.02044 3.48387 3.26040
# Velocity P-wave (km/s) = 5.04275 5.93086 5.50475
#
# Compressibility (1/GPa) = 0.03115948
#
# Stress axis : x y z
#
# Youngs Moduli (GPa) = 56.74934 60.42607 55.40825
#
# Poissons Ratio (x) = 0.06890 0.32678
# Poissons Ratio (y) = 0.06471 0.19346
# Poissons Ratio (z) = 0.33469 0.21098
#
# Static dielectric constant tensor:
#      x y z
#    x 1.952420 -0.009520 0.014710 
#    y -0.009520 1.977390 0.022400 
#    z 0.014710 0.022400 1.950740 
# 
# From -- ./inp_files/582266.got.cif
#   From: 2010.05.17/outbox.cif.g08.bks.cpg/sg2_292_cif.got.tgz:582266.got - 2010.06.03 11:33:40.
