data_PCOD9094171
_publ_section_title
;
Structure prediction by ZEFSAII (Michael W. Deem and Ramdas Pophale) SiO2 
 PCOD9094171
Probable space group: P -1
;
_chemical_formula_sum "Si O2"
_cell_formula_units_Z 16
_cell_length_a 15.641375
_cell_length_b 9.255966
_cell_length_c 13.854656
_cell_angle_alpha 79.942318
_cell_angle_beta 51.028291
_cell_angle_gamma 36.526364
_cell_volume 649.095546
_symmetry_space_group_name_H-M "P -1"
_symmetry_group_IT_number 2
_symmetry_cell_setting 'triclinic'
loop_
_space_group_symop_operation_xyz
x,y,z
-x,-y,-z
loop_
_atom_site_type_symbol
_atom_site_label
_atom_site_fract_x
_atom_site_fract_y
_atom_site_fract_z
Si Si1 0.664183 0.087085 0.940985
Si Si2 0.183169 0.874162 0.814064
Si Si3 0.232786 0.262914 0.247683
Si Si4 0.107076 0.207506 0.979201
Si Si5 0.827154 0.343182 0.436467
Si Si6 0.919966 0.225678 0.749503
Si Si7 0.409771 0.334092 0.636357
Si Si8 0.724313 0.721135 0.588156
O O1 0.672089 0.921725 0.897615
O O2 0.710372 0.015559 0.030254
O O3 0.371852 0.489765 0.076580
O O4 0.906909 0.890289 0.754163
O O5 0.423649 0.474997 0.663069
O O6 0.041292 0.068440 0.788926
O O7 0.220221 0.979878 0.834326
O O8 0.000000 0.000000 0.000000
O O9 0.104516 0.575721 0.284937
O O10 0.408210 0.076465 0.240079
O O11 0.029860 0.385812 0.415011
O O12 0.852121 0.425541 0.167573
O O13 0.000000 0.500000 0.000000
O O14 0.634453 0.589260 0.453704
O O15 0.703339 0.580576 0.584974
O O16 0.915953 0.068185 0.408928
O O17 0.626781 0.952747 0.550001
#
# Coordination Sequence:
#
# PCOD9094171 Si02
#       8
#     2   2   2   2   2   2   2   2
#     4  10  21  36  57  86 118 149 181 234 299 338
#     4   9  20  36  56  86 114 149 188 229 285 348
#     4  10  23  37  56  84 114 150 199 233 276 342
#     4  10  20  34  54  89 119 141 186 237 281 346
#     4   9  20  38  56  86 112 147 193 235 282 342
#     4  11  21  37  61  86 118 147 188 243 290 332
#     4   9  19  36  60  76 110 154 190 229 286 338
#     4  10  21  40  57  79 113 160 194 228 281 341
#
# _framework density 24.649684000000001
#
# number of rings (size 3 to 8) (size 9 to 14) (size 15 to 20)
#    0.000    2.250    0.000    2.625    5.250    0.500 
#    4.500    3.750    0.000    0.000    0.000    0.000 
#    0.000    0.000    0.000    0.000    0.000    0.000 
#
# Total GULP energy -89403.496367 kJ/mol
# GULP energy per Si atom -5587.718523 kJ/mol
# Density = 2.459358 g / cm^3
# Si number density = 24.649684 Si / 1000 Ang^3
#
#
#
# Elastic Constant Matrix: (Units=GPa)
#
#
# Indices 1 2 3 4 5 6 
#
# 1 177.1383 40.9388 53.2190 19.6887 37.8029 14.4682
# 2 40.9388 77.6431 6.9909 12.3329 23.0563 14.8580
# 3 53.2190 6.9909 68.8920 -8.0806 10.4074 4.7525
# 4 19.6887 12.3329 -8.0806 29.6490 16.6571 1.1611
# 5 37.8029 23.0563 10.4074 16.6571 48.7216 3.8105
# 6 14.4682 14.8580 4.7525 1.1611 3.8105 38.2398
#
#
#
# Elastic Compliance Matrix: (Units=1/GPa)
#
#
# Indices 1 2 3 4 5 6 
#
# 1 0.009843 -0.002499 -0.007553 -0.005993 -0.002685 -0.001365
# 2 -0.002499 0.016959 0.001138 -0.001923 -0.005265 -0.005202
# 3 -0.007553 0.001138 0.022330 0.012769 -0.003785 -0.000370
# 4 -0.005993 -0.001923 0.012769 0.050008 -0.014369 0.001341
# 5 -0.002685 -0.005265 -0.003785 -0.014369 0.030750 0.000904
# 6 -0.001365 -0.005202 -0.000370 0.001341 0.000904 0.028604
#
#
# Mechanical properties :
#
#
# Convention : Reuss Voigt Hill
#
# Bulk Modulus (GPa) = 31.94484 58.44121 45.19302
# Shear Modulus (GPa) = 26.77293 38.15706 32.46499
#
# Velocity S-wave (km/s) = 3.29923 3.93870 3.63306
# Velocity P-wave (km/s) = 5.24413 6.66668 5.99773
#
# Compressibility (1/GPa) = 0.03130396
#
# Stress axis : x y z
#
# Youngs Moduli (GPa) = 101.59736 58.96515 44.78347
#
# Poissons Ratio (x) = 0.14737 0.33825
# Poissons Ratio (y) = 0.25392 -0.05099
# Poissons Ratio (z) = 0.76737 -0.06713
#
# Static dielectric constant tensor:
#      x y z
#    x 2.008970 0.004330 -0.016410 
#    y 0.004330 1.939700 0.013240 
#    z -0.016410 0.013240 2.015310 
# 
# From -- ./inp_files/176626.got.cif
#   From: 2010.05.17/outbox.cif.g08.bks.cpg/sg2_89_cif.got.tgz:176626.got - 2010.06.03 11:33:40.
