data_PCOD9094337
_publ_section_title
;
Structure prediction by ZEFSAII (Michael W. Deem and Ramdas Pophale) SiO2 
 PCOD9094337
Probable space group: P -1
;
_chemical_formula_sum "Si O2"
_cell_formula_units_Z 16
_cell_length_a 7.789041
_cell_length_b 15.044018
_cell_length_c 13.887333
_cell_angle_alpha 59.633264
_cell_angle_beta 115.855535
_cell_angle_gamma 67.391416
_cell_volume 792.132154
_symmetry_space_group_name_H-M "P -1"
_symmetry_group_IT_number 2
_symmetry_cell_setting 'triclinic'
loop_
_space_group_symop_operation_xyz
x,y,z
-x,-y,-z
loop_
_atom_site_type_symbol
_atom_site_label
_atom_site_fract_x
_atom_site_fract_y
_atom_site_fract_z
Si Si1 0.406157 0.678681 0.967998
Si Si2 0.700748 0.998562 0.203714
Si Si3 0.117783 0.593344 0.898069
Si Si4 0.422563 0.168323 0.229097
Si Si5 0.438871 0.891094 0.221939
Si Si6 0.251492 0.850164 0.023343
Si Si7 0.125654 0.949317 0.443414
Si Si8 0.382773 0.149102 0.510659
O O1 0.334060 0.588134 0.999573
O O2 0.682653 0.574094 0.017838
O O3 0.426284 0.705750 0.068546
O O4 0.119617 0.861845 0.754699
O O5 0.441589 0.156748 0.124408
O O6 0.580149 0.935938 0.187453
O O7 0.775129 0.032020 0.108752
O O8 0.989228 0.897029 0.402114
O O9 0.878017 0.666145 0.882271
O O10 0.924341 0.728625 0.691345
O O11 0.713811 0.102467 0.385221
O O12 0.469105 0.027197 0.347357
O O13 0.423938 0.806659 0.187077
O O14 0.639641 0.794840 0.419340
O O15 0.086512 0.048955 0.087398
O O16 0.407065 0.861958 0.491310
#
# Coordination Sequence:
#
# PCOD9094337 Si02
#       8
#     2   2   2   2   2   2   2   2
#     4  10  17  30  48  76 106 131 166 208 243 304
#     4  10  19  29  51  78 103 125 171 208 249 296
#     4  10  18  28  51  76 105 135 164 199 258 299
#     4  10  17  29  48  76 103 134 162 204 251 303
#     4  10  19  33  55  74 101 132 169 210 259 283
#     4  10  20  35  50  76 104 132 166 215 247 297
#     4  10  16  30  47  74 108 126 163 208 249 293
#     4  10  16  31  51  76  99 133 169 206 247 299
#
# _framework density 20.198650000000001
#
# number of rings (size 3 to 8) (size 9 to 14) (size 15 to 20)
#    0.000    2.000    5.000    2.250    0.000    0.000 
#    0.000    3.125    0.000    0.000    0.000    3.500 
#    0.000    0.250    0.000    0.000    0.000    0.000 
#
# Total GULP energy -89115.457644 kJ/mol
# GULP energy per Si atom -5569.716103 kJ/mol
# Density = 2.015268 g / cm^3
# Si number density = 20.198650 Si / 1000 Ang^3
#
#
#
# Elastic Constant Matrix: (Units=GPa)
#
#
# Indices 1 2 3 4 5 6 
#
# 1 70.7988 13.7922 5.5370 1.0311 19.6332 11.9365
# 2 13.7922 120.3463 22.1818 17.8989 14.5916 1.5163
# 3 5.5370 22.1818 20.0266 5.3738 9.1133 -2.7195
# 4 1.0311 17.8989 5.3738 32.5554 -4.4467 6.0852
# 5 19.6332 14.5916 9.1133 -4.4467 26.1906 4.8840
# 6 11.9365 1.5163 -2.7195 6.0852 4.8840 29.0654
#
#
#
# Elastic Compliance Matrix: (Units=1/GPa)
#
#
# Indices 1 2 3 4 5 6 
#
# 1 0.018730 -0.000445 0.001184 -0.001460 -0.013524 -0.004980
# 2 -0.000445 0.011287 -0.009203 -0.005269 -0.003733 0.000463
# 3 0.001184 -0.009203 0.078803 -0.014731 -0.028525 0.015244
# 4 -0.001460 -0.005269 -0.014731 0.040870 0.018360 -0.012145
# 5 -0.013524 -0.003733 -0.028525 0.018360 0.065642 -0.011794
# 6 -0.004980 0.000463 0.015244 -0.012145 -0.011794 0.042377
#
#
# Mechanical properties :
#
#
# Convention : Reuss Voigt Hill
#
# Bulk Modulus (GPa) = 10.88226 32.68820 21.78523
# Shear Modulus (GPa) = 16.37912 28.87298 22.62605
#
# Velocity S-wave (km/s) = 2.85072 3.78491 3.35053
# Velocity P-wave (km/s) = 4.02924 5.94300 5.07711
#
# Compressibility (1/GPa) = 0.09189267
#
# Stress axis : x y z
#
# Youngs Moduli (GPa) = 53.39111 88.59661 12.68982
#
# Poissons Ratio (x) = 0.03944 -0.01503
# Poissons Ratio (y) = 0.02377 0.11679
# Poissons Ratio (z) = -0.06324 0.81536
#
# Static dielectric constant tensor:
#      x y z
#    x 1.846670 -0.028810 -0.003100 
#    y -0.028810 1.793730 0.005230 
#    z -0.003100 0.005230 1.727530 
# 
# From -- ./inp_files/196912.got.cif
#   From: 2010.05.17/outbox.cif.g08.bks.cpg/sg2_99_cif.got.tgz:196912.got - 2010.06.03 11:33:40.
