data_PCOD9094834
_publ_section_title
;
Structure prediction by ZEFSAII (Michael W. Deem and Ramdas Pophale) SiO2 
 PCOD9094834
Probable space group: P -1
;
_chemical_formula_sum "Si O2"
_cell_formula_units_Z 16
_cell_length_a 15.273197
_cell_length_b 11.330949
_cell_length_c 7.933939
_cell_angle_alpha 59.847057
_cell_angle_beta 99.237466
_cell_angle_gamma 139.262790
_cell_volume 713.435987
_symmetry_space_group_name_H-M "P -1"
_symmetry_group_IT_number 2
_symmetry_cell_setting 'triclinic'
loop_
_space_group_symop_operation_xyz
x,y,z
-x,-y,-z
loop_
_atom_site_type_symbol
_atom_site_label
_atom_site_fract_x
_atom_site_fract_y
_atom_site_fract_z
Si Si1 0.458520 0.103801 0.865966
Si Si2 0.569762 0.943764 0.510651
Si Si3 0.147809 0.104136 0.835693
Si Si4 0.868459 0.224211 0.969581
Si Si5 0.077291 0.019127 0.351554
Si Si6 0.351276 0.401182 0.358605
Si Si7 0.103904 0.734717 0.642573
Si Si8 0.570347 0.498387 0.169374
O O1 0.444719 0.089851 0.670323
O O2 0.574828 0.360899 0.770329
O O3 0.299488 0.948208 0.000735
O O4 0.500000 0.000000 0.000000
O O5 0.472311 0.707714 0.731073
O O6 0.500000 0.000000 0.500000
O O7 0.739483 0.126340 0.474407
O O8 0.251383 0.239371 0.602848
O O9 0.262476 0.279934 0.890041
O O10 0.013979 0.039360 0.794384
O O11 0.096204 0.885774 0.997381
O O12 0.884179 0.243481 0.164867
O O13 0.976844 0.471198 0.755190
O O14 0.071729 0.848392 0.487703
O O15 0.243419 0.265304 0.261550
O O16 0.000000 0.000000 0.500000
O O17 0.474086 0.436700 0.342477
O O18 0.500000 0.500000 0.000000
#
# Coordination Sequence:
#
# PCOD9094834 Si02
#       8
#     2   2   2   2   2   2   2   2
#     4  11  24  37  68 106 134 171 230 290 340 403
#     4  11  25  45  66  95 139 186 227 279 344 405
#     4  11  21  40  68  99 127 170 223 281 334 403
#     4  10  20  34  62 100 135 163 217 285 337 395
#     4  10  20  34  67  99 129 167 212 280 343 393
#     4  11  20  41  70  97 129 170 228 280 337 392
#     4  10  20  38  60  98 138 172 214 276 348 401
#     4  12  25  43  68  94 134 180 226 282 332 400
#
# _framework density 22.426677999999999
#
# number of rings (size 3 to 8) (size 9 to 14) (size 15 to 20)
#    0.000    1.250    6.250    1.125    5.250    1.000 
#    0.000    0.625    0.000    2.250    0.000    0.000 
#    0.000    0.000    0.000    0.000    0.000    0.000 
#
# Total GULP energy -89517.488565 kJ/mol
# GULP energy per Si atom -5594.843035 kJ/mol
# Density = 2.237563 g / cm^3
# Si number density = 22.426678 Si / 1000 Ang^3
#
#
#
# Elastic Constant Matrix: (Units=GPa)
#
#
# Indices 1 2 3 4 5 6 
#
# 1 172.5929 68.9468 63.1805 -30.9265 40.2039 12.9628
# 2 68.9468 157.7771 81.2592 -34.0920 24.3843 20.5995
# 3 63.1805 81.2592 86.7251 -18.1069 38.7644 -4.8961
# 4 -30.9265 -34.0920 -18.1069 52.5894 -11.7780 12.1717
# 5 40.2039 24.3843 38.7644 -11.7780 53.4661 -5.1913
# 6 12.9628 20.5995 -4.8961 12.1717 -5.1913 40.4271
#
#
#
# Elastic Compliance Matrix: (Units=1/GPa)
#
#
# Indices 1 2 3 4 5 6 
#
# 1 0.009665 0.001680 -0.006675 0.005442 -0.002650 -0.006742
# 2 0.001680 0.020546 -0.021612 0.012041 0.006089 -0.016469
# 3 -0.006675 -0.021612 0.042880 -0.011490 -0.016836 0.019643
# 4 0.005442 0.012041 -0.011490 0.031126 0.003841 -0.018150
# 5 -0.002650 0.006089 -0.016836 0.003841 0.030827 -0.001490
# 6 -0.006742 -0.016469 0.019643 -0.018150 -0.001490 0.042942
#
#
# Mechanical properties :
#
#
# Convention : Reuss Voigt Hill
#
# Bulk Modulus (GPa) = 50.31387 93.76310 72.03848
# Shear Modulus (GPa) = 21.02378 42.87711 31.95044
#
# Velocity S-wave (km/s) = 3.06509 4.37725 3.77856
# Velocity P-wave (km/s) = 5.91692 8.21259 7.15739
#
# Compressibility (1/GPa) = 0.01987524
#
# Stress axis : x y z
#
# Youngs Moduli (GPa) = 103.46331 48.67229 23.32112
#
# Poissons Ratio (x) = -0.08177 0.15568
# Poissons Ratio (y) = -0.17383 0.50402
# Poissons Ratio (z) = 0.69067 1.05192
#
# Static dielectric constant tensor:
#      x y z
#    x 1.754540 -0.001270 -0.026800 
#    y -0.001270 1.830670 0.035640 
#    z -0.026800 0.035640 1.817320 
# 
# From -- ./inp_files/306538.got.cif
#   From: 2010.05.17/outbox.cif.g08.bks.cpg/sg2_154_cif.got.tgz:306538.got - 2010.06.03 11:33:40.
