data_PCOD9094698
_publ_section_title
;
Structure prediction by ZEFSAII (Michael W. Deem and Ramdas Pophale) SiO2 
 PCOD9094698
Probable space group: P -1
;
_chemical_formula_sum "Si O2"
_cell_formula_units_Z 14
_cell_length_a 10.841234
_cell_length_b 19.727935
_cell_length_c 9.394448
_cell_angle_alpha 127.641857
_cell_angle_beta 139.809729
_cell_angle_gamma 35.055402
_cell_volume 744.157787
_symmetry_space_group_name_H-M "P -1"
_symmetry_group_IT_number 2
_symmetry_cell_setting 'triclinic'
loop_
_space_group_symop_operation_xyz
x,y,z
-x,-y,-z
loop_
_atom_site_type_symbol
_atom_site_label
_atom_site_fract_x
_atom_site_fract_y
_atom_site_fract_z
Si Si1 0.757168 0.971736 0.730352
Si Si2 0.268227 0.329328 0.127942
Si Si3 0.298573 0.827441 0.924538
Si Si4 0.913319 0.398815 0.397619
Si Si5 0.789128 0.255879 0.009010
Si Si6 0.792742 0.447124 0.671402
Si Si7 0.630605 0.669895 0.464242
O O1 0.921095 0.870994 0.867659
O O2 0.500000 0.000000 0.500000
O O3 0.687168 0.087586 0.870579
O O4 0.984431 0.909287 0.728908
O O5 0.231932 0.442839 0.223630
O O6 0.329833 0.297876 0.307600
O O7 0.514030 0.229494 0.117447
O O8 0.002289 0.367572 0.881042
O O9 0.372924 0.729566 0.976960
O O10 0.794121 0.356190 0.151397
O O11 0.909042 0.378571 0.535450
O O12 0.752601 0.536323 0.410857
O O13 0.201453 0.329736 0.502683
O O14 0.660619 0.255632 0.755976
O O15 0.500000 0.500000 0.500000
#
# Coordination Sequence:
#
# PCOD9094698 Si02
#       7
#     2   2   2   2   2   2   2
#     4   9  21  36  60  89 104 136 197 244 282 327
#     4  10  21  36  54  81 115 149 181 233 282 326
#     4   9  20  37  61  83 106 140 192 241 280 324
#     4  10  21  35  56  80 116 155 187 224 268 338
#     4  10  20  34  60  82 107 148 186 232 281 326
#     4  10  21  34  55  83 112 147 194 228 271 329
#     4  10  22  36  52  83 121 152 186 219 276 349
#
# _framework density 18.813215
#
# number of rings (size 3 to 8) (size 9 to 14) (size 15 to 20)
#    0.857    1.429    0.000    2.143    4.000    6.857 
#    0.000    0.714    0.000    1.714    0.000    0.000 
#    0.000    0.000    0.000    0.000    0.000    0.000 
#
# Total GULP energy -78002.097241 kJ/mol
# GULP energy per Si atom -5571.578374 kJ/mol
# Density = 1.877040 g / cm^3
# Si number density = 18.813215 Si / 1000 Ang^3
#
#
#
# Elastic Constant Matrix: (Units=GPa)
#
#
# Indices 1 2 3 4 5 6 
#
# 1 70.7007 21.4535 64.9542 -3.9116 10.5623 -14.0951
# 2 21.4535 41.6614 33.8595 -6.7842 2.7646 -17.5664
# 3 64.9542 33.8595 163.0133 -30.4465 12.5914 -24.5313
# 4 -3.9116 -6.7842 -30.4465 23.9806 -2.1613 5.2823
# 5 10.5623 2.7646 12.5914 -2.1613 28.1243 -0.6268
# 6 -14.0951 -17.5664 -24.5313 5.2823 -0.6268 21.9169
#
#
#
# Elastic Compliance Matrix: (Units=1/GPa)
#
#
# Indices 1 2 3 4 5 6 
#
# 1 0.026432 -0.004848 -0.010790 -0.012087 -0.005464 0.003793
# 2 -0.004848 0.039267 -0.001919 0.002188 -0.000440 0.025667
# 3 -0.010790 -0.001919 0.014264 0.014870 -0.000916 0.003878
# 4 -0.012087 0.002188 0.014870 0.060273 0.002213 -0.003839
# 5 -0.005464 -0.000440 -0.000916 0.002213 0.038135 -0.004334
# 6 0.003793 0.025667 0.003878 -0.003839 -0.004334 0.073780
#
#
# Mechanical properties :
#
#
# Convention : Reuss Voigt Hill
#
# Bulk Modulus (GPa) = 22.29721 57.32330 39.81025
# Shear Modulus (GPa) = 16.54451 25.14490 20.84470
#
# Velocity S-wave (km/s) = 2.96870 3.65986 3.33225
# Velocity P-wave (km/s) = 4.86092 6.95667 6.00099
#
# Compressibility (1/GPa) = 0.04484866
#
# Stress axis : x y z
#
# Youngs Moduli (GPa) = 37.83351 25.46650 70.10602
#
# Poissons Ratio (x) = 0.12347 0.75641
# Poissons Ratio (y) = 0.18343 0.13455
# Poissons Ratio (z) = 0.40821 0.04888
#
# Static dielectric constant tensor:
#      x y z
#    x 1.668160 0.008820 -0.004010 
#    y 0.008820 1.655300 -0.022970 
#    z -0.004010 -0.022970 1.668070 
# 
# From -- ./inp_files/284978.got.cif
#   From: 2010.05.17/outbox.cif.g08.bks.cpg/sg2_143_cif.got.tgz:284978.got - 2010.06.03 11:33:40.
