data_PCOD9094688
_publ_section_title
;
Structure prediction by ZEFSAII (Michael W. Deem and Ramdas Pophale) SiO2 
 PCOD9094688
Probable space group: P -1
;
_chemical_formula_sum "Si O2"
_cell_formula_units_Z 14
_cell_length_a 17.587993
_cell_length_b 11.822630
_cell_length_c 7.864345
_cell_angle_alpha 52.725175
_cell_angle_beta 59.104021
_cell_angle_gamma 26.751496
_cell_volume 584.017132
_symmetry_space_group_name_H-M "P -1"
_symmetry_group_IT_number 2
_symmetry_cell_setting 'triclinic'
loop_
_space_group_symop_operation_xyz
x,y,z
-x,-y,-z
loop_
_atom_site_type_symbol
_atom_site_label
_atom_site_fract_x
_atom_site_fract_y
_atom_site_fract_z
Si Si1 0.903894 0.211273 0.723126
Si Si2 0.751596 0.965083 0.956022
Si Si3 0.345440 0.794720 0.493197
Si Si4 0.965423 0.251140 0.985022
Si Si5 0.398489 0.527517 0.978491
Si Si6 0.232244 0.220959 0.362569
Si Si7 0.113525 0.464371 0.635569
O O1 0.881422 0.376201 0.478797
O O2 0.970183 0.196367 0.833086
O O3 0.727983 0.385113 0.835335
O O4 0.020131 0.923123 0.785601
O O5 0.772246 0.016188 0.707312
O O6 0.552529 0.229389 0.987600
O O7 0.866225 0.893904 0.023936
O O8 0.829081 0.702960 0.115426
O O9 0.500000 0.500000 0.500000
O O10 0.304254 0.747494 0.739970
O O11 0.376411 0.912737 0.421390
O O12 0.809014 0.575694 0.874954
O O13 0.500000 0.500000 0.000000
O O14 0.237366 0.255031 0.524479
O O15 0.065391 0.350922 0.398789
#
# Coordination Sequence:
#
# PCOD9094688 Si02
#       7
#     2   2   2   2   2   2   2
#     4  10  20  34  59  98 116 144 196 252 294 333
#     4  10  20  39  57  86 119 159 195 231 295 355
#     4  10  23  37  59  85 118 161 199 232 284 361
#     4   9  19  34  60  87 120 145 192 247 288 339
#     4  11  21  36  63  85 114 157 198 245 286 345
#     4   9  18  35  60  87 115 154 197 242 286 342
#     4   9  19  33  63  91 114 145 195 251 292 336
#
# _framework density 23.971899000000001
#
# number of rings (size 3 to 8) (size 9 to 14) (size 15 to 20)
#    0.000    2.286    1.429    1.714    8.000    2.857 
#    0.000    0.714    6.286    7.714    0.000    0.000 
#    0.000    0.000    0.000    0.000    0.000    0.000 
#
# Total GULP energy -78073.459019 kJ/mol
# GULP energy per Si atom -5576.675644 kJ/mol
# Density = 2.391734 g / cm^3
# Si number density = 23.971899 Si / 1000 Ang^3
#
#
#
# Elastic Constant Matrix: (Units=GPa)
#
#
# Indices 1 2 3 4 5 6 
#
# 1 65.6422 27.2257 42.5194 -4.9759 -19.4357 2.9353
# 2 27.2257 97.1248 44.6935 -10.2099 -17.6769 24.9097
# 3 42.5194 44.6935 162.9831 -43.5408 -33.9381 -6.8410
# 4 -4.9759 -10.2099 -43.5408 35.4375 16.2392 -12.3577
# 5 -19.4357 -17.6769 -33.9381 16.2392 39.9102 -14.8658
# 6 2.9353 24.9097 -6.8410 -12.3577 -14.8658 34.1725
#
#
#
# Elastic Compliance Matrix: (Units=1/GPa)
#
#
# Indices 1 2 3 4 5 6 
#
# 1 0.021676 -0.002920 -0.005421 -0.008180 0.007846 -0.000364
# 2 -0.002920 0.019051 -0.009560 -0.012351 -0.004229 -0.021856
# 3 -0.005421 -0.009560 0.019741 0.025225 0.008697 0.024292
# 4 -0.008180 -0.012351 0.025225 0.068771 -0.001464 0.038988
# 5 0.007846 -0.004229 0.008697 -0.001464 0.043372 0.022488
# 6 -0.000364 -0.021856 0.024292 0.038988 0.022488 0.073971
#
#
# Mechanical properties :
#
#
# Convention : Reuss Voigt Hill
#
# Bulk Modulus (GPa) = 40.54258 61.62527 51.08393
# Shear Modulus (GPa) = 17.20540 35.99148 26.59844
#
# Velocity S-wave (km/s) = 2.68196 3.87900 3.33463
# Velocity P-wave (km/s) = 5.15168 6.76944 6.01519
#
# Compressibility (1/GPa) = 0.02466542
#
# Stress axis : x y z
#
# Youngs Moduli (GPa) = 46.13413 52.48993 50.65659
#
# Poissons Ratio (x) = 0.15329 0.27461
# Poissons Ratio (y) = 0.13473 0.48428
# Poissons Ratio (z) = 0.25009 0.50180
#
# Static dielectric constant tensor:
#      x y z
#    x 1.897750 0.034540 -0.000760 
#    y 0.034540 2.065440 -0.055280 
#    z -0.000760 -0.055280 2.050590 
# 
# From -- ./inp_files/226485.got.cif
#   From: 2010.05.17/outbox.cif.g08.bks.cpg/sg2_114_cif.got.tgz:226485.got - 2010.06.03 11:33:40.
