data_PCOD9094265
_publ_section_title
;
Structure prediction by ZEFSAII (Michael W. Deem and Ramdas Pophale) SiO2 
 PCOD9094265
Probable space group: P -1
;
_chemical_formula_sum "Si O2"
_cell_formula_units_Z 16
_cell_length_a 10.808562
_cell_length_b 17.565881
_cell_length_c 9.199785
_cell_angle_alpha 109.386618
_cell_angle_beta 71.614248
_cell_angle_gamma 50.551405
_cell_volume 879.552964
_symmetry_space_group_name_H-M "P -1"
_symmetry_group_IT_number 2
_symmetry_cell_setting 'triclinic'
loop_
_space_group_symop_operation_xyz
x,y,z
-x,-y,-z
loop_
_atom_site_type_symbol
_atom_site_label
_atom_site_fract_x
_atom_site_fract_y
_atom_site_fract_z
Si Si1 0.075122 0.328760 0.752953
Si Si2 0.615910 0.836911 0.713807
Si Si3 0.892782 0.657168 0.926990
Si Si4 0.845565 0.827751 0.864251
Si Si5 0.301630 0.398035 0.120564
Si Si6 0.581068 0.531697 0.086992
Si Si7 0.645244 0.358255 0.444555
Si Si8 0.373145 0.362820 0.405741
O O1 0.296553 0.183954 0.493862
O O2 0.125788 0.346657 0.896221
O O3 0.950106 0.448248 0.752835
O O4 0.859929 0.381133 0.905661
O O5 0.794100 0.789447 0.729641
O O6 0.603183 0.746123 0.668108
O O7 0.366152 0.001877 0.945808
O O8 0.846368 0.772666 0.973698
O O9 0.147442 0.506349 0.672597
O O10 0.704059 0.695091 0.947437
O O11 0.090377 0.747588 0.710814
O O12 0.458899 0.366210 0.928042
O O13 0.334706 0.406462 0.279051
O O14 0.457860 0.595810 0.326672
O O15 0.500000 0.500000 0.000000
O O16 0.500000 0.500000 0.500000
O O17 0.589887 0.301726 0.350111
#
# Coordination Sequence:
#
# PCOD9094265 Si02
#       8
#     2   2   2   2   2   2   2   2
#     4  10  21  34  60  93 118 150 203 259 309 353
#     4  11  24  41  64  87 128 168 206 249 308 374
#     4  12  20  37  63  93 119 153 213 261 302 358
#     4  11  25  43  60  92 125 169 207 247 308 376
#     4  10  21  32  60  93 118 154 202 257 305 352
#     4  10  20  34  55  91 126 154 191 260 310 361
#     4  12  23  37  64  95 125 159 205 259 306 367
#     4  12  20  37  64  92 121 160 206 260 304 362
#
# _framework density 18.19106
#
# number of rings (size 3 to 8) (size 9 to 14) (size 15 to 20)
#    0.750    0.250    5.000    3.000    1.750    1.000 
#    0.000    0.000    0.000    0.750    0.000    0.000 
#    0.000    0.000    0.000    0.000    0.000    0.000 
#
# Total GULP energy -89152.600929 kJ/mol
# GULP energy per Si atom -5572.037558 kJ/mol
# Density = 1.814966 g / cm^3
# Si number density = 18.191060 Si / 1000 Ang^3
#
#
#
# Elastic Constant Matrix: (Units=GPa)
#
#
# Indices 1 2 3 4 5 6 
#
# 1 146.1168 39.9717 51.0404 -9.2852 -5.4924 -11.2096
# 2 39.9717 62.2453 45.6307 -8.9183 2.4288 0.2946
# 3 51.0404 45.6307 100.6343 -25.8333 -1.2844 -12.2577
# 4 -9.2852 -8.9183 -25.8333 27.2501 -3.6581 3.1402
# 5 -5.4924 2.4288 -1.2844 -3.6581 34.0641 -6.2875
# 6 -11.2096 0.2946 -12.2577 3.1402 -6.2875 30.0403
#
#
#
# Elastic Compliance Matrix: (Units=1/GPa)
#
#
# Indices 1 2 3 4 5 6 
#
# 1 0.009140 -0.004225 -0.002514 -0.000703 0.002149 0.002950
# 2 -0.004225 0.027444 -0.012272 -0.003888 -0.004898 -0.007472
# 3 -0.002514 -0.012272 0.021678 0.015412 0.004292 0.007315
# 4 -0.000703 -0.003888 0.015412 0.050427 0.006560 0.002166
# 5 0.002149 -0.004898 0.004292 0.006560 0.032529 0.008724
# 6 0.002950 -0.007472 0.007315 0.002166 0.008724 0.039047
#
#
# Mechanical properties :
#
#
# Convention : Reuss Voigt Hill
#
# Bulk Modulus (GPa) = 49.40335 64.69799 57.05067
# Shear Modulus (GPa) = 22.21886 29.76114 25.99000
#
# Velocity S-wave (km/s) = 3.49867 4.04918 3.78395
# Velocity P-wave (km/s) = 6.59833 7.58315 7.10781
#
# Compressibility (1/GPa) = 0.02024154
#
# Stress axis : x y z
#
# Youngs Moduli (GPa) = 109.40711 36.43723 46.12911
#
# Poissons Ratio (x) = 0.15396 0.11595
# Poissons Ratio (y) = 0.46229 0.56609
# Poissons Ratio (z) = 0.27500 0.44715
#
# Static dielectric constant tensor:
#      x y z
#    x 1.670020 -0.000500 0.011640 
#    y -0.000500 1.672970 -0.012390 
#    z 0.011640 -0.012390 1.639190 
# 
# From -- ./inp_files/277972.got.cif
#   From: 2010.05.17/outbox.cif.g08.bks.cpg/sg2_139_cif.got.tgz:277972.got - 2010.06.03 11:33:40.
