data_PCOD9094420
_publ_section_title
;
Structure prediction by ZEFSAII (Michael W. Deem and Ramdas Pophale) SiO2 
 PCOD9094420
Probable space group: P -1
;
_chemical_formula_sum "Si O2"
_cell_formula_units_Z 16
_cell_length_a 6.230389
_cell_length_b 17.261313
_cell_length_c 15.529416
_cell_angle_alpha 141.021788
_cell_angle_beta 83.578661
_cell_angle_gamma 115.363974
_cell_volume 874.459920
_symmetry_space_group_name_H-M "P -1"
_symmetry_group_IT_number 2
_symmetry_cell_setting 'triclinic'
loop_
_space_group_symop_operation_xyz
x,y,z
-x,-y,-z
loop_
_atom_site_type_symbol
_atom_site_label
_atom_site_fract_x
_atom_site_fract_y
_atom_site_fract_z
Si Si1 0.575599 0.887434 0.932925
Si Si2 0.759921 0.881464 0.351452
Si Si3 0.263570 0.964282 0.683280
Si Si4 0.759551 0.541810 0.903635
Si Si5 0.268824 0.740336 0.365190
Si Si6 0.080868 0.051300 0.172818
Si Si7 0.231049 0.828639 0.043928
Si Si8 0.213184 0.398574 0.857628
O O1 0.670042 0.840529 0.804426
O O2 0.343942 0.784915 0.920265
O O3 0.500000 0.000000 0.000000
O O4 0.831061 0.972712 0.054067
O O5 0.767996 0.944662 0.312109
O O6 0.503616 0.843280 0.379598
O O7 0.759697 0.733634 0.223930
O O8 0.000000 0.000000 0.500000
O O9 0.527332 0.074107 0.818535
O O10 0.277666 0.836522 0.526670
O O11 0.016510 0.896531 0.698732
O O12 0.714579 0.398826 0.733843
O O13 0.480574 0.519427 0.904299
O O14 0.827618 0.538482 0.998427
O O15 0.991562 0.688577 0.978802
O O16 0.009788 0.672687 0.263331
O O17 0.135700 0.931751 0.103418
#
# Coordination Sequence:
#
# PCOD9094420 Si02
#       8
#     2   2   2   2   2   2   2   2
#     4   8  16  33  54  85 112 134 166 222 275 318
#     4  11  22  34  53  76 106 142 186 230 268 308
#     4  11  22  32  55  83 106 143 182 229 273 318
#     4  10  22  35  52  74 106 147 185 222 262 326
#     4  11  23  36  51  74 110 145 182 228 271 313
#     4   9  18  32  55  83 112 135 171 221 274 322
#     4  10  20  34  57  83 109 139 182 221 269 325
#     4  10  21  37  52  71 104 148 189 227 270 310
#
# _framework density 18.297008000000002
#
# number of rings (size 3 to 8) (size 9 to 14) (size 15 to 20)
#    0.000    2.000    1.250    2.250    3.500    4.000 
#    0.000    0.000    0.000    0.750    0.000   30.625 
#    0.000    0.000    0.000    0.000    0.000    0.000 
#
# Total GULP energy -89186.754650 kJ/mol
# GULP energy per Si atom -5574.172166 kJ/mol
# Density = 1.825536 g / cm^3
# Si number density = 18.297008 Si / 1000 Ang^3
#
#
#
# Elastic Constant Matrix: (Units=GPa)
#
#
# Indices 1 2 3 4 5 6 
#
# 1 77.4364 42.3299 19.0817 -8.3785 17.7990 10.9119
# 2 42.3299 101.8059 42.6348 -16.4812 4.9022 37.8685
# 3 19.0817 42.6348 65.3624 -6.3271 -4.0772 20.6664
# 4 -8.3785 -16.4812 -6.3271 23.9900 8.8310 -1.7705
# 5 17.7990 4.9022 -4.0772 8.8310 37.8822 -5.5029
# 6 10.9119 37.8685 20.6664 -1.7705 -5.5029 39.3787
#
#
#
# Elastic Compliance Matrix: (Units=1/GPa)
#
#
# Indices 1 2 3 4 5 6 
#
# 1 0.019550 -0.005953 -0.001936 0.005913 -0.009973 0.000196
# 2 -0.005953 0.025419 -0.007866 0.014674 -0.007528 -0.019059
# 3 -0.001936 -0.007866 0.021988 -0.002101 0.004359 -0.002925
# 4 0.005913 0.014674 -0.002101 0.059920 -0.021035 -0.014893
# 5 -0.009973 -0.007528 0.004359 -0.021035 0.039210 0.012249
# 6 0.000196 -0.019059 -0.002925 -0.014893 0.012249 0.046245
#
#
# Mechanical properties :
#
#
# Convention : Reuss Voigt Hill
#
# Bulk Modulus (GPa) = 28.21011 50.29971 39.25491
# Shear Modulus (GPa) = 19.55733 29.62074 24.58904
#
# Velocity S-wave (km/s) = 3.27292 4.02790 3.66988
# Velocity P-wave (km/s) = 5.45289 7.01301 6.28158
#
# Compressibility (1/GPa) = 0.03544828
#
# Stress axis : x y z
#
# Youngs Moduli (GPa) = 51.15157 39.34001 45.47867
#
# Poissons Ratio (x) = 0.23420 0.08803
# Poissons Ratio (y) = 0.30452 0.35772
# Poissons Ratio (z) = 0.09902 0.30943
#
# Static dielectric constant tensor:
#      x y z
#    x 1.668130 0.020800 -0.025900 
#    y 0.020800 1.647380 -0.028420 
#    z -0.025900 -0.028420 1.626150 
# 
# From -- ./inp_files/44235.got.cif
#   From: 2010.05.17/outbox.cif.g08.bks.cpg/sg2_23_cif.got.tgz:44235.got - 2010.06.03 11:33:40.
