data_PCOD9094960
_publ_section_title
;
Structure prediction by ZEFSAII (Michael W. Deem and Ramdas Pophale) SiO2 
 PCOD9094960
Probable space group: P -1
;
_chemical_formula_sum "Si O2"
_cell_formula_units_Z 14
_cell_length_a 18.475679
_cell_length_b 8.620975
_cell_length_c 20.586879
_cell_angle_alpha 25.998679
_cell_angle_beta 157.767746
_cell_angle_gamma 148.214817
_cell_volume 540.618240
_symmetry_space_group_name_H-M "P -1"
_symmetry_group_IT_number 2
_symmetry_cell_setting 'triclinic'
loop_
_space_group_symop_operation_xyz
x,y,z
-x,-y,-z
loop_
_atom_site_type_symbol
_atom_site_label
_atom_site_fract_x
_atom_site_fract_y
_atom_site_fract_z
Si Si1 0.577617 0.916301 0.898613
Si Si2 0.659192 0.745175 0.777155
Si Si3 0.007461 0.027781 0.279424
Si Si4 0.093102 0.805985 0.738752
Si Si5 0.741925 0.203708 0.793365
Si Si6 0.087983 0.138386 0.177626
Si Si7 0.703477 0.730503 0.374782
O O1 0.598553 0.088595 0.777978
O O2 0.422024 0.110525 0.734296
O O3 0.500000 0.500000 0.000000
O O4 0.786444 0.988550 0.081098
O O5 0.675831 0.073951 0.716631
O O6 0.733442 0.782080 0.750877
O O7 0.440711 0.581618 0.656589
O O8 0.799420 0.474043 0.025886
O O9 0.111763 0.899589 0.349945
O O10 0.972032 0.911840 0.367795
O O11 0.919088 0.992817 0.043764
O O12 0.904174 0.650818 0.601668
O O13 0.241271 0.986166 0.742329
O O14 0.844448 0.607156 0.721969
O O15 0.000000 0.500000 0.000000
#
# Coordination Sequence:
#
# PCOD9094960 Si02
#       7
#     2   2   2   2   2   2   2
#     4  11  22  40  65  94 121 164 217 250 306 376
#     4  12  20  38  70  88 126 165 203 257 309 366
#     4  10  20  40  64  89 132 164 202 257 313 365
#     4  11  23  38  65  89 129 165 208 248 326 353
#     4  10  20  34  66  96 123 163 208 250 312 369
#     4   9  16  32  58  90 116 157 205 242 297 370
#     4  11  24  41  61  94 126 161 213 261 294 385
#
# _framework density 25.896277999999999
#
# number of rings (size 3 to 8) (size 9 to 14) (size 15 to 20)
#    0.000    1.429    4.286    4.714    2.000    0.000 
#    0.000    4.286    6.286    0.000    0.000    0.000 
#    0.000    0.000    0.000    0.000    0.000    0.000 
#
# Total GULP energy -78097.589266 kJ/mol
# GULP energy per Si atom -5578.399233 kJ/mol
# Density = 2.583734 g / cm^3
# Si number density = 25.896278 Si / 1000 Ang^3
#
#
#
# Elastic Constant Matrix: (Units=GPa)
#
#
# Indices 1 2 3 4 5 6 
#
# 1 151.3687 61.1303 28.0840 12.5361 24.5589 36.2223
# 2 61.1303 142.9955 57.6908 28.2047 12.2896 10.7750
# 3 28.0840 57.6908 88.1244 18.0344 6.0310 6.4288
# 4 12.5361 28.2047 18.0344 43.0478 8.0842 -5.6517
# 5 24.5589 12.2896 6.0310 8.0842 33.5845 15.5640
# 6 36.2223 10.7750 6.4288 -5.6517 15.5640 41.0587
#
#
#
# Elastic Compliance Matrix: (Units=1/GPa)
#
#
# Indices 1 2 3 4 5 6 
#
# 1 0.010243 -0.003305 -0.000134 -0.001248 -0.002548 -0.007353
# 2 -0.003305 0.011481 -0.005621 -0.004221 0.000179 0.000134
# 3 -0.000134 -0.005621 0.015803 -0.003283 0.000879 -0.001666
# 4 -0.001248 -0.004221 -0.003283 0.030841 -0.009227 0.010466
# 5 -0.002548 0.000179 0.000879 -0.009227 0.040359 -0.014506
# 6 -0.007353 0.000134 -0.001666 0.010466 -0.014506 0.038007
#
#
# Mechanical properties :
#
#
# Convention : Reuss Voigt Hill
#
# Bulk Modulus (GPa) = 51.53040 75.14432 63.33736
# Shear Modulus (GPa) = 29.18449 39.24377 34.21413
#
# Velocity S-wave (km/s) = 3.36069 3.89706 3.63877
# Velocity P-wave (km/s) = 5.91616 7.02352 6.49349
#
# Compressibility (1/GPa) = 0.01940602
#
# Stress axis : x y z
#
# Youngs Moduli (GPa) = 97.63166 87.10008 63.27811
#
# Poissons Ratio (x) = 0.28790 0.00849
# Poissons Ratio (y) = 0.32271 0.35568
# Poissons Ratio (z) = 0.01309 0.48959
#
# Static dielectric constant tensor:
#      x y z
#    x 2.114060 0.009120 -0.026540 
#    y 0.009120 2.174210 -0.120670 
#    z -0.026540 -0.120670 2.093110 
# 
# From -- ./inp_files/599717.got.cif
#   From: 2010.05.17/outbox.cif.g08.bks.cpg/sg2_300_cif.got.tgz:599717.got - 2010.06.03 11:33:40.
