data_PCOD9094280
_publ_section_title
;
Structure prediction by ZEFSAII (Michael W. Deem and Ramdas Pophale) SiO2 
 PCOD9094280
Probable space group: P -1
;
_chemical_formula_sum "Si O2"
_cell_formula_units_Z 16
_cell_length_a 13.627569
_cell_length_b 7.978312
_cell_length_c 15.140530
_cell_angle_alpha 97.954390
_cell_angle_beta 137.210482
_cell_angle_gamma 116.745478
_cell_volume 634.096517
_symmetry_space_group_name_H-M "P -1"
_symmetry_group_IT_number 2
_symmetry_cell_setting 'triclinic'
loop_
_space_group_symop_operation_xyz
x,y,z
-x,-y,-z
loop_
_atom_site_type_symbol
_atom_site_label
_atom_site_fract_x
_atom_site_fract_y
_atom_site_fract_z
Si Si1 0.412681 0.104743 0.068322
Si Si2 0.402102 0.342634 0.713067
Si Si3 0.613516 0.176303 0.374062
Si Si4 0.962336 0.550217 0.208260
Si Si5 0.477812 0.288462 0.934514
Si Si6 0.168125 0.279182 0.192245
Si Si7 0.176816 0.512929 0.067263
Si Si8 0.289156 0.350490 0.464766
O O1 0.475526 0.357579 0.158263
O O2 0.615589 0.195994 0.269993
O O3 0.404768 0.105571 0.957011
O O4 0.163377 0.757598 0.900817
O O5 0.309404 0.154357 0.725222
O O6 0.628872 0.446189 0.833415
O O7 0.209463 0.192862 0.494279
O O8 0.639045 0.387682 0.446449
O O9 0.817042 0.252883 0.560983
O O10 0.346489 0.842340 0.200082
O O11 0.742075 0.463030 0.089879
O O12 0.026762 0.672191 0.159918
O O13 0.500000 0.500000 0.000000
O O14 0.120393 0.412499 0.123533
O O15 0.112405 0.189341 0.251170
O O16 0.460565 0.510614 0.388520
O O17 0.000000 0.000000 0.000000
#
# Coordination Sequence:
#
# PCOD9094280 Si02
#       8
#     2   2   2   2   2   2   2   2
#     4   9  18  34  55  80 112 143 182 231 269 313
#     4   8  16  34  56  75 106 147 177 216 274 315
#     4  10  21  36  54  80 113 145 181 220 270 328
#     4  10  20  34  56  79 108 151 182 219 277 324
#     4   9  17  33  56  81 111 145 184 230 269 312
#     4  10  21  38  61  83 106 140 181 223 272 327
#     4   9  20  36  53  79 111 140 179 228 267 318
#     4   9  20  37  56  81 111 141 178 227 270 317
#
# _framework density 25.232752000000001
#
# number of rings (size 3 to 8) (size 9 to 14) (size 15 to 20)
#    0.000    2.750    0.000    0.375    0.000    8.000 
#    0.000   10.000    0.000   13.500    0.000    0.000 
#    0.000    0.000    0.000    0.000    0.000    0.000 
#
# Total GULP energy -89271.385966 kJ/mol
# GULP energy per Si atom -5579.461623 kJ/mol
# Density = 2.517532 g / cm^3
# Si number density = 25.232752 Si / 1000 Ang^3
#
#
#
# Elastic Constant Matrix: (Units=GPa)
#
#
# Indices 1 2 3 4 5 6 
#
# 1 75.5456 43.4093 28.4248 -31.8722 -12.6667 1.1136
# 2 43.4093 132.4083 80.3198 -54.2340 -27.9811 13.5678
# 3 28.4248 80.3198 145.2932 -62.4888 -40.5010 32.8694
# 4 -31.8722 -54.2340 -62.4888 57.3552 14.6903 -23.0814
# 5 -12.6667 -27.9811 -40.5010 14.6903 44.6662 -24.8467
# 6 1.1136 13.5678 32.8694 -23.0814 -24.8467 42.8645
#
#
#
# Elastic Compliance Matrix: (Units=1/GPa)
#
#
# Indices 1 2 3 4 5 6 
#
# 1 0.021156 -0.001737 0.004053 0.016679 0.009399 0.011321
# 2 -0.001737 0.015377 -0.002946 0.011713 0.006936 0.007765
# 3 0.004053 -0.002946 0.017350 0.016714 0.011224 0.003029
# 4 0.016679 0.011713 0.016714 0.062079 0.023567 0.030131
# 5 0.009399 0.006936 0.011224 0.023567 0.048320 0.029653
# 6 0.011321 0.007765 0.003029 0.030131 0.029653 0.051668
#
#
# Mechanical properties :
#
#
# Convention : Reuss Voigt Hill
#
# Bulk Modulus (GPa) = 19.00297 73.06166 46.03232
# Shear Modulus (GPa) = 21.29923 42.38340 31.84132
#
# Velocity S-wave (km/s) = 2.90851 4.10286 3.55618
# Velocity P-wave (km/s) = 4.33897 7.17374 5.92829
#
# Compressibility (1/GPa) = 0.05262335
#
# Stress axis : x y z
#
# Youngs Moduli (GPa) = 47.26888 65.03326 57.63577
#
# Poissons Ratio (x) = 0.11296 -0.23363
# Poissons Ratio (y) = 0.08210 0.16981
# Poissons Ratio (z) = -0.19160 0.19160
#
# Static dielectric constant tensor:
#      x y z
#    x 2.054490 0.018490 -0.043880 
#    y 0.018490 2.127190 -0.081380 
#    z -0.043880 -0.081380 1.998730 
# 
# From -- ./inp_files/507062.got.cif
#   From: 2010.05.17/outbox.cif.g08.bks.cpg/sg2_254_cif.got.tgz:507062.got - 2010.06.03 11:33:40.
