data_PCOD9094174
_publ_section_title
;
Structure prediction by ZEFSAII (Michael W. Deem and Ramdas Pophale) SiO2 
 PCOD9094174
Probable space group: P -1
;
_chemical_formula_sum "Si O2"
_cell_formula_units_Z 14
_cell_length_a 11.109882
_cell_length_b 10.943495
_cell_length_c 10.124476
_cell_angle_alpha 108.022948
_cell_angle_beta 153.366208
_cell_angle_gamma 74.488889
_cell_volume 524.618311
_symmetry_space_group_name_H-M "P -1"
_symmetry_group_IT_number 2
_symmetry_cell_setting 'triclinic'
loop_
_space_group_symop_operation_xyz
x,y,z
-x,-y,-z
loop_
_atom_site_type_symbol
_atom_site_label
_atom_site_fract_x
_atom_site_fract_y
_atom_site_fract_z
Si Si1 0.378377 0.312482 0.708033
Si Si2 0.812733 0.488157 0.682213
Si Si3 0.136420 0.835327 0.856819
Si Si4 0.465855 0.279861 0.412457
Si Si5 0.191922 0.457267 0.795126
Si Si6 0.244211 0.906730 0.700744
Si Si7 0.931810 0.122516 0.770164
O O1 0.707059 0.187572 0.663287
O O2 0.321624 0.329721 0.818097
O O3 0.082401 0.271970 0.353620
O O4 0.562402 0.440711 0.908158
O O5 0.591095 0.379158 0.461339
O O6 0.655735 0.622400 0.566688
O O7 0.003073 0.451535 0.735636
O O8 0.000000 0.500000 0.000000
O O9 0.191524 0.821441 0.748664
O O10 0.433119 0.804970 0.185825
O O11 0.012802 0.973726 0.814092
O O12 0.212174 0.199211 0.082795
O O13 0.000000 0.500000 0.500000
O O14 0.213161 0.856077 0.505900
O O15 0.000000 0.000000 0.500000
O O16 0.500000 0.000000 0.000000
#
# Coordination Sequence:
#
# PCOD9094174 Si02
#       7
#     2   2   2   2   2   2   2
#     4  11  24  43  68 101 136 189 230 293 352 423
#     4  11  26  48  73 107 141 188 242 304 359 423
#     4  11  22  39  62  97 141 183 230 286 351 427
#     4  11  24  43  69 103 139 190 234 297 361 426
#     4  11  26  48  72 105 139 185 243 299 357 421
#     4  10  20  34  54  92 140 185 224 281 343 413
#     4  11  22  39  64  99 143 187 233 289 355 435
#
# _framework density 26.686067999999999
#
# number of rings (size 3 to 8) (size 9 to 14) (size 15 to 20)
#    0.000    1.143    2.857    4.286    2.000    6.857 
#    0.000    0.000    0.000    5.143    0.000    0.000 
#    0.000    0.000    0.000    0.000    0.000    0.000 
#
# Total GULP energy -78326.680086 kJ/mol
# GULP energy per Si atom -5594.762863 kJ/mol
# Density = 2.662533 g / cm^3
# Si number density = 26.686068 Si / 1000 Ang^3
#
#
#
# Elastic Constant Matrix: (Units=GPa)
#
#
# Indices 1 2 3 4 5 6 
#
# 1 205.9125 40.8979 53.2726 9.4715 22.3971 -18.9701
# 2 40.8979 142.6356 31.0641 3.9088 18.3386 -50.8690
# 3 53.2726 31.0641 189.2035 15.5276 47.9663 -7.5300
# 4 9.4715 3.9088 15.5276 53.4071 -0.8282 14.8179
# 5 22.3971 18.3386 47.9663 -0.8282 54.2654 -3.4977
# 6 -18.9701 -50.8690 -7.5300 14.8179 -3.4977 49.6217
#
#
#
# Elastic Compliance Matrix: (Units=1/GPa)
#
#
# Indices 1 2 3 4 5 6 
#
# 1 0.005563 -0.000646 -0.001036 -0.001086 -0.001078 0.001555
# 2 -0.000646 0.012739 -0.000201 -0.004681 -0.003032 0.013965
# 3 -0.001036 -0.000201 0.007339 -0.002239 -0.005977 0.000759
# 4 -0.001086 -0.004681 -0.002239 0.023373 0.003574 -0.012281
# 5 -0.001078 -0.003032 -0.005977 0.003574 0.024995 -0.003733
# 6 0.001555 0.013965 0.000759 -0.012281 -0.003733 0.038583
#
#
# Mechanical properties :
#
#
# Convention : Reuss Voigt Hill
#
# Bulk Modulus (GPa) = 45.71468 87.58011 66.64740
# Shear Modulus (GPa) = 40.43671 58.95998 49.69835
#
# Velocity S-wave (km/s) = 3.89688 4.70552 4.32016
# Velocity P-wave (km/s) = 6.11680 7.90015 7.06497
#
# Compressibility (1/GPa) = 0.02187481
#
# Stress axis : x y z
#
# Youngs Moduli (GPa) = 179.74678 78.50163 136.25526
#
# Poissons Ratio (x) = 0.05075 0.14114
# Poissons Ratio (y) = 0.11620 0.02737
# Poissons Ratio (z) = 0.18619 0.01577
#
# Static dielectric constant tensor:
#      x y z
#    x 2.368160 0.025320 -0.257390 
#    y 0.025320 2.184900 -0.032180 
#    z -0.257390 -0.032180 2.194280 
# 
# From -- ./inp_files/40006.got.cif
#   From: 2010.05.17/outbox.cif.g08.bks.cpg/sg2_21_cif.got.tgz:40006.got - 2010.06.03 11:33:40.
