data_PCOD9094516
_publ_section_title
;
Structure prediction by ZEFSAII (Michael W. Deem and Ramdas Pophale) SiO2 
 PCOD9094516
Probable space group: P -1
;
_chemical_formula_sum "Si O2"
_cell_formula_units_Z 11
_cell_length_a 12.151884
_cell_length_b 8.643904
_cell_length_c 10.039232
_cell_angle_alpha 67.806492
_cell_angle_beta 145.186939
_cell_angle_gamma 88.026880
_cell_volume 422.731518
_symmetry_space_group_name_H-M "P -1"
_symmetry_group_IT_number 2
_symmetry_cell_setting 'triclinic'
loop_
_space_group_symop_operation_xyz
x,y,z
-x,-y,-z
loop_
_atom_site_type_symbol
_atom_site_label
_atom_site_fract_x
_atom_site_fract_y
_atom_site_fract_z
Si Si1 0.606048 0.049000 0.258895
Si Si2 0.844441 0.333740 0.117447
Si Si3 0.000000 0.500000 0.000000
Si Si4 0.787104 0.476867 0.297796
Si Si5 0.761449 0.945500 0.740713
Si Si6 0.198955 0.992493 0.952930
O O1 0.851785 0.852573 0.485821
O O2 0.718160 0.036445 0.519137
O O3 0.454664 0.285632 0.965269
O O4 0.424727 0.993433 0.132390
O O5 0.836175 0.476361 0.948320
O O6 0.714496 0.467732 0.078420
O O7 0.768129 0.196824 0.031955
O O8 0.033464 0.317750 0.990731
O O9 0.000000 0.500000 0.500000
O O10 0.934296 0.238004 0.582719
O O11 0.500000 0.000000 0.500000
O O12 0.799860 0.038556 0.876826
#
# Coordination Sequence:
#
# PCOD9094516 Si02
#       6
#     2   2   1   2   2   2
#     4   9  21  39  60  84 118 158 190 237 295 344
#     4  11  22  39  60  87 120 153 197 242 290 347
#     4  10  20  34  58  82 112 154 188 234 288 334
#     4  10  21  40  62  86 120 156 191 241 295 348
#     4   9  18  38  57  82 117 150 192 237 284 340
#     4  10  21  38  62  88 119 153 194 244 288 346
#
# _framework density 26.021242000000001
#
# number of rings (size 3 to 8) (size 9 to 14) (size 15 to 20)
#    0.000    2.182    0.000    3.818    0.000    6.545 
#    0.000   25.455    0.000    0.000    0.000    0.000 
#    0.000    0.000    0.000    0.000    0.000    0.000 
#
# Total GULP energy -61289.757330 kJ/mol
# GULP energy per Si atom -5571.796121 kJ/mol
# Density = 2.596202 g / cm^3
# Si number density = 26.021242 Si / 1000 Ang^3
#
#
#
# Elastic Constant Matrix: (Units=GPa)
#
#
# Indices 1 2 3 4 5 6 
#
# 1 62.6419 33.2078 7.6193 11.8652 -2.6740 20.0860
# 2 33.2078 179.4627 30.2032 15.5064 -10.2395 10.9145
# 3 7.6193 30.2032 31.8400 4.1155 5.5448 -3.1937
# 4 11.8652 15.5064 4.1155 39.1564 -9.0768 4.2785
# 5 -2.6740 -10.2395 5.5448 -9.0768 32.5874 -0.4208
# 6 20.0860 10.9145 -3.1937 4.2785 -0.4208 48.6333
#
#
#
# Elastic Compliance Matrix: (Units=1/GPa)
#
#
# Indices 1 2 3 4 5 6 
#
# 1 0.021001 -0.002550 -0.002893 -0.004148 0.000157 -0.007925
# 2 -0.002550 0.007540 -0.007120 -0.000614 0.003187 -0.001025
# 3 -0.002893 -0.007120 0.041758 -0.003771 -0.010556 0.005775
# 4 -0.004148 -0.000614 -0.003771 0.029460 0.008302 -0.000917
# 5 0.000157 0.003187 -0.010556 0.008302 0.035785 -0.001894
# 6 -0.007925 -0.001025 0.005775 -0.000917 -0.001894 0.024509
#
#
# Mechanical properties :
#
#
# Convention : Reuss Voigt Hill
#
# Bulk Modulus (GPa) = 22.13718 46.22281 34.18000
# Shear Modulus (GPa) = 24.97059 37.60303 31.28681
#
# Velocity S-wave (km/s) = 3.10114 3.80556 3.47126
# Velocity P-wave (km/s) = 4.62045 6.09194 5.40649
#
# Compressibility (1/GPa) = 0.04517287
#
# Stress axis : x y z
#
# Youngs Moduli (GPa) = 47.61727 132.63359 23.94727
#
# Poissons Ratio (x) = 0.33820 0.06928
# Poissons Ratio (y) = 0.12142 0.17051
# Poissons Ratio (z) = 0.13775 0.94439
#
# Static dielectric constant tensor:
#      x y z
#    x 2.050400 0.027680 0.014380 
#    y 0.027680 1.973020 0.006250 
#    z 0.014380 0.006250 2.146830 
# 
# From -- ./inp_files/160927.got.cif
#   From: 2010.05.17/outbox.cif.g08.bks.cpg/sg2_81_cif.got.tgz:160927.got - 2010.06.03 11:33:40.
