data_PCOD9094050
_publ_section_title
;
Structure prediction by ZEFSAII (Michael W. Deem and Ramdas Pophale) SiO2 
 PCOD9094050
Probable space group: P -1
;
_chemical_formula_sum "Si O2"
_cell_formula_units_Z 16
_cell_length_a 8.558458
_cell_length_b 14.546610
_cell_length_c 5.269725
_cell_angle_alpha 103.448651
_cell_angle_beta 73.973722
_cell_angle_gamma 105.218963
_cell_volume 599.315990
_symmetry_space_group_name_H-M "P -1"
_symmetry_group_IT_number 2
_symmetry_cell_setting 'triclinic'
loop_
_space_group_symop_operation_xyz
x,y,z
-x,-y,-z
loop_
_atom_site_type_symbol
_atom_site_label
_atom_site_fract_x
_atom_site_fract_y
_atom_site_fract_z
Si Si1 0.417726 0.349061 0.777682
Si Si2 0.593091 0.810376 0.725518
Si Si3 0.307147 0.696777 0.994305
Si Si4 0.014448 0.583819 0.255903
Si Si5 0.286304 0.528591 0.486598
Si Si6 0.145761 0.213830 0.061597
Si Si7 0.389452 0.992537 0.299769
Si Si8 0.029814 0.888448 0.421420
O O1 0.379512 0.281560 0.503752
O O2 0.529512 0.454260 0.709558
O O3 0.563654 0.312057 0.845021
O O4 0.245162 0.323992 0.000610
O O5 0.396451 0.787697 0.849063
O O6 0.691018 0.824918 0.954756
O O7 0.665134 0.905224 0.604024
O O8 0.308758 0.604356 0.755291
O O9 0.117480 0.682665 0.154898
O O10 0.826089 0.572656 0.429545
O O11 0.148081 0.561252 0.386728
O O12 0.000000 0.500000 0.000000
O O13 0.036827 0.178122 0.342183
O O14 0.049085 0.161959 0.833024
O O15 0.500000 0.000000 0.500000
O O16 0.230165 0.906862 0.334494
O O17 0.500000 0.000000 0.000000
O O18 0.000000 0.000000 0.500000
#
# Coordination Sequence:
#
# PCOD9094050 Si02
#       8
#     2   2   2   2   2   2   2   2
#     4   9  16  28  45  74  98 133 175 218 260 311
#     4  10  20  34  53  75 104 136 181 223 269 326
#     4   8  15  23  42  62  95 132 181 209 254 310
#     4   8  12  20  33  56  91 137 177 203 247 311
#     4   8  13  21  34  60  96 134 172 207 255 306
#     4  11  20  33  57  79  99 129 181 221 256 312
#     4  12  28  42  57  80 111 140 175 228 287 325
#     4  12  23  38  61  79 102 136 179 224 269 327
#
# _framework density 26.697099999999999
#
# number of rings (size 3 to 8) (size 9 to 14) (size 15 to 20)
#    0.000    2.250    2.500    1.125    5.250    0.000 
#    0.000    0.000    0.000    0.000    0.000    0.000 
#    0.000    0.000    0.000    6.750    4.750    8.625 
#
# Total GULP energy -89243.960403 kJ/mol
# GULP energy per Si atom -5577.747525 kJ/mol
# Density = 2.663634 g / cm^3
# Si number density = 26.697100 Si / 1000 Ang^3
#
#
#
# Elastic Constant Matrix: (Units=GPa)
#
#
# Indices 1 2 3 4 5 6 
#
# 1 75.2713 74.7658 62.8751 7.2901 5.2577 28.3913
# 2 74.7658 212.5072 91.9477 -52.9497 -16.9431 77.7625
# 3 62.8751 91.9477 187.2655 -10.7359 3.0624 35.8456
# 4 7.2901 -52.9497 -10.7359 58.8982 20.9848 -12.9790
# 5 5.2577 -16.9431 3.0624 20.9848 50.2650 -5.3862
# 6 28.3913 77.7625 35.8456 -12.9790 -5.3862 63.4707
#
#
#
# Elastic Compliance Matrix: (Units=1/GPa)
#
#
# Indices 1 2 3 4 5 6 
#
# 1 0.033134 -0.014664 -0.005415 -0.017531 -0.000484 0.002577
# 2 -0.014664 0.018951 -0.001014 0.015838 -0.000005 -0.012848
# 3 -0.005415 -0.001014 0.007858 0.001384 -0.000893 -0.000566
# 4 -0.017531 0.015838 0.001384 0.035303 -0.008275 -0.005827
# 5 -0.000484 -0.000005 -0.000893 -0.008275 0.023563 0.001034
# 6 0.002577 -0.012848 -0.000566 -0.005827 0.001034 0.029559
#
#
# Mechanical properties :
#
#
# Convention : Reuss Voigt Hill
#
# Bulk Modulus (GPa) = 56.31742 103.80234 80.05988
# Shear Modulus (GPa) = 25.44854 50.89046 38.16950
#
# Velocity S-wave (km/s) = 3.09080 4.37076 3.78527
# Velocity P-wave (km/s) = 5.82049 8.02729 7.01126
#
# Compressibility (1/GPa) = 0.01775650
#
# Stress axis : x y z
#
# Youngs Moduli (GPa) = 30.18046 52.76765 127.25207
#
# Poissons Ratio (x) = 0.77380 0.68910
# Poissons Ratio (y) = 0.44257 0.12904
# Poissons Ratio (z) = 0.16343 0.05351
#
# Static dielectric constant tensor:
#      x y z
#    x 2.157930 -0.073460 -0.027740 
#    y -0.073460 2.144510 -0.184580 
#    z -0.027740 -0.184580 2.196290 
# 
# From -- ./inp_files/54499.got.cif
#   From: 2010.05.17/outbox.cif.g08.bks.cpg/sg2_28_cif.got.tgz:54499.got - 2010.06.03 11:33:40.
