data_PCOD9094996
_publ_section_title
;
Structure prediction by ZEFSAII (Michael W. Deem and Ramdas Pophale) SiO2 
 PCOD9094996
Probable space group: P -1
;
_chemical_formula_sum "Si O2"
_cell_formula_units_Z 14
_cell_length_a 12.624160
_cell_length_b 15.699017
_cell_length_c 15.161315
_cell_angle_alpha 161.512552
_cell_angle_beta 127.873963
_cell_angle_gamma 50.308746
_cell_volume 732.762611
_symmetry_space_group_name_H-M "P -1"
_symmetry_group_IT_number 2
_symmetry_cell_setting 'triclinic'
loop_
_space_group_symop_operation_xyz
x,y,z
-x,-y,-z
loop_
_atom_site_type_symbol
_atom_site_label
_atom_site_fract_x
_atom_site_fract_y
_atom_site_fract_z
Si Si1 0.618319 0.272705 0.511181
Si Si2 0.073980 0.709281 0.291473
Si Si3 0.550863 0.149095 0.980506
Si Si4 0.063086 0.711090 0.854722
Si Si5 0.890911 0.511535 0.714218
Si Si6 0.294578 0.882676 0.791088
Si Si7 0.817797 0.834091 0.707824
O O1 0.763160 0.315597 0.662771
O O2 0.498370 0.523480 0.728295
O O3 0.631728 0.263925 0.402605
O O4 0.578331 0.988464 0.235652
O O5 0.060999 0.655454 0.336196
O O6 0.000000 0.000000 0.500000
O O7 0.000000 0.500000 0.000000
O O8 0.606335 0.091131 0.052057
O O9 0.673038 0.000441 0.833524
O O10 0.171242 0.467699 0.622148
O O11 0.012997 0.592362 0.801218
O O12 0.925888 0.788930 0.800188
O O13 0.124760 0.979977 0.151865
O O14 0.808856 0.312757 0.424954
O O15 0.788348 0.808540 0.973133
#
# Coordination Sequence:
#
# PCOD9094996 Si02
#       7
#     2   2   2   2   2   2   2
#     4  11  23  36  55  81 113 149 190 224 279 345
#     4  11  23  42  61  83 107 138 190 248 289 329
#     4  12  21  35  53  83 119 159 182 214 273 331
#     4  10  20  35  51  80 113 154 192 224 263 315
#     4  11  21  36  59  83 113 150 189 231 282 330
#     4  11  21  34  52  83 119 155 183 217 264 344
#     4  10  21  32  53  78 117 156 189 221 255 320
#
# _framework density 19.105778999999998
#
# number of rings (size 3 to 8) (size 9 to 14) (size 15 to 20)
#    0.000    1.143    1.429    7.714    4.000    0.000 
#    0.000    0.000    0.000    0.000    0.000   20.000 
#    0.000    0.000    0.000    0.000    0.000    0.000 
#
# Total GULP energy -78204.771580 kJ/mol
# GULP energy per Si atom -5586.055113 kJ/mol
# Density = 1.906229 g / cm^3
# Si number density = 19.105779 Si / 1000 Ang^3
#
#
#
# Elastic Constant Matrix: (Units=GPa)
#
#
# Indices 1 2 3 4 5 6 
#
# 1 72.0346 20.5565 17.0677 4.0219 -1.0724 -10.2226
# 2 20.5565 70.6163 29.2517 8.3227 1.9999 -4.1756
# 3 17.0677 29.2517 102.1407 7.3493 11.6085 -4.2040
# 4 4.0219 8.3227 7.3493 34.8970 -6.6994 5.6870
# 5 -1.0724 1.9999 11.6085 -6.6994 33.6312 8.9424
# 6 -10.2226 -4.1756 -4.2040 5.6870 8.9424 16.9671
#
#
#
# Elastic Compliance Matrix: (Units=1/GPa)
#
#
# Indices 1 2 3 4 5 6 
#
# 1 0.016856 -0.003402 -0.000798 -0.003409 -0.002783 0.011730
# 2 -0.003402 0.017428 -0.003850 -0.003771 -0.001448 0.003312
# 3 -0.000798 -0.003850 0.012304 -0.003861 -0.006498 0.006339
# 4 -0.003409 -0.003771 -0.003861 0.037796 0.015576 -0.024816
# 5 -0.002783 -0.001448 -0.006498 0.015576 0.043535 -0.031809
# 6 0.011730 0.003312 0.006339 -0.024816 -0.031809 0.093473
#
#
# Mechanical properties :
#
#
# Convention : Reuss Voigt Hill
#
# Bulk Modulus (GPa) = 32.80152 42.06039 37.43096
# Shear Modulus (GPa) = 20.18949 28.96012 24.57480
#
# Velocity S-wave (km/s) = 3.25425 3.89752 3.59032
# Velocity P-wave (km/s) = 5.59695 6.50512 6.06805
#
# Compressibility (1/GPa) = 0.03048639
#
# Stress axis : x y z
#
# Youngs Moduli (GPa) = 59.32742 57.38021 81.27613
#
# Poissons Ratio (x) = 0.19521 0.06486
# Poissons Ratio (y) = 0.20183 0.31294
# Poissons Ratio (z) = 0.04734 0.22093
#
# Static dielectric constant tensor:
#      x y z
#    x 1.703860 -0.006410 0.003110 
#    y -0.006410 1.651640 -0.011640 
#    z 0.003110 -0.011640 1.675790 
# 
# From -- ./inp_files/432950.got.cif
#   From: 2010.05.17/outbox.cif.g08.bks.cpg/sg2_217_cif.got.tgz:432950.got - 2010.06.03 11:33:40.
