data_PCOD9094824
_publ_section_title
;
Structure prediction by ZEFSAII (Michael W. Deem and Ramdas Pophale) SiO2 
 PCOD9094824
Probable space group: P -1
;
_chemical_formula_sum "Si O2"
_cell_formula_units_Z 16
_cell_length_a 9.299008
_cell_length_b 11.139482
_cell_length_c 9.444128
_cell_angle_alpha 53.083605
_cell_angle_beta 61.295723
_cell_angle_gamma 87.315994
_cell_volume 644.009364
_symmetry_space_group_name_H-M "P -1"
_symmetry_group_IT_number 2
_symmetry_cell_setting 'triclinic'
loop_
_space_group_symop_operation_xyz
x,y,z
-x,-y,-z
loop_
_atom_site_type_symbol
_atom_site_label
_atom_site_fract_x
_atom_site_fract_y
_atom_site_fract_z
Si Si1 0.800011 0.752750 0.781631
Si Si2 0.788961 0.270092 0.757205
Si Si3 0.588075 0.714841 0.431122
Si Si4 0.857837 0.424940 0.922256
Si Si5 0.228329 0.488403 0.654513
Si Si6 0.482663 0.201131 0.296020
Si Si7 0.897788 0.041961 0.706514
Si Si8 0.529917 0.012344 0.781820
O O1 0.840217 0.592550 0.852598
O O2 0.602812 0.722407 0.843078
O O3 0.926133 0.876851 0.521551
O O4 0.844474 0.850136 0.840933
O O5 0.844031 0.380843 0.791823
O O6 0.789796 0.383600 0.543803
O O7 0.903463 0.153374 0.761750
O O8 0.595174 0.144324 0.968930
O O9 0.401249 0.571255 0.607334
O O10 0.733977 0.651560 0.348753
O O11 0.615158 0.778284 0.532237
O O12 0.561355 0.856752 0.253101
O O13 0.050348 0.431581 0.866401
O O14 0.687750 0.291162 0.159330
O O15 0.463372 0.032587 0.353921
O O16 0.729095 0.066910 0.695148
#
# Coordination Sequence:
#
# PCOD9094824 Si02
#       8
#     2   2   2   2   2   2   2   2
#     4  10  20  37  59  94 124 158 207 255 309 362
#     4  11  21  38  67  92 121 160 203 263 307 358
#     4  11  23  41  61  89 125 170 203 247 307 374
#     4  11  22  40  63  93 125 161 208 258 309 362
#     4  11  24  39  64  92 125 163 206 253 309 367
#     4  10  23  38  63  88 124 165 205 251 306 370
#     4  10  20  34  61  93 124 156 202 259 308 358
#     4  10  21  41  64  90 125 160 207 252 312 362
#
# _framework density 24.844360000000002
#
# number of rings (size 3 to 8) (size 9 to 14) (size 15 to 20)
#    0.000    1.500    2.500    2.250    1.750    2.500 
#    2.250    2.500    5.500    0.000    0.000    0.000 
#    0.000    0.000    0.000    0.000    0.000    0.000 
#
# Total GULP energy -89408.680621 kJ/mol
# GULP energy per Si atom -5588.042539 kJ/mol
# Density = 2.478781 g / cm^3
# Si number density = 24.844360 Si / 1000 Ang^3
#
#
#
# Elastic Constant Matrix: (Units=GPa)
#
#
# Indices 1 2 3 4 5 6 
#
# 1 61.8525 29.6569 35.8943 -7.0272 -19.8716 -10.3305
# 2 29.6569 215.9892 26.4118 -8.9337 7.7729 -19.0383
# 3 35.8943 26.4118 57.1133 2.9733 -18.9272 -3.8628
# 4 -7.0272 -8.9337 2.9733 41.0726 2.0067 -1.6093
# 5 -19.8716 7.7729 -18.9272 2.0067 31.7240 15.2445
# 6 -10.3305 -19.0383 -3.8628 -1.6093 15.2445 44.2154
#
#
#
# Elastic Compliance Matrix: (Units=1/GPa)
#
#
# Indices 1 2 3 4 5 6 
#
# 1 0.029583 -0.002229 -0.014682 0.005258 0.009168 0.001700
# 2 -0.002229 0.006093 -0.003613 0.001730 -0.007244 0.004347
# 3 -0.014682 -0.003613 0.033480 -0.006799 0.015825 -0.007765
# 4 0.005258 0.001730 -0.006799 0.026505 -0.004782 0.003993
# 5 0.009168 -0.007244 0.015825 -0.004782 0.058337 -0.019882
# 6 0.001700 0.004347 -0.007765 0.003993 -0.019882 0.031207
#
#
# Mechanical properties :
#
#
# Convention : Reuss Voigt Hill
#
# Bulk Modulus (GPa) = 35.57718 57.65342 46.61530
# Shear Modulus (GPa) = 21.22014 39.60188 30.41101
#
# Velocity S-wave (km/s) = 2.92571 3.99682 3.50245
# Velocity P-wave (km/s) = 5.07584 6.67500 5.92958
#
# Compressibility (1/GPa) = 0.02810790
#
# Stress axis : x y z
#
# Youngs Moduli (GPa) = 33.80278 164.11672 29.86821
#
# Poissons Ratio (x) = 0.36586 0.43853
# Poissons Ratio (y) = 0.07536 0.10792
# Poissons Ratio (z) = 0.49629 0.59300
#
# Static dielectric constant tensor:
#      x y z
#    x 1.978220 0.071170 0.024560 
#    y 0.071170 2.056290 0.019350 
#    z 0.024560 0.019350 1.970320 
# 
# From -- ./inp_files/392024.got.cif
#   From: 2010.05.17/outbox.cif.g08.bks.cpg/sg2_197_cif.got.tgz:392024.got - 2010.06.03 11:33:40.
