data_PCOD9094507
_publ_section_title
;
Structure prediction by ZEFSAII (Michael W. Deem and Ramdas Pophale) SiO2 
 PCOD9094507
Probable space group: P -1
;
_chemical_formula_sum "Si O2"
_cell_formula_units_Z 12
_cell_length_a 12.102781
_cell_length_b 5.506828
_cell_length_c 7.539309
_cell_angle_alpha 90.933943
_cell_angle_beta 100.390744
_cell_angle_gamma 119.921394
_cell_volume 425.021173
_symmetry_space_group_name_H-M "P -1"
_symmetry_group_IT_number 2
_symmetry_cell_setting 'triclinic'
loop_
_space_group_symop_operation_xyz
x,y,z
-x,-y,-z
loop_
_atom_site_type_symbol
_atom_site_label
_atom_site_fract_x
_atom_site_fract_y
_atom_site_fract_z
Si Si1 0.589535 0.490892 0.803350
Si Si2 0.140187 0.228032 0.268675
Si Si3 0.652321 0.992213 0.445877
Si Si4 0.106592 0.873667 0.689191
Si Si5 0.084175 0.345881 0.873903
Si Si6 0.456980 0.058443 0.195815
O O1 0.706114 0.623354 0.695583
O O2 0.453653 0.319782 0.657450
O O3 0.585821 0.741115 0.904459
O O4 0.593405 0.245152 0.912282
O O5 0.049012 0.249363 0.393862
O O6 0.111705 0.365166 0.089970
O O7 0.067912 0.896387 0.196926
O O8 0.621264 0.021962 0.638963
O O9 0.795790 0.060261 0.442973
O O10 0.603422 0.165064 0.310003
O O11 0.116787 0.637724 0.801493
O O12 0.146836 0.166420 0.806887
#
# Coordination Sequence:
#
# PCOD9094507 Si02
#       6
#     2   2   2   2   2   2
#     4  10  20  34  58  77 104 140 177 211 260 311
#     4   9  21  36  57  77 106 139 176 213 262 309
#     4   9  21  36  57  77 106 139 176 213 262 309
#     4  10  20  34  58  77 104 140 177 211 260 311
#     4   9  21  34  57  75 109 139 172 211 267 308
#     4   9  21  34  57  75 109 139 172 211 267 308
#
# _framework density 28.233889999999999
#
# number of rings (size 3 to 8) (size 9 to 14) (size 15 to 20)
#    2.000    0.667    0.000    1.000    4.667    0.000 
#    0.000    3.333    0.000    0.000    0.000    0.000 
#    0.000    0.000    0.000    0.000    0.000    0.000 
#
# Total GULP energy -67064.641101 kJ/mol
# GULP energy per Si atom -5588.720092 kJ/mol
# Density = 2.816963 g / cm^3
# Si number density = 28.233890 Si / 1000 Ang^3
#
#
#
# Elastic Constant Matrix: (Units=GPa)
#
#
# Indices 1 2 3 4 5 6 
#
# 1 207.8413 48.5276 28.0959 13.7651 -12.4671 -3.4869
# 2 48.5276 154.2958 17.4903 -20.4523 9.6492 -39.1949
# 3 28.0959 17.4903 84.6737 -9.0371 0.7980 -2.2566
# 4 13.7651 -20.4523 -9.0371 28.8931 -8.4101 5.9116
# 5 -12.4671 9.6492 0.7980 -8.4101 38.5388 -3.0333
# 6 -3.4869 -39.1949 -2.2566 5.9116 -3.0333 53.2251
#
#
#
# Elastic Compliance Matrix: (Units=1/GPa)
#
#
# Indices 1 2 3 4 5 6 
#
# 1 0.006105 -0.002687 -0.002023 -0.004773 0.001565 -0.001045
# 2 -0.002687 0.009911 -0.000280 0.006501 -0.001430 0.006307
# 3 -0.002023 -0.000280 0.013060 0.004977 0.000206 -0.000326
# 4 -0.004773 0.006501 0.004977 0.044931 0.006536 0.000068
# 5 0.001565 -0.001430 0.000206 0.006536 0.028230 -0.000059
# 6 -0.001045 0.006307 -0.000326 0.000068 -0.000059 0.023339
#
#
# Mechanical properties :
#
#
# Convention : Reuss Voigt Hill
#
# Bulk Modulus (GPa) = 52.36712 70.55982 61.46347
# Shear Modulus (GPa) = 35.23093 47.64453 41.43773
#
# Velocity S-wave (km/s) = 3.53629 4.11237 3.83516
# Velocity P-wave (km/s) = 5.93815 6.89886 6.43645
#
# Compressibility (1/GPa) = 0.01909595
#
# Stress axis : x y z
#
# Youngs Moduli (GPa) = 163.81091 100.89600 76.57198
#
# Poissons Ratio (x) = 0.27108 0.15488
# Poissons Ratio (y) = 0.44012 0.02146
# Poissons Ratio (z) = 0.33133 0.02828
#
# Static dielectric constant tensor:
#      x y z
#    x 2.264720 -0.031000 -0.011050 
#    y -0.031000 2.254750 -0.066540 
#    z -0.011050 -0.066540 2.192570 
# 
# From -- ./inp_files/408367.got.cif
#   From: 2010.05.17/outbox.cif.g08.bks.cpg/sg2_205_cif.got.tgz:408367.got - 2010.06.03 11:33:40.
