data_PCOD9094870
_publ_section_title
;
Structure prediction by ZEFSAII (Michael W. Deem and Ramdas Pophale) SiO2 
 PCOD9094870
Probable space group: P -1
;
_chemical_formula_sum "Si O2"
_cell_formula_units_Z 14
_cell_length_a 7.554743
_cell_length_b 10.084356
_cell_length_c 13.926810
_cell_angle_alpha 122.409259
_cell_angle_beta 139.383432
_cell_angle_gamma 61.468797
_cell_volume 578.268411
_symmetry_space_group_name_H-M "P -1"
_symmetry_group_IT_number 2
_symmetry_cell_setting 'triclinic'
loop_
_space_group_symop_operation_xyz
x,y,z
-x,-y,-z
loop_
_atom_site_type_symbol
_atom_site_label
_atom_site_fract_x
_atom_site_fract_y
_atom_site_fract_z
Si Si1 0.880867 0.787857 0.448979
Si Si2 0.783571 0.658942 0.908883
Si Si3 0.189922 0.683152 0.734084
Si Si4 0.255267 0.394348 0.343620
Si Si5 0.689182 0.252795 0.758215
Si Si6 0.687852 0.161813 0.507043
Si Si7 0.913066 0.993407 0.072173
O O1 0.049010 0.732244 0.592613
O O2 0.601159 0.711596 0.296349
O O3 0.071218 0.771851 0.427841
O O4 0.779820 0.976645 0.488135
O O5 0.844335 0.594459 0.801883
O O6 0.501340 0.609448 0.812874
O O7 0.066095 0.645399 0.079395
O O8 0.359773 0.757971 0.378433
O O9 0.986944 0.582333 0.669434
O O10 0.826884 0.080907 0.786165
O O11 0.200906 0.837886 0.865802
O O12 0.500000 0.500000 0.500000
O O13 0.410890 0.216100 0.355604
O O14 0.280032 0.146372 0.051761
O O15 0.000000 0.000000 0.000000
#
# Coordination Sequence:
#
# PCOD9094870 Si02
#       7
#     2   2   2   2   2   2   2
#     4  11  21  34  67  95 125 162 198 268 330 366
#     4  10  24  39  60  97 126 162 213 253 326 376
#     4  12  20  40  65  93 129 167 207 262 320 382
#     4  12  26  43  64  90 128 177 219 256 299 381
#     4  10  21  35  59  91 127 155 195 262 322 365
#     4  11  22  38  61  94 129 161 215 255 315 381
#     4  10  20  34  62  95 134 156 197 264 333 372
#
# _framework density 24.21021
#
# number of rings (size 3 to 8) (size 9 to 14) (size 15 to 20)
#    0.857    0.286    5.714    1.714    0.000    2.857 
#    0.000    0.714    0.000    1.714    0.000    0.000 
#    0.000    0.000    0.000    0.000    0.000    0.000 
#
# Total GULP energy -78345.010958 kJ/mol
# GULP energy per Si atom -5596.072211 kJ/mol
# Density = 2.415511 g / cm^3
# Si number density = 24.210210 Si / 1000 Ang^3
#
#
#
# Elastic Constant Matrix: (Units=GPa)
#
#
# Indices 1 2 3 4 5 6 
#
# 1 185.0551 37.2989 24.9808 -16.8713 33.9741 7.0464
# 2 37.2989 75.7803 10.8880 -1.7866 14.3850 -4.7810
# 3 24.9808 10.8880 66.2515 -11.4989 12.6202 7.8360
# 4 -16.8713 -1.7866 -11.4989 47.3973 7.6331 13.8783
# 5 33.9741 14.3850 12.6202 7.6331 47.8986 2.0630
# 6 7.0464 -4.7810 7.8360 13.8783 2.0630 39.6362
#
#
#
# Elastic Compliance Matrix: (Units=1/GPa)
#
#
# Indices 1 2 3 4 5 6 
#
# 1 0.007357 -0.002727 -0.000397 0.003986 -0.004814 -0.002704
# 2 -0.002727 0.015366 -0.001727 -0.001430 -0.002140 0.003292
# 3 -0.000397 -0.001727 0.018313 0.006733 -0.004845 -0.005864
# 4 0.003986 -0.001430 0.006733 0.028915 -0.008267 -0.011906
# 5 -0.004814 -0.002140 -0.004845 -0.008267 0.027398 0.003024
# 6 -0.002704 0.003292 -0.005864 -0.011906 0.003024 0.031278
#
#
# Mechanical properties :
#
#
# Convention : Reuss Voigt Hill
#
# Bulk Modulus (GPa) = 31.91448 52.60251 42.25849
# Shear Modulus (GPa) = 33.60796 43.91434 38.76115
#
# Velocity S-wave (km/s) = 3.72986 4.26358 4.00562
# Velocity P-wave (km/s) = 5.63560 6.78322 6.23587
#
# Compressibility (1/GPa) = 0.03133374
#
# Stress axis : x y z
#
# Youngs Moduli (GPa) = 135.92173 65.07664 54.60673
#
# Poissons Ratio (x) = 0.17746 0.02170
# Poissons Ratio (y) = 0.37065 0.09431
# Poissons Ratio (z) = 0.05401 0.11239
#
# Static dielectric constant tensor:
#      x y z
#    x 1.865690 0.036090 0.045280 
#    y 0.036090 2.050880 0.092620 
#    z 0.045280 0.092620 1.870000 
# 
# From -- ./inp_files/498380.got.cif
#   From: 2010.05.17/outbox.cif.g08.bks.cpg/sg2_250_cif.got.tgz:498380.got - 2010.06.03 11:33:40.
