data_PCOD9094766
_publ_section_title
;
Structure prediction by ZEFSAII (Michael W. Deem and Ramdas Pophale) SiO2 
 PCOD9094766
Probable space group: P -1
;
_chemical_formula_sum "Si O2"
_cell_formula_units_Z 16
_cell_length_a 13.674757
_cell_length_b 9.748698
_cell_length_c 9.031675
_cell_angle_alpha 63.987273
_cell_angle_beta 61.074939
_cell_angle_gamma 113.740998
_cell_volume 590.870920
_symmetry_space_group_name_H-M "P -1"
_symmetry_group_IT_number 2
_symmetry_cell_setting 'triclinic'
loop_
_space_group_symop_operation_xyz
x,y,z
-x,-y,-z
loop_
_atom_site_type_symbol
_atom_site_label
_atom_site_fract_x
_atom_site_fract_y
_atom_site_fract_z
Si Si1 0.524060 0.210571 0.866540
Si Si2 0.780103 0.140452 0.450904
Si Si3 0.337283 0.527463 0.663233
Si Si4 0.585565 0.223222 0.234221
Si Si5 0.317197 0.246436 0.173296
Si Si6 0.997414 0.366354 0.901827
Si Si7 0.891317 0.990642 0.962989
Si Si8 0.841556 0.629398 0.659226
O O1 0.551461 0.278361 0.641498
O O2 0.706652 0.458160 0.699665
O O3 0.377658 0.182291 0.040380
O O4 0.500000 0.000000 0.000000
O O5 0.882291 0.366192 0.374928
O O6 0.566485 0.922323 0.710171
O O7 0.813116 0.998754 0.515336
O O8 0.856039 0.265703 0.176248
O O9 0.422720 0.647963 0.702565
O O10 0.148981 0.421234 0.843506
O O11 0.287522 0.298404 0.786936
O O12 0.500000 0.000000 0.500000
O O13 0.775290 0.420434 0.916398
O O14 0.208496 0.286293 0.233740
O O15 0.500000 0.500000 0.000000
O O16 0.889633 0.152273 0.965472
O O17 0.983509 0.128059 0.672312
O O18 0.000000 0.000000 0.000000
#
# Coordination Sequence:
#
# PCOD9094766 Si02
#       8
#     2   2   2   2   2   2   2   2
#     4  11  20  35  62  96 125 167 223 266 310 377
#     4  11  21  38  64  93 127 166 214 270 321 380
#     4  11  22  38  63  94 128 169 204 268 325 386
#     4  12  24  41  62  96 137 167 212 262 340 387
#     4  10  20  34  60  95 124 156 220 270 309 364
#     4  10  21  37  64  91 120 169 219 263 307 382
#     4  10  20  37  63  92 123 161 222 260 316 376
#     4  11  22  39  66  91 130 170 216 272 310 387
#
# _framework density 27.078672000000001
#
# number of rings (size 3 to 8) (size 9 to 14) (size 15 to 20)
#    0.000    1.250    6.250    3.000    1.750    0.500 
#    0.000    2.500    0.000    0.750    0.000    0.000 
#    0.000    0.000    0.000    0.000    0.000    0.000 
#
# Total GULP energy -89292.942047 kJ/mol
# GULP energy per Si atom -5580.808878 kJ/mol
# Density = 2.701704 g / cm^3
# Si number density = 27.078672 Si / 1000 Ang^3
#
#
#
# Elastic Constant Matrix: (Units=GPa)
#
#
# Indices 1 2 3 4 5 6 
#
# 1 78.0615 21.0878 30.4728 -9.2276 -4.2200 0.0811
# 2 21.0878 205.1325 59.0113 -29.6025 -2.6900 -9.0008
# 3 30.4728 59.0113 192.8685 -13.1395 23.9063 -8.7144
# 4 -9.2276 -29.6025 -13.1395 64.6427 -6.8077 5.3720
# 5 -4.2200 -2.6900 23.9063 -6.8077 48.9379 -4.0662
# 6 0.0811 -9.0008 -8.7144 5.3720 -4.0662 23.3502
#
#
#
# Elastic Compliance Matrix: (Units=1/GPa)
#
#
# Indices 1 2 3 4 5 6 
#
# 1 0.014195 -0.000573 -0.002309 0.001643 0.002459 -0.001082
# 2 -0.000573 0.005822 -0.001661 0.002293 0.001514 0.001363
# 3 -0.002309 -0.001661 0.006521 -0.000228 -0.003403 0.001261
# 4 0.001643 0.002293 -0.000228 0.017202 0.002546 -0.002721
# 5 0.002459 0.001514 -0.003403 0.002546 0.022972 0.002720
# 6 -0.001082 0.001363 0.001261 -0.002721 0.002720 0.044926
#
#
# Mechanical properties :
#
#
# Convention : Reuss Voigt Hill
#
# Bulk Modulus (GPa) = 57.29898 77.46736 67.38317
# Shear Modulus (GPa) = 39.51282 51.75219 45.63251
#
# Velocity S-wave (km/s) = 3.82407 4.37645 4.10955
# Velocity P-wave (km/s) = 6.37998 7.36261 6.88884
#
# Compressibility (1/GPa) = 0.01745232
#
# Stress axis : x y z
#
# Youngs Moduli (GPa) = 70.44730 171.75935 153.34777
#
# Poissons Ratio (x) = 0.09842 0.35411
# Poissons Ratio (y) = 0.04037 0.25467
# Poissons Ratio (z) = 0.16268 0.28524
#
# Static dielectric constant tensor:
#      x y z
#    x 2.312970 0.099430 0.068080 
#    y 0.099430 2.146770 0.024990 
#    z 0.068080 0.024990 2.215420 
# 
# From -- ./inp_files/343531.got.cif
#   From: 2010.05.17/outbox.cif.g08.bks.cpg/sg2_172_cif.got.tgz:343531.got - 2010.06.03 11:33:40.
