data_PCOD9094488
_publ_section_title
;
Structure prediction by ZEFSAII (Michael W. Deem and Ramdas Pophale) SiO2 
 PCOD9094488
Probable space group: P -1
;
_chemical_formula_sum "Si O2"
_cell_formula_units_Z 14
_cell_length_a 13.279365
_cell_length_b 9.643826
_cell_length_c 12.801970
_cell_angle_alpha 91.504420
_cell_angle_beta 145.793709
_cell_angle_gamma 65.312780
_cell_volume 653.826196
_symmetry_space_group_name_H-M "P -1"
_symmetry_group_IT_number 2
_symmetry_cell_setting 'triclinic'
loop_
_space_group_symop_operation_xyz
x,y,z
-x,-y,-z
loop_
_atom_site_type_symbol
_atom_site_label
_atom_site_fract_x
_atom_site_fract_y
_atom_site_fract_z
Si Si1 0.050369 0.754452 0.289277
Si Si2 0.579785 0.200229 0.882289
Si Si3 0.964413 0.453908 0.581806
Si Si4 0.100112 0.428108 0.968372
Si Si5 0.320214 0.876733 0.573954
Si Si6 0.145326 0.683994 0.880155
Si Si7 0.523863 0.699176 0.960479
O O1 0.081717 0.680984 0.434007
O O2 0.244445 0.775537 0.446947
O O3 0.056385 0.610712 0.223110
O O4 0.778976 0.969902 0.037305
O O5 0.295943 0.330628 0.602286
O O6 0.693666 0.278192 0.931301
O O7 0.564036 0.235805 0.995346
O O8 0.000000 0.500000 0.500000
O O9 0.245241 0.320132 0.863817
O O10 0.086016 0.585514 0.900845
O O11 0.399910 0.231870 0.221407
O O12 0.000000 0.500000 0.000000
O O13 0.327656 0.837320 0.703334
O O14 0.107151 0.106405 0.373873
O O15 0.324860 0.524786 0.939469
#
# Coordination Sequence:
#
# PCOD9094488 Si02
#       7
#     2   2   2   2   2   2   2
#     4  11  23  42  62  94 125 168 206 261 311 364
#     4  10  23  37  62  92 134 170 210 246 303 375
#     4  10  20  34  57  91 126 167 209 245 295 360
#     4  11  25  46  67  91 122 160 212 271 326 367
#     4  10  23  42  64  91 132 159 213 256 306 385
#     4  10  21  41  61  91 124 166 205 257 309 366
#     4  10  20  36  60  93 132 176 203 244 304 364
#
# _framework density 21.412417999999999
#
# number of rings (size 3 to 8) (size 9 to 14) (size 15 to 20)
#    0.000    1.714    2.857    2.143    2.000    9.143 
#    0.000    2.857    0.000    0.000    0.000    0.000 
#    0.000    0.000    0.000    0.000    0.000    0.000 
#
# Total GULP energy -77988.843284 kJ/mol
# GULP energy per Si atom -5570.631663 kJ/mol
# Density = 2.136368 g / cm^3
# Si number density = 21.412418 Si / 1000 Ang^3
#
#
#
# Elastic Constant Matrix: (Units=GPa)
#
#
# Indices 1 2 3 4 5 6 
#
# 1 78.5385 46.9283 22.7996 7.8575 -7.6407 -0.8305
# 2 46.9283 90.6547 25.5538 2.4765 -14.1294 12.0922
# 3 22.7996 25.5538 105.3997 -6.7032 -0.4974 5.5697
# 4 7.8575 2.4765 -6.7032 33.0498 3.4260 -1.0505
# 5 -7.6407 -14.1294 -0.4974 3.4260 14.2937 3.1984
# 6 -0.8305 12.0922 5.5697 -1.0505 3.1984 18.7288
#
#
#
# Elastic Compliance Matrix: (Units=1/GPa)
#
#
# Indices 1 2 3 4 5 6 
#
# 1 0.020517 -0.011165 -0.002466 -0.004144 -0.001134 0.008813
# 2 -0.011165 0.023470 -0.002332 -0.002452 0.021955 -0.018842
# 3 -0.002466 -0.002332 0.010832 0.003323 -0.003822 -0.000986
# 4 -0.004144 -0.002452 0.003323 0.033660 -0.013626 0.004626
# 5 -0.001134 0.021955 -0.003822 -0.013626 0.101156 -0.031128
# 6 0.008813 -0.018842 -0.000986 0.004626 -0.031128 0.071818
#
#
# Mechanical properties :
#
#
# Convention : Reuss Voigt Hill
#
# Bulk Modulus (GPa) = 43.67983 51.68403 47.68193
# Shear Modulus (GPa) = 16.61082 25.16854 20.88968
#
# Velocity S-wave (km/s) = 2.78826 3.43216 3.12683
# Velocity P-wave (km/s) = 5.55063 6.31633 5.94582
#
# Compressibility (1/GPa) = 0.02289386
#
# Stress axis : x y z
#
# Youngs Moduli (GPa) = 48.73979 42.60794 92.32062
#
# Poissons Ratio (x) = 0.47571 0.22765
# Poissons Ratio (y) = 0.54417 0.21527
# Poissons Ratio (z) = 0.12019 0.09935
#
# Static dielectric constant tensor:
#      x y z
#    x 1.806400 0.002460 -0.031300 
#    y 0.002460 1.848850 0.070600 
#    z -0.031300 0.070600 1.835060 
# 
# From -- ./inp_files/529803.got.cif
#   From: 2010.05.17/outbox.cif.g08.bks.cpg/sg2_265_cif.got.tgz:529803.got - 2010.06.03 11:33:40.
