data_PCOD9094499
_publ_section_title
;
Structure prediction by ZEFSAII (Michael W. Deem and Ramdas Pophale) SiO2 
 PCOD9094499
Probable space group: P -1
;
_chemical_formula_sum "Si O2"
_cell_formula_units_Z 16
_cell_length_a 5.333379
_cell_length_b 11.625014
_cell_length_c 12.491148
_cell_angle_alpha 122.638757
_cell_angle_beta 86.276050
_cell_angle_gamma 114.313402
_cell_volume 581.731074
_symmetry_space_group_name_H-M "P -1"
_symmetry_group_IT_number 2
_symmetry_cell_setting 'triclinic'
loop_
_space_group_symop_operation_xyz
x,y,z
-x,-y,-z
loop_
_atom_site_type_symbol
_atom_site_label
_atom_site_fract_x
_atom_site_fract_y
_atom_site_fract_z
Si Si1 0.778948 0.386251 0.580737
Si Si2 0.090643 0.867090 0.956577
Si Si3 0.616413 0.387766 0.987977
Si Si4 0.054354 0.108169 0.805842
Si Si5 0.546450 0.584704 0.774026
Si Si6 0.185057 0.723417 0.257229
Si Si7 0.290900 0.723057 0.698678
Si Si8 0.745548 0.974055 0.416966
O O1 0.540168 0.428941 0.655345
O O2 0.904748 0.326960 0.643941
O O3 0.674125 0.266547 0.425709
O O4 0.013339 0.557453 0.631038
O O5 0.845256 0.692690 0.873403
O O6 0.271235 0.847490 0.842938
O O7 0.163713 0.906677 0.100047
O O8 0.000000 0.000000 0.000000
O O9 0.835237 0.386658 0.894544
O O10 0.351666 0.217910 0.907456
O O11 0.500000 0.500000 0.000000
O O12 0.669668 0.426285 0.131761
O O13 0.948673 0.178379 0.746762
O O14 0.099330 0.972351 0.677437
O O15 0.524084 0.682119 0.724390
O O16 0.523224 0.804221 0.304813
O O17 0.500000 0.000000 0.500000
O O18 0.000000 0.000000 0.500000
#
# Coordination Sequence:
#
# PCOD9094499 Si02
#       8
#     2   2   2   2   2   2   2   2
#     4  10  22  38  61  98 132 170 220 274 342 416
#     4  10  23  44  63  91 125 175 233 279 334 399
#     4  10  20  34  57  94 130 166 211 269 338 404
#     4  10  23  40  64  97 133 173 224 279 336 409
#     4  10  20  40  61  90 130 167 220 276 339 404
#     4  11  22  38  65  99 135 176 224 273 349 413
#     4  10  22  40  62  90 131 174 220 283 333 405
#     4  11  23  45  66  96 139 180 224 280 340 402
#
# _framework density 27.504118999999999
#
# number of rings (size 3 to 8) (size 9 to 14) (size 15 to 20)
#    0.000    1.750    2.500    1.125    1.750    2.000 
#    2.250    0.000    0.000    0.000    0.000    0.000 
#    0.000    0.000    0.000    0.000    0.000    0.000 
#
# Total GULP energy -89091.236009 kJ/mol
# GULP energy per Si atom -5568.202251 kJ/mol
# Density = 2.744152 g / cm^3
# Si number density = 27.504119 Si / 1000 Ang^3
#
#
#
# Elastic Constant Matrix: (Units=GPa)
#
#
# Indices 1 2 3 4 5 6 
#
# 1 108.0325 23.8936 63.4816 -7.7942 -13.3845 -5.0256
# 2 23.8936 64.6511 57.3092 -20.2254 -19.1298 -24.1436
# 3 63.4816 57.3092 280.3769 -36.5565 -34.1340 -20.1068
# 4 -7.7942 -20.2254 -36.5565 40.7177 -9.4266 -0.2143
# 5 -13.3845 -19.1298 -34.1340 -9.4266 41.8251 0.9271
# 6 -5.0256 -24.1436 -20.1068 -0.2143 0.9271 50.3955
#
#
#
# Elastic Compliance Matrix: (Units=1/GPa)
#
#
# Indices 1 2 3 4 5 6 
#
# 1 0.011035 -0.002963 -0.002109 -0.001211 0.000208 -0.001169
# 2 -0.002963 0.035245 -0.000222 0.021326 0.019437 0.016234
# 3 -0.002109 -0.000222 0.005567 0.005651 0.004999 0.001836
# 4 -0.001211 0.021326 0.005651 0.045611 0.023990 0.012103
# 5 0.000208 0.019437 0.004999 0.023990 0.042116 0.010655
# 6 -0.001169 0.016234 0.001836 0.012103 0.010655 0.028092
#
#
# Mechanical properties :
#
#
# Convention : Reuss Voigt Hill
#
# Bulk Modulus (GPa) = 24.23749 82.49214 53.36481
# Shear Modulus (GPa) = 26.04057 47.14607 36.59332
#
# Velocity S-wave (km/s) = 3.08033 4.14472 3.65151
# Velocity P-wave (km/s) = 4.63494 7.27754 6.10104
#
# Compressibility (1/GPa) = 0.04125840
#
# Stress axis : x y z
#
# Youngs Moduli (GPa) = 90.61885 28.37278 179.63853
#
# Poissons Ratio (x) = 0.08406 0.37894
# Poissons Ratio (y) = 0.26847 0.03992
# Poissons Ratio (z) = 0.19116 0.00630
#
# Static dielectric constant tensor:
#      x y z
#    x 2.194100 0.299110 -0.121830 
#    y 0.299110 1.978360 0.001800 
#    z -0.121830 0.001800 2.333580 
# 
# From -- ./inp_files/365266.got.cif
#   From: 2010.05.17/outbox.cif.g08.bks.cpg/sg2_183_cif.got.tgz:365266.got - 2010.06.03 11:33:40.
