data_PCOD9094389
_publ_section_title
;
Structure prediction by ZEFSAII (Michael W. Deem and Ramdas Pophale) SiO2 
 PCOD9094389
Probable space group: P -1
;
_chemical_formula_sum "Si O2"
_cell_formula_units_Z 16
_cell_length_a 7.875264
_cell_length_b 20.390711
_cell_length_c 7.419014
_cell_angle_alpha 56.956877
_cell_angle_beta 96.675077
_cell_angle_gamma 52.340176
_cell_volume 581.737915
_symmetry_space_group_name_H-M "P -1"
_symmetry_group_IT_number 2
_symmetry_cell_setting 'triclinic'
loop_
_space_group_symop_operation_xyz
x,y,z
-x,-y,-z
loop_
_atom_site_type_symbol
_atom_site_label
_atom_site_fract_x
_atom_site_fract_y
_atom_site_fract_z
Si Si1 0.538488 0.737133 0.707887
Si Si2 0.864856 0.233581 0.544441
Si Si3 0.248386 0.005522 0.314262
Si Si4 0.402144 0.968139 0.801564
Si Si5 0.568059 0.429716 0.894302
Si Si6 0.037397 0.317518 0.646472
Si Si7 0.143653 0.526182 0.251680
Si Si8 0.608876 0.273457 0.896849
O O1 0.398118 0.730594 0.556682
O O2 0.413624 0.869270 0.462770
O O3 0.436547 0.749995 0.879183
O O4 0.884769 0.605344 0.964366
O O5 0.152402 0.081066 0.743025
O O6 0.944874 0.262471 0.670662
O O7 0.776852 0.323893 0.234550
O O8 0.421955 0.017595 0.249802
O O9 0.271676 0.992872 0.554571
O O10 0.900025 0.135191 0.043480
O O11 0.616018 0.821090 0.122634
O O12 0.630438 0.497400 0.773375
O O13 0.656802 0.346150 0.856887
O O14 0.221520 0.542000 0.704615
O O15 0.994533 0.368730 0.763109
O O16 0.310653 0.392147 0.567894
#
# Coordination Sequence:
#
# PCOD9094389 Si02
#       8
#     2   2   2   2   2   2   2   2
#     4  11  22  36  57  89 126 155 191 243 306 346
#     4  11  24  40  58  89 128 156 188 244 307 356
#     4  11  20  36  62  91 114 154 202 252 284 342
#     4  11  21  37  62  87 116 154 207 239 288 350
#     4  10  20  39  64  88 114 158 205 241 285 353
#     4  11  22  38  63  90 119 154 199 250 291 343
#     4  11  21  38  66  92 112 154 209 247 278 350
#     4  10  20  34  56  93 121 143 194 256 293 330
#
# _framework density 27.503796999999999
#
# number of rings (size 3 to 8) (size 9 to 14) (size 15 to 20)
#    0.000    1.250    3.750    5.250    0.000    0.000 
#    0.000    1.250    0.000   12.000    0.000    0.000 
#    0.000    0.000    0.000    0.000    0.000    0.000 
#
# Total GULP energy -89599.853296 kJ/mol
# GULP energy per Si atom -5599.990831 kJ/mol
# Density = 2.744120 g / cm^3
# Si number density = 27.503797 Si / 1000 Ang^3
#
#
#
# Elastic Constant Matrix: (Units=GPa)
#
#
# Indices 1 2 3 4 5 6 
#
# 1 64.9622 8.5941 35.0485 -8.2357 16.1262 3.9765
# 2 8.5941 120.0515 35.4876 -6.7878 11.6797 11.5554
# 3 35.0485 35.4876 186.4388 -24.7747 22.7983 8.9841
# 4 -8.2357 -6.7878 -24.7747 30.8806 6.7040 -0.0998
# 5 16.1262 11.6797 22.7983 6.7040 49.1948 -1.5739
# 6 3.9765 11.5554 8.9841 -0.0998 -1.5739 38.9274
#
#
#
# Elastic Compliance Matrix: (Units=1/GPa)
#
#
# Indices 1 2 3 4 5 6 
#
# 1 0.018660 0.000297 -0.002155 0.004581 -0.005868 -0.001722
# 2 0.000297 0.009201 -0.001235 0.001537 -0.002000 -0.002553
# 3 -0.002155 -0.001235 0.007188 0.005596 -0.003132 -0.001184
# 4 0.004581 0.001537 0.005596 0.040611 -0.010075 -0.002519
# 5 -0.005868 -0.002000 -0.003132 -0.010075 0.025644 0.002927
# 6 -0.001722 -0.002553 -0.001184 -0.002519 0.002927 0.027008
#
#
# Mechanical properties :
#
#
# Convention : Reuss Voigt Hill
#
# Bulk Modulus (GPa) = 34.64820 58.85698 46.75259
# Shear Modulus (GPa) = 34.69366 43.28871 38.99119
#
# Velocity S-wave (km/s) = 3.55549 3.97157 3.76927
# Velocity P-wave (km/s) = 5.42958 6.51745 5.99823
#
# Compressibility (1/GPa) = 0.02886153
#
# Stress axis : x y z
#
# Youngs Moduli (GPa) = 53.59098 108.68452 139.12796
#
# Poissons Ratio (x) = -0.03227 0.29983
# Poissons Ratio (y) = -0.01591 0.17187
# Poissons Ratio (z) = 0.11549 0.13426
#
# Static dielectric constant tensor:
#      x y z
#    x 2.157600 -0.031870 0.016090 
#    y -0.031870 2.109360 -0.011480 
#    z 0.016090 -0.011480 2.113950 
# 
# From -- ./inp_files/223446.got.cif
#   From: 2010.05.17/outbox.cif.g08.bks.cpg/sg2_112_cif.got.tgz:223446.got - 2010.06.03 11:33:40.
