data_PCOD9094232
_publ_section_title
;
Structure prediction by ZEFSAII (Michael W. Deem and Ramdas Pophale) SiO2 
 PCOD9094232
Probable space group: P -1
;
_chemical_formula_sum "Si O2"
_cell_formula_units_Z 16
_cell_length_a 7.476853
_cell_length_b 12.250197
_cell_length_c 8.676465
_cell_angle_alpha 108.018013
_cell_angle_beta 121.228787
_cell_angle_gamma 105.287634
_cell_volume 551.411990
_symmetry_space_group_name_H-M "P -1"
_symmetry_group_IT_number 2
_symmetry_cell_setting 'triclinic'
loop_
_space_group_symop_operation_xyz
x,y,z
-x,-y,-z
loop_
_atom_site_type_symbol
_atom_site_label
_atom_site_fract_x
_atom_site_fract_y
_atom_site_fract_z
Si Si1 0.222210 0.387533 0.274374
Si Si2 0.769853 0.079702 0.737231
Si Si3 0.209302 0.462435 0.626027
Si Si4 0.179005 0.135310 0.450995
Si Si5 0.533864 0.182621 0.884524
Si Si6 0.526906 0.760623 0.788749
Si Si7 0.371234 0.587007 0.182845
Si Si8 0.131085 0.775125 0.458568
O O1 0.500000 0.500000 0.500000
O O2 0.257137 0.266263 0.176185
O O3 0.825177 0.529962 0.843821
O O4 0.426103 0.276182 0.572862
O O5 0.722629 0.138137 0.896741
O O6 0.908381 0.194009 0.718665
O O7 0.500000 0.000000 0.500000
O O8 0.876272 0.981870 0.743373
O O9 0.097850 0.373702 0.378205
O O10 0.455266 0.470653 0.798789
O O11 0.693532 0.388589 0.322269
O O12 0.030762 0.383867 0.652187
O O13 0.288518 0.103495 0.637430
O O14 0.978422 0.164292 0.441878
O O15 0.653634 0.336122 0.940712
O O16 0.440409 0.160589 0.005030
O O17 0.406104 0.816550 0.641687
#
# Coordination Sequence:
#
# PCOD9094232 Si02
#       8
#     2   2   2   2   2   2   2   2
#     4   8  16  29  53  81 105 142 184 210 255 326
#     4  10  21  36  62  80 102 143 195 228 264 334
#     4   9  19  33  53  84 112 145 186 214 264 331
#     4   8  18  37  54  80 103 144 185 226 264 327
#     4   9  19  35  56  81 114 137 193 221 267 316
#     4  10  20  34  55  86 117 140 178 229 263 323
#     4   7  14  29  55  72 105 135 185 204 265 301
#     4  11  21  35  58  79 111 145 179 225 282 321
#
# _framework density 29.016418000000002
#
# number of rings (size 3 to 8) (size 9 to 14) (size 15 to 20)
#    0.750    2.500    0.000    0.750    5.250    2.000 
#    0.000    5.000    0.000    0.000    0.000    0.000 
#    0.000    0.000    0.000    0.000    0.000    0.000 
#
# Total GULP energy -89331.346590 kJ/mol
# GULP energy per Si atom -5583.209162 kJ/mol
# Density = 2.895037 g / cm^3
# Si number density = 29.016418 Si / 1000 Ang^3
#
#
#
# Elastic Constant Matrix: (Units=GPa)
#
#
# Indices 1 2 3 4 5 6 
#
# 1 137.6277 31.9661 23.2901 4.6220 -14.7240 -31.4895
# 2 31.9661 121.9324 26.2737 3.1075 -7.2774 -12.3017
# 3 23.2901 26.2737 90.7845 1.0990 -25.2859 -16.7492
# 4 4.6220 3.1075 1.0990 36.5582 -8.8883 -17.5060
# 5 -14.7240 -7.2774 -25.2859 -8.8883 30.5222 3.8205
# 6 -31.4895 -12.3017 -16.7492 -17.5060 3.8205 63.1577
#
#
#
# Elastic Compliance Matrix: (Units=1/GPa)
#
#
# Indices 1 2 3 4 5 6 
#
# 1 0.009065 -0.001757 0.000157 0.002200 0.004152 0.004578
# 2 -0.001757 0.009160 -0.002402 -0.000619 -0.000853 0.000151
# 3 0.000157 -0.002402 0.016353 0.005287 0.014019 0.004565
# 4 0.002200 -0.000619 0.005287 0.035947 0.014325 0.011476
# 5 0.004152 -0.000853 0.014019 0.014325 0.049522 0.006597
# 6 0.004578 0.000151 0.004565 0.011476 0.006597 0.022138
#
#
# Mechanical properties :
#
#
# Convention : Reuss Voigt Hill
#
# Bulk Modulus (GPa) = 37.63138 57.04492 47.33815
# Shear Modulus (GPa) = 31.43748 43.96862 37.70305
#
# Velocity S-wave (km/s) = 3.29513 3.89691 3.60859
# Velocity P-wave (km/s) = 5.24160 6.32061 5.80622
#
# Compressibility (1/GPa) = 0.02657357
#
# Stress axis : x y z
#
# Youngs Moduli (GPa) = 110.31211 109.17502 61.15212
#
# Poissons Ratio (x) = 0.19180 -0.00962
# Poissons Ratio (y) = 0.19380 0.14691
# Poissons Ratio (z) = -0.01735 0.26228
#
# Static dielectric constant tensor:
#      x y z
#    x 2.363480 0.003730 0.020980 
#    y 0.003730 2.359270 0.066270 
#    z 0.020980 0.066270 2.375670 
# 
# From -- ./inp_files/197255.got.cif
#   From: 2010.05.17/outbox.cif.g08.bks.cpg/sg2_99_cif.got.tgz:197255.got - 2010.06.03 11:33:40.
