data_PCOD9094238
_publ_section_title
;
Structure prediction by ZEFSAII (Michael W. Deem and Ramdas Pophale) SiO2 
 PCOD9094238
Probable space group: P -1
;
_chemical_formula_sum "Si O2"
_cell_formula_units_Z 16
_cell_length_a 11.349927
_cell_length_b 19.504113
_cell_length_c 5.359913
_cell_angle_alpha 114.925713
_cell_angle_beta 112.618443
_cell_angle_gamma 50.002216
_cell_volume 813.179386
_symmetry_space_group_name_H-M "P -1"
_symmetry_group_IT_number 2
_symmetry_cell_setting 'triclinic'
loop_
_space_group_symop_operation_xyz
x,y,z
-x,-y,-z
loop_
_atom_site_type_symbol
_atom_site_label
_atom_site_fract_x
_atom_site_fract_y
_atom_site_fract_z
Si Si1 0.784579 0.949089 0.767058
Si Si2 0.864865 0.294498 0.565799
Si Si3 0.438917 0.640249 0.254682
Si Si4 0.356843 0.546428 0.644702
Si Si5 0.113009 0.880448 0.870132
Si Si6 0.310042 0.842980 0.468403
Si Si7 0.181871 0.161779 0.870979
Si Si8 0.509633 0.084237 0.053411
O O1 0.779841 0.904750 0.438287
O O2 0.928062 0.958346 0.873985
O O3 0.819469 0.885221 0.943504
O O4 0.618868 0.044041 0.836591
O O5 0.706737 0.329384 0.637673
O O6 0.813412 0.385413 0.506837
O O7 0.893766 0.210124 0.294249
O O8 0.012697 0.252313 0.803264
O O9 0.601180 0.544293 0.312031
O O10 0.434325 0.731952 0.389077
O O11 0.386298 0.612765 0.926008
O O12 0.500000 0.500000 0.500000
O O13 0.194909 0.874185 0.663894
O O14 0.211049 0.866892 0.173927
O O15 0.399111 0.891339 0.650563
O O16 0.329197 0.168061 0.008415
O O17 0.500000 0.000000 0.000000
#
# Coordination Sequence:
#
# PCOD9094238 Si02
#       8
#     2   2   2   2   2   2   2   2
#     4  10  20  37  58  80 112 142 191 246 282 334
#     4   9  17  30  53  80 115 143 181 222 277 339
#     4   9  17  30  50  85 115 139 177 219 295 329
#     4   9  16  28  52  83 115 141 167 222 280 354
#     4  10  20  34  55  87 111 145 180 233 302 330
#     4  11  22  36  57  81 119 149 184 236 281 341
#     4  10  21  35  58  79 110 153 197 233 266 328
#     4  10  24  42  58  79 110 157 204 236 271 321
#
# _framework density 19.675854999999999
#
# number of rings (size 3 to 8) (size 9 to 14) (size 15 to 20)
#    0.000    2.250    1.250    2.625    1.750    5.000 
#    0.000    0.000    0.000    0.750    0.000    7.875 
#    0.000    0.000    0.000    0.000    0.000    0.000 
#
# Total GULP energy -89140.659738 kJ/mol
# GULP energy per Si atom -5571.291234 kJ/mol
# Density = 1.963107 g / cm^3
# Si number density = 19.675855 Si / 1000 Ang^3
#
#
#
# Elastic Constant Matrix: (Units=GPa)
#
#
# Indices 1 2 3 4 5 6 
#
# 1 91.2043 31.7437 45.1644 -6.2743 10.1343 -8.9929
# 2 31.7437 107.9640 18.2837 -19.9764 3.0325 -5.0976
# 3 45.1644 18.2837 108.8387 -3.0946 -12.2564 1.4835
# 4 -6.2743 -19.9764 -3.0946 37.1309 -3.4674 6.3100
# 5 10.1343 3.0325 -12.2564 -3.4674 31.9738 -6.2491
# 6 -8.9929 -5.0976 1.4835 6.3100 -6.2491 14.6924
#
#
#
# Elastic Compliance Matrix: (Units=1/GPa)
#
#
# Indices 1 2 3 4 5 6 
#
# 1 0.017330 -0.003556 -0.007496 -0.001587 -0.006640 0.007988
# 2 -0.003556 0.011347 -0.000210 0.005603 0.000497 -0.000413
# 3 -0.007496 -0.000210 0.013182 0.000952 0.006872 -0.003478
# 4 -0.001587 0.005603 0.000952 0.031971 0.001408 -0.012255
# 5 -0.006640 0.000497 0.006872 0.001408 0.038288 0.011095
# 6 0.007988 -0.000413 -0.003478 -0.012255 0.011095 0.083142
#
#
# Mechanical properties :
#
#
# Convention : Reuss Voigt Hill
#
# Bulk Modulus (GPa) = 51.71676 55.37672 53.54674
# Shear Modulus (GPa) = 22.29866 30.94708 26.62287
#
# Velocity S-wave (km/s) = 3.37011 3.97021 3.68240
# Velocity P-wave (km/s) = 6.44088 7.01587 6.73451
#
# Compressibility (1/GPa) = 0.01933609
#
# Stress axis : x y z
#
# Youngs Moduli (GPa) = 57.70243 88.13238 75.86104
#
# Poissons Ratio (x) = 0.31340 0.56864
# Poissons Ratio (y) = 0.20519 0.01589
# Poissons Ratio (z) = 0.43253 0.01846
#
# Static dielectric constant tensor:
#      x y z
#    x 1.754400 -0.011790 -0.036290 
#    y -0.011790 1.917820 0.016670 
#    z -0.036290 0.016670 1.745720 
# 
# From -- ./inp_files/82873.got.cif
#   From: 2010.05.17/outbox.cif.g08.bks.cpg/sg2_42_cif.got.tgz:82873.got - 2010.06.03 11:33:40.
