data_PCOD9094394
_publ_section_title
;
Structure prediction by ZEFSAII (Michael W. Deem and Ramdas Pophale) SiO2 
 PCOD9094394
Probable space group: P -1
;
_chemical_formula_sum "Si O2"
_cell_formula_units_Z 13
_cell_length_a 9.582879
_cell_length_b 8.570486
_cell_length_c 16.129265
_cell_angle_alpha 53.369616
_cell_angle_beta 31.644208
_cell_angle_gamma 45.257553
_cell_volume 493.625561
_symmetry_space_group_name_H-M "P -1"
_symmetry_group_IT_number 2
_symmetry_cell_setting 'triclinic'
loop_
_space_group_symop_operation_xyz
x,y,z
-x,-y,-z
loop_
_atom_site_type_symbol
_atom_site_label
_atom_site_fract_x
_atom_site_fract_y
_atom_site_fract_z
Si Si1 0.025821 0.144952 0.689282
Si Si2 0.500000 0.500000 0.500000
Si Si3 0.632481 0.702264 0.073090
Si Si4 0.271122 0.088077 0.879864
Si Si5 0.158992 0.692328 0.108594
Si Si6 0.786868 0.985693 0.541591
Si Si7 0.743825 0.344067 0.254421
O O1 0.677761 0.193113 0.850980
O O2 0.017655 0.301132 0.719373
O O3 0.084912 0.167817 0.555446
O O4 0.246173 0.892219 0.681441
O O5 0.639383 0.235082 0.505175
O O6 0.525672 0.506783 0.381940
O O7 0.607608 0.834196 0.128360
O O8 0.690221 0.465682 0.154347
O O9 0.912902 0.703011 0.883694
O O10 0.539046 0.944236 0.727344
O O11 0.149471 0.928657 0.028042
O O12 0.035931 0.292505 0.878590
O O13 0.500000 0.500000 0.000000
O O14 0.000000 0.000000 0.500000
#
# Coordination Sequence:
#
# PCOD9094394 Si02
#       7
#     2   1   2   2   2   2   2
#     4  11  23  39  63  95 122 164 211 256 314 376
#     4  10  20  34  56  98 128 158 190 258 328 376
#     4  11  21  36  65  93 122 158 209 266 311 367
#     4  11  24  45  62  94 131 166 209 264 316 370
#     4  11  28  44  63  89 128 176 218 255 308 378
#     4  11  22  40  64  97 131 157 203 268 321 371
#     4  10  21  33  60  93 127 153 204 260 319 364
#
# _framework density 26.335751999999999
#
# number of rings (size 3 to 8) (size 9 to 14) (size 15 to 20)
#    0.000    1.231    4.615    0.462    4.308    1.846 
#    0.000    0.769    0.000    0.000    0.000    0.000 
#    0.000    0.000    0.000    0.000    0.000    0.000 
#
# Total GULP energy -72475.371846 kJ/mol
# GULP energy per Si atom -5575.028604 kJ/mol
# Density = 2.627581 g / cm^3
# Si number density = 26.335752 Si / 1000 Ang^3
#
#
#
# Elastic Constant Matrix: (Units=GPa)
#
#
# Indices 1 2 3 4 5 6 
#
# 1 116.7058 3.5272 38.1054 10.0662 19.7995 -15.3079
# 2 3.5272 44.8068 -6.5420 9.7826 3.1577 -8.5722
# 3 38.1054 -6.5420 109.1564 26.3615 44.9089 10.6439
# 4 10.0662 9.7826 26.3615 38.0752 10.1777 5.4959
# 5 19.7995 3.1577 44.9089 10.1777 53.7877 14.3536
# 6 -15.3079 -8.5722 10.6439 5.4959 14.3536 27.0905
#
#
#
# Elastic Compliance Matrix: (Units=1/GPa)
#
#
# Indices 1 2 3 4 5 6 
#
# 1 0.011860 0.001622 -0.002643 -0.002045 -0.004869 0.011248
# 2 0.001622 0.029388 0.006595 -0.012176 -0.009572 0.015166
# 3 -0.002643 0.006595 0.018245 -0.010431 -0.013375 0.002628
# 4 -0.002045 -0.012176 -0.010431 0.037175 0.006287 -0.011782
# 5 -0.004869 -0.009572 -0.013375 0.006287 0.036575 -0.021179
# 6 0.011248 0.015166 0.002628 -0.011782 -0.021179 0.060648
#
#
# Mechanical properties :
#
#
# Convention : Reuss Voigt Hill
#
# Bulk Modulus (GPa) = 14.15637 37.87224 26.01431
# Shear Modulus (GPa) = 24.23781 39.49590 31.86686
#
# Velocity S-wave (km/s) = 3.03700 3.87681 3.48231
# Velocity P-wave (km/s) = 4.20533 5.86952 5.10569
#
# Compressibility (1/GPa) = 0.07063959
#
# Stress axis : x y z
#
# Youngs Moduli (GPa) = 84.31543 34.02806 54.81090
#
# Poissons Ratio (x) = -0.05519 0.14486
# Poissons Ratio (y) = -0.13675 -0.36146
# Poissons Ratio (z) = 0.22283 -0.22440
#
# Static dielectric constant tensor:
#      x y z
#    x 2.090430 -0.009030 0.031410 
#    y -0.009030 2.019630 0.002390 
#    z 0.031410 0.002390 2.247890 
# 
# From -- ./inp_files/492392.got.cif
#   From: 2010.05.17/outbox.cif.g08.bks.cpg/sg2_247_cif.got.tgz:492392.got - 2010.06.03 11:33:40.
