data_PCOD9094759
_publ_section_title
;
Structure prediction by ZEFSAII (Michael W. Deem and Ramdas Pophale) SiO2 
 PCOD9094759
Probable space group: P -1
;
_chemical_formula_sum "Si O2"
_cell_formula_units_Z 16
_cell_length_a 11.191954
_cell_length_b 8.950695
_cell_length_c 11.432539
_cell_angle_alpha 133.550502
_cell_angle_beta 61.374759
_cell_angle_gamma 96.321811
_cell_volume 683.655146
_symmetry_space_group_name_H-M "P -1"
_symmetry_group_IT_number 2
_symmetry_cell_setting 'triclinic'
loop_
_space_group_symop_operation_xyz
x,y,z
-x,-y,-z
loop_
_atom_site_type_symbol
_atom_site_label
_atom_site_fract_x
_atom_site_fract_y
_atom_site_fract_z
Si Si1 0.980785 0.808547 0.227280
Si Si2 0.775916 0.596992 0.079816
Si Si3 0.295593 0.255432 0.058339
Si Si4 0.981581 0.340807 0.321989
Si Si5 0.879679 0.202377 0.097012
Si Si6 0.227459 0.745082 0.446738
Si Si7 0.449205 0.791361 0.741671
Si Si8 0.506296 0.621566 0.371383
O O1 0.863662 0.705283 0.180314
O O2 0.886452 0.045013 0.451136
O O3 0.105579 0.629974 0.145116
O O4 0.070419 0.819157 0.072059
O O5 0.649282 0.560156 0.193886
O O6 0.711731 0.747557 0.080038
O O7 0.279185 0.503845 0.234119
O O8 0.151918 0.216815 0.152832
O O9 0.428564 0.041143 0.918357
O O10 0.910565 0.402382 0.259614
O O11 0.864583 0.257127 0.394770
O O12 0.000000 0.500000 0.500000
O O13 0.713463 0.223119 0.200499
O O14 0.000000 0.000000 0.000000
O O15 0.373698 0.775652 0.439628
O O16 0.518992 0.730245 0.548015
O O17 0.525221 0.599959 0.695183
#
# Coordination Sequence:
#
# PCOD9094759 Si02
#       8
#     2   2   2   2   2   2   2   2
#     4  11  22  39  64  94 122 158 205 259 307 363
#     4  11  24  40  63  92 125 159 206 257 307 366
#     4  11  23  40  64  90 124 166 205 252 311 367
#     4  10  20  34  60  94 119 151 201 250 304 359
#     4  12  16  34  66  90 115 154 200 257 302 350
#     4  11  23  40  64  90 124 166 205 252 311 367
#     4  11  22  39  64  94 122 158 205 259 307 363
#     4  11  24  40  63  92 125 159 206 257 307 366
#
# _framework density 23.40361
#
# number of rings (size 3 to 8) (size 9 to 14) (size 15 to 20)
#    0.000    1.000    6.250    0.750    0.000    3.500 
#    0.000    0.000    0.000    0.000    0.000    0.000 
#    0.000    0.000    0.000    0.000    0.000    0.000 
#
# Total GULP energy -89200.878771 kJ/mol
# GULP energy per Si atom -5575.054923 kJ/mol
# Density = 2.335034 g / cm^3
# Si number density = 23.403610 Si / 1000 Ang^3
#
#
#
# Elastic Constant Matrix: (Units=GPa)
#
#
# Indices 1 2 3 4 5 6 
#
# 1 46.1820 -0.8944 17.8607 -0.4856 -8.2637 -4.6822
# 2 -0.8944 56.5708 25.1255 6.4026 -12.0820 -7.8197
# 3 17.8607 25.1255 127.0612 23.7620 0.9011 1.4815
# 4 -0.4856 6.4026 23.7620 33.1922 0.5659 -5.2874
# 5 -8.2637 -12.0820 0.9011 0.5659 32.2645 1.2575
# 6 -4.6822 -7.8197 1.4815 -5.2874 1.2575 23.9508
#
#
#
# Elastic Compliance Matrix: (Units=1/GPa)
#
#
# Indices 1 2 3 4 5 6 
#
# 1 0.026361 0.005369 -0.005777 0.004587 0.008538 0.007828
# 2 0.005369 0.023566 -0.005752 0.000877 0.010003 0.008768
# 3 -0.005777 -0.005752 0.011385 -0.007903 -0.003608 -0.005267
# 4 0.004587 0.000877 -0.007903 0.037241 0.000686 0.009857
# 5 0.008538 0.010003 -0.003608 0.000686 0.036884 0.003373
# 6 0.007828 0.008768 -0.005267 0.009857 0.003373 0.048470
#
#
# Mechanical properties :
#
#
# Convention : Reuss Voigt Hill
#
# Bulk Modulus (GPa) = 20.41153 34.88864 27.65009
# Shear Modulus (GPa) = 23.52316 30.39630 26.95973
#
# Velocity S-wave (km/s) = 3.17378 3.60778 3.39772
# Velocity P-wave (km/s) = 4.70861 5.68282 5.21850
#
# Compressibility (1/GPa) = 0.04899191
#
# Stress axis : x y z
#
# Youngs Moduli (GPa) = 37.93448 42.43477 87.83862
#
# Poissons Ratio (x) = -0.22783 0.50743
# Poissons Ratio (y) = -0.20367 0.50523
# Poissons Ratio (z) = 0.21914 0.24407
#
# Static dielectric constant tensor:
#      x y z
#    x 1.848150 0.047940 0.110880 
#    y 0.047940 1.947500 0.144960 
#    z 0.110880 0.144960 2.037810 
# 
# From -- ./inp_files/419930.got.cif
#   From: 2010.05.17/outbox.cif.g08.bks.cpg/sg2_210_cif.got.tgz:419930.got - 2010.06.03 11:33:40.
