data_PCOD9094801
_publ_section_title
;
Structure prediction by ZEFSAII (Michael W. Deem and Ramdas Pophale) SiO2 
 PCOD9094801
Probable space group: P -1
;
_chemical_formula_sum "Si O2"
_cell_formula_units_Z 16
_cell_length_a 9.384762
_cell_length_b 13.258985
_cell_length_c 10.583298
_cell_angle_alpha 112.170130
_cell_angle_beta 49.846876
_cell_angle_gamma 141.027212
_cell_volume 611.655486
_symmetry_space_group_name_H-M "P -1"
_symmetry_group_IT_number 2
_symmetry_cell_setting 'triclinic'
loop_
_space_group_symop_operation_xyz
x,y,z
-x,-y,-z
loop_
_atom_site_type_symbol
_atom_site_label
_atom_site_fract_x
_atom_site_fract_y
_atom_site_fract_z
Si Si1 0.654879 0.930498 0.278651
Si Si2 0.324435 0.070279 0.219448
Si Si3 0.246335 0.257697 0.218747
Si Si4 0.177961 0.860502 0.405977
Si Si5 0.288050 0.610840 0.466330
Si Si6 0.937271 0.228120 0.944602
Si Si7 0.779711 0.552191 0.332226
Si Si8 0.350437 0.307816 0.921125
O O1 0.466937 0.944284 0.337587
O O2 0.471172 0.800751 0.438318
O O3 0.666470 0.832833 0.130971
O O4 0.961468 0.091987 0.230565
O O5 0.355055 0.205652 0.216279
O O6 0.196520 0.986761 0.391264
O O7 0.124980 0.912898 0.162666
O O8 0.635239 0.153567 0.088404
O O9 0.089884 0.269340 0.409704
O O10 0.437328 0.377377 0.047178
O O11 0.080664 0.735983 0.292763
O O12 0.252101 0.564034 0.610972
O O13 0.460292 0.602785 0.273032
O O14 0.000000 0.500000 0.500000
O O15 0.161181 0.408378 0.831884
O O16 0.066416 0.244315 0.010159
O O17 0.500000 0.500000 0.500000
#
# Coordination Sequence:
#
# PCOD9094801 Si02
#       8
#     2   2   2   2   2   2   2   2
#     4  10  21  37  62  87 117 155 194 242 283 346
#     4  10  22  35  56  86 119 151 193 242 292 341
#     4  12  23  38  59  89 124 153 188 243 305 343
#     4  11  24  39  59  89 122 154 188 242 301 355
#     4  10  20  35  61  88 114 145 204 243 274 336
#     4  10  20  34  61  88 111 150 202 247 276 334
#     4  11  20  39  63  85 114 154 201 240 286 342
#     4  10  21  36  60  88 113 153 200 242 281 340
#
# _framework density 26.158517
#
# number of rings (size 3 to 8) (size 9 to 14) (size 15 to 20)
#    0.750    0.750    3.750    1.875    8.750    0.000 
#    0.000    0.625    0.000    0.750    0.000    0.000 
#    0.000    0.000    0.000    0.000    0.000    0.000 
#
# Total GULP energy -89351.811224 kJ/mol
# GULP energy per Si atom -5584.488201 kJ/mol
# Density = 2.609898 g / cm^3
# Si number density = 26.158517 Si / 1000 Ang^3
#
#
#
# Elastic Constant Matrix: (Units=GPa)
#
#
# Indices 1 2 3 4 5 6 
#
# 1 180.1907 25.6515 35.1848 -4.8689 7.9605 -23.3001
# 2 25.6515 48.7314 16.8014 -14.2574 6.0437 -5.9148
# 3 35.1848 16.8014 60.1021 -11.5939 17.1683 -15.6607
# 4 -4.8689 -14.2574 -11.5939 32.3541 -4.0436 15.6309
# 5 7.9605 6.0437 17.1683 -4.0436 48.4244 -11.2448
# 6 -23.3001 -5.9148 -15.6607 15.6309 -11.2448 36.5540
#
#
#
# Elastic Compliance Matrix: (Units=1/GPa)
#
#
# Indices 1 2 3 4 5 6 
#
# 1 0.007045 -0.003281 -0.003018 -0.003505 0.001073 0.004495
# 2 -0.003281 0.026788 -0.004142 0.012145 -0.001528 -0.005195
# 3 -0.003018 -0.004142 0.022927 0.003256 -0.005910 0.004017
# 4 -0.003505 0.012145 0.003256 0.045904 -0.002754 -0.019350
# 5 0.001073 -0.001528 -0.005910 -0.002754 0.024034 0.006476
# 6 0.004495 -0.005195 0.004017 -0.019350 0.006476 0.041369
#
#
# Mechanical properties :
#
#
# Convention : Reuss Voigt Hill
#
# Bulk Modulus (GPa) = 27.87296 49.36662 38.61979
# Shear Modulus (GPa) = 24.88691 37.55896 31.22293
#
# Velocity S-wave (km/s) = 3.08780 3.79333 3.45861
# Velocity P-wave (km/s) = 4.83645 6.17243 5.54483
#
# Compressibility (1/GPa) = 0.03587706
#
# Stress axis : x y z
#
# Youngs Moduli (GPa) = 141.93844 37.33019 43.61729
#
# Poissons Ratio (x) = 0.12247 0.13166
# Poissons Ratio (y) = 0.46565 0.18068
# Poissons Ratio (z) = 0.42844 0.15463
#
# Static dielectric constant tensor:
#      x y z
#    x 2.040060 -0.026220 0.120180 
#    y -0.026220 2.182330 -0.016290 
#    z 0.120180 -0.016290 2.221640 
# 
# From -- ./inp_files/399179.got.cif
#   From: 2010.05.17/outbox.cif.g08.bks.cpg/sg2_200_cif.got.tgz:399179.got - 2010.06.03 11:33:40.
