data_PCOD9094275
_publ_section_title
;
Structure prediction by ZEFSAII (Michael W. Deem and Ramdas Pophale) SiO2 
 PCOD9094275
Probable space group: P -1
;
_chemical_formula_sum "Si O2"
_cell_formula_units_Z 16
_cell_length_a 7.148314
_cell_length_b 20.484867
_cell_length_c 8.480171
_cell_angle_alpha 108.544110
_cell_angle_beta 116.660648
_cell_angle_gamma 49.031522
_cell_volume 837.412553
_symmetry_space_group_name_H-M "P -1"
_symmetry_group_IT_number 2
_symmetry_cell_setting 'triclinic'
loop_
_space_group_symop_operation_xyz
x,y,z
-x,-y,-z
loop_
_atom_site_type_symbol
_atom_site_label
_atom_site_fract_x
_atom_site_fract_y
_atom_site_fract_z
Si Si1 0.325997 0.060715 0.837625
Si Si2 0.415653 0.401888 0.408155
Si Si3 0.437720 0.512054 0.233236
Si Si4 0.625108 0.896825 0.631798
Si Si5 0.203737 0.801614 0.644756
Si Si6 0.054965 0.603285 0.872637
Si Si7 0.653701 0.806945 0.905452
Si Si8 0.835124 0.095107 0.591009
O O1 0.037366 0.087515 0.782380
O O2 0.461411 0.998863 0.689142
O O3 0.316387 0.144288 0.906373
O O4 0.500000 0.000000 0.000000
O O5 0.398428 0.465070 0.320398
O O6 0.489995 0.427776 0.616998
O O7 0.646494 0.300908 0.383263
O O8 0.144213 0.412763 0.293806
O O9 0.694014 0.438286 0.176130
O O10 0.185945 0.560810 0.059490
O O11 0.649013 0.850271 0.771441
O O12 0.438514 0.884197 0.448048
O O13 0.909315 0.853950 0.636479
O O14 0.383098 0.818433 0.826072
O O15 0.204309 0.837097 0.500477
O O16 0.886789 0.705962 0.906073
O O17 0.000000 0.000000 0.500000
#
# Coordination Sequence:
#
# PCOD9094275 Si02
#       8
#     2   2   2   2   2   2   2   2
#     4   9  18  33  53  73 106 140 172 219 266 312
#     4  10  21  37  57  83 117 142 184 235 279 327
#     4  10  21  36  59  83 109 150 183 231 282 335
#     4   9  18  35  54  76 106 143 181 217 267 322
#     4  10  20  34  56  78 105 145 176 220 272 321
#     4  10  20  36  59  82 110 148 189 224 282 337
#     4   9  19  34  53  78 109 138 177 228 267 318
#     4   9  19  34  53  75 104 138 178 222 261 308
#
# _framework density 19.106472
#
# number of rings (size 3 to 8) (size 9 to 14) (size 15 to 20)
#    0.000    2.500    0.000    2.250    1.750    2.500 
#    0.000    2.500    2.750    0.000    0.000    0.000 
#    0.000    0.000    0.000    0.000    0.000    0.000 
#
# Total GULP energy -89157.801132 kJ/mol
# GULP energy per Si atom -5572.362571 kJ/mol
# Density = 1.906298 g / cm^3
# Si number density = 19.106472 Si / 1000 Ang^3
#
#
#
# Elastic Constant Matrix: (Units=GPa)
#
#
# Indices 1 2 3 4 5 6 
#
# 1 69.4847 31.9361 19.0952 6.6763 31.1447 -18.5786
# 2 31.9361 79.6993 19.5634 3.3863 31.2655 -5.4019
# 3 19.0952 19.5634 63.9813 -8.0707 36.7209 -15.5503
# 4 6.6763 3.3863 -8.0707 17.1494 3.4724 -0.3493
# 5 31.1447 31.2655 36.7209 3.4724 31.8080 -5.5702
# 6 -18.5786 -5.4019 -15.5503 -0.3493 -5.5702 23.5656
#
#
#
# Elastic Compliance Matrix: (Units=1/GPa)
#
#
# Indices 1 2 3 4 5 6 
#
# 1 -0.014839 -0.025079 -0.075562 -0.050974 0.125243 -0.038460
# 2 -0.025079 0.008152 -0.038448 -0.022320 0.058137 -0.029863
# 3 -0.075562 -0.038448 -0.120222 -0.070483 0.242240 -0.091502
# 4 -0.050974 -0.022320 -0.070483 0.019682 0.140875 -0.058222
# 5 0.125243 0.058137 0.242240 0.140875 -0.412462 0.176507
# 6 -0.038460 -0.029863 -0.091502 -0.058222 0.176507 -0.014254
#
#
# Mechanical properties :
#
#
# Convention : Reuss Voigt Hill
#
# Bulk Modulus (GPa) = -2.46861 39.37274 18.45207
# Shear Modulus (GPa) = -12.79443 24.00930 5.60744
#
# Velocity S-wave (km/s) = -2.59054 3.54871 1.71500
# Velocity P-wave (km/s) = 3.20043 6.11906 3.68783
#
# Compressibility (1/GPa) = -0.40508631
#
# Stress axis : x y z
#
# Youngs Moduli (GPa) = -67.38898 122.67272 -8.31794
#
# Poissons Ratio (x) = 3.07653 -0.62852
# Poissons Ratio (y) = -1.69006 -0.31981
# Poissons Ratio (z) = -5.09201 4.71649
#
# Static dielectric constant tensor:
#      x y z
#    x 1.660620 0.004270 0.014230 
#    y 0.004270 1.654790 -0.002500 
#    z 0.014230 -0.002500 1.729580 
# 
# From -- ./inp_files/43594.got.cif
#   From: 2010.05.17/outbox.cif.g08.bks.cpg/sg2_22_cif.got.tgz:43594.got - 2010.06.03 11:33:40.
