data_PCOD9094806
_publ_section_title
;
Structure prediction by ZEFSAII (Michael W. Deem and Ramdas Pophale) SiO2 
 PCOD9094806
Probable space group: P -1
;
_chemical_formula_sum "Si O2"
_cell_formula_units_Z 16
_cell_length_a 12.349290
_cell_length_b 15.440845
_cell_length_c 11.814930
_cell_angle_alpha 137.016689
_cell_angle_beta 123.787094
_cell_angle_gamma 28.824275
_cell_volume 715.473511
_symmetry_space_group_name_H-M "P -1"
_symmetry_group_IT_number 2
_symmetry_cell_setting 'triclinic'
loop_
_space_group_symop_operation_xyz
x,y,z
-x,-y,-z
loop_
_atom_site_type_symbol
_atom_site_label
_atom_site_fract_x
_atom_site_fract_y
_atom_site_fract_z
Si Si1 0.126047 0.510267 0.926842
Si Si2 0.570599 0.144190 0.709469
Si Si3 0.262888 0.242029 0.438619
Si Si4 0.479747 0.308431 0.238271
Si Si5 0.854523 0.041506 0.610691
Si Si6 0.360209 0.682627 0.466113
Si Si7 0.959705 0.692561 0.234645
Si Si8 0.324626 0.102479 0.097498
O O1 0.376981 0.351967 0.882801
O O2 0.159053 0.343973 0.841194
O O3 0.938743 0.652143 0.854650
O O4 0.995834 0.692473 0.123605
O O5 0.407830 0.219934 0.584020
O O6 0.714096 0.911079 0.625758
O O7 0.741860 0.115943 0.738360
O O8 0.000000 0.500000 0.500000
O O9 0.376512 0.124639 0.268850
O O10 0.487841 0.445334 0.326679
O O11 0.509481 0.306392 0.387804
O O12 0.221819 0.467387 0.217156
O O13 0.649842 0.070949 0.052952
O O14 0.850644 0.899547 0.429075
O O15 0.119110 0.869106 0.576706
O O16 0.701570 0.244955 0.629665
O O17 0.500000 0.000000 0.000000
#
# Coordination Sequence:
#
# PCOD9094806 Si02
#       8
#     2   2   2   2   2   2   2   2
#     4  11  22  37  56  99 132 169 200 253 332 394
#     4  11  24  40  63  91 139 172 205 262 325 390
#     4  11  24  42  59  97 140 174 205 248 334 402
#     4  10  20  38  61  93 125 158 210 282 309 365
#     4  10  21  39  65  88 115 173 218 271 313 372
#     4   9  21  40  63  91 119 163 230 268 312 366
#     4  10  20  34  61  88 129 162 207 259 314 386
#     4  12  24  37  64  98 129 169 212 261 323 384
#
# _framework density 22.362812999999999
#
# number of rings (size 3 to 8) (size 9 to 14) (size 15 to 20)
#    0.000    1.500    2.500    3.000    5.250    0.000 
#    2.250    0.000    0.000   22.500    0.000    0.000 
#    0.000    0.000    0.000    0.000    0.000    0.000 
#
# Total GULP energy -89358.508966 kJ/mol
# GULP energy per Si atom -5584.906810 kJ/mol
# Density = 2.231191 g / cm^3
# Si number density = 22.362813 Si / 1000 Ang^3
#
#
#
# Elastic Constant Matrix: (Units=GPa)
#
#
# Indices 1 2 3 4 5 6 
#
# 1 77.6314 16.7733 3.3047 0.3146 -25.2606 4.3880
# 2 16.7733 117.4381 8.1083 4.2226 -8.8445 17.2687
# 3 3.3047 8.1083 57.8825 2.0620 -9.7648 7.1338
# 4 0.3146 4.2226 2.0620 28.0321 2.1759 5.0095
# 5 -25.2606 -8.8445 -9.7648 2.1759 25.1742 0.1192
# 6 4.3880 17.2687 7.1338 5.0095 0.1192 21.2673
#
#
#
# Elastic Compliance Matrix: (Units=1/GPa)
#
#
# Indices 1 2 3 4 5 6 
#
# 1 0.020070 -0.000799 0.003123 -0.001198 0.021193 -0.004376
# 2 -0.000799 0.010014 0.000109 -0.000307 0.002823 -0.007946
# 3 0.003123 0.000109 0.019866 -0.001080 0.011006 -0.007204
# 4 -0.001198 -0.000307 -0.001080 0.037621 -0.004942 -0.007976
# 5 0.021193 0.002823 0.011006 -0.004942 0.066722 -0.009566
# 6 -0.004376 -0.007946 -0.007204 -0.007976 -0.009566 0.058725
#
#
# Mechanical properties :
#
#
# Convention : Reuss Voigt Hill
#
# Bulk Modulus (GPa) = 18.24287 34.36939 26.30613
# Shear Modulus (GPa) = 22.08257 29.87910 25.98084
#
# Velocity S-wave (km/s) = 3.14581 3.65924 3.41220
# Velocity P-wave (km/s) = 4.62279 5.76678 5.22618
#
# Compressibility (1/GPa) = 0.05481593
#
# Stress axis : x y z
#
# Youngs Moduli (GPa) = 49.82681 99.86176 50.33780
#
# Poissons Ratio (x) = 0.07983 -0.15723
# Poissons Ratio (y) = 0.03983 -0.00550
# Poissons Ratio (z) = -0.15563 -0.01092
#
# Static dielectric constant tensor:
#      x y z
#    x 1.873040 0.018610 -0.028640 
#    y 0.018610 1.861230 -0.024400 
#    z -0.028640 -0.024400 1.861530 
# 
# From -- ./inp_files/433240.got.cif
#   From: 2010.05.17/outbox.cif.g08.bks.cpg/sg2_217_cif.got.tgz:433240.got - 2010.06.03 11:33:40.
