data_PCOD9094593
_publ_section_title
;
Structure prediction by ZEFSAII (Michael W. Deem and Ramdas Pophale) SiO2 
 PCOD9094593
Probable space group: P -1
;
_chemical_formula_sum "Si O2"
_cell_formula_units_Z 16
_cell_length_a 10.176518
_cell_length_b 17.200662
_cell_length_c 8.856520
_cell_angle_alpha 138.842759
_cell_angle_beta 137.393647
_cell_angle_gamma 66.553883
_cell_volume 646.803059
_symmetry_space_group_name_H-M "P -1"
_symmetry_group_IT_number 2
_symmetry_cell_setting 'triclinic'
loop_
_space_group_symop_operation_xyz
x,y,z
-x,-y,-z
loop_
_atom_site_type_symbol
_atom_site_label
_atom_site_fract_x
_atom_site_fract_y
_atom_site_fract_z
Si Si1 0.040741 0.406276 0.773320
Si Si2 0.720297 0.374752 0.894782
Si Si3 0.215935 0.946251 0.679341
Si Si4 0.649030 0.239538 0.323563
Si Si5 0.290290 0.192123 0.280339
Si Si6 0.825723 0.174040 0.861348
Si Si7 0.764789 0.774999 0.176771
Si Si8 0.753916 0.960999 0.697552
O O1 0.191397 0.340913 0.877626
O O2 0.815150 0.297247 0.415968
O O3 0.143476 0.482396 0.821426
O O4 0.000000 0.500000 0.000000
O O5 0.745140 0.304416 0.658417
O O6 0.471131 0.327664 0.622967
O O7 0.788526 0.303248 0.982570
O O8 0.362504 0.900535 0.848426
O O9 0.226683 0.910241 0.461063
O O10 0.982078 0.861650 0.412093
O O11 0.258075 0.091215 0.969500
O O12 0.442044 0.268539 0.161033
O O13 0.349800 0.115880 0.355304
O O14 0.071140 0.206707 0.140695
O O15 0.720167 0.083927 0.781036
O O16 0.713541 0.861686 0.384401
O O17 0.000000 0.000000 0.000000
#
# Coordination Sequence:
#
# PCOD9094593 Si02
#       8
#     2   2   2   2   2   2   2   2
#     4   9  21  41  58  88 120 151 205 250 291 347
#     4  10  22  36  57  87 121 155 196 249 292 349
#     4  10  20  34  58  92 122 148 196 246 295 355
#     4   9  21  35  60  92 116 153 199 246 301 347
#     4  11  22  36  57  86 122 162 192 237 296 360
#     4  10  21  36  57  87 124 152 193 248 301 347
#     4  11  20  38  64  84 122 161 190 248 299 345
#     4  10  22  39  57  88 124 162 195 232 299 362
#
# _framework density 24.737048999999999
#
# number of rings (size 3 to 8) (size 9 to 14) (size 15 to 20)
#    0.000    2.000    2.500    1.875    3.500    4.500 
#    0.000    0.625    0.000    3.750    0.000    0.000 
#    0.000    0.000    0.000    0.000    0.000    0.000 
#
# Total GULP energy -89398.153918 kJ/mol
# GULP energy per Si atom -5587.384620 kJ/mol
# Density = 2.468075 g / cm^3
# Si number density = 24.737049 Si / 1000 Ang^3
#
#
#
# Elastic Constant Matrix: (Units=GPa)
#
#
# Indices 1 2 3 4 5 6 
#
# 1 56.7157 36.1006 23.3400 4.7151 26.6086 14.3910
# 2 36.1006 186.2108 45.0848 -6.3670 36.5541 11.0657
# 3 23.3400 45.0848 51.7647 -2.5844 18.4146 9.1520
# 4 4.7151 -6.3670 -2.5844 28.1149 -2.4201 9.4560
# 5 26.6086 36.5541 18.4146 -2.4201 50.8996 2.0882
# 6 14.3910 11.0657 9.1520 9.4560 2.0882 48.9602
#
#
#
# Elastic Compliance Matrix: (Units=1/GPa)
#
#
# Indices 1 2 3 4 5 6 
#
# 1 0.028475 -0.001495 -0.006797 -0.004927 -0.011369 -0.005325
# 2 -0.001495 0.007405 -0.004623 0.001442 -0.002773 -0.000530
# 3 -0.006797 -0.004623 0.028139 0.003337 -0.003036 -0.002732
# 4 -0.004927 0.001442 0.003337 0.039692 0.002518 -0.007275
# 5 -0.011369 -0.002773 -0.003036 0.002518 0.028684 0.002826
# 6 -0.005325 -0.000530 -0.002732 -0.007275 0.002826 0.023905
#
#
# Mechanical properties :
#
#
# Convention : Reuss Voigt Hill
#
# Bulk Modulus (GPa) = 26.18557 55.97133 41.07845
# Shear Modulus (GPa) = 25.65971 38.27267 31.96619
#
# Velocity S-wave (km/s) = 3.22421 3.93769 3.59867
# Velocity P-wave (km/s) = 4.94664 6.58403 5.82317
#
# Compressibility (1/GPa) = 0.03818897
#
# Stress axis : x y z
#
# Youngs Moduli (GPa) = 35.11844 135.05165 35.53805
#
# Poissons Ratio (x) = 0.20190 0.24156
# Poissons Ratio (y) = 0.05250 0.16428
# Poissons Ratio (z) = 0.23871 0.62429
#
# Static dielectric constant tensor:
#      x y z
#    x 2.019220 0.044770 0.035460 
#    y 0.044770 2.119800 -0.117860 
#    z 0.035460 -0.117860 2.203200 
# 
# From -- ./inp_files/274535.got.cif
#   From: 2010.05.17/outbox.cif.g08.bks.cpg/sg2_138_cif.got.tgz:274535.got - 2010.06.03 11:33:40.
