data_PCOD9094248
_publ_section_title
;
Structure prediction by ZEFSAII (Michael W. Deem and Ramdas Pophale) SiO2 
 PCOD9094248
Probable space group: P -1
;
_chemical_formula_sum "Si O2"
_cell_formula_units_Z 16
_cell_length_a 13.202600
_cell_length_b 13.436474
_cell_length_c 10.407296
_cell_angle_alpha 126.882731
_cell_angle_beta 32.882521
_cell_angle_gamma 136.336950
_cell_volume 691.902529
_symmetry_space_group_name_H-M "P -1"
_symmetry_group_IT_number 2
_symmetry_cell_setting 'triclinic'
loop_
_space_group_symop_operation_xyz
x,y,z
-x,-y,-z
loop_
_atom_site_type_symbol
_atom_site_label
_atom_site_fract_x
_atom_site_fract_y
_atom_site_fract_z
Si Si1 0.401137 0.473053 0.248180
Si Si2 0.082665 0.466947 0.081767
Si Si3 0.170979 0.221594 0.794436
Si Si4 0.341150 0.588798 0.639591
Si Si5 0.447405 0.697277 0.197257
Si Si6 0.713393 0.038902 0.153776
Si Si7 0.740034 0.016949 0.404743
Si Si8 0.064115 0.678605 0.469785
O O1 0.341161 0.465395 0.453728
O O2 0.498799 0.638820 0.226972
O O3 0.191633 0.397469 0.320132
O O4 0.525730 0.392992 0.014774
O O5 0.147679 0.353224 0.980255
O O6 0.234035 0.532257 0.846697
O O7 0.108569 0.598494 0.243210
O O8 0.833157 0.385098 0.233225
O O9 0.403847 0.294304 0.532165
O O10 0.173921 0.093302 0.769417
O O11 0.933084 0.129110 0.909859
O O12 0.201400 0.664372 0.428895
O O13 0.605949 0.865281 0.131692
O O14 0.764652 0.075420 0.278657
O O15 0.514243 0.061916 0.352604
O O16 0.853075 0.151420 0.485647
#
# Coordination Sequence:
#
# PCOD9094248 Si02
#       8
#     2   2   2   2   2   2   2   2
#     4  10  20  35  58  87 116 150 189 236 287 341
#     4  10  23  41  62  86 113 150 199 247 288 335
#     4  12  21  36  62  87 110 152 198 238 285 341
#     4  10  22  40  61  85 115 151 197 245 288 339
#     4  10  20  34  55  88 121 148 184 232 287 349
#     4  10  22  37  55  84 123 160 190 228 287 354
#     4  10  22  38  57  85 123 157 190 232 286 351
#     4  10  21  37  58  83 118 152 186 236 290 338
#
# _framework density 23.124644
#
# number of rings (size 3 to 8) (size 9 to 14) (size 15 to 20)
#    0.000    1.750    0.000    4.125    0.000    9.000 
#    0.000    0.625    0.000   19.500    0.000    0.000 
#    0.000    0.000    0.000    0.000    0.000    0.000 
#
# Total GULP energy -89235.412092 kJ/mol
# GULP energy per Si atom -5577.213256 kJ/mol
# Density = 2.307201 g / cm^3
# Si number density = 23.124644 Si / 1000 Ang^3
#
#
#
# Elastic Constant Matrix: (Units=GPa)
#
#
# Indices 1 2 3 4 5 6 
#
# 1 53.0607 35.3262 26.5874 11.4559 -17.7159 1.2400
# 2 35.3262 139.4679 53.8246 13.6591 -5.8585 17.4914
# 3 26.5874 53.8246 132.6371 -6.7040 -23.1801 6.9408
# 4 11.4559 13.6591 -6.7040 50.4733 4.7523 -14.7137
# 5 -17.7159 -5.8585 -23.1801 4.7523 47.0960 4.8829
# 6 1.2400 17.4914 6.9408 -14.7137 4.8829 17.5845
#
#
#
# Elastic Compliance Matrix: (Units=1/GPa)
#
#
# Indices 1 2 3 4 5 6 
#
# 1 0.028312 -0.004088 -0.002203 -0.008769 0.010706 -0.007371
# 2 -0.004088 0.012793 -0.003663 -0.008466 0.001008 -0.018355
# 3 -0.002203 -0.003663 0.010114 0.002920 0.003260 0.001345
# 4 -0.008769 -0.008466 0.002920 0.038012 -0.011188 0.042800
# 5 0.010706 0.001008 0.003260 -0.011188 0.030277 -0.020813
# 6 -0.007371 -0.018355 0.001345 0.042800 -0.020813 0.116706
#
#
# Mechanical properties :
#
#
# Convention : Reuss Voigt Hill
#
# Bulk Modulus (GPa) = 31.93760 61.84912 46.89336
# Shear Modulus (GPa) = 18.75755 36.99260 27.87507
#
# Velocity S-wave (km/s) = 2.85116 4.00397 3.47569
# Velocity P-wave (km/s) = 4.96788 6.94116 6.03571
#
# Compressibility (1/GPa) = 0.03131106
#
# Stress axis : x y z
#
# Youngs Moduli (GPa) = 35.32083 78.16898 98.86967
#
# Poissons Ratio (x) = 0.31957 0.21777
# Poissons Ratio (y) = 0.14440 0.36217
# Poissons Ratio (z) = 0.07780 0.28635
#
# Static dielectric constant tensor:
#      x y z
#    x 1.925120 0.008380 -0.049490 
#    y 0.008380 1.934380 -0.038570 
#    z -0.049490 -0.038570 1.880270 
# 
# From -- ./inp_files/455864.got.cif
#   From: 2010.05.17/outbox.cif.g08.bks.cpg/sg2_228_cif.got.tgz:455864.got - 2010.06.03 11:33:40.
