data_PCOD9094694
_publ_section_title
;
Structure prediction by ZEFSAII (Michael W. Deem and Ramdas Pophale) SiO2 
 PCOD9094694
Probable space group: P -1
;
_chemical_formula_sum "Si O2"
_cell_formula_units_Z 12
_cell_length_a 11.019648
_cell_length_b 13.600714
_cell_length_c 14.546361
_cell_angle_alpha 151.080101
_cell_angle_beta 153.792143
_cell_angle_gamma 33.265229
_cell_volume 452.224856
_symmetry_space_group_name_H-M "P -1"
_symmetry_group_IT_number 2
_symmetry_cell_setting 'triclinic'
loop_
_space_group_symop_operation_xyz
x,y,z
-x,-y,-z
loop_
_atom_site_type_symbol
_atom_site_label
_atom_site_fract_x
_atom_site_fract_y
_atom_site_fract_z
Si Si1 0.564350 0.991462 0.234658
Si Si2 0.147613 0.762152 0.119500
Si Si3 0.143233 0.327128 0.328042
Si Si4 0.988445 0.195650 0.312187
Si Si5 0.741159 0.591737 0.968583
Si Si6 0.541926 0.715446 0.745668
O O1 0.443231 0.200255 0.382887
O O2 0.647587 0.086851 0.273350
O O3 0.289931 0.889817 0.970239
O O4 0.800337 0.774327 0.224608
O O5 0.101216 0.709580 0.938780
O O6 0.848235 0.749491 0.951813
O O7 0.344743 0.575138 0.157926
O O8 0.176203 0.000044 0.337368
O O9 0.071479 0.577613 0.496130
O O10 0.122275 0.226567 0.330315
O O11 0.523193 0.699054 0.828122
O O12 0.000000 0.500000 0.000000
O O13 0.500000 0.500000 0.500000
#
# Coordination Sequence:
#
# PCOD9094694 Si02
#       6
#     2   2   2   2   2   2
#     4  10  20  34  60  79 113 146 189 221 272 333
#     4   9  19  36  55  83 116 142 178 231 287 317
#     4   9  18  36  60  87 104 142 196 222 281 325
#     4   9  18  36  62  82 109 143 185 240 264 338
#     4  10  21  38  52  81 121 149 176 230 281 315
#     4   9  19  36  58  80 104 148 195 221 261 334
#
# _framework density 26.535471999999999
#
# number of rings (size 3 to 8) (size 9 to 14) (size 15 to 20)
#    0.000    3.000    0.000    2.500    4.667    0.000 
#    3.000    5.000    0.000    4.000    0.000    0.000 
#    0.000    0.000    0.000    0.000    0.000    0.000 
#
# Total GULP energy -66880.202179 kJ/mol
# GULP energy per Si atom -5573.350182 kJ/mol
# Density = 2.647508 g / cm^3
# Si number density = 26.535472 Si / 1000 Ang^3
#
#
#
# Elastic Constant Matrix: (Units=GPa)
#
#
# Indices 1 2 3 4 5 6 
#
# 1 119.9325 48.3992 43.4075 27.4827 -13.6815 18.4465
# 2 48.3992 122.7961 78.3121 71.2775 -12.9042 24.8773
# 3 43.4075 78.3121 137.3613 57.1207 -21.3705 12.4794
# 4 27.4827 71.2775 57.1207 56.7816 -8.6817 17.0245
# 5 -13.6815 -12.9042 -21.3705 -8.6817 51.4156 13.4062
# 6 18.4465 24.8773 12.4794 17.0245 13.4062 30.0349
#
#
#
# Elastic Compliance Matrix: (Units=1/GPa)
#
#
# Indices 1 2 3 4 5 6 
#
# 1 0.011036 -0.003335 -0.001711 0.003145 0.003673 -0.006727
# 2 -0.003335 0.032388 -0.002032 -0.035366 0.001628 -0.004614
# 3 -0.001711 -0.002032 0.013512 -0.010446 0.002370 0.001983
# 4 0.003145 -0.035366 -0.010446 0.075329 0.003629 -0.012617
# 5 0.003673 0.001628 0.002370 0.003629 0.027349 -0.018853
# 6 -0.006727 -0.004614 0.001983 -0.012617 -0.018853 0.055991
#
#
# Mechanical properties :
#
#
# Convention : Reuss Voigt Hill
#
# Bulk Modulus (GPa) = 23.37611 80.03638 51.70624
# Shear Modulus (GPa) = 20.48998 41.64448 31.06723
#
# Velocity S-wave (km/s) = 2.78182 3.96585 3.42538
# Velocity P-wave (km/s) = 4.37567 7.15529 5.93063
#
# Compressibility (1/GPa) = 0.04277872
#
# Stress axis : x y z
#
# Youngs Moduli (GPa) = 90.60942 30.87555 74.01089
#
# Poissons Ratio (x) = 0.10298 0.12666
# Poissons Ratio (y) = 0.30222 0.15038
# Poissons Ratio (z) = 0.15506 0.06274
#
# Static dielectric constant tensor:
#      x y z
#    x 2.066610 -0.144910 -0.057300 
#    y -0.144910 2.601640 -0.118580 
#    z -0.057300 -0.118580 2.238940 
# 
# From -- ./inp_files/518478.got.cif
#   From: 2010.05.17/outbox.cif.g08.bks.cpg/sg2_260_cif.got.tgz:518478.got - 2010.06.03 11:33:40.
