data_PCOD9094862
_publ_section_title
;
Structure prediction by ZEFSAII (Michael W. Deem and Ramdas Pophale) SiO2 
 PCOD9094862
Probable space group: P -1
;
_chemical_formula_sum "Si O2"
_cell_formula_units_Z 15
_cell_length_a 8.001970
_cell_length_b 9.340002
_cell_length_c 10.724620
_cell_angle_alpha 91.077855
_cell_angle_beta 68.190034
_cell_angle_gamma 61.066293
_cell_volume 631.536003
_symmetry_space_group_name_H-M "P -1"
_symmetry_group_IT_number 2
_symmetry_cell_setting 'triclinic'
loop_
_space_group_symop_operation_xyz
x,y,z
-x,-y,-z
loop_
_atom_site_type_symbol
_atom_site_label
_atom_site_fract_x
_atom_site_fract_y
_atom_site_fract_z
Si Si1 0.150907 0.659652 0.957031
Si Si2 0.275052 0.014595 0.549697
Si Si3 0.600572 0.480457 0.773971
Si Si4 0.783955 0.679334 0.187308
Si Si5 0.500000 0.500000 0.500000
Si Si6 0.678930 0.120863 0.726784
Si Si7 0.029349 0.400293 0.616090
Si Si8 0.101213 0.832512 0.720226
O O1 0.391411 0.608025 0.911825
O O2 0.183043 0.484417 0.893289
O O3 0.074298 0.788346 0.866645
O O4 0.971019 0.712866 0.110270
O O5 0.102081 0.207190 0.567973
O O6 0.500000 0.000000 0.500000
O O7 0.278573 0.903299 0.432852
O O8 0.215028 0.940282 0.680935
O O9 0.550752 0.506171 0.638868
O O10 0.668056 0.288408 0.777924
O O11 0.798703 0.499098 0.744742
O O12 0.562517 0.834252 0.202481
O O13 0.792464 0.632501 0.331150
O O14 0.254695 0.661433 0.597784
O O15 0.865965 0.953537 0.733518
O O16 0.000000 0.500000 0.500000
#
# Coordination Sequence:
#
# PCOD9094862 Si02
#       8
#     2   2   2   2   1   2   2   2
#     4   9  23  42  69  86 122 175 218 257 310 383
#     4  12  24  38  58  95 132 159 201 271 328 364
#     4  10  21  38  64  90 122 169 208 258 316 378
#     4  10  23  45  61  93 129 165 214 270 310 368
#     4  10  20  34  62  92 122 154 214 248 298 388
#     4  11  21  39  64  85 130 164 206 261 317 382
#     4  12  27  38  64  98 129 164 209 268 324 374
#     4  11  22  38  65  94 120 171 214 250 317 384
#
# _framework density 23.751615000000001
#
# number of rings (size 3 to 8) (size 9 to 14) (size 15 to 20)
#    0.000    1.333    4.000    1.200   11.200    1.067 
#    0.000    0.667    0.000    0.000    0.000    0.000 
#    0.000    0.000    0.000    0.000    0.000    0.000 
#
# Total GULP energy -83536.252715 kJ/mol
# GULP energy per Si atom -5569.083514 kJ/mol
# Density = 2.369756 g / cm^3
# Si number density = 23.751615 Si / 1000 Ang^3
#
#
#
# Elastic Constant Matrix: (Units=GPa)
#
#
# Indices 1 2 3 4 5 6 
#
# 1 109.3250 43.0690 32.5216 -6.5849 -23.5114 -45.8240
# 2 43.0690 98.6361 53.4246 -10.5210 -21.1900 -37.3589
# 3 32.5216 53.4246 72.8599 -21.6225 -11.3269 -17.3711
# 4 -6.5849 -10.5210 -21.6225 32.3933 3.6282 5.4349
# 5 -23.5114 -21.1900 -11.3269 3.6282 39.4419 5.3901
# 6 -45.8240 -37.3589 -17.3711 5.4349 5.3901 49.5037
#
#
#
# Elastic Compliance Matrix: (Units=1/GPa)
#
#
# Indices 1 2 3 4 5 6 
#
# 1 0.018450 0.003163 -0.006104 -0.003099 0.008949 0.016690
# 2 0.003163 0.024680 -0.016105 -0.005700 0.008918 0.015557
# 3 -0.006104 -0.016105 0.030260 0.015583 -0.003876 -0.008475
# 4 -0.003099 -0.005700 0.015583 0.040129 -0.003341 -0.005744
# 5 0.008949 0.008918 -0.003876 -0.003341 0.033252 0.010400
# 6 0.016690 0.015557 -0.008475 -0.005744 0.010400 0.043915
#
#
# Mechanical properties :
#
#
# Convention : Reuss Voigt Hill
#
# Bulk Modulus (GPa) = 28.32953 59.87238 44.10096
# Shear Modulus (GPa) = 20.78620 34.38818 27.58719
#
# Velocity S-wave (km/s) = 2.96150 3.80916 3.41176
# Velocity P-wave (km/s) = 4.86285 6.67897 5.84192
#
# Compressibility (1/GPa) = 0.03529885
#
# Stress axis : x y z
#
# Youngs Moduli (GPa) = 54.19983 40.51842 33.04688
#
# Poissons Ratio (x) = -0.12818 0.20173
# Poissons Ratio (y) = -0.17146 0.53222
# Poissons Ratio (z) = 0.33086 0.65254
#
# Static dielectric constant tensor:
#      x y z
#    x 1.949580 -0.022320 -0.060780 
#    y -0.022320 1.887860 -0.008270 
#    z -0.060780 -0.008270 1.952480 
# 
# From -- ./inp_files/381915.got.cif
#   From: 2010.05.17/outbox.cif.g08.bks.cpg/sg2_191_cif.got.tgz:381915.got - 2010.06.03 11:33:40.
