data_PCOD9094933
_publ_section_title
;
Structure prediction by ZEFSAII (Michael W. Deem and Ramdas Pophale) SiO2 
 PCOD9094933
Probable space group: P -1
;
_chemical_formula_sum "Si O2"
_cell_formula_units_Z 16
_cell_length_a 14.469815
_cell_length_b 12.046958
_cell_length_c 9.891217
_cell_angle_alpha 113.104792
_cell_angle_beta 100.913192
_cell_angle_gamma 32.813364
_cell_volume 824.571642
_symmetry_space_group_name_H-M "P -1"
_symmetry_group_IT_number 2
_symmetry_cell_setting 'triclinic'
loop_
_space_group_symop_operation_xyz
x,y,z
-x,-y,-z
loop_
_atom_site_type_symbol
_atom_site_label
_atom_site_fract_x
_atom_site_fract_y
_atom_site_fract_z
Si Si1 0.091844 0.797056 0.668459
Si Si2 0.378500 0.949168 0.244137
Si Si3 0.783229 0.268519 0.948939
Si Si4 0.963428 0.553202 0.675411
Si Si5 0.844072 0.893372 0.478633
Si Si6 0.566388 0.324151 0.087971
Si Si7 0.329748 0.757576 0.627151
Si Si8 0.222831 0.489036 0.781914
O O1 0.184644 0.811187 0.636414
O O2 0.218000 0.568616 0.677412
O O3 0.983939 0.836488 0.549888
O O4 0.949663 0.005781 0.834929
O O5 0.394998 0.820985 0.081369
O O6 0.578029 0.771799 0.253389
O O7 0.246130 0.190229 0.254429
O O8 0.280943 0.009955 0.383165
O O9 0.671487 0.328060 0.067352
O O10 0.643848 0.421017 0.859166
O O11 0.827206 0.356658 0.045486
O O12 0.000000 0.500000 0.500000
O O13 0.044217 0.342955 0.656434
O O14 0.077709 0.542099 0.754850
O O15 0.731708 0.078336 0.419712
O O16 0.627104 0.230456 0.210172
O O17 0.500000 0.500000 0.500000
#
# Coordination Sequence:
#
# PCOD9094933 Si02
#       8
#     2   2   2   2   2   2   2   2
#     4  12  21  37  63  90 126 160 206 254 312 376
#     4  10  21  39  65  90 121 160 217 262 294 358
#     4  10  20  34  64  95 117 156 209 261 306 354
#     4  10  21  39  60  88 128 157 213 260 296 361
#     4  11  23  41  57  91 129 165 203 251 311 373
#     4  10  20  37  62  89 126 158 205 262 302 367
#     4  12  26  39  58  93 131 166 196 250 326 378
#     4  11  20  34  63  99 116 158 206 261 312 343
#
# _framework density 19.404014
#
# number of rings (size 3 to 8) (size 9 to 14) (size 15 to 20)
#    0.000    1.250    5.000    2.250    3.500    2.000 
#    2.250    0.625    0.000    1.500    0.000    0.000 
#    0.000    0.000    0.000    0.000    0.000    0.000 
#
# Total GULP energy -89365.707131 kJ/mol
# GULP energy per Si atom -5585.356696 kJ/mol
# Density = 1.935985 g / cm^3
# Si number density = 19.404014 Si / 1000 Ang^3
#
#
#
# Elastic Constant Matrix: (Units=GPa)
#
#
# Indices 1 2 3 4 5 6 
#
# 1 47.6337 43.7900 25.5682 -5.2954 12.0456 -4.3263
# 2 43.7900 170.8015 41.6748 1.4244 7.4367 8.8083
# 3 25.5682 41.6748 52.7663 -9.0446 12.3973 -0.1895
# 4 -5.2954 1.4244 -9.0446 33.8863 0.3714 -0.4888
# 5 12.0456 7.4367 12.3973 0.3714 23.6938 -4.0624
# 6 -4.3263 8.8083 -0.1895 -0.4888 -4.0624 33.4393
#
#
#
# Elastic Compliance Matrix: (Units=1/GPa)
#
#
# Indices 1 2 3 4 5 6 
#
# 1 0.035443 -0.006806 -0.008673 0.003699 -0.010527 0.005104
# 2 -0.006806 0.008828 -0.004808 -0.002791 0.002745 -0.002941
# 3 -0.008673 -0.004808 0.030599 0.007115 -0.010347 -0.000835
# 4 0.003699 -0.002791 0.007115 0.032176 -0.005041 0.001112
# 5 -0.010527 0.002745 -0.010347 -0.005041 0.052910 0.004210
# 6 0.005104 -0.002941 -0.000835 0.001112 0.004210 0.031863
#
#
# Mechanical properties :
#
#
# Convention : Reuss Voigt Hill
#
# Bulk Modulus (GPa) = 29.15825 54.80751 41.98288
# Shear Modulus (GPa) = 20.50638 28.88178 24.69408
#
# Velocity S-wave (km/s) = 3.25439 3.86222 3.57126
# Velocity P-wave (km/s) = 5.40194 6.94232 6.22000
#
# Compressibility (1/GPa) = 0.03429561
#
# Stress axis : x y z
#
# Youngs Moduli (GPa) = 28.21434 113.27051 32.68078
#
# Poissons Ratio (x) = 0.77097 0.28343
# Poissons Ratio (y) = 0.19204 0.15714
# Poissons Ratio (z) = 0.24469 0.54464
#
# Static dielectric constant tensor:
#      x y z
#    x 1.694230 -0.032470 -0.014330 
#    y -0.032470 1.748610 0.018690 
#    z -0.014330 0.018690 1.698820 
# 
# From -- ./inp_files/308064.got.cif
#   From: 2010.05.17/outbox.cif.g08.bks.cpg/sg2_155_cif.got.tgz:308064.got - 2010.06.03 11:33:40.
