data_PCOD9094188
_publ_section_title
;
Structure prediction by ZEFSAII (Michael W. Deem and Ramdas Pophale) SiO2 
 PCOD9094188
Probable space group: P -1
;
_chemical_formula_sum "Si O2"
_cell_formula_units_Z 16
_cell_length_a 24.059890
_cell_length_b 11.580348
_cell_length_c 5.154791
_cell_angle_alpha 69.648752
_cell_angle_beta 58.255352
_cell_angle_gamma 44.436619
_cell_volume 854.171974
_symmetry_space_group_name_H-M "P -1"
_symmetry_group_IT_number 2
_symmetry_cell_setting 'triclinic'
loop_
_space_group_symop_operation_xyz
x,y,z
-x,-y,-z
loop_
_atom_site_type_symbol
_atom_site_label
_atom_site_fract_x
_atom_site_fract_y
_atom_site_fract_z
Si Si1 0.615861 0.192674 0.339572
Si Si2 0.356534 0.623584 0.225039
Si Si3 0.111298 0.393803 0.063953
Si Si4 0.767315 0.055756 0.468531
Si Si5 0.577166 0.593664 0.256202
Si Si6 0.066587 0.284996 0.761037
Si Si7 0.441296 0.101710 0.817292
Si Si8 0.702478 0.887967 0.044002
O O1 0.700301 0.138112 0.326708
O O2 0.525980 0.298321 0.635596
O O3 0.641648 0.025379 0.306111
O O4 0.599842 0.306293 0.051301
O O5 0.259845 0.794132 0.407285
O O6 0.397711 0.520602 0.468256
O O7 0.368135 0.512660 0.049120
O O8 0.086598 0.345822 0.416429
O O9 0.038925 0.592639 0.064439
O O10 0.096593 0.323640 0.909151
O O11 0.214291 0.291369 0.912325
O O12 0.869084 0.912460 0.261855
O O13 0.740575 0.962126 0.752576
O O14 0.587344 0.720883 0.223612
O O15 0.357114 0.119550 0.986824
O O16 0.500000 0.000000 0.500000
O O17 0.500000 0.000000 0.000000
#
# Coordination Sequence:
#
# PCOD9094188 Si02
#       8
#     2   2   2   2   2   2   2   2
#     4  11  20  34  55  76 109 135 178 217 271 314
#     4  11  24  36  52  76 103 140 180 220 265 309
#     4   9  17  30  50  76 111 136 170 206 262 333
#     4  10  20  34  55  81 111 137 171 218 270 327
#     4  12  24  37  52  73 105 142 183 222 254 305
#     4   9  17  30  49  79 109 139 161 210 270 324
#     4  12  25  41  56  76 106 146 188 223 259 306
#     4  10  21  34  55  82 107 147 175 219 267 319
#
# _framework density 18.731591999999999
#
# number of rings (size 3 to 8) (size 9 to 14) (size 15 to 20)
#    0.000    1.500    3.750    2.250    3.500    0.000 
#    0.000    0.000    0.000    0.000    0.000    1.750 
#    0.000    0.125    0.000    0.000    0.000    0.000 
#
# Total GULP energy -89222.300873 kJ/mol
# GULP energy per Si atom -5576.393805 kJ/mol
# Density = 1.868896 g / cm^3
# Si number density = 18.731592 Si / 1000 Ang^3
#
#
#
# Elastic Constant Matrix: (Units=GPa)
#
#
# Indices 1 2 3 4 5 6 
#
# 1 79.5610 58.3006 26.6679 11.7021 19.5794 -4.2458
# 2 58.3006 160.8013 40.0194 34.4849 8.0014 -4.4140
# 3 26.6679 40.0194 55.0861 9.7636 29.8318 -3.5850
# 4 11.7021 34.4849 9.7636 27.7660 2.9084 9.8197
# 5 19.5794 8.0014 29.8318 2.9084 28.9044 -1.2148
# 6 -4.2458 -4.4140 -3.5850 9.8197 -1.2148 28.3191
#
#
#
# Elastic Compliance Matrix: (Units=1/GPa)
#
#
# Indices 1 2 3 4 5 6 
#
# 1 0.021059 -0.008136 0.004978 0.000736 -0.017160 0.001528
# 2 -0.008136 0.014565 -0.012616 -0.013631 0.016076 0.004870
# 3 0.004978 -0.012616 0.057254 -0.001899 -0.058604 0.004172
# 4 0.000736 -0.013631 -0.001899 0.061934 -0.001999 -0.023816
# 5 -0.017160 0.016076 -0.058604 -0.001999 0.102355 -0.002402
# 6 0.001528 0.004870 0.004172 -0.023816 -0.002402 0.044983
#
#
# Mechanical properties :
#
#
# Convention : Reuss Voigt Hill
#
# Bulk Modulus (GPa) = 16.30525 60.60269 38.45397
# Shear Modulus (GPa) = 14.11862 28.36195 21.24028
#
# Velocity S-wave (km/s) = 2.74840 3.89540 3.37104
# Velocity P-wave (km/s) = 4.33534 7.25642 5.97707
#
# Compressibility (1/GPa) = 0.06132993
#
# Stress axis : x y z
#
# Youngs Moduli (GPa) = 47.48665 68.65559 17.46600
#
# Poissons Ratio (x) = 0.55858 -0.08695
# Poissons Ratio (y) = 0.38635 0.22035
# Poissons Ratio (z) = -0.23639 0.86616
#
# Static dielectric constant tensor:
#      x y z
#    x 1.629080 -0.020760 0.029170 
#    y -0.020760 1.724310 0.023350 
#    z 0.029170 0.023350 1.685770 
# 
# From -- ./inp_files/98594.got.cif
#   From: 2010.05.17/outbox.cif.g08.bks.cpg/sg2_50_cif.got.tgz:98594.got - 2010.06.03 11:33:40.
