data_PCOD9094932
_publ_section_title
;
Structure prediction by ZEFSAII (Michael W. Deem and Ramdas Pophale) SiO2 
 PCOD9094932
Probable space group: P -1
;
_chemical_formula_sum "Si O2"
_cell_formula_units_Z 13
_cell_length_a 9.374357
_cell_length_b 11.359539
_cell_length_c 8.598552
_cell_angle_alpha 116.410577
_cell_angle_beta 128.477893
_cell_angle_gamma 64.736098
_cell_volume 627.128497
_symmetry_space_group_name_H-M "P -1"
_symmetry_group_IT_number 2
_symmetry_cell_setting 'triclinic'
loop_
_space_group_symop_operation_xyz
x,y,z
-x,-y,-z
loop_
_atom_site_type_symbol
_atom_site_label
_atom_site_fract_x
_atom_site_fract_y
_atom_site_fract_z
Si Si1 0.179936 0.755656 0.243110
Si Si2 0.500000 0.000000 0.000000
Si Si3 0.758456 0.460574 0.573319
Si Si4 0.479274 0.420466 0.785326
Si Si5 0.850738 0.673072 0.340638
Si Si6 0.824742 0.973651 0.462443
Si Si7 0.764755 0.715039 0.947158
O O1 0.229348 0.669832 0.385872
O O2 0.324989 0.678266 0.172453
O O3 0.211964 0.905449 0.369916
O O4 0.963958 0.753982 0.066901
O O5 0.345214 0.020986 0.767520
O O6 0.602051 0.847813 0.908679
O O7 0.586217 0.486755 0.354079
O O8 0.749511 0.592083 0.751382
O O9 0.949897 0.428625 0.584903
O O10 0.307661 0.349944 0.663435
O O11 0.500000 0.500000 0.000000
O O12 0.877717 0.823788 0.476178
O O13 0.781659 0.665693 0.109895
O O14 0.000000 0.000000 0.500000
#
# Coordination Sequence:
#
# PCOD9094932 Si02
#       7
#     2   1   2   2   2   2   2
#     4  11  22  40  65  94 124 167 213 264 312 381
#     4  10  20  34  64  94 120 162 208 262 316 354
#     4  11  21  39  65  88 122 170 217 255 316 381
#     4  12  25  39  59  94 134 163 207 268 325 375
#     4  10  22  40  63  92 129 166 203 269 320 370
#     4  11  20  41  65  94 127 164 217 266 306 379
#     4  10  20  39  65  92 121 163 220 259 309 382
#
# _framework density 20.729405
#
# number of rings (size 3 to 8) (size 9 to 14) (size 15 to 20)
#    0.000    1.231    4.615    5.538    0.000    3.077 
#    0.000    0.000    0.000    5.538    0.000    0.000 
#    0.000    0.000    0.000    0.000    0.000    0.000 
#
# Total GULP energy -72395.998251 kJ/mol
# GULP energy per Si atom -5568.922942 kJ/mol
# Density = 2.068222 g / cm^3
# Si number density = 20.729405 Si / 1000 Ang^3
#
#
#
# Elastic Constant Matrix: (Units=GPa)
#
#
# Indices 1 2 3 4 5 6 
#
# 1 84.6697 26.5259 -13.1435 9.9318 3.8741 -9.2199
# 2 26.5259 128.3155 36.0680 21.0727 -1.4299 -25.4578
# 3 -13.1435 36.0680 76.3697 15.6857 -8.7638 -2.7481
# 4 9.9318 21.0727 15.6857 32.1060 -10.1461 6.9802
# 5 3.8741 -1.4299 -8.7638 -10.1461 22.1505 7.1660
# 6 -9.2199 -25.4578 -2.7481 6.9802 7.1660 35.6536
#
#
#
# Elastic Compliance Matrix: (Units=1/GPa)
#
#
# Indices 1 2 3 4 5 6 
#
# 1 0.015281 -0.001710 0.004815 -0.009719 -0.007432 0.006498
# 2 -0.001710 0.014538 -0.005247 -0.013254 -0.011587 0.014457
# 3 0.004815 -0.005247 0.017916 -0.005473 0.003654 -0.000784
# 4 -0.009719 -0.013254 -0.005473 0.065082 0.039170 -0.033013
# 5 -0.007432 -0.011587 0.003654 0.039170 0.075695 -0.032796
# 6 0.006498 0.014457 -0.000784 -0.033013 -0.032796 0.053046
#
#
# Mechanical properties :
#
#
# Convention : Reuss Voigt Hill
#
# Bulk Modulus (GPa) = 23.01479 43.13954 33.07716
# Shear Modulus (GPa) = 19.20665 33.97566 26.59115
#
# Velocity S-wave (km/s) = 3.04722 4.05286 3.58547
# Velocity P-wave (km/s) = 4.84843 6.53887 5.75605
#
# Compressibility (1/GPa) = 0.04345032
#
# Stress axis : x y z
#
# Youngs Moduli (GPa) = 65.43920 68.78759 55.81504
#
# Poissons Ratio (x) = 0.11761 -0.26873
# Poissons Ratio (y) = 0.11189 0.29287
# Poissons Ratio (z) = -0.31506 0.36094
#
# Static dielectric constant tensor:
#      x y z
#    x 1.796140 0.003140 0.021710 
#    y 0.003140 1.751910 0.026180 
#    z 0.021710 0.026180 1.754570 
# 
# From -- ./inp_files/167392.got.cif
#   From: 2010.05.17/outbox.cif.g08.bks.cpg/sg2_84_cif.got.tgz:167392.got - 2010.06.03 11:33:40.
