data_PCOD9094330
_publ_section_title
;
Structure prediction by ZEFSAII (Michael W. Deem and Ramdas Pophale) SiO2 
 PCOD9094330
Probable space group: P -1
;
_chemical_formula_sum "Si O2"
_cell_formula_units_Z 14
_cell_length_a 8.976380
_cell_length_b 8.931184
_cell_length_c 12.235843
_cell_angle_alpha 118.134107
_cell_angle_beta 121.680402
_cell_angle_gamma 83.808879
_cell_volume 723.256867
_symmetry_space_group_name_H-M "P -1"
_symmetry_group_IT_number 2
_symmetry_cell_setting 'triclinic'
loop_
_space_group_symop_operation_xyz
x,y,z
-x,-y,-z
loop_
_atom_site_type_symbol
_atom_site_label
_atom_site_fract_x
_atom_site_fract_y
_atom_site_fract_z
Si Si1 0.791727 0.313911 0.855637
Si Si2 0.460488 0.025729 0.687778
Si Si3 0.822245 0.695900 0.950482
Si Si4 0.873327 0.170634 0.607833
Si Si5 0.204947 0.034950 0.788085
Si Si6 0.853977 0.337356 0.420033
Si Si7 0.474432 0.341330 0.352890
O O1 0.613674 0.182869 0.770992
O O2 0.780539 0.513362 0.936316
O O3 0.831897 0.285170 0.733141
O O4 0.964269 0.271952 0.970880
O O5 0.378073 0.053412 0.784314
O O6 0.292554 0.987784 0.527639
O O7 0.528625 0.843667 0.654682
O O8 0.704396 0.671224 0.789008
O O9 0.771438 0.850322 0.055475
O O10 0.886998 0.274578 0.535081
O O11 0.050973 0.101588 0.682339
O O12 0.143107 0.830279 0.711430
O O13 0.652011 0.370973 0.355866
O O14 0.000000 0.500000 0.500000
O O15 0.500000 0.500000 0.500000
#
# Coordination Sequence:
#
# PCOD9094330 Si02
#       7
#     2   2   2   2   2   2   2
#     4  10  21  36  57  81 109 147 188 230 271 324
#     4  10  20  34  56  85 109 143 188 227 274 328
#     4  10  21  38  54  77 114 149 183 228 281 328
#     4   9  18  37  58  80 113 143 184 231 270 324
#     4   9  20  37  56  81 115 147 181 230 277 325
#     4  10  21  36  58  86 111 144 186 228 273 327
#     4  10  22  39  57  80 113 146 183 231 280 333
#
# _framework density 19.356884999999998
#
# number of rings (size 3 to 8) (size 9 to 14) (size 15 to 20)
#    0.000    2.571    0.000    3.857    0.000    8.000 
#    0.000    8.571    0.000    0.000    0.000    0.000 
#    0.000    0.000    0.000    0.000    0.000    0.000 
#
# Total GULP energy -78134.265843 kJ/mol
# GULP energy per Si atom -5581.018989 kJ/mol
# Density = 1.931283 g / cm^3
# Si number density = 19.356885 Si / 1000 Ang^3
#
#
#
# Elastic Constant Matrix: (Units=GPa)
#
#
# Indices 1 2 3 4 5 6 
#
# 1 57.6763 44.3895 37.0360 23.4113 11.2178 7.3690
# 2 44.3895 60.2996 33.5043 32.3147 -0.9361 -1.0751
# 3 37.0360 33.5043 128.8719 15.5777 3.7773 -5.3173
# 4 23.4113 32.3147 15.5777 40.5978 -6.9611 6.8286
# 5 11.2178 -0.9361 3.7773 -6.9611 26.0594 15.3813
# 6 7.3690 -1.0751 -5.3173 6.8286 15.3813 29.1223
#
#
#
# Elastic Compliance Matrix: (Units=1/GPa)
#
#
# Indices 1 2 3 4 5 6 
#
# 1 0.054896 -0.034635 -0.005402 -0.005951 -0.024656 -0.001738
# 2 -0.034635 0.059147 -0.000907 -0.030336 -0.002180 0.019047
# 3 -0.005402 -0.000907 0.009927 -0.001092 -0.002101 0.004511
# 4 -0.005951 -0.030336 -0.001092 0.065874 0.041021 -0.036926
# 5 -0.024656 -0.002180 -0.002101 0.041021 0.090722 -0.051760
# 6 -0.001738 0.019047 0.004511 -0.036926 -0.051760 0.072300
#
#
# Mechanical properties :
#
#
# Convention : Reuss Voigt Hill
#
# Bulk Modulus (GPa) = 23.76214 52.96748 38.36481
# Shear Modulus (GPa) = 11.14126 27.95043 19.54584
#
# Velocity S-wave (km/s) = 2.40171 3.80406 3.18112
# Velocity P-wave (km/s) = 4.47140 6.83502 5.77542
#
# Compressibility (1/GPa) = 0.04208376
#
# Stress axis : x y z
#
# Youngs Moduli (GPa) = 18.21629 16.90690 100.73142
#
# Poissons Ratio (x) = 0.58557 0.54411
# Poissons Ratio (y) = 0.63092 0.09135
# Poissons Ratio (z) = 0.09840 0.01533
#
# Static dielectric constant tensor:
#      x y z
#    x 1.684520 -0.026350 -0.006070 
#    y -0.026350 1.677900 -0.004310 
#    z -0.006070 -0.004310 1.692790 
# 
# From -- ./inp_files/167853.got.cif
#   From: 2010.05.17/outbox.cif.g08.bks.cpg/sg2_84_cif.got.tgz:167853.got - 2010.06.03 11:33:40.
