data_PCOD9094175
_publ_section_title
;
Structure prediction by ZEFSAII (Michael W. Deem and Ramdas Pophale) SiO2 
 PCOD9094175
Probable space group: P -1
;
_chemical_formula_sum "Si O2"
_cell_formula_units_Z 14
_cell_length_a 11.791484
_cell_length_b 29.784517
_cell_length_c 11.792381
_cell_angle_alpha 153.033357
_cell_angle_beta 141.609823
_cell_angle_gamma 20.702840
_cell_volume 630.928180
_symmetry_space_group_name_H-M "P -1"
_symmetry_group_IT_number 2
_symmetry_cell_setting 'triclinic'
loop_
_space_group_symop_operation_xyz
x,y,z
-x,-y,-z
loop_
_atom_site_type_symbol
_atom_site_label
_atom_site_fract_x
_atom_site_fract_y
_atom_site_fract_z
Si Si1 0.817407 0.851014 0.331726
Si Si2 0.335832 0.334493 0.693244
Si Si3 0.547251 0.858461 0.464695
Si Si4 0.338830 0.514342 0.277119
Si Si5 0.451858 0.320925 0.117437
Si Si6 0.303465 0.482520 0.804359
Si Si7 0.407012 0.672069 0.537488
O O1 0.090631 0.793701 0.482424
O O2 0.500000 0.000000 0.500000
O O3 0.707605 0.942280 0.328957
O O4 0.960008 0.675731 0.029861
O O5 0.517676 0.159936 0.504670
O O6 0.455623 0.327340 0.653562
O O7 0.939838 0.488265 0.724241
O O8 0.347581 0.417631 0.980343
O O9 0.939989 0.712924 0.438536
O O10 0.514364 0.787834 0.183573
O O11 0.528728 0.383187 0.240633
O O12 0.474460 0.542438 0.372238
O O13 0.647812 0.225205 0.173818
O O14 0.297800 0.448825 0.595072
O O15 0.500000 0.500000 0.000000
#
# Coordination Sequence:
#
# PCOD9094175 Si02
#       7
#     2   2   2   2   2   2   2
#     4  11  19  34  56  80 104 140 179 214 256 313
#     4   9  16  34  53  74 103 140 179 210 250 312
#     4   9  18  32  55  81 101 136 177 217 258 304
#     4   9  15  32  55  76 100 138 181 212 244 314
#     4   9  19  30  53  83 106 132 174 223 261 300
#     4  10  20  34  55  77 103 141 182 213 249 317
#     4  11  20  32  53  83 108 133 174 220 261 308
#
# _framework density 22.189529
#
# number of rings (size 3 to 8) (size 9 to 14) (size 15 to 20)
#    0.000    2.286    4.286    3.000    0.000    1.143 
#    0.000    2.857    0.000    3.429    0.000    0.000 
#    0.000    0.000    0.000    0.000    0.000    0.000 
#
# Total GULP energy -78038.950503 kJ/mol
# GULP energy per Si atom -5574.210750 kJ/mol
# Density = 2.213902 g / cm^3
# Si number density = 22.189529 Si / 1000 Ang^3
#
#
#
# Elastic Constant Matrix: (Units=GPa)
#
#
# Indices 1 2 3 4 5 6 
#
# 1 156.7826 26.3809 19.2600 -4.5258 1.2255 36.1476
# 2 26.3809 56.3280 13.1149 -3.8645 -4.3879 25.6188
# 3 19.2600 13.1149 27.2960 -1.7494 -6.2459 7.7184
# 4 -4.5258 -3.8645 -1.7494 15.1814 6.5793 1.1466
# 5 1.2255 -4.3879 -6.2459 6.5793 30.7826 -0.1989
# 6 36.1476 25.6188 7.7184 1.1466 -0.1989 42.5244
#
#
#
# Elastic Compliance Matrix: (Units=1/GPa)
#
#
# Indices 1 2 3 4 5 6 
#
# 1 0.008549 0.000134 -0.004457 0.003439 -0.002004 -0.006641
# 2 0.000134 0.026964 -0.008217 0.006827 0.000615 -0.015048
# 3 -0.004457 -0.008217 0.045413 -0.001979 0.008647 0.000590
# 4 0.003439 0.006827 -0.001979 0.075940 -0.015853 -0.008799
# 5 -0.002004 0.000615 0.008647 -0.015853 0.037799 0.000368
# 6 -0.006641 -0.015048 0.000590 -0.008799 0.000368 0.038359
#
#
# Mechanical properties :
#
#
# Convention : Reuss Voigt Hill
#
# Bulk Modulus (GPa) = 17.90594 39.76869 28.83732
# Shear Modulus (GPa) = 18.06889 29.80774 23.93831
#
# Velocity S-wave (km/s) = 2.85669 3.66912 3.28809
# Velocity P-wave (km/s) = 4.35522 5.99258 5.23827
#
# Compressibility (1/GPa) = 0.05584738
#
# Stress axis : x y z
#
# Youngs Moduli (GPa) = 116.96796 37.08678 22.02004
#
# Poissons Ratio (x) = -0.00497 0.09814
# Poissons Ratio (y) = -0.01568 0.18093
# Poissons Ratio (z) = 0.52132 0.30473
#
# Static dielectric constant tensor:
#      x y z
#    x 1.926530 -0.036190 -0.002670 
#    y -0.036190 1.903470 -0.025890 
#    z -0.002670 -0.025890 1.890190 
# 
# From -- ./inp_files/175390.got.cif
#   From: 2010.05.17/outbox.cif.g08.bks.cpg/sg2_88_cif.got.tgz:175390.got - 2010.06.03 11:33:40.
