data_PCOD9094831
_publ_section_title
;
Structure prediction by ZEFSAII (Michael W. Deem and Ramdas Pophale) SiO2 
 PCOD9094831
Probable space group: P -1
;
_chemical_formula_sum "Si O2"
_cell_formula_units_Z 14
_cell_length_a 15.155179
_cell_length_b 14.986597
_cell_length_c 15.120887
_cell_angle_alpha 38.318116
_cell_angle_beta 34.704736
_cell_angle_gamma 19.437894
_cell_volume 649.911124
_symmetry_space_group_name_H-M "P -1"
_symmetry_group_IT_number 2
_symmetry_cell_setting 'triclinic'
loop_
_space_group_symop_operation_xyz
x,y,z
-x,-y,-z
loop_
_atom_site_type_symbol
_atom_site_label
_atom_site_fract_x
_atom_site_fract_y
_atom_site_fract_z
Si Si1 0.532554 0.054024 0.046854
Si Si2 0.936637 0.861251 0.985462
Si Si3 0.628002 0.563572 0.535389
Si Si4 0.164097 0.721041 0.092984
Si Si5 0.951958 0.892606 0.317667
Si Si6 0.866149 0.511275 0.208776
Si Si7 0.372751 0.460134 0.778449
O O1 0.202776 0.263165 0.146828
O O2 0.737204 0.760293 0.081827
O O3 0.570754 0.167347 0.867635
O O4 0.634993 0.022665 0.084675
O O5 0.151238 0.643245 0.900597
O O6 0.908191 0.056300 0.845652
O O7 0.081557 0.709846 0.077557
O O8 0.701931 0.611631 0.357872
O O9 0.528910 0.490677 0.628951
O O10 0.900275 0.310365 0.568023
O O11 0.377076 0.817993 0.609287
O O12 0.029464 0.760348 0.262513
O O13 0.500000 0.500000 0.000000
O O14 0.000000 0.000000 0.000000
O O15 0.783115 0.453128 0.252484
#
# Coordination Sequence:
#
# PCOD9094831 Si02
#       7
#     2   2   2   2   2   2   2
#     4  12  24  42  60  91 128 163 205 257 307 364
#     4  10  22  37  64  95 124 155 202 260 315 355
#     4  11  23  42  62  90 124 166 206 252 302 364
#     4  10  20  34  61  98 125 149 197 262 316 353
#     4  10  20  39  63  90 124 156 202 256 308 361
#     4  12  27  39  62  89 128 169 207 247 308 368
#     4  11  23  42  64  91 122 162 213 260 300 357
#
# _framework density 21.541408000000001
#
# number of rings (size 3 to 8) (size 9 to 14) (size 15 to 20)
#    0.000    1.143    2.857    4.714    4.000    0.000 
#    0.000    3.571    0.000    5.143    0.000    0.000 
#    0.000    0.000    0.000    0.000    0.000    0.000 
#
# Total GULP energy -78214.687084 kJ/mol
# GULP energy per Si atom -5586.763363 kJ/mol
# Density = 2.149238 g / cm^3
# Si number density = 21.541408 Si / 1000 Ang^3
#
#
#
# Elastic Constant Matrix: (Units=GPa)
#
#
# Indices 1 2 3 4 5 6 
#
# 1 108.5462 20.1719 19.4825 6.9085 28.9390 -15.7892
# 2 20.1719 103.8770 4.4759 -9.1341 2.3904 -14.4032
# 3 19.4825 4.4759 61.9392 1.1107 16.9369 0.1316
# 4 6.9085 -9.1341 1.1107 19.6397 1.5744 3.7847
# 5 28.9390 2.3904 16.9369 1.5744 24.9879 4.8056
# 6 -15.7892 -14.4032 0.1316 3.7847 4.8056 32.9899
#
#
#
# Elastic Compliance Matrix: (Units=1/GPa)
#
#
# Indices 1 2 3 4 5 6 
#
# 1 0.017652 -0.001987 0.000893 -0.007634 -0.022637 0.011750
# 2 -0.001987 0.010903 -0.000433 0.005141 0.000626 0.003130
# 3 0.000893 -0.000433 0.019997 -0.000918 -0.014959 0.002443
# 4 -0.007634 0.005141 -0.000918 0.057211 0.007098 -0.009003
# 5 -0.022637 0.000626 -0.014959 0.007098 0.080294 -0.023012
# 6 0.011750 0.003130 0.002443 -0.009003 -0.023012 0.041678
#
#
# Mechanical properties :
#
#
# Convention : Reuss Voigt Hill
#
# Bulk Modulus (GPa) = 21.97910 40.29147 31.13528
# Shear Modulus (GPa) = 20.32897 30.87229 25.60063
#
# Velocity S-wave (km/s) = 3.07533 3.78982 3.45111
# Velocity P-wave (km/s) = 4.77865 6.15590 5.51047
#
# Compressibility (1/GPa) = 0.04549777
#
# Stress axis : x y z
#
# Youngs Moduli (GPa) = 56.65102 91.71812 50.00779
#
# Poissons Ratio (x) = 0.18228 -0.04467
# Poissons Ratio (y) = 0.11259 0.02165
# Poissons Ratio (z) = -0.05060 0.03970
#
# Static dielectric constant tensor:
#      x y z
#    x 1.879050 0.021400 0.010580 
#    y 0.021400 1.811030 -0.005980 
#    z 0.010580 -0.005980 1.756040 
# 
# From -- ./inp_files/311372.got.cif
#   From: 2010.05.17/outbox.cif.g08.bks.cpg/sg2_156_cif.got.tgz:311372.got - 2010.06.03 11:33:40.
