data_PCOD9094419
_publ_section_title
;
Structure prediction by ZEFSAII (Michael W. Deem and Ramdas Pophale) SiO2 
 PCOD9094419
Probable space group: P -1
;
_chemical_formula_sum "Si O2"
_cell_formula_units_Z 16
_cell_length_a 12.616656
_cell_length_b 16.162200
_cell_length_c 8.965918
_cell_angle_alpha 111.592416
_cell_angle_beta 115.419784
_cell_angle_gamma 27.953539
_cell_volume 773.771088
_symmetry_space_group_name_H-M "P -1"
_symmetry_group_IT_number 2
_symmetry_cell_setting 'triclinic'
loop_
_space_group_symop_operation_xyz
x,y,z
-x,-y,-z
loop_
_atom_site_type_symbol
_atom_site_label
_atom_site_fract_x
_atom_site_fract_y
_atom_site_fract_z
Si Si1 0.296897 0.206348 0.337209
Si Si2 0.302552 0.997944 0.749214
Si Si3 0.223003 0.863060 0.646880
Si Si4 0.853575 0.568492 0.183343
Si Si5 0.590044 0.068009 0.716662
Si Si6 0.369016 0.495745 0.465876
Si Si7 0.018228 0.827924 0.626813
Si Si8 0.003068 0.353683 0.851212
O O1 0.428061 0.149336 0.529489
O O2 0.030535 0.412972 0.310158
O O3 0.434687 0.162906 0.255326
O O4 0.341272 0.071598 0.261396
O O5 0.141860 0.085164 0.561225
O O6 0.213732 0.147152 0.866940
O O7 0.262003 0.936135 0.780044
O O8 0.432540 0.707752 0.553483
O O9 0.171473 0.817398 0.700794
O O10 0.000000 0.000000 0.500000
O O11 0.581171 0.755289 0.179199
O O12 0.926648 0.621062 0.216060
O O13 0.910938 0.468324 0.011442
O O14 0.833041 0.948906 0.726806
O O15 0.500000 0.500000 0.500000
O O16 0.201440 0.574307 0.285165
O O17 0.207108 0.624098 0.594314
#
# Coordination Sequence:
#
# PCOD9094419 Si02
#       8
#     2   2   2   2   2   2   2   2
#     4  10  20  34  57  83 108 154 190 233 285 332
#     4   9  16  32  50  80 113 137 185 238 276 330
#     4   9  16  29  52  83 106 135 182 237 288 325
#     4  11  22  37  55  83 120 157 190 223 294 346
#     4  10  20  38  54  81 120 147 192 238 272 346
#     4   9  17  33  56  80 106 140 188 239 283 320
#     4   8  17  31  53  78 109 141 179 236 285 323
#     4  10  21  36  55  83 119 150 187 241 281 345
#
# _framework density 20.677951
#
# number of rings (size 3 to 8) (size 9 to 14) (size 15 to 20)
#    0.000    2.500    1.250    1.875    1.750    0.500 
#    9.000    0.000    0.000    3.750    0.000    0.000 
#    0.000    0.000    0.000    0.000    0.000    0.000 
#
# Total GULP energy -89147.875844 kJ/mol
# GULP energy per Si atom -5571.742240 kJ/mol
# Density = 2.063089 g / cm^3
# Si number density = 20.677951 Si / 1000 Ang^3
#
#
#
# Elastic Constant Matrix: (Units=GPa)
#
#
# Indices 1 2 3 4 5 6 
#
# 1 98.0610 43.6187 23.0986 17.0406 6.4165 -2.0408
# 2 43.6187 141.1563 13.5848 27.2138 -5.1387 -7.4314
# 3 23.0986 13.5848 27.2009 6.4719 2.7339 1.5637
# 4 17.0406 27.2138 6.4719 25.8157 -0.5471 0.7115
# 5 6.4165 -5.1387 2.7339 -0.5471 17.3495 8.8800
# 6 -2.0408 -7.4314 1.5637 0.7115 8.8800 33.0067
#
#
#
# Elastic Compliance Matrix: (Units=1/GPa)
#
#
# Indices 1 2 3 4 5 6 
#
# 1 0.015064 -0.002923 -0.009740 -0.004625 -0.006350 0.002543
# 2 -0.002923 0.009841 -0.000881 -0.008196 0.003158 0.001404
# 3 -0.009740 -0.000881 0.046962 -0.004424 -0.003130 -0.002088
# 4 -0.004625 -0.008196 -0.004424 0.051726 0.003671 -0.004024
# 5 -0.006350 0.003158 -0.003130 0.003671 0.071127 -0.018748
# 6 0.002543 0.001404 -0.002088 -0.004024 -0.018748 0.036000
#
#
# Mechanical properties :
#
#
# Convention : Reuss Voigt Hill
#
# Bulk Modulus (GPa) = 22.33167 47.44691 34.88929
# Shear Modulus (GPa) = 18.33275 27.64212 22.98744
#
# Velocity S-wave (km/s) = 2.98079 3.66018 3.33782
# Velocity P-wave (km/s) = 4.76130 6.39203 5.63596
#
# Compressibility (1/GPa) = 0.04477945
#
# Stress axis : x y z
#
# Youngs Moduli (GPa) = 66.38123 101.61190 21.29393
#
# Poissons Ratio (x) = 0.29704 0.20740
# Poissons Ratio (y) = 0.19405 0.01875
# Poissons Ratio (z) = 0.64656 0.08949
#
# Static dielectric constant tensor:
#      x y z
#    x 1.712980 0.017890 -0.076330 
#    y 0.017890 1.810610 0.027040 
#    z -0.076330 0.027040 1.679910 
# 
# From -- ./inp_files/273808.got.cif
#   From: 2010.05.17/outbox.cif.g08.bks.cpg/sg2_137_cif.got.tgz:273808.got - 2010.06.03 11:33:40.
