data_PCOD9094442
_publ_section_title
;
Structure prediction by ZEFSAII (Michael W. Deem and Ramdas Pophale) SiO2 
 PCOD9094442
Probable space group: P -1
;
_chemical_formula_sum "Si O2"
_cell_formula_units_Z 14
_cell_length_a 11.575239
_cell_length_b 24.887824
_cell_length_c 5.088968
_cell_angle_alpha 73.577672
_cell_angle_beta 67.843037
_cell_angle_gamma 31.331723
_cell_volume 703.665135
_symmetry_space_group_name_H-M "P -1"
_symmetry_group_IT_number 2
_symmetry_cell_setting 'triclinic'
loop_
_space_group_symop_operation_xyz
x,y,z
-x,-y,-z
loop_
_atom_site_type_symbol
_atom_site_label
_atom_site_fract_x
_atom_site_fract_y
_atom_site_fract_z
Si Si1 0.284995 0.078916 0.771058
Si Si2 0.358518 0.369109 0.361935
Si Si3 0.241037 0.301787 0.802812
Si Si4 0.981027 0.947746 0.443546
Si Si5 0.502730 0.095451 0.793823
Si Si6 0.000960 0.572715 0.653562
Si Si7 0.149105 0.823592 0.988064
O O1 0.292721 0.138196 0.801459
O O2 0.033156 0.154720 0.791137
O O3 0.500000 0.000000 0.500000
O O4 0.368362 0.998332 0.005942
O O5 0.386586 0.303484 0.615493
O O6 0.157064 0.423630 0.261201
O O7 0.253296 0.458486 0.503436
O O8 0.587554 0.294227 0.106762
O O9 0.403183 0.188454 0.884442
O O10 0.107902 0.344030 0.583149
O O11 0.055281 0.383601 0.073674
O O12 0.113775 0.887166 0.140616
O O13 0.078815 0.868994 0.691469
O O14 0.000000 0.000000 0.500000
O O15 0.708130 0.038313 0.504158
#
# Coordination Sequence:
#
# PCOD9094442 Si02
#       7
#     2   2   2   2   2   2   2
#     4  10  21  40  55  78 110 155 195 227 264 323
#     4   9  21  35  58  83 114 144 179 229 281 336
#     4  10  20  34  57  86 107 149 177 229 277 338
#     4  11  23  35  51  87 115 142 173 234 277 337
#     4  10  22  36  58  78 115 149 191 226 272 331
#     4   9  21  34  56  83 116 140 182 221 287 335
#     4  11  23  35  58  78 112 149 186 221 278 331
#
# _framework density 19.895828000000002
#
# number of rings (size 3 to 8) (size 9 to 14) (size 15 to 20)
#    0.857    1.143    1.429    1.714    6.000    0.000 
#    0.000    0.000    0.000    1.714    0.000    0.000 
#    0.000    0.000    0.000    0.000    0.000    0.000 
#
# Total GULP energy -77954.718255 kJ/mol
# GULP energy per Si atom -5568.194161 kJ/mol
# Density = 1.985054 g / cm^3
# Si number density = 19.895828 Si / 1000 Ang^3
#
#
#
# Elastic Constant Matrix: (Units=GPa)
#
#
# Indices 1 2 3 4 5 6 
#
# 1 51.6409 25.2775 21.5641 13.7332 -10.2321 -6.5960
# 2 25.2775 74.5566 28.7787 30.7845 -11.3841 6.6977
# 3 21.5641 28.7787 81.9136 30.0708 2.5943 -0.3747
# 4 13.7332 30.7845 30.0708 41.6635 -6.0873 -2.9813
# 5 -10.2321 -11.3841 2.5943 -6.0873 28.2587 4.7088
# 6 -6.5960 6.6977 -0.3747 -2.9813 4.7088 18.0489
#
#
#
# Elastic Compliance Matrix: (Units=1/GPa)
#
#
# Indices 1 2 3 4 5 6 
#
# 1 0.027860 -0.008826 -0.005446 0.002974 0.005612 0.012371
# 2 -0.008826 0.025940 -0.001413 -0.015459 0.006927 -0.017241
# 3 -0.005446 -0.001413 0.018614 -0.011644 -0.006543 -0.001296
# 4 0.002974 -0.015459 -0.011644 0.044260 0.003280 0.013037
# 5 0.005612 0.006927 -0.006543 0.003280 0.043424 -0.011443
# 6 0.012371 -0.017241 -0.001296 0.013037 -0.011443 0.071436
#
#
# Mechanical properties :
#
#
# Convention : Reuss Voigt Hill
#
# Bulk Modulus (GPa) = 24.36444 39.92798 32.14621
# Shear Modulus (GPa) = 18.07757 26.42692 22.25225
#
# Velocity S-wave (km/s) = 3.01759 3.64849 3.34793
# Velocity P-wave (km/s) = 4.94102 6.15311 5.58007
#
# Compressibility (1/GPa) = 0.04104342
#
# Stress axis : x y z
#
# Youngs Moduli (GPa) = 35.89387 38.55038 53.72269
#
# Poissons Ratio (x) = 0.34023 0.29259
# Poissons Ratio (y) = 0.31679 0.07592
# Poissons Ratio (z) = 0.19549 0.05448
#
# Static dielectric constant tensor:
#      x y z
#    x 1.803970 -0.025360 0.009900 
#    y -0.025360 1.729170 -0.009590 
#    z 0.009900 -0.009590 1.761990 
# 
# From -- ./inp_files/84267.got.cif
#   From: 2010.05.17/outbox.cif.g08.bks.cpg/sg2_43_cif.got.tgz:84267.got - 2010.06.03 11:33:40.
