data_PCOD9094817
_publ_section_title
;
Structure prediction by ZEFSAII (Michael W. Deem and Ramdas Pophale) SiO2 
 PCOD9094817
Probable space group: P -1
;
_chemical_formula_sum "Si O2"
_cell_formula_units_Z 16
_cell_length_a 9.269667
_cell_length_b 9.061641
_cell_length_c 17.813272
_cell_angle_alpha 58.652086
_cell_angle_beta 86.380599
_cell_angle_gamma 48.163321
_cell_volume 852.070853
_symmetry_space_group_name_H-M "P -1"
_symmetry_group_IT_number 2
_symmetry_cell_setting 'triclinic'
loop_
_space_group_symop_operation_xyz
x,y,z
-x,-y,-z
loop_
_atom_site_type_symbol
_atom_site_label
_atom_site_fract_x
_atom_site_fract_y
_atom_site_fract_z
Si Si1 0.365766 0.545635 0.752262
Si Si2 0.624795 0.419947 0.094649
Si Si3 0.375077 0.910666 0.605309
Si Si4 0.395848 0.989730 0.185545
Si Si5 0.166730 0.341469 0.383248
Si Si6 0.274502 0.271005 0.971753
Si Si7 0.260768 0.056341 0.743771
Si Si8 0.953436 0.703696 0.760671
O O1 0.489579 0.470767 0.847476
O O2 0.355551 0.722167 0.654814
O O3 0.469393 0.292675 0.773482
O O4 0.124178 0.706094 0.742597
O O5 0.714006 0.536532 0.056246
O O6 0.761993 0.121175 0.180017
O O7 0.500000 0.500000 0.000000
O O8 0.610292 0.753368 0.608931
O O9 0.203788 0.167411 0.493045
O O10 0.345390 0.982903 0.674809
O O11 0.562681 0.994958 0.199630
O O12 0.248023 0.075203 0.238422
O O13 0.245225 0.187021 0.069808
O O14 0.122012 0.289775 0.319364
O O15 0.965945 0.644008 0.325617
O O16 0.090658 0.432425 0.871445
O O17 0.500000 0.000000 0.000000
#
# Coordination Sequence:
#
# PCOD9094817 Si02
#       8
#     2   2   2   2   2   2   2   2
#     4  10  23  41  60  90 126 161 201 261 302 362
#     4  10  20  34  61  90 122 160 201 245 301 363
#     4  10  24  42  64  92 123 155 212 264 308 367
#     4  12  21  39  64  88 128 166 202 247 310 366
#     4  11  22  42  67  90 120 164 207 258 315 364
#     4  11  20  39  62  88 125 166 202 248 305 362
#     4  11  21  39  65  90 123 166 202 252 312 367
#     4  11  23  38  62  92 121 166 209 246 306 370
#
# _framework density 18.77778
#
# number of rings (size 3 to 8) (size 9 to 14) (size 15 to 20)
#    0.000    1.250    6.250    0.750    0.000    3.500 
#    0.000    0.625    0.000    6.750    0.000    0.000 
#    0.000    0.000    0.000    0.000    0.000    0.000 
#
# Total GULP energy -89209.199622 kJ/mol
# GULP energy per Si atom -5575.574976 kJ/mol
# Density = 1.873504 g / cm^3
# Si number density = 18.777780 Si / 1000 Ang^3
#
#
#
# Elastic Constant Matrix: (Units=GPa)
#
#
# Indices 1 2 3 4 5 6 
#
# 1 70.3117 32.9756 35.0331 -12.5862 -17.4537 10.7600
# 2 32.9756 82.3248 27.5170 -3.0379 -10.1275 8.4572
# 3 35.0331 27.5170 108.1108 -11.4989 -20.7023 12.4946
# 4 -12.5862 -3.0379 -11.4989 18.9750 -0.3814 1.2246
# 5 -17.4537 -10.1275 -20.7023 -0.3814 32.8754 -1.8548
# 6 10.7600 8.4572 12.4946 1.2246 -1.8548 28.9312
#
#
#
# Elastic Compliance Matrix: (Units=1/GPa)
#
#
# Indices 1 2 3 4 5 6 
#
# 1 0.024224 -0.006689 -0.002144 0.014280 0.009269 -0.006138
# 2 -0.006689 0.015472 -0.002009 -0.003112 -0.000145 -0.001045
# 3 -0.002144 -0.002009 0.012772 0.006378 0.006134 -0.004008
# 4 0.014280 -0.003112 0.006378 0.066357 0.010886 -0.009267
# 5 0.009269 -0.000145 0.006134 0.010886 0.039057 -0.004011
# 6 -0.006138 -0.001045 -0.004008 -0.009267 -0.004011 0.039019
#
#
# Mechanical properties :
#
#
# Convention : Reuss Voigt Hill
#
# Bulk Modulus (GPa) = 32.48229 50.19987 41.34108
# Shear Modulus (GPa) = 21.84876 27.17107 24.50992
#
# Velocity S-wave (km/s) = 3.41478 3.80805 3.61676
# Velocity P-wave (km/s) = 5.73441 6.79166 6.28530
#
# Compressibility (1/GPa) = 0.03078601
#
# Stress axis : x y z
#
# Youngs Moduli (GPa) = 41.28105 64.63168 78.29693
#
# Poissons Ratio (x) = 0.43230 0.16787
# Poissons Ratio (y) = 0.27611 0.15726
# Poissons Ratio (z) = 0.08851 0.12982
#
# Static dielectric constant tensor:
#      x y z
#    x 1.675540 -0.001670 0.014820 
#    y -0.001670 1.649450 0.013610 
#    z 0.014820 0.013610 1.664880 
# 
# From -- ./inp_files/208008.got.cif
#   From: 2010.05.17/outbox.cif.g08.bks.cpg/sg2_105_cif.got.tgz:208008.got - 2010.06.03 11:33:40.
