data_PCOD9094307
_publ_section_title
;
Structure prediction by ZEFSAII (Michael W. Deem and Ramdas Pophale) SiO2 
 PCOD9094307
Probable space group: P -1
;
_chemical_formula_sum "Si O2"
_cell_formula_units_Z 16
_cell_length_a 12.038917
_cell_length_b 18.491568
_cell_length_c 21.444806
_cell_angle_alpha 17.038935
_cell_angle_beta 36.023129
_cell_angle_gamma 33.399581
_cell_volume 768.395981
_symmetry_space_group_name_H-M "P -1"
_symmetry_group_IT_number 2
_symmetry_cell_setting 'triclinic'
loop_
_space_group_symop_operation_xyz
x,y,z
-x,-y,-z
loop_
_atom_site_type_symbol
_atom_site_label
_atom_site_fract_x
_atom_site_fract_y
_atom_site_fract_z
Si Si1 0.108235 0.226912 0.853455
Si Si2 0.443082 0.274750 0.593831
Si Si3 0.773509 0.891610 0.839056
Si Si4 0.943597 0.850592 0.433706
Si Si5 0.548196 0.172253 0.889259
Si Si6 0.820854 0.892627 0.678818
Si Si7 0.684377 0.735094 0.748809
Si Si8 0.771282 0.149413 0.139555
O O1 0.241304 0.204679 0.748932
O O2 0.057558 0.532526 0.644502
O O3 0.909035 0.152389 0.014430
O O4 0.264923 0.022543 0.996944
O O5 0.395091 0.583084 0.359500
O O6 0.599233 0.125092 0.592277
O O7 0.583903 0.158720 0.686316
O O8 0.848156 0.775647 0.832593
O O9 0.663013 0.720758 0.064924
O O10 0.926155 0.984493 0.733107
O O11 0.757852 0.887628 0.535468
O O12 0.877139 0.945922 0.314878
O O13 0.500000 0.000000 0.000000
O O14 0.810700 0.720224 0.766663
O O15 0.000000 0.000000 0.500000
O O16 0.446189 0.866280 0.762203
O O17 0.727966 0.439078 0.949834
#
# Coordination Sequence:
#
# PCOD9094307 Si02
#       8
#     2   2   2   2   2   2   2   2
#     4  10  20  34  56  82 116 142 188 242 280 330
#     4   9  20  35  53  80 119 151 183 228 285 339
#     4   9  20  32  53  85 113 148 181 227 280 340
#     4  11  19  35  58  87 114 144 188 238 290 327
#     4  11  19  32  55  86 116 149 187 233 283 335
#     4  10  20  40  59  78 121 156 178 229 284 343
#     4  10  21  41  57  83 116 150 192 233 276 335
#     4  10  22  36  62  86 109 147 196 240 277 327
#
# _framework density 20.822596999999998
#
# number of rings (size 3 to 8) (size 9 to 14) (size 15 to 20)
#    0.750    1.250    1.250    3.375    0.000    4.000 
#    2.250    1.875    0.000    1.500    0.000    0.000 
#    0.000    0.000    0.000    0.000    0.000    0.000 
#
# Total GULP energy -89131.606502 kJ/mol
# GULP energy per Si atom -5570.725406 kJ/mol
# Density = 2.077520 g / cm^3
# Si number density = 20.822597 Si / 1000 Ang^3
#
#
#
# Elastic Constant Matrix: (Units=GPa)
#
#
# Indices 1 2 3 4 5 6 
#
# 1 48.6805 16.0512 17.6343 1.1818 -14.2684 -5.8618
# 2 16.0512 94.9782 41.6946 44.3646 -7.9555 -14.7952
# 3 17.6343 41.6946 91.1920 18.8967 5.7968 -16.8892
# 4 1.1818 44.3646 18.8967 42.3237 -9.5561 -1.6589
# 5 -14.2684 -7.9555 5.7968 -9.5561 21.3250 4.2040
# 6 -5.8618 -14.7952 -16.8892 -1.6589 4.2040 27.4563
#
#
#
# Elastic Compliance Matrix: (Units=1/GPa)
#
#
# Indices 1 2 3 4 5 6 
#
# 1 0.036484 -0.010003 -0.010770 0.021861 0.035034 -0.008270
# 2 -0.010003 0.028145 -0.001582 -0.030733 -0.011905 0.012024
# 3 -0.010770 -0.001582 0.019353 -0.010780 -0.020092 0.011178
# 4 0.021861 -0.030733 -0.010780 0.068457 0.040838 -0.020642
# 5 0.035034 -0.011905 -0.020092 0.040838 0.094239 -0.023257
# 6 -0.008270 0.012024 0.011178 -0.020642 -0.023257 0.050325
#
#
# Mechanical properties :
#
#
# Convention : Reuss Voigt Hill
#
# Bulk Modulus (GPa) = 25.46331 42.84566 34.15449
# Shear Modulus (GPa) = 14.09230 28.85236 21.47233
#
# Velocity S-wave (km/s) = 2.60432 3.72644 3.21472
# Velocity P-wave (km/s) = 4.61504 6.25590 5.49704
#
# Compressibility (1/GPa) = 0.03927219
#
# Stress axis : x y z
#
# Youngs Moduli (GPa) = 27.40947 35.53017 51.67144
#
# Poissons Ratio (x) = 0.35540 0.55651
# Poissons Ratio (y) = 0.27417 0.08174
# Poissons Ratio (z) = 0.29521 0.05621
#
# Static dielectric constant tensor:
#      x y z
#    x 1.705280 -0.000850 0.044810 
#    y -0.000850 1.892620 0.078720 
#    z 0.044810 0.078720 1.766780 
# 
# From -- ./inp_files/595891.got.cif
#   From: 2010.05.17/outbox.cif.g08.bks.cpg/sg2_298_cif.got.tgz:595891.got - 2010.06.03 11:33:40.
