data_PCOD9094826
_publ_section_title
;
Structure prediction by ZEFSAII (Michael W. Deem and Ramdas Pophale) SiO2 
 PCOD9094826
Probable space group: P -1
;
_chemical_formula_sum "Si O2"
_cell_formula_units_Z 14
_cell_length_a 13.267243
_cell_length_b 11.740565
_cell_length_c 26.257373
_cell_angle_alpha 25.978780
_cell_angle_beta 160.924653
_cell_angle_gamma 149.916744
_cell_volume 581.970787
_symmetry_space_group_name_H-M "P -1"
_symmetry_group_IT_number 2
_symmetry_cell_setting 'triclinic'
loop_
_space_group_symop_operation_xyz
x,y,z
-x,-y,-z
loop_
_atom_site_type_symbol
_atom_site_label
_atom_site_fract_x
_atom_site_fract_y
_atom_site_fract_z
Si Si1 0.081914 0.688679 0.099543
Si Si2 0.408547 0.354089 0.726195
Si Si3 0.182396 0.441312 0.793777
Si Si4 0.741550 0.382653 0.354571
Si Si5 0.391796 0.008308 0.709715
Si Si6 0.585103 0.075725 0.669988
Si Si7 0.258847 0.854505 0.810642
O O1 0.303258 0.628626 0.181999
O O2 0.952400 0.411650 0.173580
O O3 0.275688 0.852788 0.169781
O O4 0.811146 0.858057 0.883662
O O5 0.462899 0.495272 0.749111
O O6 0.098295 0.451272 0.514847
O O7 0.297221 0.043515 0.801468
O O8 0.822228 0.328577 0.668873
O O9 0.292077 0.703709 0.771646
O O10 0.273526 0.491587 0.758546
O O11 0.398698 0.231223 0.001853
O O12 0.614906 0.074547 0.410232
O O13 0.372950 0.128958 0.595852
O O14 0.204444 0.031414 0.663751
#
# Coordination Sequence:
#
# PCOD9094826 Si02
#       7
#     2   2   2   2   2   2   2
#     4  11  21  36  61  95 119 155 199 243 291 350
#     4  10  24  44  61  83 120 159 199 250 303 351
#     4  11  21  36  61  95 119 155 199 243 291 350
#     4  10  24  44  61  83 120 159 199 250 303 351
#     4  10  20  34  61  94 129 152 190 244 296 352
#     4  11  21  36  61  95 119 155 199 243 291 350
#     4  11  21  36  61  95 119 155 199 243 291 350
#
# _framework density 24.056191999999999
#
# number of rings (size 3 to 8) (size 9 to 14) (size 15 to 20)
#    0.000    1.429    5.714    1.714    0.000    3.429 
#    0.000   14.286    0.000   13.714    0.000    0.000 
#    0.000    0.000    0.000    0.000    0.000    0.000 
#
# Total GULP energy -78113.921857 kJ/mol
# GULP energy per Si atom -5579.565847 kJ/mol
# Density = 2.400144 g / cm^3
# Si number density = 24.056192 Si / 1000 Ang^3
#
#
#
# Elastic Constant Matrix: (Units=GPa)
#
#
# Indices 1 2 3 4 5 6 
#
# 1 106.8576 51.8581 35.0083 -25.2566 -2.5954 -22.5831
# 2 51.8581 147.8702 7.5108 4.8541 -6.5373 -1.2014
# 3 35.0083 7.5108 26.7386 35.4887 18.2701 4.1856
# 4 -25.2566 4.8541 35.4887 -1.1525 -9.5733 -1.9527
# 5 -2.5954 -6.5373 18.2701 -9.5733 25.8833 1.1580
# 6 -22.5831 -1.2014 4.1856 -1.9527 1.1580 50.6046
#
#
#
# Elastic Compliance Matrix: (Units=1/GPa)
#
#
# Indices 1 2 3 4 5 6 
#
# 1 0.008025 -0.003026 0.004395 -0.007807 -0.006083 0.002984
# 2 -0.003026 0.008060 -0.002252 0.001144 0.003791 -0.001015
# 3 0.004395 -0.002252 0.005009 0.018673 0.003147 0.002142
# 4 -0.007807 0.001144 0.018673 0.000734 -0.013194 -0.004671
# 5 -0.006083 0.003791 0.003147 -0.013194 0.032066 -0.004128
# 6 0.002984 -0.001015 0.002142 -0.004671 -0.004128 0.020806
#
#
# Mechanical properties :
#
#
# Convention : Reuss Voigt Hill
#
# Bulk Modulus (GPa) = 51.74175 52.24674 51.99425
# Shear Modulus (GPa) = 60.30861 27.53969 43.92415
#
# Velocity S-wave (km/s) = 5.01242 3.38717 4.27769
# Velocity P-wave (km/s) = 7.41987 6.08794 6.78666
#
# Compressibility (1/GPa) = 0.01932675
#
# Stress axis : x y z
#
# Youngs Moduli (GPa) = 124.61820 124.06961 199.65017
#
# Poissons Ratio (x) = 0.37541 -0.87737
# Poissons Ratio (y) = 0.37707 0.44962
# Poissons Ratio (z) = -0.54764 0.27941
#
# Static dielectric constant tensor:
#      x y z
#    x 1.911270 0.011890 0.025710 
#    y 0.011890 1.916390 0.006340 
#    z 0.025710 0.006340 2.016800 
# 
# From -- ./inp_files/619327.got.cif
#   From: 2010.05.17/outbox.cif.g08.bks.cpg/sg2_310_cif.got.tgz:619327.got - 2010.06.03 11:33:40.
