data_PCOD9094695
_publ_section_title
;
Structure prediction by ZEFSAII (Michael W. Deem and Ramdas Pophale) SiO2 
 PCOD9094695
Probable space group: P -1
;
_chemical_formula_sum "Si O2"
_cell_formula_units_Z 14
_cell_length_a 8.883224
_cell_length_b 28.986890
_cell_length_c 14.028855
_cell_angle_alpha 160.319467
_cell_angle_beta 135.129224
_cell_angle_gamma 34.785315
_cell_volume 653.620365
_symmetry_space_group_name_H-M "P -1"
_symmetry_group_IT_number 2
_symmetry_cell_setting 'triclinic'
loop_
_space_group_symop_operation_xyz
x,y,z
-x,-y,-z
loop_
_atom_site_type_symbol
_atom_site_label
_atom_site_fract_x
_atom_site_fract_y
_atom_site_fract_z
Si Si1 0.320832 0.407649 0.677491
Si Si2 0.896493 0.347709 0.345253
Si Si3 0.424089 0.909992 0.128932
Si Si4 0.068308 0.778804 0.361314
Si Si5 0.207775 0.001770 0.533017
Si Si6 0.526378 0.276457 0.030065
Si Si7 0.697679 0.552634 0.464789
O O1 0.633355 0.270971 0.590463
O O2 0.340490 0.475518 0.715278
O O3 0.182151 0.315683 0.417828
O O4 0.140045 0.586734 0.010055
O O5 0.830927 0.216049 0.078100
O O6 0.702960 0.511871 0.650885
O O7 0.750522 0.425618 0.326983
O O8 0.635199 0.933964 0.226172
O O9 0.548123 0.803180 0.077572
O O10 0.452543 0.762333 0.790203
O O11 0.134946 0.096943 0.399576
O O12 0.934958 0.884952 0.408229
O O13 0.449004 0.802132 0.213124
O O14 0.000000 0.000000 0.500000
O O15 0.000000 0.500000 0.500000
#
# Coordination Sequence:
#
# PCOD9094695 Si02
#       7
#     2   2   2   2   2   2   2
#     4  10  20  34  60  80 114 145 184 229 267 333
#     4   9  17  32  56  83 108 140 185 224 271 320
#     4  10  20  38  56  80 110 143 186 225 277 327
#     4  10  21  38  56  82 110 153 181 215 290 324
#     4  11  22  33  59  81 107 139 185 233 266 324
#     4   9  18  32  55  83 105 142 181 224 275 318
#     4   9  18  31  57  83 109 140 181 233 263 314
#
# _framework density 21.419163999999999
#
# number of rings (size 3 to 8) (size 9 to 14) (size 15 to 20)
#    0.000    2.286    0.000    5.143    6.000    0.571 
#    0.000    2.857    9.429    2.571    0.000    0.000 
#    0.000    0.000    0.000    0.000    0.000    0.000 
#
# Total GULP energy -77962.800279 kJ/mol
# GULP energy per Si atom -5568.771449 kJ/mol
# Density = 2.137041 g / cm^3
# Si number density = 21.419164 Si / 1000 Ang^3
#
#
#
# Elastic Constant Matrix: (Units=GPa)
#
#
# Indices 1 2 3 4 5 6 
#
# 1 93.8860 1.0534 12.1575 -2.0996 10.4537 -14.0099
# 2 1.0534 57.3208 3.2629 -2.0389 6.2335 -19.8920
# 3 12.1575 3.2629 85.9144 -2.0428 -11.9542 -10.6358
# 4 -2.0996 -2.0389 -2.0428 19.7275 -9.1762 -1.2059
# 5 10.4537 6.2335 -11.9542 -9.1762 43.6689 -11.1598
# 6 -14.0099 -19.8920 -10.6358 -1.2059 -11.1598 24.8613
#
#
#
# Elastic Compliance Matrix: (Units=1/GPa)
#
#
# Indices 1 2 3 4 5 6 
#
# 1 0.012140 0.002895 -0.000919 0.001478 -0.001132 0.008327
# 2 0.002895 0.025964 0.002560 0.006845 0.004327 0.025775
# 3 -0.000919 0.002560 0.014367 0.006096 0.008027 0.011575
# 4 0.001478 0.006845 0.006096 0.062055 0.018554 0.020256
# 5 -0.001132 0.004327 0.008027 0.018554 0.034427 0.022612
# 6 0.008327 0.025775 0.011575 0.020256 0.022612 0.081623
#
#
# Mechanical properties :
#
#
# Convention : Reuss Voigt Hill
#
# Bulk Modulus (GPa) = 16.24908 30.00762 23.12835
# Shear Modulus (GPa) = 20.65946 32.36138 26.51042
#
# Velocity S-wave (km/s) = 3.10906 3.89120 3.52191
# Velocity P-wave (km/s) = 4.52670 5.85053 5.23066
#
# Compressibility (1/GPa) = 0.06154193
#
# Stress axis : x y z
#
# Youngs Moduli (GPa) = 82.37562 38.51414 69.60368
#
# Poissons Ratio (x) = -0.11149 0.06398
# Poissons Ratio (y) = -0.23846 -0.17818
# Poissons Ratio (z) = 0.07572 -0.09859
#
# Static dielectric constant tensor:
#      x y z
#    x 1.873370 -0.012620 0.017480 
#    y -0.012620 1.782270 -0.001820 
#    z 0.017480 -0.001820 1.869510 
# 
# From -- ./inp_files/332383.got.cif
#   From: 2010.05.17/outbox.cif.g08.bks.cpg/sg2_167_cif.got.tgz:332383.got - 2010.06.03 11:33:40.
