data_PCOD9094085
_publ_section_title
;
Structure prediction by ZEFSAII (Michael W. Deem and Ramdas Pophale) SiO2 
 PCOD9094085
Probable space group: P -1
;
_chemical_formula_sum "Si O2"
_cell_formula_units_Z 14
_cell_length_a 14.723373
_cell_length_b 9.846964
_cell_length_c 24.216051
_cell_angle_alpha 25.204477
_cell_angle_beta 155.863968
_cell_angle_gamma 155.208865
_cell_volume 539.046284
_symmetry_space_group_name_H-M "P -1"
_symmetry_group_IT_number 2
_symmetry_cell_setting 'triclinic'
loop_
_space_group_symop_operation_xyz
x,y,z
-x,-y,-z
loop_
_atom_site_type_symbol
_atom_site_label
_atom_site_fract_x
_atom_site_fract_y
_atom_site_fract_z
Si Si1 0.075256 0.332662 0.528562
Si Si2 0.738436 0.385773 0.108558
Si Si3 0.203536 0.498177 0.280470
Si Si4 0.022039 0.336076 0.014567
Si Si5 0.710720 0.861544 0.374797
Si Si6 0.610716 0.713922 0.198709
Si Si7 0.265667 0.354073 0.826206
O O1 0.300148 0.400084 0.584864
O O2 0.243432 0.491023 0.618595
O O3 0.893893 0.453571 0.352813
O O4 0.899416 0.914763 0.603982
O O5 0.038430 0.622877 0.181556
O O6 0.683931 0.181974 0.211495
O O7 0.659979 0.050603 0.143067
O O8 0.559311 0.557580 0.931719
O O9 0.502549 0.686886 0.370215
O O10 0.111680 0.554722 0.148075
O O11 0.314698 0.461126 0.120914
O O12 0.871326 0.912886 0.101148
O O13 0.000000 0.500000 0.000000
O O14 0.000000 0.000000 0.500000
O O15 0.727166 0.838662 0.156958
#
# Coordination Sequence:
#
# PCOD9094085 Si02
#       7
#     2   2   2   2   2   2   2
#     4  10  25  36  54  89 122 144 188 237 287 328
#     4  10  20  35  59  85 111 150 199 222 269 344
#     4  10  20  38  59  81 108 149 192 229 280 344
#     4  12  19  30  60  81 113 159 200 218 263 333
#     4  10  21  42  65  82 105 144 196 243 284 341
#     4  10  20  34  53  84 118 161 187 220 269 334
#     4  12  21  35  54  87 125 151 183 237 274 329
#
# _framework density 25.971796000000001
#
# number of rings (size 3 to 8) (size 9 to 14) (size 15 to 20)
#    0.000    1.714    4.286    3.429    0.000    4.000 
#    0.000    0.714    0.000    1.714    0.000    0.000 
#    0.000    0.000    0.000    0.000    0.000    0.000 
#
# Total GULP energy -78160.461227 kJ/mol
# GULP energy per Si atom -5582.890088 kJ/mol
# Density = 2.591268 g / cm^3
# Si number density = 25.971796 Si / 1000 Ang^3
#
#
#
# Elastic Constant Matrix: (Units=GPa)
#
#
# Indices 1 2 3 4 5 6 
#
# 1 72.8422 28.9931 17.0330 -2.3361 7.1122 27.6507
# 2 28.9931 137.1871 43.9803 21.0938 15.2644 45.1414
# 3 17.0330 43.9803 221.2148 18.7781 4.7678 20.6603
# 4 -2.3361 21.0938 18.7781 45.0699 11.4416 3.8197
# 5 7.1122 15.2644 4.7678 11.4416 38.9107 4.2953
# 6 27.6507 45.1414 20.6603 3.8197 4.2953 44.0140
#
#
#
# Elastic Compliance Matrix: (Units=1/GPa)
#
#
# Indices 1 2 3 4 5 6 
#
# 1 0.018551 -0.000211 -0.000533 0.002960 -0.002881 -0.011163
# 2 -0.000211 0.012236 -0.000981 -0.003786 -0.002269 -0.011407
# 3 -0.000533 -0.000981 0.004973 -0.001683 0.000466 -0.000893
# 4 0.002960 -0.003786 -0.001683 0.026428 -0.006751 0.001179
# 5 -0.002881 -0.002269 0.000466 -0.006751 0.028858 0.001687
# 6 -0.011163 -0.011407 -0.000893 0.001179 0.001687 0.041584
#
#
# Mechanical properties :
#
#
# Convention : Reuss Voigt Hill
#
# Bulk Modulus (GPa) = 30.95000 67.91744 49.43372
# Shear Modulus (GPa) = 34.04833 48.34809 41.19821
#
# Velocity S-wave (km/s) = 3.62466 4.31926 3.98712
# Velocity P-wave (km/s) = 5.42773 7.14716 6.34595
#
# Compressibility (1/GPa) = 0.03231018
#
# Stress axis : x y z
#
# Youngs Moduli (GPa) = 53.90677 81.72307 201.09593
#
# Poissons Ratio (x) = 0.01724 0.10718
# Poissons Ratio (y) = 0.01137 0.19725
# Poissons Ratio (z) = 0.02873 0.08016
#
# Static dielectric constant tensor:
#      x y z
#    x 2.245030 -0.079520 0.052780 
#    y -0.079520 2.129520 -0.004800 
#    z 0.052780 -0.004800 2.075560 
# 
# From -- ./inp_files/623881.got.cif
#   From: 2010.05.17/outbox.cif.g08.bks.cpg/sg2_312_cif.got.tgz:623881.got - 2010.06.03 11:33:40.
