data_PCOD9094720
_publ_section_title
;
Structure prediction by ZEFSAII (Michael W. Deem and Ramdas Pophale) SiO2 
 PCOD9094720
Probable space group: P -1
;
_chemical_formula_sum "Si O2"
_cell_formula_units_Z 14
_cell_length_a 6.840803
_cell_length_b 10.088260
_cell_length_c 17.754305
_cell_angle_alpha 131.757421
_cell_angle_beta 111.516464
_cell_angle_gamma 43.140063
_cell_volume 607.682477
_symmetry_space_group_name_H-M "P -1"
_symmetry_group_IT_number 2
_symmetry_cell_setting 'triclinic'
loop_
_space_group_symop_operation_xyz
x,y,z
-x,-y,-z
loop_
_atom_site_type_symbol
_atom_site_label
_atom_site_fract_x
_atom_site_fract_y
_atom_site_fract_z
Si Si1 0.590925 0.251227 0.361360
Si Si2 0.278814 0.379579 0.777096
Si Si3 0.438225 0.917046 0.546674
Si Si4 0.746020 0.295893 0.896821
Si Si5 0.123869 0.057462 0.103130
Si Si6 0.996504 0.751375 0.506647
Si Si7 0.246067 0.209442 0.868707
O O1 0.266473 0.521746 0.407237
O O2 0.850093 0.242219 0.398603
O O3 0.586012 0.186163 0.422442
O O4 0.657081 0.044904 0.241761
O O5 0.346591 0.170605 0.656088
O O6 0.570835 0.325011 0.811612
O O7 0.199526 0.348331 0.837417
O O8 0.039112 0.658270 0.817764
O O9 0.216389 0.999280 0.479557
O O10 0.771991 0.733241 0.495835
O O11 0.957112 0.334246 0.922425
O O12 0.914378 0.030413 0.858252
O O13 0.500000 0.500000 0.000000
O O14 0.473036 0.884653 0.081890
O O15 0.000000 0.000000 0.000000
#
# Coordination Sequence:
#
# PCOD9094720 Si02
#       7
#     2   2   2   2   2   2   2
#     4  10  20  38  57  88 119 153 198 239 292 353
#     4  10  22  41  61  88 125 158 203 249 297 359
#     4  10  20  36  58  87 119 158 193 240 295 342
#     4  11  23  43  61  89 119 156 205 251 300 361
#     4  11  23  42  61  91 118 155 205 251 298 363
#     4  10  20  34  60  87 119 153 196 238 289 351
#     4  10  24  40  64  87 123 163 197 251 305 351
#
# _framework density 23.038347999999999
#
# number of rings (size 3 to 8) (size 9 to 14) (size 15 to 20)
#    0.000    1.714    1.429    2.571    0.000    4.000 
#    0.000    7.143    0.000    0.000    0.000    0.000 
#    0.000    0.000    0.000    0.000    0.000    0.000 
#
# Total GULP energy -78269.363855 kJ/mol
# GULP energy per Si atom -5590.668847 kJ/mol
# Density = 2.298591 g / cm^3
# Si number density = 23.038348 Si / 1000 Ang^3
#
#
#
# Elastic Constant Matrix: (Units=GPa)
#
#
# Indices 1 2 3 4 5 6 
#
# 1 143.0236 51.0611 18.1142 -0.8703 0.1106 -19.0407
# 2 51.0611 124.0339 8.6948 7.8410 2.0655 -13.9251
# 3 18.1142 8.6948 62.2683 4.5734 6.4583 -8.6635
# 4 -0.8703 7.8410 4.5734 28.8133 4.0681 11.1504
# 5 0.1106 2.0655 6.4583 4.0681 34.5448 -0.5182
# 6 -19.0407 -13.9251 -8.6635 11.1504 -0.5182 34.5155
#
#
#
# Elastic Compliance Matrix: (Units=1/GPa)
#
#
# Indices 1 2 3 4 5 6 
#
# 1 0.008748 -0.003150 -0.001739 0.000131 0.000516 0.003084
# 2 -0.003150 0.010037 0.000373 -0.004347 -0.000091 0.003808
# 3 -0.001739 0.000373 0.017844 -0.004577 -0.002737 0.005108
# 4 0.000131 -0.004347 -0.004577 0.043826 -0.004302 -0.017053
# 5 0.000516 -0.000091 -0.002737 -0.004302 0.029991 0.001401
# 6 0.003084 0.003808 0.005108 -0.017053 0.001401 0.039022
#
#
# Mechanical properties :
#
#
# Convention : Reuss Voigt Hill
#
# Bulk Modulus (GPa) = 36.23573 53.89622 45.06597
# Shear Modulus (GPa) = 29.81563 36.33845 33.07704
#
# Velocity S-wave (km/s) = 3.60137 3.97584 3.79322
# Velocity P-wave (km/s) = 5.74941 6.67243 6.22804
#
# Compressibility (1/GPa) = 0.02759707
#
# Stress axis : x y z
#
# Youngs Moduli (GPa) = 114.31718 99.63457 56.04142
#
# Poissons Ratio (x) = 0.31384 0.09746
# Poissons Ratio (y) = 0.36009 -0.02092
# Poissons Ratio (z) = 0.19880 -0.03720
#
# Static dielectric constant tensor:
#      x y z
#    x 1.888480 0.004770 0.008240 
#    y 0.004770 1.859390 0.024150 
#    z 0.008240 0.024150 1.904790 
# 
# From -- ./inp_files/112455.got.cif
#   From: 2010.05.17/outbox.cif.g08.bks.cpg/sg2_57_cif.got.tgz:112455.got - 2010.06.03 11:33:40.
