data_PCOD9094660
_publ_section_title
;
Structure prediction by ZEFSAII (Michael W. Deem and Ramdas Pophale) SiO2 
 PCOD9094660
Probable space group: P -1
;
_chemical_formula_sum "Si O2"
_cell_formula_units_Z 13
_cell_length_a 8.890679
_cell_length_b 7.781753
_cell_length_c 8.931420
_cell_angle_alpha 95.935370
_cell_angle_beta 48.249647
_cell_angle_gamma 90.814874
_cell_volume 457.286033
_symmetry_space_group_name_H-M "P -1"
_symmetry_group_IT_number 2
_symmetry_cell_setting 'triclinic'
loop_
_space_group_symop_operation_xyz
x,y,z
-x,-y,-z
loop_
_atom_site_type_symbol
_atom_site_label
_atom_site_fract_x
_atom_site_fract_y
_atom_site_fract_z
Si Si1 0.125492 0.203803 0.407947
Si Si2 0.500000 0.000000 0.000000
Si Si3 0.211550 0.373941 0.999048
Si Si4 0.410326 0.471924 0.294123
Si Si5 0.823756 0.225905 0.381779
Si Si6 0.676445 0.118824 0.180053
Si Si7 0.052482 0.261833 0.800923
O O1 0.223585 0.388944 0.327162
O O2 0.127853 0.196234 0.584867
O O3 0.899244 0.187871 0.496978
O O4 0.279192 0.070044 0.210548
O O5 0.575049 0.984422 0.129575
O O6 0.442470 0.410608 0.886899
O O7 0.217832 0.310527 0.815874
O O8 0.042136 0.260221 0.170719
O O9 0.090046 0.561944 0.109718
O O10 0.311557 0.593698 0.499312
O O11 0.546947 0.302622 0.245799
O O12 0.709421 0.104440 0.334693
O O13 0.897630 0.137833 0.965881
#
# Coordination Sequence:
#
# PCOD9094660 Si02
#       7
#     2   1   2   2   2   2   2
#     4  11  23  37  59  84 120 153 197 235 289 331
#     4  10  24  42  58  80 110 164 202 238 274 348
#     4   9  19  33  57  89 124 144 187 226 295 354
#     4  10  20  34  59  90 118 155 178 231 294 355
#     4  11  21  37  59  91 118 149 185 247 291 340
#     4   9  21  39  62  81 115 154 199 230 285 343
#     4   9  18  35  58  87 114 155 185 235 287 354
#
# _framework density 28.428595999999999
#
# number of rings (size 3 to 8) (size 9 to 14) (size 15 to 20)
#    0.000    2.154    1.538    1.846    4.308    1.846 
#    5.538    0.000    0.000    2.769    0.000    0.000 
#    0.000    0.000    0.000    0.000    0.000    0.000 
#
# Total GULP energy -72501.189373 kJ/mol
# GULP energy per Si atom -5577.014567 kJ/mol
# Density = 2.836389 g / cm^3
# Si number density = 28.428596 Si / 1000 Ang^3
#
#
#
# Elastic Constant Matrix: (Units=GPa)
#
#
# Indices 1 2 3 4 5 6 
#
# 1 155.1603 31.5579 61.1216 14.4711 18.1342 29.7494
# 2 31.5579 99.3686 38.9360 7.4001 -4.6381 17.2515
# 3 61.1216 38.9360 155.6986 22.2274 14.6182 5.1872
# 4 14.4711 7.4001 22.2274 34.1205 8.9499 -3.9787
# 5 18.1342 -4.6381 14.6182 8.9499 54.4618 4.5454
# 6 29.7494 17.2515 5.1872 -3.9787 4.5454 43.9811
#
#
#
# Elastic Compliance Matrix: (Units=1/GPa)
#
#
# Indices 1 2 3 4 5 6 
#
# 1 0.009141 -0.000762 -0.002758 -0.002162 -0.001546 -0.005595
# 2 -0.000762 0.012380 -0.002633 -0.001876 0.002697 -0.004478
# 3 -0.002758 -0.002633 0.008710 -0.003416 -0.001223 0.001688
# 4 -0.002162 -0.001876 -0.003416 0.034836 -0.004769 0.006245
# 5 -0.001546 0.002697 -0.001223 -0.004769 0.020419 -0.002409
# 6 -0.005595 -0.004478 0.001688 0.006245 -0.002409 0.028893
#
#
# Mechanical properties :
#
#
# Convention : Reuss Voigt Hill
#
# Bulk Modulus (GPa) = 55.78588 74.82873 65.30731
# Shear Modulus (GPa) = 37.68998 45.08680 41.38839
#
# Velocity S-wave (km/s) = 3.64507 3.98674 3.81973
# Velocity P-wave (km/s) = 6.11401 6.89717 6.51736
#
# Compressibility (1/GPa) = 0.01792568
#
# Stress axis : x y z
#
# Youngs Moduli (GPa) = 109.39199 80.77257 114.81226
#
# Poissons Ratio (x) = 0.06159 0.31662
# Poissons Ratio (y) = 0.08341 0.30229
# Poissons Ratio (z) = 0.30167 0.21266
#
# Static dielectric constant tensor:
#      x y z
#    x 2.296530 -0.114480 0.147570 
#    y -0.114480 2.444390 -0.079940 
#    z 0.147570 -0.079940 2.164160 
# 
# From -- ./inp_files/160981.got.cif
#   From: 2010.05.17/outbox.cif.g08.bks.cpg/sg2_81_cif.got.tgz:160981.got - 2010.06.03 11:33:40.
