data_PCOD9094897
_publ_section_title
;
Structure prediction by ZEFSAII (Michael W. Deem and Ramdas Pophale) SiO2 
 PCOD9094897
Probable space group: P -1
;
_chemical_formula_sum "Si O2"
_cell_formula_units_Z 14
_cell_length_a 20.484302
_cell_length_b 8.002565
_cell_length_c 9.239875
_cell_angle_alpha 87.004937
_cell_angle_beta 129.802954
_cell_angle_gamma 51.233115
_cell_volume 593.478099
_symmetry_space_group_name_H-M "P -1"
_symmetry_group_IT_number 2
_symmetry_cell_setting 'triclinic'
loop_
_space_group_symop_operation_xyz
x,y,z
-x,-y,-z
loop_
_atom_site_type_symbol
_atom_site_label
_atom_site_fract_x
_atom_site_fract_y
_atom_site_fract_z
Si Si1 0.393513 0.627057 0.037055
Si Si2 0.230334 0.236291 0.878157
Si Si3 0.344332 0.155912 0.329192
Si Si4 0.480338 0.043278 0.798985
Si Si5 0.323812 0.648356 0.617101
Si Si6 0.983852 0.078118 0.136671
Si Si7 0.935688 0.943858 0.329934
O O1 0.397017 0.534936 0.889056
O O2 0.299887 0.967426 0.891659
O O3 0.262813 0.746839 0.946099
O O4 0.584547 0.362408 0.344562
O O5 0.041931 0.610235 0.561392
O O6 0.290169 0.107194 0.136484
O O7 0.337117 0.218964 0.986196
O O8 0.396840 0.044237 0.578025
O O9 0.500000 0.000000 0.500000
O O10 0.185610 0.544291 0.083413
O O11 0.368797 0.400104 0.610930
O O12 0.500000 0.000000 0.000000
O O13 0.130483 0.965628 0.366920
O O14 0.990491 0.897212 0.247948
O O15 0.000000 0.000000 0.000000
O O16 0.000000 0.000000 0.500000
#
# Coordination Sequence:
#
# PCOD9094897 Si02
#       7
#     2   2   2   2   2   2   2
#     4  10  22  38  65  96 138 172 213 266 331 397
#     4  10  21  38  61  93 133 168 209 266 329 385
#     4  10  21  37  61  95 131 164 212 274 326 370
#     4  10  20  34  63  95 127 167 220 265 316 385
#     4  10  20  39  64  97 132 173 211 268 333 380
#     4  12  23  39  66  96 130 168 222 277 317 380
#     4  12  22  38  67  98 122 174 229 264 317 395
#
# _framework density 23.589748
#
# number of rings (size 3 to 8) (size 9 to 14) (size 15 to 20)
#    0.000    1.429    4.286    1.286    0.000    0.000 
#    0.000    0.714    9.429    1.714    0.000    0.000 
#    0.000    0.000    0.000    0.000    0.000    0.000 
#
# Total GULP energy -77999.766512 kJ/mol
# GULP energy per Si atom -5571.411894 kJ/mol
# Density = 2.353606 g / cm^3
# Si number density = 23.589748 Si / 1000 Ang^3
#
#
#
# Elastic Constant Matrix: (Units=GPa)
#
#
# Indices 1 2 3 4 5 6 
#
# 1 119.1004 25.2033 59.6175 5.7454 22.5402 -16.6658
# 2 25.2033 92.6669 9.0116 -1.9063 4.9768 -7.7934
# 3 59.6175 9.0116 92.2275 -11.2337 18.7953 -21.4139
# 4 5.7454 -1.9063 -11.2337 40.5199 -26.8521 -2.1559
# 5 22.5402 4.9768 18.7953 -26.8521 43.2155 1.1382
# 6 -16.6658 -7.7934 -21.4139 -2.1559 1.1382 37.2137
#
#
#
# Elastic Compliance Matrix: (Units=1/GPa)
#
#
# Indices 1 2 3 4 5 6 
#
# 1 0.017133 -0.003224 -0.009528 -0.013791 -0.013020 0.001114
# 2 -0.003224 0.011680 0.001452 0.002181 0.001009 0.001933
# 3 -0.009528 0.001452 0.019366 0.007924 0.001103 0.007606
# 4 -0.013791 0.002181 0.007924 0.053175 0.036515 0.000804
# 5 -0.013020 0.001009 0.001103 0.036515 0.052141 -0.004464
# 6 0.001114 0.001933 0.007606 0.000804 -0.004464 0.032336
#
#
# Mechanical properties :
#
#
# Convention : Reuss Voigt Hill
#
# Bulk Modulus (GPa) = 39.09453 54.62886 46.86170
# Shear Modulus (GPa) = 23.04580 38.20063 30.62322
#
# Velocity S-wave (km/s) = 3.12900 4.02851 3.60690
# Velocity P-wave (km/s) = 5.44636 6.69677 6.10367
#
# Compressibility (1/GPa) = 0.02557902
#
# Stress axis : x y z
#
# Youngs Moduli (GPa) = 58.36661 85.61456 51.63570
#
# Poissons Ratio (x) = 0.27602 0.49198
# Poissons Ratio (y) = 0.18817 -0.07495
# Poissons Ratio (z) = 0.55611 -0.12427
#
# Static dielectric constant tensor:
#      x y z
#    x 6.901910 0.459270 2.568720 
#    y 0.459270 1.960040 0.259000 
#    z 2.568720 0.259000 3.406620 
# 
# From -- ./inp_files/190209.got.cif
#   From: 2010.05.17/outbox.cif.g08.bks.cpg/sg2_96_cif.got.tgz:190209.got - 2010.06.03 11:33:40.
