data_PCOD9094795
_publ_section_title
;
Structure prediction by ZEFSAII (Michael W. Deem and Ramdas Pophale) SiO2 
 PCOD9094795
Probable space group: P -1
;
_chemical_formula_sum "Si O2"
_cell_formula_units_Z 12
_cell_length_a 5.559902
_cell_length_b 23.613923
_cell_length_c 11.709788
_cell_angle_alpha 158.452331
_cell_angle_beta 118.254900
_cell_angle_gamma 57.326353
_cell_volume 473.238915
_symmetry_space_group_name_H-M "P -1"
_symmetry_group_IT_number 2
_symmetry_cell_setting 'triclinic'
loop_
_space_group_symop_operation_xyz
x,y,z
-x,-y,-z
loop_
_atom_site_type_symbol
_atom_site_label
_atom_site_fract_x
_atom_site_fract_y
_atom_site_fract_z
Si Si1 0.448694 0.709940 0.257577
Si Si2 0.948132 0.986657 0.597211
Si Si3 0.295915 0.006938 0.227363
Si Si4 0.932801 0.324797 0.276401
Si Si5 0.444310 0.478491 0.635471
Si Si6 0.631852 0.141703 0.261468
O O1 0.502349 0.707595 0.401310
O O2 0.114765 0.801577 0.322431
O O3 0.580316 0.846867 0.497467
O O4 0.543999 0.548776 0.903855
O O5 0.666252 0.030884 0.699647
O O6 0.065361 0.130850 0.940842
O O7 0.000000 0.000000 0.500000
O O8 0.379355 0.858192 0.877233
O O9 0.960720 0.080588 0.258768
O O10 0.727238 0.380697 0.444426
O O11 0.716917 0.376073 0.216136
O O12 0.180629 0.408761 0.475387
O O13 0.500000 0.000000 0.000000
#
# Coordination Sequence:
#
# PCOD9094795 Si02
#       6
#     2   2   2   2   2   2
#     4  10  20  34  61  87 112 151 204 242 283 348
#     4  11  22  35  55  88 119 152 195 244 291 348
#     4   9  19  32  57  85 116 145 189 251 296 333
#     4  10  23  39  55  80 123 162 194 238 297 349
#     4  10  22  39  57  80 118 164 200 235 288 357
#     4   8  16  34  54  86 110 144 190 248 290 342
#
# _framework density 25.357168999999999
#
# number of rings (size 3 to 8) (size 9 to 14) (size 15 to 20)
#    0.000    2.333    1.667    0.000    7.000    2.000 
#    0.000    0.000    0.000    2.000    0.000    0.000 
#    0.000    0.000    0.000    0.000    0.000    0.000 
#
# Total GULP energy -66893.305784 kJ/mol
# GULP energy per Si atom -5574.442149 kJ/mol
# Density = 2.529945 g / cm^3
# Si number density = 25.357169 Si / 1000 Ang^3
#
#
#
# Elastic Constant Matrix: (Units=GPa)
#
#
# Indices 1 2 3 4 5 6 
#
# 1 80.2214 33.9971 46.3436 -21.1037 -14.0753 18.6703
# 2 33.9971 114.2678 36.6342 -33.5659 -16.4962 40.7454
# 3 46.3436 36.6342 159.9590 -51.8912 -25.5759 30.8163
# 4 -21.1037 -33.5659 -51.8912 53.3898 17.0806 -18.3730
# 5 -14.0753 -16.4962 -25.5759 17.0806 31.6447 -8.8848
# 6 18.6703 40.7454 30.8163 -18.3730 -8.8848 50.1868
#
#
#
# Elastic Compliance Matrix: (Units=1/GPa)
#
#
# Indices 1 2 3 4 5 6 
#
# 1 0.016452 -0.003011 -0.003426 0.000063 0.002642 -0.001082
# 2 -0.003011 0.014275 0.001396 0.005484 0.001741 -0.009011
# 3 -0.003426 0.001396 0.010448 0.007835 0.002592 -0.002948
# 4 0.000063 0.005484 0.007835 0.032878 -0.008160 0.001305
# 5 0.002642 0.001741 0.002592 -0.008160 0.040224 0.000146
# 6 -0.001082 -0.009011 -0.002948 0.001305 0.000146 0.029957
#
#
# Mechanical properties :
#
#
# Convention : Reuss Voigt Hill
#
# Bulk Modulus (GPa) = 32.15987 65.37756 48.76871
# Shear Modulus (GPa) = 30.36188 42.87583 36.61886
#
# Velocity S-wave (km/s) = 3.46406 4.11649 3.80428
# Velocity P-wave (km/s) = 5.35816 6.95935 6.21057
#
# Compressibility (1/GPa) = 0.03109466
#
# Stress axis : x y z
#
# Youngs Moduli (GPa) = 60.78108 70.05391 95.70848
#
# Poissons Ratio (x) = 0.21093 0.32787
# Poissons Ratio (y) = 0.18301 -0.13364
# Poissons Ratio (z) = 0.20822 -0.09782
#
# Static dielectric constant tensor:
#      x y z
#    x 2.094070 0.033640 -0.041020 
#    y 0.033640 2.101050 -0.031190 
#    z -0.041020 -0.031190 1.991680 
# 
# From -- ./inp_files/123351.got.cif
#   From: 2010.05.17/outbox.cif.g08.bks.cpg/sg2_62_cif.got.tgz:123351.got - 2010.06.03 11:33:40.
