data_PCOD9094858
_publ_section_title
;
Structure prediction by ZEFSAII (Michael W. Deem and Ramdas Pophale) SiO2 
 PCOD9094858
Probable space group: P -1
;
_chemical_formula_sum "Si O2"
_cell_formula_units_Z 16
_cell_length_a 18.791426
_cell_length_b 9.379558
_cell_length_c 12.270541
_cell_angle_alpha 131.154034
_cell_angle_beta 29.539565
_cell_angle_gamma 123.921050
_cell_volume 802.241517
_symmetry_space_group_name_H-M "P -1"
_symmetry_group_IT_number 2
_symmetry_cell_setting 'triclinic'
loop_
_space_group_symop_operation_xyz
x,y,z
-x,-y,-z
loop_
_atom_site_type_symbol
_atom_site_label
_atom_site_fract_x
_atom_site_fract_y
_atom_site_fract_z
Si Si1 0.015607 0.486882 0.341983
Si Si2 0.673002 0.381887 0.983682
Si Si3 0.287497 0.910987 0.665562
Si Si4 0.399288 0.925754 0.911507
Si Si5 0.902062 0.881090 0.653348
Si Si6 0.678305 0.162069 0.656509
Si Si7 0.494665 0.256890 0.534438
Si Si8 0.008255 0.932696 0.787483
O O1 0.000000 0.500000 0.500000
O O2 0.918202 0.653491 0.500305
O O3 0.994204 0.266140 0.242741
O O4 0.178540 0.541834 0.129538
O O5 0.647462 0.181824 0.972830
O O6 0.552495 0.536720 0.256818
O O7 0.687536 0.340277 0.814631
O O8 0.321589 0.798264 0.452398
O O9 0.373058 0.818521 0.605420
O O10 0.360862 0.116160 0.657757
O O11 0.117443 0.935317 0.926531
O O12 0.454888 0.769902 0.670319
O O13 0.531355 0.058993 0.824088
O O14 0.262019 0.042670 0.103666
O O15 0.959554 0.909755 0.714691
O O16 0.000000 0.000000 0.500000
O O17 0.822214 0.026673 0.416262
#
# Coordination Sequence:
#
# PCOD9094858 Si02
#       8
#     2   2   2   2   2   2   2   2
#     4  10  20  34  62  91 115 154 205 257 289 353
#     4  12  21  39  63  89 126 155 206 253 305 359
#     4  10  21  38  62  88 123 159 202 248 308 360
#     4  11  23  41  62  90 122 164 201 249 305 369
#     4  11  20  37  64  91 119 158 207 250 299 362
#     4  11  24  38  61  92 124 162 195 251 314 360
#     4  10  22  38  61  91 118 160 205 254 295 359
#     4  11  20  41  63  87 126 159 205 249 303 365
#
# _framework density 19.944116999999999
#
# number of rings (size 3 to 8) (size 9 to 14) (size 15 to 20)
#    0.000    1.250    6.250    1.125    0.000    0.500 
#    2.250    0.000    0.000    0.750    0.000    0.000 
#    0.000    0.000    0.000    0.000    0.000    0.000 
#
# Total GULP energy -89288.784070 kJ/mol
# GULP energy per Si atom -5580.549004 kJ/mol
# Density = 1.989872 g / cm^3
# Si number density = 19.944117 Si / 1000 Ang^3
#
#
#
# Elastic Constant Matrix: (Units=GPa)
#
#
# Indices 1 2 3 4 5 6 
#
# 1 78.1797 21.4536 25.1233 0.6642 2.0280 9.5163
# 2 21.4536 60.5082 27.9024 -6.9217 -11.4634 -7.3448
# 3 25.1233 27.9024 100.2297 0.0061 -18.8180 1.0246
# 4 0.6642 -6.9217 0.0061 33.4061 9.3531 -5.9345
# 5 2.0280 -11.4634 -18.8180 9.3531 35.7013 -8.2072
# 6 9.5163 -7.3448 1.0246 -5.9345 -8.2072 22.2746
#
#
#
# Elastic Compliance Matrix: (Units=1/GPa)
#
#
# Indices 1 2 3 4 5 6 
#
# 1 0.018163 -0.008264 -0.003655 -0.002246 -0.008229 -0.013947
# 2 -0.008264 0.025564 -0.003490 0.005918 0.009217 0.017093
# 3 -0.003655 -0.003490 0.013169 -0.002308 0.007043 0.001785
# 4 -0.002246 0.005918 -0.002308 0.034660 -0.005957 0.010057
# 5 -0.008229 0.009217 0.007043 -0.005957 0.041274 0.019852
# 6 -0.013947 0.017093 0.001785 0.010057 0.019852 0.066401
#
#
# Mechanical properties :
#
#
# Convention : Reuss Voigt Hill
#
# Bulk Modulus (GPa) = 38.34345 43.09737 40.72041
# Shear Modulus (GPa) = 20.94322 29.23896 25.09109
#
# Velocity S-wave (km/s) = 3.24403 3.83305 3.55078
# Velocity P-wave (km/s) = 5.77051 6.42228 6.10510
#
# Compressibility (1/GPa) = 0.02608007
#
# Stress axis : x y z
#
# Youngs Moduli (GPa) = 55.05585 39.11758 75.93651
#
# Poissons Ratio (x) = 0.32325 0.27752
# Poissons Ratio (y) = 0.45496 0.26500
# Poissons Ratio (z) = 0.20121 0.13651
#
# Static dielectric constant tensor:
#      x y z
#    x 1.700630 0.025660 0.009620 
#    y 0.025660 1.713920 0.002020 
#    z 0.009620 0.002020 1.727250 
# 
# From -- ./inp_files/271447.got.cif
#   From: 2010.05.17/outbox.cif.g08.bks.cpg/sg2_136_cif.got.tgz:271447.got - 2010.06.03 11:33:40.
