data_PCOD9094909
_publ_section_title
;
Structure prediction by ZEFSAII (Michael W. Deem and Ramdas Pophale) SiO2 
 PCOD9094909
Probable space group: P -1
;
_chemical_formula_sum "Si O2"
_cell_formula_units_Z 12
_cell_length_a 7.721623
_cell_length_b 10.554181
_cell_length_c 8.425118
_cell_angle_alpha 112.287112
_cell_angle_beta 73.843964
_cell_angle_gamma 136.315516
_cell_volume 438.795222
_symmetry_space_group_name_H-M "P -1"
_symmetry_group_IT_number 2
_symmetry_cell_setting 'triclinic'
loop_
_space_group_symop_operation_xyz
x,y,z
-x,-y,-z
loop_
_atom_site_type_symbol
_atom_site_label
_atom_site_fract_x
_atom_site_fract_y
_atom_site_fract_z
Si Si1 0.219557 0.699218 0.621041
Si Si2 0.175509 0.971211 0.724580
Si Si3 0.615428 0.717218 0.413175
Si Si4 0.848844 0.600699 0.187462
Si Si5 0.177247 0.357219 0.140827
Si Si6 0.613189 0.190618 0.964070
O O1 0.469376 0.741380 0.580552
O O2 0.000000 0.500000 0.500000
O O3 0.075278 0.681936 0.804153
O O4 0.247844 0.856181 0.593855
O O5 0.187749 0.085231 0.636805
O O6 0.913500 0.818367 0.813083
O O7 0.391345 0.115655 0.865060
O O8 0.757508 0.649397 0.377789
O O9 0.392001 0.548928 0.272022
O O10 0.695325 0.379116 0.109958
O O11 0.785673 0.641629 0.053726
O O12 0.144310 0.728544 0.162786
O O13 0.500000 0.000000 0.000000
#
# Coordination Sequence:
#
# PCOD9094909 Si02
#       6
#     2   2   2   2   2   2
#     4   8  18  36  55  83 117 148 176 226 287 335
#     4  10  20  34  64  79 112 152 188 219 282 336
#     4  11  20  36  58  91 113 138 190 240 273 326
#     4  11  23  36  59  86 114 146 186 239 277 321
#     4   9  19  34  55  86 111 145 182 225 282 324
#     4  11  22  40  56  79 117 156 186 221 286 343
#
# _framework density 27.347608999999999
#
# number of rings (size 3 to 8) (size 9 to 14) (size 15 to 20)
#    1.000    1.000    3.333    1.000    0.000    2.000 
#    0.000    0.833    0.000    9.000    0.000    0.000 
#    0.000    0.000    0.000    0.000    0.000    0.000 
#
# Total GULP energy -67060.190723 kJ/mol
# GULP energy per Si atom -5588.349227 kJ/mol
# Density = 2.728536 g / cm^3
# Si number density = 27.347609 Si / 1000 Ang^3
#
#
#
# Elastic Constant Matrix: (Units=GPa)
#
#
# Indices 1 2 3 4 5 6 
#
# 1 75.3336 39.8614 35.0669 -5.7632 -24.7942 -2.8041
# 2 39.8614 159.0769 45.7169 22.8667 -7.4929 -15.2926
# 3 35.0669 45.7169 107.9118 -4.7779 -51.3933 9.4724
# 4 -5.7632 22.8667 -4.7779 45.3904 4.7907 -3.4181
# 5 -24.7942 -7.4929 -51.3933 4.7907 57.7516 -2.7119
# 6 -2.8041 -15.2926 9.4724 -3.4181 -2.7119 22.1170
#
#
#
# Elastic Compliance Matrix: (Units=1/GPa)
#
#
# Indices 1 2 3 4 5 6 
#
# 1 0.018523 -0.004486 -0.001147 0.003932 0.006074 0.001091
# 2 -0.004486 0.010628 -0.006703 -0.005419 -0.005682 0.008117
# 3 -0.001147 -0.006703 0.021872 0.002833 0.017322 -0.011586
# 4 0.003932 -0.005419 0.002833 0.025385 0.001383 -0.000369
# 5 0.006074 -0.005682 0.017322 0.001383 0.034197 -0.006170
# 6 0.001091 0.008117 -0.011586 -0.000369 -0.006170 0.055113
#
#
# Mechanical properties :
#
#
# Convention : Reuss Voigt Hill
#
# Bulk Modulus (GPa) = 37.95127 64.84589 51.39858
# Shear Modulus (GPa) = 25.10369 39.83028 32.46699
#
# Velocity S-wave (km/s) = 3.03305 3.82048 3.44931
# Velocity P-wave (km/s) = 5.11599 6.57454 5.89059
#
# Compressibility (1/GPa) = 0.02634958
#
# Stress axis : x y z
#
# Youngs Moduli (GPa) = 53.98822 94.08777 45.72091
#
# Poissons Ratio (x) = 0.42206 0.05246
# Poissons Ratio (y) = 0.24218 0.30648
# Poissons Ratio (z) = 0.06195 0.63069
#
# Static dielectric constant tensor:
#      x y z
#    x 2.608870 -0.293590 0.236450 
#    y -0.293590 2.272770 -0.161210 
#    z 0.236450 -0.161210 2.278900 
# 
# From -- ./inp_files/496872.got.cif
#   From: 2010.05.17/outbox.cif.g08.bks.cpg/sg2_249_cif.got.tgz:496872.got - 2010.06.03 11:33:40.
