data_PCOD9094450
_publ_section_title
;
Structure prediction by ZEFSAII (Michael W. Deem and Ramdas Pophale) SiO2 
 PCOD9094450
Probable space group: P -1
;
_chemical_formula_sum "Si O2"
_cell_formula_units_Z 16
_cell_length_a 9.303309
_cell_length_b 7.625165
_cell_length_c 13.590762
_cell_angle_alpha 55.503470
_cell_angle_beta 75.904934
_cell_angle_gamma 61.092482
_cell_volume 694.972255
_symmetry_space_group_name_H-M "P -1"
_symmetry_group_IT_number 2
_symmetry_cell_setting 'triclinic'
loop_
_space_group_symop_operation_xyz
x,y,z
-x,-y,-z
loop_
_atom_site_type_symbol
_atom_site_label
_atom_site_fract_x
_atom_site_fract_y
_atom_site_fract_z
Si Si1 0.181583 0.695233 0.084102
Si Si2 0.720371 0.243541 0.613453
Si Si3 0.671754 0.851678 0.815085
Si Si4 0.734969 0.835293 0.440927
Si Si5 0.372346 0.016121 0.930952
Si Si6 0.098252 0.253728 0.012108
Si Si7 0.444256 0.687354 0.574106
Si Si8 0.048326 0.635855 0.336794
O O1 0.276041 0.420935 0.125146
O O2 0.104406 0.686021 0.205747
O O3 0.301487 0.822554 0.020329
O O4 0.039066 0.813060 0.988348
O O5 0.575486 0.415035 0.658513
O O6 0.670860 0.342372 0.480997
O O7 0.883033 0.242296 0.630800
O O8 0.719837 0.990562 0.681794
O O9 0.478454 0.971543 0.830384
O O10 0.775427 0.886156 0.878912
O O11 0.573621 0.785244 0.480441
O O12 0.853801 0.643740 0.563521
O O13 0.853442 0.751066 0.352771
O O14 0.666160 0.112302 0.393515
O O15 0.500000 0.000000 0.000000
O O16 0.211414 0.256827 0.900930
O O17 0.000000 0.500000 0.000000
#
# Coordination Sequence:
#
# PCOD9094450 Si02
#       8
#     2   2   2   2   2   2   2   2
#     4  11  21  37  59  83 114 154 191 236 290 339
#     4  10  20  36  56  82 115 149 187 235 286 338
#     4  10  21  38  58  82 114 153 197 238 284 339
#     4   9  19  37  58  84 115 148 188 232 283 345
#     4  10  20  36  57  81 110 146 192 237 283 337
#     4   9  20  37  56  79 111 147 187 236 284 333
#     4   9  19  37  59  82 114 149 186 236 284 335
#     4  10  20  34  57  86 116 150 189 232 287 344
#
# _framework density 23.022500999999998
#
# number of rings (size 3 to 8) (size 9 to 14) (size 15 to 20)
#    0.000    2.250    0.000    3.000    0.000    1.500 
#    0.000    6.250    0.000    4.500    0.000    0.000 
#    0.000    0.000    0.000    0.000    0.000    0.000 
#
# Total GULP energy -89129.671559 kJ/mol
# GULP energy per Si atom -5570.604472 kJ/mol
# Density = 2.297010 g / cm^3
# Si number density = 23.022501 Si / 1000 Ang^3
#
#
#
# Elastic Constant Matrix: (Units=GPa)
#
#
# Indices 1 2 3 4 5 6 
#
# 1 122.6261 33.6847 17.8326 5.0784 -6.0721 4.3664
# 2 33.6847 113.3571 0.5515 -6.9147 -13.1527 4.3885
# 3 17.8326 0.5515 42.8398 -0.0302 -9.7574 0.7549
# 4 5.0784 -6.9147 -0.0302 25.3012 -0.3139 -2.1655
# 5 -6.0721 -13.1527 -9.7574 -0.3139 25.9181 -0.5492
# 6 4.3664 4.3885 0.7549 -2.1655 -0.5492 35.8879
#
#
#
# Elastic Compliance Matrix: (Units=1/GPa)
#
#
# Indices 1 2 3 4 5 6 
#
# 1 0.009731 -0.003123 -0.004212 -0.002901 -0.000945 -0.000903
# 2 -0.003123 0.010632 0.002457 0.003548 0.005617 -0.000672
# 3 -0.004212 0.002457 0.027488 0.001673 0.010626 -0.000103
# 4 -0.002901 0.003548 0.001673 0.041313 0.002302 0.002412
# 5 -0.000945 0.005617 0.010626 0.002302 0.045242 0.000036
# 6 -0.000903 -0.000672 -0.000103 0.002412 0.000036 0.028205
#
#
# Mechanical properties :
#
#
# Convention : Reuss Voigt Hill
#
# Bulk Modulus (GPa) = 26.25013 42.55119 34.40066
# Shear Modulus (GPa) = 27.01794 32.53837 29.77816
#
# Velocity S-wave (km/s) = 3.42942 3.76351 3.60034
# Velocity P-wave (km/s) = 5.20653 6.11620 5.67960
#
# Compressibility (1/GPa) = 0.03809504
#
# Stress axis : x y z
#
# Youngs Moduli (GPa) = 102.76877 94.05731 36.38009
#
# Poissons Ratio (x) = 0.29370 0.15322
# Poissons Ratio (y) = 0.32091 -0.08938
# Poissons Ratio (z) = 0.43282 -0.23107
#
# Static dielectric constant tensor:
#      x y z
#    x 1.871860 -0.012850 0.032310 
#    y -0.012850 1.950410 -0.007860 
#    z 0.032310 -0.007860 1.969060 
# 
# From -- ./inp_files/555926.got.cif
#   From: 2010.05.17/outbox.cif.g08.bks.cpg/sg2_278_cif.got.tgz:555926.got - 2010.06.03 11:33:40.
