data_PCOD9094818
_publ_section_title
;
Structure prediction by ZEFSAII (Michael W. Deem and Ramdas Pophale) SiO2 
 PCOD9094818
Probable space group: P -1
;
_chemical_formula_sum "Si O2"
_cell_formula_units_Z 16
_cell_length_a 9.279543
_cell_length_b 14.417541
_cell_length_c 12.230058
_cell_angle_alpha 30.036586
_cell_angle_beta 110.422907
_cell_angle_gamma 97.741646
_cell_volume 717.017824
_symmetry_space_group_name_H-M "P -1"
_symmetry_group_IT_number 2
_symmetry_cell_setting 'triclinic'
loop_
_space_group_symop_operation_xyz
x,y,z
-x,-y,-z
loop_
_atom_site_type_symbol
_atom_site_label
_atom_site_fract_x
_atom_site_fract_y
_atom_site_fract_z
Si Si1 0.638182 0.321777 0.080421
Si Si2 0.671715 0.038273 0.747945
Si Si3 0.910542 0.562602 0.671436
Si Si4 0.161772 0.752430 0.565657
Si Si5 0.846383 0.151589 0.098250
Si Si6 0.310267 0.279982 0.350352
Si Si7 0.694342 0.945183 0.096354
Si Si8 0.354720 0.194153 0.213279
O O1 0.731162 0.283877 0.259508
O O2 0.460029 0.315117 0.066486
O O3 0.745230 0.180172 0.157012
O O4 0.627053 0.536834 0.820987
O O5 0.733491 0.871665 0.840807
O O6 0.737886 0.205805 0.551549
O O7 0.472368 0.106153 0.615618
O O8 0.729878 0.969924 0.953784
O O9 0.886265 0.351504 0.881000
O O10 0.840323 0.664936 0.664615
O O11 0.089530 0.580703 0.693920
O O12 0.795106 0.721251 0.392231
O O13 0.009374 0.956151 0.341600
O O14 0.742958 0.099268 0.027363
O O15 0.256615 0.263815 0.228448
O O16 0.500000 0.000000 0.000000
O O17 0.500000 0.000000 0.500000
#
# Coordination Sequence:
#
# PCOD9094818 Si02
#       8
#     2   2   2   2   2   2   2   2
#     4  11  21  39  62  95 126 164 203 261 313 367
#     4  11  23  41  61  97 120 167 209 257 312 364
#     4  10  24  44  64  94 125 164 211 257 308 374
#     4  11  24  40  64  89 133 166 202 252 319 373
#     4  10  25  42  62  94 129 164 212 251 307 381
#     4  10  21  39  63  91 127 154 210 263 305 372
#     4  11  22  43  71  89 125 163 211 264 307 355
#     4  10  20  34  61  90 129 154 202 259 314 362
#
# _framework density 22.314647000000001
#
# number of rings (size 3 to 8) (size 9 to 14) (size 15 to 20)
#    0.000    1.500    3.750    1.500    5.250    6.500 
#    2.250    1.250    0.000    0.000    0.000    0.000 
#    0.000    0.000    0.000    0.000    0.000    0.000 
#
# Total GULP energy -89442.313136 kJ/mol
# GULP energy per Si atom -5590.144571 kJ/mol
# Density = 2.226386 g / cm^3
# Si number density = 22.314647 Si / 1000 Ang^3
#
#
#
# Elastic Constant Matrix: (Units=GPa)
#
#
# Indices 1 2 3 4 5 6 
#
# 1 110.3538 33.0107 34.1097 8.2211 -19.3415 17.7274
# 2 33.0107 90.9530 30.4707 5.9355 -13.1099 1.9690
# 3 34.1097 30.4707 88.2577 5.5105 -17.2639 2.0063
# 4 8.2211 5.9355 5.5105 38.0463 -1.2764 -9.9387
# 5 -19.3415 -13.1099 -17.2639 -1.2764 39.4910 -2.8580
# 6 17.7274 1.9690 2.0063 -9.9387 -2.8580 40.1812
#
#
#
# Elastic Compliance Matrix: (Units=1/GPa)
#
#
# Indices 1 2 3 4 5 6 
#
# 1 0.012564 -0.002754 -0.002894 -0.003273 0.003447 -0.005828
# 2 -0.002754 0.013342 -0.003171 -0.000802 0.001715 0.000643
# 3 -0.002894 -0.003171 0.014311 -0.000605 0.003827 0.000840
# 4 -0.003273 -0.000802 -0.000605 0.029475 -0.000546 0.008765
# 5 0.003447 0.001715 0.003827 -0.000546 0.029246 0.000149
# 6 -0.005828 0.000643 0.000840 0.008765 0.000149 0.029564
#
#
# Mechanical properties :
#
#
# Convention : Reuss Voigt Hill
#
# Bulk Modulus (GPa) = 44.28849 53.86075 49.07462
# Shear Modulus (GPa) = 32.53798 36.34194 34.43996
#
# Velocity S-wave (km/s) = 3.82271 4.03999 3.93285
# Velocity P-wave (km/s) = 6.27491 6.77874 6.53169
#
# Compressibility (1/GPa) = 0.02257923
#
# Stress axis : x y z
#
# Youngs Moduli (GPa) = 79.59101 74.95039 69.87604
#
# Poissons Ratio (x) = 0.20641 0.20222
# Poissons Ratio (y) = 0.21919 0.22159
# Poissons Ratio (z) = 0.23033 0.23768
#
# Static dielectric constant tensor:
#      x y z
#    x 1.876960 -0.018170 0.027660 
#    y -0.018170 1.832650 -0.071810 
#    z 0.027660 -0.071810 1.885000 
# 
# From -- ./inp_files/273354.got.cif
#   From: 2010.05.17/outbox.cif.g08.bks.cpg/sg2_137_cif.got.tgz:273354.got - 2010.06.03 11:33:40.
