data_PCOD9094828
_publ_section_title
;
Structure prediction by ZEFSAII (Michael W. Deem and Ramdas Pophale) SiO2 
 PCOD9094828
Probable space group: P -1
;
_chemical_formula_sum "Si O2"
_cell_formula_units_Z 10
_cell_length_a 15.428764
_cell_length_b 15.924308
_cell_length_c 9.145405
_cell_angle_alpha 134.680912
_cell_angle_beta 44.306862
_cell_angle_gamma 161.458408
_cell_volume 495.996490
_symmetry_space_group_name_H-M "P -1"
_symmetry_group_IT_number 2
_symmetry_cell_setting 'triclinic'
loop_
_space_group_symop_operation_xyz
x,y,z
-x,-y,-z
loop_
_atom_site_type_symbol
_atom_site_label
_atom_site_fract_x
_atom_site_fract_y
_atom_site_fract_z
Si Si1 0.455324 0.931782 0.798883
Si Si2 0.945077 0.628824 0.402917
Si Si3 0.446291 0.343287 0.267186
Si Si4 0.945647 0.206810 0.866016
Si Si5 0.774515 0.734573 0.858566
O O1 0.301170 0.675500 0.659130
O O2 0.248520 0.858507 0.906830
O O3 0.764109 0.183385 0.669559
O O4 0.500000 0.000000 0.000000
O O5 0.879354 0.692355 0.644957
O O6 0.980998 0.692551 0.265655
O O7 0.500000 0.500000 0.500000
O O8 0.300019 0.265851 0.203982
O O9 0.756183 0.555741 0.125870
O O10 0.241153 0.070828 0.250864
O O11 0.500000 0.500000 0.000000
O O12 0.000000 0.000000 0.000000
#
# Coordination Sequence:
#
# PCOD9094828 Si02
#       5
#     2   2   2   2   2
#     4  10  20  34  61  96 127 158 200 263 320 360
#     4  11  21  38  63  91 130 162 207 257 308 373
#     4  12  24  39  66  92 129 162 206 268 313 357
#     4  11  21  37  64  97 127 153 208 265 320 359
#     4  12  27  43  63  90 130 174 209 248 315 382
#
# _framework density 20.161432000000001
#
# number of rings (size 3 to 8) (size 9 to 14) (size 15 to 20)
#    0.000    0.800    2.000    9.000    2.800    0.000 
#    0.000    0.000    0.000   24.000    0.000    0.000 
#    0.000    0.000    0.000    0.000    0.000    0.000 
#
# Total GULP energy -55927.229616 kJ/mol
# GULP energy per Si atom -5592.722962 kJ/mol
# Density = 2.011554 g / cm^3
# Si number density = 20.161432 Si / 1000 Ang^3
#
#
#
# Elastic Constant Matrix: (Units=GPa)
#
#
# Indices 1 2 3 4 5 6 
#
# 1 62.4040 5.7954 20.1753 10.4269 0.4387 24.6926
# 2 5.7954 98.0540 7.2452 23.4277 7.8011 26.5197
# 3 20.1753 7.2452 94.9741 10.1475 -9.2576 26.9900
# 4 10.4269 23.4277 10.1475 46.0564 7.5676 -10.2323
# 5 0.4387 7.8011 -9.2576 7.5676 25.5597 -6.3689
# 6 24.6926 26.5197 26.9900 -10.2323 -6.3689 41.6973
#
#
#
# Elastic Compliance Matrix: (Units=1/GPa)
#
#
# Indices 1 2 3 4 5 6 
#
# 1 0.031317 0.013221 0.004368 -0.021872 -0.005482 -0.035986
# 2 0.013221 0.024511 0.007086 -0.023644 -0.006825 -0.034850
# 3 0.004368 0.007086 0.016615 -0.013276 0.002548 -0.020717
# 4 -0.021872 -0.023644 -0.013276 0.052680 -0.000496 0.049434
# 5 -0.005482 -0.006825 0.002548 -0.000496 0.045554 0.012774
# 6 -0.035986 -0.034850 -0.020717 0.049434 0.012774 0.094949
#
#
# Mechanical properties :
#
#
# Convention : Reuss Voigt Hill
#
# Bulk Modulus (GPa) = 8.21066 35.76264 21.98665
# Shear Modulus (GPa) = 19.46484 37.47709 28.47096
#
# Velocity S-wave (km/s) = 3.11054 4.31612 3.76194
# Velocity P-wave (km/s) = 4.12091 6.52803 5.45880
#
# Compressibility (1/GPa) = 0.12179294
#
# Stress axis : x y z
#
# Youngs Moduli (GPa) = 31.93163 40.79800 60.18710
#
# Poissons Ratio (x) = -0.53939 -0.26289
# Poissons Ratio (y) = -0.42216 -0.42650
# Poissons Ratio (z) = -0.13947 -0.28911
#
# Static dielectric constant tensor:
#      x y z
#    x 1.725750 0.057970 -0.045430 
#    y 0.057970 1.600320 -0.005310 
#    z -0.045430 -0.005310 1.693050 
# 
# From -- ./inp_files/22186.got.cif
#   From: 2010.05.17/outbox.cif.g08.bks.cpg/sg2_12_cif.got.tgz:22186.got - 2010.06.03 11:33:40.
