data_PCOD9094415
_publ_section_title
;
Structure prediction by ZEFSAII (Michael W. Deem and Ramdas Pophale) SiO2 
 PCOD9094415
Probable space group: P -1
;
_chemical_formula_sum "Si O2"
_cell_formula_units_Z 16
_cell_length_a 20.589884
_cell_length_b 24.629009
_cell_length_c 15.229841
_cell_angle_alpha 164.500282
_cell_angle_beta 155.717016
_cell_angle_gamma 18.544417
_cell_volume 656.205079
_symmetry_space_group_name_H-M "P -1"
_symmetry_group_IT_number 2
_symmetry_cell_setting 'triclinic'
loop_
_space_group_symop_operation_xyz
x,y,z
-x,-y,-z
loop_
_atom_site_type_symbol
_atom_site_label
_atom_site_fract_x
_atom_site_fract_y
_atom_site_fract_z
Si Si1 0.970298 0.281702 0.107840
Si Si2 0.403847 0.900370 0.666528
Si Si3 0.094937 0.865383 0.028357
Si Si4 0.630057 0.032544 0.812093
Si Si5 0.366267 0.041397 0.647555
Si Si6 0.773914 0.557515 0.124735
Si Si7 0.241616 0.605364 0.623216
Si Si8 0.001028 0.591783 0.013101
O O1 0.198357 0.009675 0.979744
O O2 0.000000 0.500000 0.500000
O O3 0.870526 0.343650 0.987033
O O4 0.850848 0.286969 0.051598
O O5 0.520663 0.610751 0.398605
O O6 0.465511 0.904629 0.649488
O O7 0.500000 0.000000 0.000000
O O8 0.156426 0.102096 0.677807
O O9 0.229406 0.957516 0.325547
O O10 0.140694 0.694642 0.734498
O O11 0.858302 0.128572 0.138487
O O12 0.729837 0.812610 0.515025
O O13 0.514761 0.970129 0.639444
O O14 0.447676 0.316946 0.991963
O O15 0.209160 0.361074 0.960008
O O16 0.927301 0.444032 0.054958
O O17 0.145238 0.483669 0.272316
#
# Coordination Sequence:
#
# PCOD9094415 Si02
#       8
#     2   2   2   2   2   2   2   2
#     4  10  20  34  57  82 119 160 192 230 298 368
#     4  10  21  34  58  88 114 157 204 247 282 359
#     4  10  21  38  56  88 128 151 186 255 313 353
#     4   9  19  34  55  89 116 148 196 243 297 359
#     4  10  21  36  59  93 119 148 197 253 309 341
#     4   9  18  32  54  83 115 148 193 242 288 344
#     4   9  19  34  55  85 119 157 189 243 307 350
#     4   9  18  36  58  84 119 156 198 243 285 353
#
# _framework density 24.382622000000001
#
# number of rings (size 3 to 8) (size 9 to 14) (size 15 to 20)
#    0.000    2.500    0.000    1.875    7.000    4.500 
#    2.250    0.000    0.000    1.500    0.000    0.000 
#    0.000    0.000    0.000    0.000    0.000    0.000 
#
# Total GULP energy -89329.186196 kJ/mol
# GULP energy per Si atom -5583.074137 kJ/mol
# Density = 2.432713 g / cm^3
# Si number density = 24.382622 Si / 1000 Ang^3
#
#
#
# Elastic Constant Matrix: (Units=GPa)
#
#
# Indices 1 2 3 4 5 6 
#
# 1 142.2200 32.3598 22.8245 7.2501 3.6921 26.8220
# 2 32.3598 120.7281 7.7907 15.5907 8.9268 26.5353
# 3 22.8245 7.7907 33.0730 14.3068 -0.8958 3.0692
# 4 7.2501 15.5907 14.3068 34.6363 2.5574 -0.8510
# 5 3.6921 8.9268 -0.8958 2.5574 27.2689 3.0882
# 6 26.8220 26.5353 3.0692 -0.8510 3.0882 49.0271
#
#
#
# Elastic Compliance Matrix: (Units=1/GPa)
#
#
# Indices 1 2 3 4 5 6 
#
# 1 0.008964 -0.001284 -0.006054 0.001159 -0.000674 -0.003768
# 2 -0.001284 0.010433 0.000882 -0.004751 -0.002207 -0.004943
# 3 -0.006054 0.000882 0.041473 -0.016524 0.003473 -0.000267
# 4 0.001159 -0.004751 -0.016524 0.037918 -0.003134 0.003827
# 5 -0.000674 -0.002207 0.003473 -0.003134 0.038019 -0.001103
# 6 -0.003768 -0.004943 -0.000267 0.003827 -0.001103 0.025286
#
#
# Mechanical properties :
#
#
# Convention : Reuss Voigt Hill
#
# Bulk Modulus (GPa) = 20.85100 46.88567 33.86834
# Shear Modulus (GPa) = 26.17928 37.72287 31.95108
#
# Velocity S-wave (km/s) = 3.28027 3.93761 3.62388
# Velocity P-wave (km/s) = 4.78717 6.32012 5.60629
#
# Compressibility (1/GPa) = 0.04795933
#
# Stress axis : x y z
#
# Youngs Moduli (GPa) = 111.55709 95.84565 24.11205
#
# Poissons Ratio (x) = 0.12305 0.14597
# Poissons Ratio (y) = 0.14322 -0.02127
# Poissons Ratio (z) = 0.67537 -0.08456
#
# Static dielectric constant tensor:
#      x y z
#    x 1.918390 -0.037470 0.026750 
#    y -0.037470 2.047580 0.028280 
#    z 0.026750 0.028280 2.011300 
# 
# From -- ./inp_files/398382.got.cif
#   From: 2010.05.17/outbox.cif.g08.bks.cpg/sg2_200_cif.got.tgz:398382.got - 2010.06.03 11:33:40.
