data_PCOD9094023
_publ_section_title
;
Structure prediction by ZEFSAII (Michael W. Deem and Ramdas Pophale) SiO2 
 PCOD9094023
Probable space group: P -1
;
_chemical_formula_sum "Si O2"
_cell_formula_units_Z 16
_cell_length_a 21.049797
_cell_length_b 13.238197
_cell_length_c 9.880589
_cell_angle_alpha 102.014660
_cell_angle_beta 54.351168
_cell_angle_gamma 148.655194
_cell_volume 847.815607
_symmetry_space_group_name_H-M "P -1"
_symmetry_group_IT_number 2
_symmetry_cell_setting 'triclinic'
loop_
_space_group_symop_operation_xyz
x,y,z
-x,-y,-z
loop_
_atom_site_type_symbol
_atom_site_label
_atom_site_fract_x
_atom_site_fract_y
_atom_site_fract_z
Si Si1 0.627732 0.032999 0.480542
Si Si2 0.781261 0.344952 0.115652
Si Si3 0.975541 0.420415 0.361874
Si Si4 0.971384 0.850114 0.551975
Si Si5 0.440215 0.575760 0.991027
Si Si6 0.736008 0.871439 0.929016
Si Si7 0.791388 0.973320 0.472842
Si Si8 0.792123 0.021175 0.198823
O O1 0.719741 0.202811 0.282507
O O2 0.781344 0.229524 0.470545
O O3 0.635548 0.921994 0.400540
O O4 0.407872 0.810670 0.720814
O O5 0.841438 0.351013 0.910195
O O6 0.985418 0.656009 0.985040
O O7 0.935627 0.249065 0.381733
O O8 0.000000 0.500000 0.500000
O O9 0.121176 0.009012 0.534629
O O10 0.048517 0.868458 0.342909
O O11 0.000000 0.000000 0.500000
O O12 0.741901 0.566223 0.806686
O O13 0.584435 0.753909 0.992920
O O14 0.580464 0.754880 0.735932
O O15 0.348251 0.348106 0.034111
O O16 0.750627 0.923583 0.078441
O O17 0.780582 0.931632 0.317393
#
# Coordination Sequence:
#
# PCOD9094023 Si02
#       8
#     2   2   2   2   2   2   2   2
#     4   9  19  36  56  75 102 143 176 212 260 306
#     4   9  19  36  55  75 105 140 178 213 255 315
#     4  10  21  36  54  80 112 138 169 217 263 308
#     4   9  18  35  54  72 101 138 173 214 258 302
#     4   9  18  35  53  72 103 136 173 214 255 311
#     4   9  19  34  53  76 100 134 175 215 260 309
#     4   9  20  34  53  77 104 140 172 209 265 310
#     4  10  20  34  52  78 108 134 172 220 263 306
#
# _framework density 18.872028
#
# number of rings (size 3 to 8) (size 9 to 14) (size 15 to 20)
#    0.000    3.000    0.000    2.250    0.000   10.000 
#    0.000    5.000    0.000    0.000    0.000    0.000 
#    0.000    0.000    0.000    0.000    0.000    0.000 
#
# Total GULP energy -89146.217026 kJ/mol
# GULP energy per Si atom -5571.638564 kJ/mol
# Density = 1.882907 g / cm^3
# Si number density = 18.872028 Si / 1000 Ang^3
#
#
#
# Elastic Constant Matrix: (Units=GPa)
#
#
# Indices 1 2 3 4 5 6 
#
# 1 74.4697 19.6651 28.8562 5.2946 -9.1117 25.0376
# 2 19.6651 69.2670 55.5865 31.5404 -6.0032 28.3042
# 3 28.8562 55.5865 111.9355 18.2807 -8.5626 32.6643
# 4 5.2946 31.5404 18.2807 29.8740 5.5991 14.0971
# 5 -9.1117 -6.0032 -8.5626 5.5991 32.2553 -4.5336
# 6 25.0376 28.3042 32.6643 14.0971 -4.5336 21.0596
#
#
#
# Elastic Compliance Matrix: (Units=1/GPa)
#
#
# Indices 1 2 3 4 5 6 
#
# 1 0.028538 0.005860 0.004299 0.013172 -0.000047 -0.057300
# 2 0.005860 0.053034 -0.010990 -0.035457 0.009794 -0.035357
# 3 0.004299 -0.010990 0.019857 0.013614 -0.002243 -0.030736
# 4 0.013172 -0.035457 0.013614 0.090072 -0.022527 -0.054264
# 5 -0.000047 0.009794 -0.002243 -0.022527 0.038044 0.013640
# 6 -0.057300 -0.035357 -0.030736 -0.054264 0.013640 0.250062
#
#
# Mechanical properties :
#
#
# Convention : Reuss Voigt Hill
#
# Bulk Modulus (GPa) = 10.02316 51.54309 30.78313
# Shear Modulus (GPa) = 9.71772 26.74207 18.22990
#
# Velocity S-wave (km/s) = 2.27166 3.76842 3.11138
# Velocity P-wave (km/s) = 3.49332 6.80484 5.40875
#
# Compressibility (1/GPa) = 0.09976889
#
# Stress axis : x y z
#
# Youngs Moduli (GPa) = 35.04137 18.85580 50.35958
#
# Poissons Ratio (x) = -0.11050 -0.21651
# Poissons Ratio (y) = -0.20536 0.55343
# Poissons Ratio (z) = -0.15065 0.20722
#
# Static dielectric constant tensor:
#      x y z
#    x 1.686400 -0.003120 0.022060 
#    y -0.003120 1.643030 -0.023120 
#    z 0.022060 -0.023120 1.700310 
# 
# From -- ./inp_files/347279.got.cif
#   From: 2010.05.17/outbox.cif.g08.bks.cpg/sg2_174_cif.got.tgz:347279.got - 2010.06.03 11:33:40.
