data_PCOD9094366
_publ_section_title
;
Structure prediction by ZEFSAII (Michael W. Deem and Ramdas Pophale) SiO2 
 PCOD9094366
Probable space group: P -1
;
_chemical_formula_sum "Si O2"
_cell_formula_units_Z 13
_cell_length_a 14.291411
_cell_length_b 8.776889
_cell_length_c 7.518861
_cell_angle_alpha 129.699043
_cell_angle_beta 109.210543
_cell_angle_gamma 45.952328
_cell_volume 510.154343
_symmetry_space_group_name_H-M "P -1"
_symmetry_group_IT_number 2
_symmetry_cell_setting 'triclinic'
loop_
_space_group_symop_operation_xyz
x,y,z
-x,-y,-z
loop_
_atom_site_type_symbol
_atom_site_label
_atom_site_fract_x
_atom_site_fract_y
_atom_site_fract_z
Si Si1 0.883510 0.220350 0.860823
Si Si2 0.923945 0.391943 0.386502
Si Si3 0.500000 0.000000 0.500000
Si Si4 0.638001 0.433215 0.033727
Si Si5 0.303638 0.833628 0.775154
Si Si6 0.206806 0.364299 0.153977
Si Si7 0.440268 0.297172 0.305263
O O1 0.889944 0.361152 0.806075
O O2 0.888197 0.353250 0.140706
O O3 0.740720 0.299607 0.838112
O O4 0.991381 0.903465 0.700457
O O5 0.810479 0.595726 0.613423
O O6 0.000000 0.500000 0.500000
O O7 0.404596 0.286949 0.747871
O O8 0.496184 0.146277 0.417625
O O9 0.719261 0.216772 0.079458
O O10 0.500000 0.500000 0.000000
O O11 0.321605 0.613073 0.509700
O O12 0.450137 0.735378 0.766176
O O13 0.200028 0.148478 0.918670
O O14 0.357885 0.233034 0.113792
#
# Coordination Sequence:
#
# PCOD9094366 Si02
#       7
#     2   2   1   2   2   2   2
#     4  11  26  45  67  99 131 168 223 273 325 397
#     4  11  26  47  69  93 128 174 222 276 331 385
#     4  10  20  34  56  88 130 174 214 252 308 382
#     4  11  21  37  62  92 130 168 205 260 324 384
#     4  10  21  35  58  94 132 170 213 257 316 392
#     4  12  23  41  68  94 127 170 218 274 329 382
#     4  10  21  37  59  93 135 174 215 266 321 386
#
# _framework density 25.482486000000002
#
# number of rings (size 3 to 8) (size 9 to 14) (size 15 to 20)
#    0.000    1.231    0.000    6.462    0.000    4.308 
#    0.000    0.000    0.000    0.000    0.000    0.000 
#    0.000    0.000    0.000    0.000    0.000    0.000 
#
# Total GULP energy -72416.870366 kJ/mol
# GULP energy per Si atom -5570.528490 kJ/mol
# Density = 2.542449 g / cm^3
# Si number density = 25.482486 Si / 1000 Ang^3
#
#
#
# Elastic Constant Matrix: (Units=GPa)
#
#
# Indices 1 2 3 4 5 6 
#
# 1 97.0036 27.9350 24.1503 -8.0237 1.0705 13.8644
# 2 27.9350 76.2435 36.7803 1.3539 19.3477 37.6346
# 3 24.1503 36.7803 87.1202 15.3939 10.8816 26.0764
# 4 -8.0237 1.3539 15.3939 44.1816 20.3136 -3.7101
# 5 1.0705 19.3477 10.8816 20.3136 41.3963 3.4116
# 6 13.8644 37.6346 26.0764 -3.7101 3.4116 46.6707
#
#
#
# Elastic Compliance Matrix: (Units=1/GPa)
#
#
# Indices 1 2 3 4 5 6 
#
# 1 0.012206 -0.004061 -0.002705 0.003092 0.000664 0.001357
# 2 -0.004061 0.029214 -0.004905 0.004497 -0.012958 -0.018307
# 3 -0.002705 -0.004905 0.017057 -0.007727 0.002127 -0.005542
# 4 0.003092 0.004497 -0.007727 0.033927 -0.017105 0.003720
# 5 0.000664 -0.012958 0.002127 -0.017105 0.037622 0.004953
# 6 0.001357 -0.018307 -0.005542 0.003720 0.004953 0.038816
#
#
# Mechanical properties :
#
#
# Convention : Reuss Voigt Hill
#
# Bulk Modulus (GPa) = 28.45942 48.67763 38.56852
# Shear Modulus (GPa) = 24.52234 37.88315 31.20275
#
# Velocity S-wave (km/s) = 3.10550 3.85987 3.50305
# Velocity P-wave (km/s) = 4.90421 6.24569 5.61516
#
# Compressibility (1/GPa) = 0.03513775
#
# Stress axis : x y z
#
# Youngs Moduli (GPa) = 81.92573 34.22964 58.62601
#
# Poissons Ratio (x) = 0.13899 0.15857
# Poissons Ratio (y) = 0.33267 0.28754
# Poissons Ratio (z) = 0.22159 0.16788
#
# Static dielectric constant tensor:
#      x y z
#    x 2.008040 -0.050820 0.023890 
#    y -0.050820 2.079620 -0.030100 
#    z 0.023890 -0.030100 1.991850 
# 
# From -- ./inp_files/296879.got.cif
#   From: 2010.05.17/outbox.cif.g08.bks.cpg/sg2_149_cif.got.tgz:296879.got - 2010.06.03 11:33:40.
