data_PCOD9094235
_publ_section_title
;
Structure prediction by ZEFSAII (Michael W. Deem and Ramdas Pophale) SiO2 
 PCOD9094235
Probable space group: P -1
;
_chemical_formula_sum "Si O2"
_cell_formula_units_Z 14
_cell_length_a 5.066180
_cell_length_b 18.986283
_cell_length_c 9.287952
_cell_angle_alpha 35.222380
_cell_angle_beta 95.436510
_cell_angle_gamma 93.336239
_cell_volume 512.658624
_symmetry_space_group_name_H-M "P -1"
_symmetry_group_IT_number 2
_symmetry_cell_setting 'triclinic'
loop_
_space_group_symop_operation_xyz
x,y,z
-x,-y,-z
loop_
_atom_site_type_symbol
_atom_site_label
_atom_site_fract_x
_atom_site_fract_y
_atom_site_fract_z
Si Si1 0.215327 0.402787 0.842256
Si Si2 0.941266 0.020119 0.797150
Si Si3 0.744276 0.448919 0.921254
Si Si4 0.860635 0.314830 0.732432
Si Si5 0.403002 0.762318 0.572940
Si Si6 0.581601 0.973979 0.384474
Si Si7 0.330227 0.269846 0.644951
O O1 0.169007 0.540853 0.547798
O O2 0.050241 0.312165 0.885807
O O3 0.531737 0.392268 0.892123
O O4 0.047482 0.409918 0.969327
O O5 0.877812 0.166194 0.541947
O O6 0.654741 0.972216 0.818526
O O7 0.147782 0.984302 0.742145
O O8 0.000000 0.000000 0.000000
O O9 0.653570 0.379361 0.175196
O O10 0.710825 0.591970 0.652903
O O11 0.560343 0.273757 0.771942
O O12 0.042246 0.247357 0.732714
O O13 0.540004 0.798301 0.371008
O O14 0.571114 0.828196 0.596003
O O15 0.500000 0.000000 0.500000
#
# Coordination Sequence:
#
# PCOD9094235 Si02
#       7
#     2   2   2   2   2   2   2
#     4   9  18  33  53  76 115 163 206 245 290 346
#     4  10  23  44  72  95 126 163 207 269 329 381
#     4  10  20  34  55  86 122 163 200 243 295 357
#     4   9  18  33  53  76 115 163 206 245 290 346
#     4  10  25  36  66  84 130 150 215 240 328 352
#     4  10  23  44  72  95 126 163 207 269 329 381
#     4  10  20  34  55  86 122 163 200 243 295 357
#
# _framework density 27.308620000000001
#
# number of rings (size 3 to 8) (size 9 to 14) (size 15 to 20)
#    0.857    1.429    0.000    2.143    4.000    3.429 
#    0.000    8.571    0.000    0.000    0.000    0.000 
#    0.000    0.000    0.000    0.000    0.000    0.000 
#
# Total GULP energy -78232.524283 kJ/mol
# GULP energy per Si atom -5588.037449 kJ/mol
# Density = 2.724646 g / cm^3
# Si number density = 27.308620 Si / 1000 Ang^3
#
#
#
# Elastic Constant Matrix: (Units=GPa)
#
#
# Indices 1 2 3 4 5 6 
#
# 1 171.4672 33.1097 16.8906 8.8289 -13.5500 -10.0413
# 2 33.1097 105.0800 1.4947 17.3815 -7.8765 -5.5742
# 3 16.8906 1.4947 57.4605 -7.8196 -11.5966 1.8323
# 4 8.8289 17.3815 -7.8196 42.4493 -1.4332 -1.2985
# 5 -13.5500 -7.8765 -11.5966 -1.4332 38.5992 2.6753
# 6 -10.0413 -5.5742 1.8323 -1.2985 2.6753 33.9076
#
#
#
# Elastic Compliance Matrix: (Units=1/GPa)
#
#
# Indices 1 2 3 4 5 6 
#
# 1 0.006584 -0.001717 -0.001810 -0.000907 0.001271 0.001630
# 2 -0.001717 0.010884 -0.000083 -0.004037 0.001372 0.001022
# 3 -0.001810 -0.000083 0.019684 0.004166 0.005547 -0.001891
# 4 -0.000907 -0.004037 0.004166 0.026196 0.001099 -0.000241
# 5 0.001271 0.001372 0.005547 0.001099 0.028473 -0.001902
# 6 0.001630 0.001022 -0.001891 -0.000241 -0.001902 0.030386
#
#
# Mechanical properties :
#
#
# Convention : Reuss Voigt Hill
#
# Bulk Modulus (GPa) = 33.40953 48.55529 40.98241
# Shear Modulus (GPa) = 35.86665 41.82540 38.84602
#
# Velocity S-wave (km/s) = 3.62799 3.91779 3.77567
# Velocity P-wave (km/s) = 5.45989 6.18743 5.83501
#
# Compressibility (1/GPa) = 0.02993158
#
# Stress axis : x y z
#
# Youngs Moduli (GPa) = 151.87247 91.88053 50.80204
#
# Poissons Ratio (x) = 0.15778 0.09194
# Poissons Ratio (y) = 0.26080 0.00424
# Poissons Ratio (z) = 0.27486 0.00766
#
# Static dielectric constant tensor:
#      x y z
#    x 2.058180 0.020790 0.046580 
#    y 0.020790 2.202690 -0.063810 
#    z 0.046580 -0.063810 2.275380 
# 
# From -- ./inp_files/141009.got.cif
#   From: 2010.05.17/outbox.cif.g08.bks.cpg/sg2_71_cif.got.tgz:141009.got - 2010.06.03 11:33:40.
