data_PCOD9094447
_publ_section_title
;
Structure prediction by ZEFSAII (Michael W. Deem and Ramdas Pophale) SiO2 
 PCOD9094447
Probable space group: P -1
;
_chemical_formula_sum "Si O2"
_cell_formula_units_Z 16
_cell_length_a 11.592559
_cell_length_b 15.228644
_cell_length_c 12.292421
_cell_angle_alpha 128.987687
_cell_angle_beta 31.387681
_cell_angle_gamma 121.739242
_cell_volume 878.188195
_symmetry_space_group_name_H-M "P -1"
_symmetry_group_IT_number 2
_symmetry_cell_setting 'triclinic'
loop_
_space_group_symop_operation_xyz
x,y,z
-x,-y,-z
loop_
_atom_site_type_symbol
_atom_site_label
_atom_site_fract_x
_atom_site_fract_y
_atom_site_fract_z
Si Si1 0.830370 0.434030 0.508628
Si Si2 0.572063 0.285568 0.770722
Si Si3 0.018949 0.906117 0.181846
Si Si4 0.432442 0.832184 0.936771
Si Si5 0.017587 0.154140 0.297615
Si Si6 0.754084 0.964243 0.634294
Si Si7 0.619372 0.657347 0.799412
Si Si8 0.910647 0.784548 0.951405
O O1 0.664426 0.373085 0.676988
O O2 0.711340 0.531016 0.608756
O O3 0.000000 0.500000 0.500000
O O4 0.963359 0.336775 0.260275
O O5 0.351481 0.232609 0.859247
O O6 0.769334 0.193796 0.559697
O O7 0.506585 0.340687 0.981890
O O8 0.797101 0.916681 0.442544
O O9 0.977502 0.843197 0.054048
O O10 0.080816 0.035119 0.207050
O O11 0.217771 0.846777 0.043993
O O12 0.642180 0.872120 0.729207
O O13 0.471738 0.711091 0.864579
O O14 0.393531 0.922579 0.137117
O O15 0.180404 0.254492 0.278006
O O16 0.026385 0.146316 0.153672
O O17 0.000000 0.000000 0.500000
#
# Coordination Sequence:
#
# PCOD9094447 Si02
#       8
#     2   2   2   2   2   2   2   2
#     4  11  20  39  59  86 111 140 186 241 280 327
#     4  10  20  35  59  87 110 141 185 230 294 323
#     4  11  22  38  55  81 123 152 185 222 272 345
#     4  10  21  36  56  81 113 152 186 230 276 320
#     4  10  20  34  57  86 115 144 183 231 279 334
#     4   9  18  34  54  78 110 148 192 223 268 320
#     4  11  20  34  60  88 109 142 191 236 277 326
#     4  10  23  37  55  85 115 152 185 225 283 331
#
# _framework density 18.219328000000001
#
# number of rings (size 3 to 8) (size 9 to 14) (size 15 to 20)
#    0.000    1.750    3.750    3.750    0.000    4.500 
#    0.000    0.625    0.000    1.500    0.000    0.000 
#    0.000    0.000    0.000    0.000    0.000    0.000 
#
# Total GULP energy -89290.761584 kJ/mol
# GULP energy per Si atom -5580.672599 kJ/mol
# Density = 1.817786 g / cm^3
# Si number density = 18.219328 Si / 1000 Ang^3
#
#
#
# Elastic Constant Matrix: (Units=GPa)
#
#
# Indices 1 2 3 4 5 6 
#
# 1 76.4762 19.4348 36.4846 9.2637 -4.4654 -15.8768
# 2 19.4348 55.5914 31.5767 9.3839 -9.5762 -16.8847
# 3 36.4846 31.5767 94.6278 -8.9217 -2.7963 -0.5741
# 4 9.2637 9.3839 -8.9217 26.8458 -4.6490 -12.0306
# 5 -4.4654 -9.5762 -2.7963 -4.6490 31.3987 7.7663
# 6 -15.8768 -16.8847 -0.5741 -12.0306 7.7663 26.9280
#
#
#
# Elastic Compliance Matrix: (Units=1/GPa)
#
#
# Indices 1 2 3 4 5 6 
#
# 1 0.019505 0.002123 -0.008749 -0.005935 -0.000763 0.010213
# 2 0.002123 0.030415 -0.011478 -0.007532 0.003561 0.015686
# 3 -0.008749 -0.011478 0.018662 0.009860 0.000264 -0.007628
# 4 -0.005935 -0.007532 0.009860 0.052134 0.001805 0.014759
# 5 -0.000763 0.003561 0.000264 0.001805 0.034970 -0.007490
# 6 0.010213 0.015686 -0.007628 0.014759 -0.007490 0.061585
#
#
# Mechanical properties :
#
#
# Convention : Reuss Voigt Hill
#
# Bulk Modulus (GPa) = 30.88804 44.63193 37.75999
# Shear Modulus (GPa) = 18.92014 26.31446 22.61730
#
# Velocity S-wave (km/s) = 3.22602 3.80454 3.52716
# Velocity P-wave (km/s) = 5.55576 6.62190 6.11212
#
# Compressibility (1/GPa) = 0.03237499
#
# Stress axis : x y z
#
# Youngs Moduli (GPa) = 51.26887 32.87891 53.58456
#
# Poissons Ratio (x) = -0.06981 0.46881
# Poissons Ratio (y) = -0.10885 0.61502
# Poissons Ratio (z) = 0.44855 0.37737
#
# Static dielectric constant tensor:
#      x y z
#    x 1.639320 -0.019920 -0.012230 
#    y -0.019920 1.623370 -0.006020 
#    z -0.012230 -0.006020 1.653920 
# 
# From -- ./inp_files/66851.got.cif
#   From: 2010.05.17/outbox.cif.g08.bks.cpg/sg2_34_cif.got.tgz:66851.got - 2010.06.03 11:33:40.
