data_PCOD9094836
_publ_section_title
;
Structure prediction by ZEFSAII (Michael W. Deem and Ramdas Pophale) SiO2 
 PCOD9094836
Probable space group: P -1
;
_chemical_formula_sum "Si O2"
_cell_formula_units_Z 14
_cell_length_a 20.636716
_cell_length_b 5.150574
_cell_length_c 18.391416
_cell_angle_alpha 79.315403
_cell_angle_beta 157.391416
_cell_angle_gamma 88.670896
_cell_volume 633.251377
_symmetry_space_group_name_H-M "P -1"
_symmetry_group_IT_number 2
_symmetry_cell_setting 'triclinic'
loop_
_space_group_symop_operation_xyz
x,y,z
-x,-y,-z
loop_
_atom_site_type_symbol
_atom_site_label
_atom_site_fract_x
_atom_site_fract_y
_atom_site_fract_z
Si Si1 0.141526 0.137989 0.649381
Si Si2 0.361980 0.868995 0.340104
Si Si3 0.781669 0.774926 0.588090
Si Si4 0.146543 0.945150 0.811214
Si Si5 0.402466 0.815988 0.224459
Si Si6 0.797940 0.208210 0.683848
Si Si7 0.110135 0.352150 0.459416
O O1 0.000000 0.500000 0.500000
O O2 0.253989 0.973684 0.848625
O O3 0.234573 0.136408 0.667872
O O4 0.000000 0.000000 0.500000
O O5 0.500000 0.500000 0.500000
O O6 0.297013 0.947402 0.185115
O O7 0.197905 0.945206 0.227058
O O8 0.500000 0.000000 0.500000
O O9 0.549627 0.941897 0.356227
O O10 0.872081 0.447113 0.740046
O O11 0.801782 0.728693 0.525391
O O12 0.868013 0.966683 0.703611
O O13 0.963024 0.293891 0.616092
O O14 0.072947 0.706843 0.733160
O O15 0.270264 0.868200 0.016048
O O16 0.563334 0.452494 0.416949
#
# Coordination Sequence:
#
# PCOD9094836 Si02
#       7
#     2   2   2   2   2   2   2
#     4   8  16  32  50  70  94 131 168 194 234 299
#     4  10  16  30  49  76  93 130 167 204 232 293
#     4  10  19  32  51  73 102 130 168 195 247 302
#     4  10  20  33  54  76 100 125 168 214 241 280
#     4   9  21  30  55  77 100 121 171 213 247 272
#     4   9  18  31  51  74  97 131 167 202 238 296
#     4  10  20  34  53  73 100 137 164 194 250 306
#
# _framework density 22.108125000000001
#
# number of rings (size 3 to 8) (size 9 to 14) (size 15 to 20)
#    0.857    1.714    1.429    0.857    2.000    0.000 
#    0.000    0.714    0.000    6.000    0.000    0.000 
#    0.000    0.000    0.000    0.000    0.000    0.000 
#
# Total GULP energy -77948.244838 kJ/mol
# GULP energy per Si atom -5567.731774 kJ/mol
# Density = 2.205781 g / cm^3
# Si number density = 22.108125 Si / 1000 Ang^3
#
#
#
# Elastic Constant Matrix: (Units=GPa)
#
#
# Indices 1 2 3 4 5 6 
#
# 1 143.0702 -4.1085 19.0512 -3.2703 -47.5680 -21.9382
# 2 -4.1085 118.4709 -4.8542 -2.0916 3.0713 0.7965
# 3 19.0512 -4.8542 49.9694 11.4960 -9.9481 4.7993
# 4 -3.2703 -2.0916 11.4960 15.8680 -10.9419 -4.3372
# 5 -47.5680 3.0713 -9.9481 -10.9419 42.8822 13.9445
# 6 -21.9382 0.7965 4.7993 -4.3372 13.9445 37.4058
#
#
#
# Elastic Compliance Matrix: (Units=1/GPa)
#
#
# Indices 1 2 3 4 5 6 
#
# 1 0.016726 0.000092 -0.008720 0.026051 0.021207 0.006041
# 2 0.000092 0.008485 0.000637 0.000517 -0.000202 -0.000073
# 3 -0.008720 0.000637 0.030054 -0.031383 -0.007566 -0.009802
# 4 0.026051 0.000517 -0.031383 0.129668 0.049505 0.015874
# 5 0.021207 -0.000202 -0.007566 0.049505 0.058612 -0.002697
# 6 0.006041 -0.000073 -0.009802 0.015874 -0.002697 0.034382
#
#
# Mechanical properties :
#
#
# Convention : Reuss Voigt Hill
#
# Bulk Modulus (GPa) = 25.45559 36.85417 31.15488
# Shear Modulus (GPa) = 16.28651 39.32599 27.80625
#
# Velocity S-wave (km/s) = 2.71712 4.22216 3.55031
# Velocity P-wave (km/s) = 4.62415 6.36200 5.56138
#
# Compressibility (1/GPa) = 0.03928410
#
# Stress axis : x y z
#
# Youngs Moduli (GPa) = 59.78678 117.85446 33.27392
#
# Poissons Ratio (x) = -0.01088 0.29014
# Poissons Ratio (y) = -0.00552 -0.02120
# Poissons Ratio (z) = 0.52132 -0.07508
#
# Static dielectric constant tensor:
#      x y z
#    x 1.928390 0.009810 -0.028390 
#    y 0.009810 1.781030 0.004350 
#    z -0.028390 0.004350 1.847580 
# 
# From -- ./inp_files/56255.got.cif
#   From: 2010.05.17/outbox.cif.g08.bks.cpg/sg2_29_cif.got.tgz:56255.got - 2010.06.03 11:33:40.
