data_PCOD9094979
_publ_section_title
;
Structure prediction by ZEFSAII (Michael W. Deem and Ramdas Pophale) SiO2 
 PCOD9094979
Probable space group: P -1
;
_chemical_formula_sum "Si O2"
_cell_formula_units_Z 15
_cell_length_a 9.737037
_cell_length_b 8.968940
_cell_length_c 14.163046
_cell_angle_alpha 59.845863
_cell_angle_beta 82.125732
_cell_angle_gamma 132.857147
_cell_volume 513.927737
_symmetry_space_group_name_H-M "P -1"
_symmetry_group_IT_number 2
_symmetry_cell_setting 'triclinic'
loop_
_space_group_symop_operation_xyz
x,y,z
-x,-y,-z
loop_
_atom_site_type_symbol
_atom_site_label
_atom_site_fract_x
_atom_site_fract_y
_atom_site_fract_z
Si Si1 0.345173 0.244051 0.726457
Si Si2 0.680823 0.052176 0.550685
Si Si3 0.273082 0.009299 0.994407
Si Si4 0.610295 0.347669 0.490235
Si Si5 0.740361 0.704270 0.820780
Si Si6 0.236504 0.678219 0.236932
Si Si7 0.000000 0.000000 0.500000
Si Si8 0.444087 0.710719 0.866988
O O1 0.167219 0.958705 0.918964
O O2 0.430256 0.210512 0.642442
O O3 0.248005 0.321770 0.666898
O O4 0.643388 0.613250 0.635356
O O5 0.769951 0.338213 0.490264
O O6 0.992511 0.296653 0.432800
O O7 0.578649 0.919432 0.496163
O O8 0.437750 0.727643 0.749156
O O9 0.403402 0.308338 0.945660
O O10 0.565475 0.223194 0.876875
O O11 0.112175 0.696024 0.175386
O O12 0.715858 0.876873 0.794121
O O13 0.770771 0.601161 0.935537
O O14 0.944310 0.907794 0.648908
O O15 0.448858 0.996031 0.189838
#
# Coordination Sequence:
#
# PCOD9094979 Si02
#       8
#     2   2   2   2   2   2   1   2
#     4  10  21  40  64  86 114 158 205 259 296 353
#     4  11  22  38  59  80 125 173 197 235 307 382
#     4   9  19  37  58  90 124 146 196 273 303 342
#     4  10  24  40  58  83 126 162 206 240 300 368
#     4   9  20  33  57  95 120 145 193 264 302 345
#     4  10  21  34  59  93 121 153 201 252 314 360
#     4  10  20  34  70  94 110 146 208 250 310 344
#     4  10  20  36  57  91 124 150 198 260 302 341
#
# _framework density 29.186985
#
# number of rings (size 3 to 8) (size 9 to 14) (size 15 to 20)
#    0.000    2.133    0.000    2.800    9.333    0.000 
#    0.000    1.333   11.733    0.000    0.000    0.000 
#    0.000    0.000    0.000    0.000    0.000    0.000 
#
# Total GULP energy -83662.271793 kJ/mol
# GULP energy per Si atom -5577.484786 kJ/mol
# Density = 2.912055 g / cm^3
# Si number density = 29.186985 Si / 1000 Ang^3
#
#
#
# Elastic Constant Matrix: (Units=GPa)
#
#
# Indices 1 2 3 4 5 6 
#
# 1 95.5527 -0.0834 8.0263 9.1532 21.0591 3.4034
# 2 -0.0834 99.6185 32.1256 22.9327 14.5416 -8.5430
# 3 8.0263 32.1256 225.6017 19.3659 31.2213 -9.6340
# 4 9.1532 22.9327 19.3659 43.6392 0.1603 10.6248
# 5 21.0591 14.5416 31.2213 0.1603 48.6661 15.6764
# 6 3.4034 -8.5430 -9.6340 10.6248 15.6764 42.9519
#
#
#
# Elastic Compliance Matrix: (Units=1/GPa)
#
#
# Indices 1 2 3 4 5 6 
#
# 1 0.012506 0.002409 0.000929 -0.005221 -0.007965 0.003895
# 2 0.002409 0.014107 0.000197 -0.009927 -0.007932 0.008010
# 3 0.000929 0.000197 0.005616 -0.003775 -0.005379 0.004122
# 4 -0.005221 -0.009927 -0.003775 0.034643 0.012543 -0.015555
# 5 -0.007965 -0.007932 -0.005379 0.012543 0.035660 -0.018271
# 6 0.003895 0.008010 0.004122 -0.015555 -0.018271 0.036007
#
#
# Mechanical properties :
#
#
# Convention : Reuss Voigt Hill
#
# Bulk Modulus (GPa) = 25.44526 55.65666 40.55096
# Shear Modulus (GPa) = 34.58582 52.43174 43.50878
#
# Velocity S-wave (km/s) = 3.44608 4.24300 3.86514
# Velocity P-wave (km/s) = 4.95690 6.56616 5.81745
#
# Compressibility (1/GPa) = 0.03930004
#
# Stress axis : x y z
#
# Youngs Moduli (GPa) = 79.95955 70.88868 178.06505
#
# Poissons Ratio (x) = -0.17081 -0.16537
# Poissons Ratio (y) = -0.19266 -0.03515
# Poissons Ratio (z) = -0.07426 -0.01399
#
# Static dielectric constant tensor:
#      x y z
#    x 2.452570 0.118460 0.076440 
#    y 0.118460 2.221540 -0.008320 
#    z 0.076440 -0.008320 2.220810 
# 
# From -- ./inp_files/515368.got.cif
#   From: 2010.05.17/outbox.cif.g08.bks.cpg/sg2_258_cif.got.tgz:515368.got - 2010.06.03 11:33:40.
