data_PCOD9094655
_publ_section_title
;
Structure prediction by ZEFSAII (Michael W. Deem and Ramdas Pophale) SiO2 
 PCOD9094655
Probable space group: P -1
;
_chemical_formula_sum "Si O2"
_cell_formula_units_Z 16
_cell_length_a 6.448940
_cell_length_b 13.441230
_cell_length_c 14.648024
_cell_angle_alpha 40.743094
_cell_angle_beta 104.004193
_cell_angle_gamma 86.293076
_cell_volume 739.850905
_symmetry_space_group_name_H-M "P -1"
_symmetry_group_IT_number 2
_symmetry_cell_setting 'triclinic'
loop_
_space_group_symop_operation_xyz
x,y,z
-x,-y,-z
loop_
_atom_site_type_symbol
_atom_site_label
_atom_site_fract_x
_atom_site_fract_y
_atom_site_fract_z
Si Si1 0.296270 0.761190 0.730394
Si Si2 0.608856 0.729049 0.045796
Si Si3 0.197681 0.456510 0.977698
Si Si4 0.712833 0.980908 0.309293
Si Si5 0.991952 0.359067 0.722821
Si Si6 0.596581 0.514837 0.717523
Si Si7 0.498555 0.854081 0.531363
Si Si8 0.901422 0.321250 0.538084
O O1 0.177902 0.633818 0.816802
O O2 0.205368 0.912385 0.685167
O O3 0.294755 0.820198 0.586015
O O4 0.560136 0.652536 0.869214
O O5 0.789986 0.649800 0.037142
O O6 0.484239 0.601220 0.144189
O O7 0.757799 0.748230 0.132719
O O8 0.423082 0.897838 0.870420
O O9 0.000000 0.500000 0.000000
O O10 0.535775 0.925008 0.388769
O O11 0.926030 0.832570 0.392778
O O12 0.792571 0.402200 0.747625
O O13 0.017803 0.530038 0.580968
O O14 0.930103 0.290466 0.670895
O O15 0.665669 0.656360 0.674720
O O16 0.365380 0.619817 0.561554
O O17 0.500000 0.000000 0.500000
#
# Coordination Sequence:
#
# PCOD9094655 Si02
#       8
#     2   2   2   2   2   2   2   2
#     4   9  20  37  56  87 128 159 203 248 292 370
#     4  10  23  39  62  93 125 162 203 253 311 364
#     4  10  20  34  59  89 123 165 202 241 301 366
#     4  10  21  42  60  92 130 160 200 261 309 360
#     4  10  22  41  66  90 118 161 212 254 308 372
#     4  11  21  41  66  89 122 164 209 252 301 375
#     4  10  20  39  64  87 127 168 203 249 306 363
#     4  10  22  41  65  91 119 159 208 263 309 357
#
# _framework density 21.625979999999998
#
# number of rings (size 3 to 8) (size 9 to 14) (size 15 to 20)
#    0.000    2.000    2.500    0.375    1.750    0.500 
#    9.000    1.875    0.000    0.000    0.000    0.000 
#    0.000    0.000    0.000    0.000    0.000    0.000 
#
# Total GULP energy -89221.142185 kJ/mol
# GULP energy per Si atom -5576.321387 kJ/mol
# Density = 2.157676 g / cm^3
# Si number density = 21.625980 Si / 1000 Ang^3
#
#
#
# Elastic Constant Matrix: (Units=GPa)
#
#
# Indices 1 2 3 4 5 6 
#
# 1 68.5439 28.3416 41.4884 2.7842 0.0394 -11.2402
# 2 28.3416 89.6712 26.8112 9.2721 8.0159 -9.4048
# 3 41.4884 26.8112 109.2917 11.8437 -3.5465 2.5358
# 4 2.7842 9.2721 11.8437 29.1968 -0.4316 -1.1795
# 5 0.0394 8.0159 -3.5465 -0.4316 21.7289 1.9056
# 6 -11.2402 -9.4048 2.5358 -1.1795 1.9056 27.2476
#
#
#
# Elastic Compliance Matrix: (Units=1/GPa)
#
#
# Indices 1 2 3 4 5 6 
#
# 1 0.022453 -0.003993 -0.008065 0.002745 -0.000601 0.008796
# 2 -0.003993 0.014246 -0.001900 -0.003310 -0.005950 0.003720
# 3 -0.008065 -0.001900 0.013374 -0.004232 0.003309 -0.005642
# 4 0.002745 -0.003310 -0.004232 0.036849 0.001091 0.001902
# 5 -0.000601 -0.005950 0.003309 0.001091 0.049307 -0.006011
# 6 0.008796 0.003720 -0.005642 0.001902 -0.006011 0.042640
#
#
# Mechanical properties :
#
#
# Convention : Reuss Voigt Hill
#
# Bulk Modulus (GPa) = 45.12952 51.19879 48.16416
# Shear Modulus (GPa) = 23.34585 27.02573 25.18579
#
# Velocity S-wave (km/s) = 3.28918 3.53893 3.41634
# Velocity P-wave (km/s) = 5.94462 6.35805 6.15480
#
# Compressibility (1/GPa) = 0.02215844
#
# Stress axis : x y z
#
# Youngs Moduli (GPa) = 44.53783 70.19433 74.77038
#
# Poissons Ratio (x) = 0.28027 0.60301
# Poissons Ratio (y) = 0.17783 0.14205
# Poissons Ratio (z) = 0.35919 0.13335
#
# Static dielectric constant tensor:
#      x y z
#    x 1.855090 0.039260 0.039520 
#    y 0.039260 1.797950 0.023550 
#    z 0.039520 0.023550 1.812070 
# 
# From -- ./inp_files/484240.got.cif
#   From: 2010.05.17/outbox.cif.g08.bks.cpg/sg2_243_cif.got.tgz:484240.got - 2010.06.03 11:33:40.
