data_PCOD9094577
_publ_section_title
;
Structure prediction by ZEFSAII (Michael W. Deem and Ramdas Pophale) SiO2 
 PCOD9094577
Probable space group: P -1
;
_chemical_formula_sum "Si O2"
_cell_formula_units_Z 12
_cell_length_a 9.704980
_cell_length_b 11.123366
_cell_length_c 5.025502
_cell_angle_alpha 96.130318
_cell_angle_beta 85.202418
_cell_angle_gamma 113.375813
_cell_volume 494.630868
_symmetry_space_group_name_H-M "P -1"
_symmetry_group_IT_number 2
_symmetry_cell_setting 'triclinic'
loop_
_space_group_symop_operation_xyz
x,y,z
-x,-y,-z
loop_
_atom_site_type_symbol
_atom_site_label
_atom_site_fract_x
_atom_site_fract_y
_atom_site_fract_z
Si Si1 0.601733 0.056804 0.749035
Si Si2 0.429149 0.690328 0.360366
Si Si3 0.747315 0.432204 0.101890
Si Si4 0.761112 0.888964 0.489376
Si Si5 0.972753 0.148116 0.273707
Si Si6 0.978085 0.311260 0.802748
O O1 0.630198 0.207188 0.747374
O O2 0.500000 0.000000 0.500000
O O3 0.717567 0.987774 0.705889
O O4 0.500000 0.000000 0.000000
O O5 0.351588 0.646593 0.649654
O O6 0.608783 0.771182 0.386220
O O7 0.363773 0.573179 0.127905
O O8 0.871144 0.378025 0.960650
O O9 0.854086 0.577533 0.216608
O O10 0.869336 0.840286 0.626963
O O11 0.859661 0.995378 0.279013
O O12 0.979815 0.205105 0.994310
O O13 0.927632 0.241143 0.508355
#
# Coordination Sequence:
#
# PCOD9094577 Si02
#       6
#     2   2   2   2   2   2
#     4  10  20  34  58  89 121 152 191 246 302 355
#     4  11  22  39  65  97 124 156 204 263 314 356
#     4  11  23  41  68  91 121 160 210 266 304 354
#     4  10  24  41  63  94 129 164 203 250 315 374
#     4  11  25  42  63  89 129 170 203 248 306 382
#     4  11  24  44  64  91 122 166 213 250 306 368
#
# _framework density 24.260515999999999
#
# number of rings (size 3 to 8) (size 9 to 14) (size 15 to 20)
#    0.000    1.333    0.000    6.000    0.000   14.667 
#    0.000    5.000    0.000    0.000    0.000    0.000 
#    0.000    0.000    0.000    0.000    0.000    0.000 
#
# Total GULP energy -67067.484663 kJ/mol
# GULP energy per Si atom -5588.957055 kJ/mol
# Density = 2.420530 g / cm^3
# Si number density = 24.260516 Si / 1000 Ang^3
#
#
#
# Elastic Constant Matrix: (Units=GPa)
#
#
# Indices 1 2 3 4 5 6 
#
# 1 110.9465 34.4202 18.6678 -4.1650 5.2182 29.0374
# 2 34.4202 79.2405 27.5894 2.1532 7.3835 51.0951
# 3 18.6678 27.5894 119.5588 -11.8072 6.5910 21.7639
# 4 -4.1650 2.1532 -11.8072 30.8555 10.7496 2.3489
# 5 5.2182 7.3835 6.5910 10.7496 24.4821 11.9865
# 6 29.0374 51.0951 21.7639 2.3489 11.9865 55.8427
#
#
#
# Elastic Compliance Matrix: (Units=1/GPa)
#
#
# Indices 1 2 3 4 5 6 
#
# 1 0.010777 -0.002635 -0.000280 0.002062 -0.000872 -0.002984
# 2 -0.002635 0.032865 -0.002686 -0.004034 0.007376 -0.029067
# 3 -0.000280 -0.002686 0.009880 0.005303 -0.003798 -0.000655
# 4 0.002062 -0.004034 0.005303 0.041945 -0.020644 0.003218
# 5 -0.000872 0.007376 -0.003798 -0.020644 0.056795 -0.016138
# 6 -0.002984 -0.029067 -0.000655 0.003218 -0.016138 0.049639
#
#
# Mechanical properties :
#
#
# Convention : Reuss Voigt Hill
#
# Bulk Modulus (GPa) = 23.62926 52.34450 37.98688
# Shear Modulus (GPa) = 22.00605 37.50727 29.75666
#
# Velocity S-wave (km/s) = 3.01503 3.93621 3.50601
# Velocity P-wave (km/s) = 4.67777 6.50240 5.66404
#
# Compressibility (1/GPa) = 0.04232042
#
# Stress axis : x y z
#
# Youngs Moduli (GPa) = 92.78840 30.42770 101.21428
#
# Poissons Ratio (x) = 0.08017 0.02832
# Poissons Ratio (y) = 0.24447 0.27188
# Poissons Ratio (z) = 0.02597 0.08173
#
# Static dielectric constant tensor:
#      x y z
#    x 1.975270 -0.000410 -0.048980 
#    y -0.000410 3.350310 0.134600 
#    z -0.048980 0.134600 1.903880 
# 
# From -- ./inp_files/19750.got.cif
#   From: 2010.05.17/outbox.cif.g08.bks.cpg/sg2_10_cif.got.tgz:19750.got - 2010.06.03 11:33:40.
