data_PCOD9094003
_publ_section_title
;
Structure prediction by ZEFSAII (Michael W. Deem and Ramdas Pophale) SiO2 
 PCOD9094003
Probable space group: P -1
;
_chemical_formula_sum "Si O2"
_cell_formula_units_Z 16
_cell_length_a 7.930947
_cell_length_b 13.729170
_cell_length_c 15.368714
_cell_angle_alpha 44.140567
_cell_angle_beta 120.838391
_cell_angle_gamma 133.253394
_cell_volume 848.084269
_symmetry_space_group_name_H-M "P -1"
_symmetry_group_IT_number 2
_symmetry_cell_setting 'triclinic'
loop_
_space_group_symop_operation_xyz
x,y,z
-x,-y,-z
loop_
_atom_site_type_symbol
_atom_site_label
_atom_site_fract_x
_atom_site_fract_y
_atom_site_fract_z
Si Si1 0.734223 0.612987 0.042461
Si Si2 0.034579 0.458809 0.164977
Si Si3 0.201980 0.964358 0.093467
Si Si4 0.862301 0.605192 0.274811
Si Si5 0.150199 0.941841 0.902894
Si Si6 0.695077 0.237918 0.068922
Si Si7 0.319083 0.312721 0.663290
Si Si8 0.151869 0.450627 0.389904
O O1 0.900700 0.548248 0.100908
O O2 0.728386 0.599790 0.154157
O O3 0.500000 0.500000 0.000000
O O4 0.877087 0.803483 0.928441
O O5 0.868300 0.318390 0.143691
O O6 0.080877 0.395587 0.306647
O O7 0.255735 0.606521 0.077733
O O8 0.426459 0.118403 0.095482
O O9 0.085937 0.791682 0.222197
O O10 0.257958 0.936319 0.027675
O O11 0.000000 0.000000 0.000000
O O12 0.707850 0.584089 0.331397
O O13 0.973247 0.494117 0.358267
O O14 0.240695 0.876898 0.892887
O O15 0.215442 0.126286 0.785894
O O16 0.178753 0.326022 0.537384
O O17 0.584954 0.391609 0.652962
#
# Coordination Sequence:
#
# PCOD9094003 Si02
#       8
#     2   2   2   2   2   2   2   2
#     4   9  20  33  54  84 116 142 178 222 281 345
#     4   9  20  35  55  77 111 150 178 225 275 338
#     4  11  20  31  53  85 111 136 176 231 282 328
#     4  10  21  36  56  84 110 143 183 232 281 329
#     4  10  20  34  51  86 108 141 181 228 276 328
#     4  10  20  34  56  78 112 145 173 225 288 335
#     4  11  21  36  61  77 111 147 188 239 269 325
#     4  10  22  39  55  82 107 148 194 229 274 319
#
# _framework density 18.866050000000001
#
# number of rings (size 3 to 8) (size 9 to 14) (size 15 to 20)
#    0.000    2.000    1.250    3.000    3.500    2.000 
#    0.000    0.625    0.000    8.250    0.000    0.000 
#    0.000    0.000    0.000    0.000    0.000    0.000 
#
# Total GULP energy -89249.940001 kJ/mol
# GULP energy per Si atom -5578.121250 kJ/mol
# Density = 1.882311 g / cm^3
# Si number density = 18.866050 Si / 1000 Ang^3
#
#
#
# Elastic Constant Matrix: (Units=GPa)
#
#
# Indices 1 2 3 4 5 6 
#
# 1 79.1494 12.1415 5.7529 9.4235 3.1164 -10.7265
# 2 12.1415 78.0002 3.4163 7.5315 -0.8297 5.1407
# 3 5.7529 3.4163 45.0483 11.2272 -5.4710 1.6346
# 4 9.4235 7.5315 11.2272 22.2255 -1.6661 -3.8619
# 5 3.1164 -0.8297 -5.4710 -1.6661 15.6510 2.2684
# 6 -10.7265 5.1407 1.6346 -3.8619 2.2684 31.8075
#
#
#
# Elastic Compliance Matrix: (Units=1/GPa)
#
#
# Indices 1 2 3 4 5 6 
#
# 1 0.014440 -0.002174 -0.001400 -0.004138 -0.004663 0.005123
# 2 -0.002174 0.013835 0.000696 -0.004647 0.001447 -0.003672
# 3 -0.001400 0.000696 0.026868 -0.013279 0.008905 -0.004213
# 4 -0.004138 -0.004647 -0.013279 0.056283 0.000941 0.006805
# 5 -0.004663 0.001447 0.008905 0.000941 0.069138 -0.007080
# 6 0.005123 -0.003672 -0.004213 0.006805 -0.007080 0.035308
#
#
# Mechanical properties :
#
#
# Convention : Reuss Voigt Hill
#
# Bulk Modulus (GPa) = 20.24873 27.20216 23.72545
# Shear Modulus (GPa) = 21.00034 25.99595 23.49815
#
# Velocity S-wave (km/s) = 3.33998 3.71606 3.53303
# Velocity P-wave (km/s) = 5.06262 5.73254 5.40797
#
# Compressibility (1/GPa) = 0.04938581
#
# Stress axis : x y z
#
# Youngs Moduli (GPa) = 69.25129 72.28261 37.21867
#
# Poissons Ratio (x) = 0.15715 0.05211
# Poissons Ratio (y) = 0.15056 -0.02589
# Poissons Ratio (z) = 0.09696 -0.05029
#
# Static dielectric constant tensor:
#      x y z
#    x 1.749860 -0.000920 -0.015810 
#    y -0.000920 1.678310 0.011050 
#    z -0.015810 0.011050 1.643410 
# 
# From -- ./inp_files/256710.got.cif
#   From: 2010.05.17/outbox.cif.g08.bks.cpg/sg2_129_cif.got.tgz:256710.got - 2010.06.03 11:33:40.
