data_PCOD9094264
_publ_section_title
;
Structure prediction by ZEFSAII (Michael W. Deem and Ramdas Pophale) SiO2 
 PCOD9094264
Probable space group: P -1
;
_chemical_formula_sum "Si O2"
_cell_formula_units_Z 14
_cell_length_a 12.367550
_cell_length_b 8.738112
_cell_length_c 10.255095
_cell_angle_alpha 98.921059
_cell_angle_beta 112.434816
_cell_angle_gamma 36.293502
_cell_volume 582.315414
_symmetry_space_group_name_H-M "P -1"
_symmetry_group_IT_number 2
_symmetry_cell_setting 'triclinic'
loop_
_space_group_symop_operation_xyz
x,y,z
-x,-y,-z
loop_
_atom_site_type_symbol
_atom_site_label
_atom_site_fract_x
_atom_site_fract_y
_atom_site_fract_z
Si Si1 0.776192 0.260027 0.730984
Si Si2 0.955146 0.805336 0.272072
Si Si3 0.810315 0.686239 0.536920
Si Si4 0.668614 0.316769 0.387189
Si Si5 0.135609 0.158141 0.168215
Si Si6 0.434486 0.241337 0.733319
Si Si7 0.735021 0.725312 0.101272
O O1 0.745500 0.243006 0.561932
O O2 0.543814 0.548300 0.701114
O O3 0.945515 0.209033 0.802038
O O4 0.852003 0.036073 0.823392
O O5 0.814787 0.809833 0.182631
O O6 0.143598 0.522459 0.394410
O O7 0.835212 0.052723 0.341536
O O8 0.813967 0.815797 0.663237
O O9 0.607783 0.866892 0.387313
O O10 0.000000 0.500000 0.500000
O O11 0.615977 0.543562 0.335034
O O12 0.916395 0.457011 0.063745
O O13 0.328933 0.002160 0.151749
O O14 0.281035 0.379787 0.799730
O O15 0.500000 0.000000 0.000000
#
# Coordination Sequence:
#
# PCOD9094264 Si02
#       7
#     2   2   2   2   2   2   2
#     4  10  20  34  55  91 126 147 178 218 292 366
#     4  11  21  34  59  83 118 152 184 237 285 343
#     4  11  19  33  54  92 121 154 183 227 294 353
#     4  10  21  33  56  91 124 153 172 222 291 364
#     4  10  22  37  60  85 119 154 187 238 288 348
#     4  11  21  38  59  85 120 153 190 235 290 348
#     4  11  26  44  59  80 109 156 213 250 282 321
#
# _framework density 24.041951000000001
#
# number of rings (size 3 to 8) (size 9 to 14) (size 15 to 20)
#    0.000    1.429    4.286    2.571    0.000    2.857 
#    0.000    2.857    0.000    3.429    0.000    0.000 
#    0.000    0.000    0.000    0.000    0.000    0.000 
#
# Total GULP energy -78223.438847 kJ/mol
# GULP energy per Si atom -5587.388489 kJ/mol
# Density = 2.398723 g / cm^3
# Si number density = 24.041951 Si / 1000 Ang^3
#
#
#
# Elastic Constant Matrix: (Units=GPa)
#
#
# Indices 1 2 3 4 5 6 
#
# 1 163.7730 31.3547 16.4263 -11.5373 17.6564 -21.1039
# 2 31.3547 75.8445 17.9828 -10.3880 7.6059 -8.9076
# 3 16.4263 17.9828 37.0641 -19.6254 6.2740 -5.5000
# 4 -11.5373 -10.3880 -19.6254 36.6225 -12.3159 -1.1309
# 5 17.6564 7.6059 6.2740 -12.3159 28.6863 -10.3610
# 6 -21.1039 -8.9076 -5.5000 -1.1309 -10.3610 24.7904
#
#
#
# Elastic Compliance Matrix: (Units=1/GPa)
#
#
# Indices 1 2 3 4 5 6 
#
# 1 0.007439 -0.002022 -0.000864 0.000851 -0.001789 0.004706
# 2 -0.002022 0.015872 -0.006092 0.000493 -0.000544 0.002425
# 3 -0.000864 -0.006092 0.043370 0.023827 0.006717 0.010592
# 4 0.000851 0.000493 0.023827 0.048059 0.020958 0.017139
# 5 -0.001789 -0.000544 0.006717 0.020958 0.051702 0.022337
# 6 0.004706 0.002425 0.010592 0.017139 0.022337 0.057683
#
#
# Mechanical properties :
#
#
# Convention : Reuss Voigt Hill
#
# Bulk Modulus (GPa) = 20.52352 45.35658 32.94005
# Shear Modulus (GPa) = 19.35566 32.08102 25.71834
#
# Velocity S-wave (km/s) = 2.84047 3.65688 3.27422
# Velocity P-wave (km/s) = 4.39463 6.06109 5.29385
#
# Compressibility (1/GPa) = 0.04872459
#
# Stress axis : x y z
#
# Youngs Moduli (GPa) = 134.42777 63.00409 23.05742
#
# Poissons Ratio (x) = 0.12738 0.01993
# Poissons Ratio (y) = 0.27179 0.14046
# Poissons Ratio (z) = 0.11621 0.38381
#
# Static dielectric constant tensor:
#      x y z
#    x 1.910890 -0.020220 -0.017970 
#    y -0.020220 1.857920 -0.021690 
#    z -0.017970 -0.021690 2.103730 
# 
# From -- ./inp_files/164147.got.cif
#   From: 2010.05.17/outbox.cif.g08.bks.cpg/sg2_83_cif.got.tgz:164147.got - 2010.06.03 11:33:40.
