data_PCOD9094778
_publ_section_title
;
Structure prediction by ZEFSAII (Michael W. Deem and Ramdas Pophale) SiO2 
 PCOD9094778
Probable space group: P -1
;
_chemical_formula_sum "Si O2"
_cell_formula_units_Z 16
_cell_length_a 6.825386
_cell_length_b 13.403508
_cell_length_c 12.541289
_cell_angle_alpha 108.800026
_cell_angle_beta 95.546862
_cell_angle_gamma 43.472732
_cell_volume 730.488717
_symmetry_space_group_name_H-M "P -1"
_symmetry_group_IT_number 2
_symmetry_cell_setting 'triclinic'
loop_
_space_group_symop_operation_xyz
x,y,z
-x,-y,-z
loop_
_atom_site_type_symbol
_atom_site_label
_atom_site_fract_x
_atom_site_fract_y
_atom_site_fract_z
Si Si1 0.645677 0.274954 0.946229
Si Si2 0.586434 0.322342 0.720494
Si Si3 0.144536 0.195318 0.618587
Si Si4 0.060796 0.450628 0.608630
Si Si5 0.746979 0.017501 0.623817
Si Si6 0.001544 0.922014 0.817529
Si Si7 0.169943 0.171518 0.049416
Si Si8 0.370302 0.318495 0.152601
O O1 0.511505 0.358393 0.854311
O O2 0.433526 0.364892 0.067859
O O3 0.759720 0.108016 0.889436
O O4 0.940396 0.224302 0.966610
O O5 0.312056 0.426587 0.663292
O O6 0.726026 0.150528 0.654814
O O7 0.837364 0.305452 0.698422
O O8 0.153717 0.292181 0.573838
O O9 0.427350 0.103131 0.675373
O O10 0.191007 0.072004 0.509649
O O11 0.000000 0.500000 0.500000
O O12 0.789894 0.569029 0.715768
O O13 0.986775 0.901830 0.685723
O O14 0.310733 0.842889 0.845372
O O15 0.945472 0.839643 0.853747
O O16 0.189383 0.288535 0.097417
O O17 0.500000 0.000000 0.000000
#
# Coordination Sequence:
#
# PCOD9094778 Si02
#       8
#     2   2   2   2   2   2   2   2
#     4  10  21  39  62  98 124 153 210 262 320 374
#     4  10  23  42  68  94 125 163 211 264 315 374
#     4  10  22  43  64  88 129 164 211 266 311 365
#     4  11  28  46  61  90 128 174 221 250 304 381
#     4   9  21  38  65  99 121 159 211 261 324 369
#     4  10  20  34  60  99 126 156 202 256 322 376
#     4  11  19  33  61  93 127 162 200 249 321 372
#     4  11  23  40  60  90 134 167 205 261 305 372
#
# _framework density 21.903144999999999
#
# number of rings (size 3 to 8) (size 9 to 14) (size 15 to 20)
#    0.000    1.750    2.500    1.125    5.250    4.000 
#    2.250    1.250    0.000    0.000    0.000    0.000 
#    0.000    0.000    0.000    0.000    0.000    0.000 
#
# Total GULP energy -89364.244295 kJ/mol
# GULP energy per Si atom -5585.265268 kJ/mol
# Density = 2.185329 g / cm^3
# Si number density = 21.903145 Si / 1000 Ang^3
#
#
#
# Elastic Constant Matrix: (Units=GPa)
#
#
# Indices 1 2 3 4 5 6 
#
# 1 112.9601 21.5663 40.7298 -18.9257 -2.8651 -17.1587
# 2 21.5663 52.2111 38.8537 -22.1884 -2.9146 -14.1626
# 3 40.7298 38.8537 107.8413 -18.1594 -3.3984 -13.0741
# 4 -18.9257 -22.1884 -18.1594 39.8713 -7.3010 10.5682
# 5 -2.8651 -2.9146 -3.3984 -7.3010 29.0745 3.4369
# 6 -17.1587 -14.1626 -13.0741 10.5682 3.4369 19.3618
#
#
#
# Elastic Compliance Matrix: (Units=1/GPa)
#
#
# Indices 1 2 3 4 5 6 
#
# 1 0.011393 0.000755 -0.003276 0.002633 0.000663 0.006881
# 2 0.000755 0.034575 -0.008937 0.013161 0.004387 0.011962
# 3 -0.003276 -0.008937 0.013691 -0.000187 0.000353 -0.000157
# 4 0.002633 0.013161 -0.000187 0.039008 0.012738 -0.011718
# 5 0.000663 0.004387 0.000353 0.012738 0.039309 -0.009896
# 6 0.006881 0.011962 -0.000157 -0.011718 -0.009896 0.074543
#
#
# Mechanical properties :
#
#
# Convention : Reuss Voigt Hill
#
# Bulk Modulus (GPa) = 27.21720 52.81247 40.01484
# Shear Modulus (GPa) = 20.18695 29.11903 24.65299
#
# Velocity S-wave (km/s) = 3.03916 3.65011 3.35855
# Velocity P-wave (km/s) = 4.97679 6.47523 5.77482
#
# Compressibility (1/GPa) = 0.03674147
#
# Stress axis : x y z
#
# Youngs Moduli (GPa) = 87.77126 28.92269 73.04105
#
# Poissons Ratio (x) = -0.02183 0.23931
# Poissons Ratio (y) = -0.06625 0.65279
# Poissons Ratio (z) = 0.28757 0.25849
#
# Static dielectric constant tensor:
#      x y z
#    x 1.800710 -0.015100 -0.011000 
#    y -0.015100 1.814120 0.041170 
#    z -0.011000 0.041170 1.807260 
# 
# From -- ./inp_files/367854.got.cif
#   From: 2010.05.17/outbox.cif.g08.bks.cpg/sg2_184_cif.got.tgz:367854.got - 2010.06.03 11:33:40.
