data_PCOD9094735
_publ_section_title
;
Structure prediction by ZEFSAII (Michael W. Deem and Ramdas Pophale) SiO2 
 PCOD9094735
Probable space group: P -1
;
_chemical_formula_sum "Si O2"
_cell_formula_units_Z 14
_cell_length_a 5.691295
_cell_length_b 17.641139
_cell_length_c 7.039342
_cell_angle_alpha 115.090666
_cell_angle_beta 76.475446
_cell_angle_gamma 121.639232
_cell_volume 544.871439
_symmetry_space_group_name_H-M "P -1"
_symmetry_group_IT_number 2
_symmetry_cell_setting 'triclinic'
loop_
_space_group_symop_operation_xyz
x,y,z
-x,-y,-z
loop_
_atom_site_type_symbol
_atom_site_label
_atom_site_fract_x
_atom_site_fract_y
_atom_site_fract_z
Si Si1 0.175729 0.830675 0.852001
Si Si2 0.688282 0.435763 0.056642
Si Si3 0.413728 0.548741 0.318441
Si Si4 0.179242 0.640113 0.726009
Si Si5 0.762279 0.892276 0.905803
Si Si6 0.162203 0.116054 0.562519
Si Si7 0.660612 0.114099 0.559571
O O1 0.116025 0.722588 0.764562
O O2 0.754975 0.865990 0.656523
O O3 0.900533 0.839699 0.942711
O O4 0.057769 0.846398 0.332797
O O5 0.616249 0.504850 0.273136
O O6 0.676238 0.349921 0.087992
O O7 0.518336 0.412756 0.870134
O O8 0.000000 0.500000 0.000000
O O9 0.384634 0.627092 0.529488
O O10 0.111535 0.456239 0.299443
O O11 0.460186 0.884576 0.980143
O O12 0.000000 0.000000 0.000000
O O13 0.257373 0.867646 0.659030
O O14 0.441769 0.151722 0.665247
O O15 0.000000 0.000000 0.500000
O O16 0.500000 0.000000 0.500000
#
# Coordination Sequence:
#
# PCOD9094735 Si02
#       7
#     2   2   2   2   2   2   2
#     4  10  21  34  57  86 115 154 201 264 299 370
#     4   9  18  35  59  86 122 164 202 253 302 385
#     4   9  19  36  60  89 122 169 205 243 314 387
#     4  10  20  34  60  89 124 163 209 252 319 369
#     4  10  20  36  56  77 110 152 198 247 313 364
#     4   8  14  26  48  68  90 127 174 221 270 344
#     4   8  14  27  47  70  99 134 180 222 287 338
#
# _framework density 25.694132
#
# number of rings (size 3 to 8) (size 9 to 14) (size 15 to 20)
#    0.000    2.857    0.000    0.857    2.000    0.000 
#    0.000    0.000   25.143    0.000    0.000    0.000 
#    0.000    0.000    0.000    0.000    0.000    0.000 
#
# Total GULP energy -78163.508895 kJ/mol
# GULP energy per Si atom -5583.107778 kJ/mol
# Density = 2.563565 g / cm^3
# Si number density = 25.694132 Si / 1000 Ang^3
#
#
#
# Elastic Constant Matrix: (Units=GPa)
#
#
# Indices 1 2 3 4 5 6 
#
# 1 224.0924 32.5081 47.7183 -0.4734 -40.6312 -41.3727
# 2 32.5081 91.1754 34.6168 9.3041 8.8645 -30.4178
# 3 47.7183 34.6168 89.2509 -9.2503 -28.6443 -12.9857
# 4 -0.4734 9.3041 -9.2503 23.2245 -5.4866 -2.1738
# 5 -40.6312 8.8645 -28.6443 -5.4866 49.8319 -1.1659
# 6 -41.3727 -30.4178 -12.9857 -2.1738 -1.1659 51.3957
#
#
#
# Elastic Compliance Matrix: (Units=1/GPa)
#
#
# Indices 1 2 3 4 5 6 
#
# 1 0.006689 -0.001747 0.000051 0.002755 0.006205 0.004621
# 2 -0.001747 0.022068 -0.012932 -0.016754 -0.014456 0.007350
# 3 0.000051 -0.012932 0.023948 0.018985 0.018190 -0.000346
# 4 0.002755 -0.016754 0.018985 0.062864 0.023068 0.000281
# 5 0.006205 -0.014456 0.018190 0.023068 0.040763 0.002936
# 6 0.004621 0.007350 -0.000346 0.000281 0.002936 0.027518
#
#
# Mechanical properties :
#
#
# Convention : Reuss Voigt Hill
#
# Bulk Modulus (GPa) = 42.64622 70.46723 56.55672
# Shear Modulus (GPa) = 22.63231 44.20211 33.41721
#
# Velocity S-wave (km/s) = 2.97111 4.15217 3.61026
# Velocity P-wave (km/s) = 5.32951 7.10439 6.27997
#
# Compressibility (1/GPa) = 0.02344874
#
# Stress axis : x y z
#
# Youngs Moduli (GPa) = 149.49568 45.31410 41.75674
#
# Poissons Ratio (x) = 0.07917 -0.00212
# Poissons Ratio (y) = 0.26119 0.54000
# Poissons Ratio (z) = -0.00758 0.58600
#
# Static dielectric constant tensor:
#      x y z
#    x 2.059730 -0.010210 0.021700 
#    y -0.010210 1.974330 -0.022810 
#    z 0.021700 -0.022810 2.013750 
# 
# From -- ./inp_files/139320.got.cif
#   From: 2010.05.17/outbox.cif.g08.bks.cpg/sg2_70_cif.got.tgz:139320.got - 2010.06.03 11:33:40.
