data_PCOD9094301
_publ_section_title
;
Structure prediction by ZEFSAII (Michael W. Deem and Ramdas Pophale) SiO2 
 PCOD9094301
Probable space group: P -1
;
_chemical_formula_sum "Si O2"
_cell_formula_units_Z 16
_cell_length_a 17.820507
_cell_length_b 6.763676
_cell_length_c 8.803015
_cell_angle_alpha 125.305502
_cell_angle_beta 58.645726
_cell_angle_gamma 100.366241
_cell_volume 728.261023
_symmetry_space_group_name_H-M "P -1"
_symmetry_group_IT_number 2
_symmetry_cell_setting 'triclinic'
loop_
_space_group_symop_operation_xyz
x,y,z
-x,-y,-z
loop_
_atom_site_type_symbol
_atom_site_label
_atom_site_fract_x
_atom_site_fract_y
_atom_site_fract_z
Si Si1 0.889319 0.338738 0.081766
Si Si2 0.745120 0.153556 0.366728
Si Si3 0.545878 0.217078 0.617389
Si Si4 0.279541 0.392582 0.199329
Si Si5 0.828515 0.636661 0.995317
Si Si6 0.517543 0.759673 0.975351
Si Si7 0.894971 0.630160 0.480195
Si Si8 0.986035 0.825316 0.726152
O O1 0.806903 0.247623 0.214971
O O2 0.862109 0.415537 0.974554
O O3 0.907179 0.570993 0.264564
O O4 0.971064 0.111442 0.906190
O O5 0.644387 0.173907 0.424179
O O6 0.735568 0.332489 0.598692
O O7 0.786916 0.877138 0.240804
O O8 0.506524 0.511891 0.782835
O O9 0.500000 0.000000 0.500000
O O10 0.546172 0.193586 0.790132
O O11 0.381300 0.281262 0.081595
O O12 0.206636 0.272007 0.319506
O O13 0.247205 0.394219 0.061253
O O14 0.910762 0.710778 0.847656
O O15 0.500000 0.000000 0.000000
O O16 0.959352 0.789790 0.564027
O O17 0.924385 0.355542 0.403383
#
# Coordination Sequence:
#
# PCOD9094301 Si02
#       8
#     2   2   2   2   2   2   2   2
#     4  10  20  34  56  82 108 147 191 229 275 332
#     4   9  20  37  55  79 111 145 185 229 279 341
#     4  10  21  39  59  85 118 148 187 242 296 348
#     4   9  19  38  57  78 112 149 185 234 287 337
#     4  10  20  35  57  83 112 146 188 233 278 333
#     4  10  22  40  62  87 115 152 197 241 292 353
#     4   9  18  35  56  77 112 151 183 228 279 332
#     4   9  19  36  53  79 116 148 183 230 279 327
#
# _framework density 21.970146
#
# number of rings (size 3 to 8) (size 9 to 14) (size 15 to 20)
#    0.000    2.500    0.000    1.125    0.000    5.000 
#    0.000   23.125    0.000    0.000    0.000    0.000 
#    0.000    0.000    0.000    0.000    0.000    0.000 
#
# Total GULP energy -89290.087307 kJ/mol
# GULP energy per Si atom -5580.630457 kJ/mol
# Density = 2.192014 g / cm^3
# Si number density = 21.970146 Si / 1000 Ang^3
#
#
#
# Elastic Constant Matrix: (Units=GPa)
#
#
# Indices 1 2 3 4 5 6 
#
# 1 105.6940 28.5655 25.1309 -2.9789 5.3980 6.0063
# 2 28.5655 98.2057 33.3560 7.3740 1.6479 -9.0008
# 3 25.1309 33.3560 74.4661 3.0468 1.1101 -2.9015
# 4 -2.9789 7.3740 3.0468 13.8491 5.1821 -2.9475
# 5 5.3980 1.6479 1.1101 5.1821 29.9411 -3.5126
# 6 6.0063 -9.0008 -2.9015 -2.9475 -3.5126 29.8040
#
#
#
# Elastic Compliance Matrix: (Units=1/GPa)
#
#
# Indices 1 2 3 4 5 6 
#
# 1 0.011433 -0.003013 -0.002803 0.005117 -0.003069 -0.003342
# 2 -0.003013 0.013436 -0.004610 -0.006570 0.001552 0.003749
# 3 -0.002803 -0.004610 0.016533 -0.001848 0.000544 0.000664
# 4 0.005117 -0.006570 -0.001848 0.083359 -0.014528 0.003336
# 5 -0.003069 0.001552 0.000544 -0.014528 0.036836 0.004045
# 6 -0.003342 0.003749 0.000664 0.003336 0.004045 0.036230
#
#
# Mechanical properties :
#
#
# Convention : Reuss Voigt Hill
#
# Bulk Modulus (GPa) = 48.65903 50.27452 49.46677
# Shear Modulus (GPa) = 22.17037 27.47307 24.82172
#
# Velocity S-wave (km/s) = 3.18010 3.54004 3.36489
# Velocity P-wave (km/s) = 5.97327 6.29619 6.13685
#
# Compressibility (1/GPa) = 0.02055117
#
# Stress axis : x y z
#
# Youngs Moduli (GPa) = 87.46774 74.42869 60.48488
#
# Poissons Ratio (x) = 0.22422 0.16952
# Poissons Ratio (y) = 0.26350 0.27883
# Poissons Ratio (z) = 0.24515 0.34311
#
# Static dielectric constant tensor:
#      x y z
#    x 1.843310 0.047760 0.019040 
#    y 0.047760 1.790410 0.007800 
#    z 0.019040 0.007800 1.849340 
# 
# From -- ./inp_files/324083.got.cif
#   From: 2010.05.17/outbox.cif.g08.bks.cpg/sg2_163_cif.got.tgz:324083.got - 2010.06.03 11:33:40.
