data_PCOD9094563
_publ_section_title
;
Structure prediction by ZEFSAII (Michael W. Deem and Ramdas Pophale) SiO2 
 PCOD9094563
Probable space group: P -1
;
_chemical_formula_sum "Si O2"
_cell_formula_units_Z 16
_cell_length_a 17.748741
_cell_length_b 11.425598
_cell_length_c 12.182720
_cell_angle_alpha 58.599622
_cell_angle_beta 130.288825
_cell_angle_gamma 148.915051
_cell_volume 969.613930
_symmetry_space_group_name_H-M "P -1"
_symmetry_group_IT_number 2
_symmetry_cell_setting 'triclinic'
loop_
_space_group_symop_operation_xyz
x,y,z
-x,-y,-z
loop_
_atom_site_type_symbol
_atom_site_label
_atom_site_fract_x
_atom_site_fract_y
_atom_site_fract_z
Si Si1 0.060366 0.473924 0.398507
Si Si2 0.779608 0.163994 0.450656
Si Si3 0.676572 0.353589 0.920301
Si Si4 0.530350 0.373391 0.587995
Si Si5 0.615628 0.987792 0.746621
Si Si6 0.359290 0.670886 0.477083
Si Si7 0.441116 0.850984 0.860945
Si Si8 0.990256 0.414495 0.914802
O O1 0.151772 0.700839 0.436548
O O2 0.197057 0.515853 0.471769
O O3 0.983472 0.447700 0.226965
O O4 0.925774 0.275816 0.455203
O O5 0.698786 0.205667 0.293320
O O6 0.639441 0.896343 0.460769
O O7 0.605008 0.396960 0.759360
O O8 0.582944 0.111272 0.910220
O O9 0.631649 0.313123 0.025782
O O10 0.867387 0.539243 0.986185
O O11 0.500000 0.500000 0.500000
O O12 0.646768 0.451914 0.560196
O O13 0.511803 0.817248 0.630368
O O14 0.520155 0.854496 0.834408
O O15 0.615448 0.154240 0.646650
O O16 0.804681 0.155998 0.850634
O O17 0.000000 0.500000 0.000000
#
# Coordination Sequence:
#
# PCOD9094563 Si02
#       8
#     2   2   2   2   2   2   2   2
#     4  10  19  29  54  82 107 126 159 220 265 301
#     4  10  18  33  52  82 103 130 168 206 263 299
#     4  10  19  30  46  72 105 129 166 204 259 306
#     4  11  22  37  53  69 102 145 179 203 237 309
#     4  10  17  28  51  77 106 128 155 218 263 306
#     4  10  17  32  49  75 102 133 174 204 254 298
#     4  10  16  30  48  74 105 129 155 213 263 301
#     4  11  18  25  42  77 110 128 149 201 271 310
#
# _framework density 16.501414
#
# number of rings (size 3 to 8) (size 9 to 14) (size 15 to 20)
#    0.000    1.750    6.250    2.250    0.000    0.000 
#    0.000    0.625    0.000    3.750    0.000    0.000 
#    0.000    0.000    0.000    0.000    0.000    0.000 
#
# Total GULP energy -89218.199969 kJ/mol
# GULP energy per Si atom -5576.137498 kJ/mol
# Density = 1.646386 g / cm^3
# Si number density = 16.501414 Si / 1000 Ang^3
#
#
#
# Elastic Constant Matrix: (Units=GPa)
#
#
# Indices 1 2 3 4 5 6 
#
# 1 96.5207 36.0110 44.2568 -14.0292 -7.6250 24.6805
# 2 36.0110 38.2246 30.5081 1.5053 7.6729 17.3502
# 3 44.2568 30.5081 92.3350 2.3812 -7.5227 5.4017
# 4 -14.0292 1.5053 2.3812 16.6688 5.0324 2.5536
# 5 -7.6250 7.6729 -7.5227 5.0324 27.9904 -1.4041
# 6 24.6805 17.3502 5.4017 2.5536 -1.4041 27.4074
#
#
#
# Elastic Compliance Matrix: (Units=1/GPa)
#
#
# Indices 1 2 3 4 5 6 
#
# 1 0.027948 -0.013493 -0.008370 0.027626 0.003224 -0.017385
# 2 -0.013493 0.075422 -0.018998 -0.001002 -0.030949 -0.033343
# 3 -0.008370 -0.018998 0.021481 -0.014742 0.012221 0.017330
# 4 0.027626 -0.001002 -0.014742 0.094621 -0.014724 -0.030908
# 5 0.003224 -0.030949 0.012221 -0.014724 0.051939 0.018314
# 6 -0.017385 -0.033343 0.017330 -0.030908 0.018314 0.073652
#
#
# Mechanical properties :
#
#
# Convention : Reuss Voigt Hill
#
# Bulk Modulus (GPa) = 23.18633 49.84801 36.51717
# Shear Modulus (GPa) = 11.33376 22.16693 16.75034
#
# Velocity S-wave (km/s) = 2.62360 3.66913 3.18950
# Velocity P-wave (km/s) = 4.82279 6.94434 5.97843
#
# Compressibility (1/GPa) = 0.04312886
#
# Stress axis : x y z
#
# Youngs Moduli (GPa) = 35.78079 13.25880 46.55274
#
# Poissons Ratio (x) = 0.17890 0.38966
# Poissons Ratio (y) = 0.48279 0.88439
# Poissons Ratio (z) = 0.29950 0.25189
#
# Static dielectric constant tensor:
#      x y z
#    x 1.565500 0.044740 -0.018990 
#    y 0.044740 1.551400 0.021410 
#    z -0.018990 0.021410 1.577060 
# 
# From -- ./inp_files/268871.got.cif
#   From: 2010.05.17/outbox.cif.g08.bks.cpg/sg2_135_cif.got.tgz:268871.got - 2010.06.03 11:33:40.
