data_PCOD9094077
_publ_section_title
;
Structure prediction by ZEFSAII (Michael W. Deem and Ramdas Pophale) SiO2 
 PCOD9094077
Probable space group: P -1
;
_chemical_formula_sum "Si O2"
_cell_formula_units_Z 14
_cell_length_a 7.702644
_cell_length_b 15.711517
_cell_length_c 5.009065
_cell_angle_alpha 80.224525
_cell_angle_beta 61.860220
_cell_angle_gamma 103.792934
_cell_volume 490.128822
_symmetry_space_group_name_H-M "P -1"
_symmetry_group_IT_number 2
_symmetry_cell_setting 'triclinic'
loop_
_space_group_symop_operation_xyz
x,y,z
-x,-y,-z
loop_
_atom_site_type_symbol
_atom_site_label
_atom_site_fract_x
_atom_site_fract_y
_atom_site_fract_z
Si Si1 0.053138 0.449236 0.737485
Si Si2 0.172543 0.006906 0.148624
Si Si3 0.443798 0.732798 0.019568
Si Si4 0.149617 0.183458 0.936192
Si Si5 0.571075 0.085881 0.197402
Si Si6 0.090573 0.714178 0.725149
Si Si7 0.297594 0.356962 0.343643
O O1 0.274651 0.436660 0.508701
O O2 0.000000 0.500000 0.500000
O O3 0.000000 0.500000 0.000000
O O4 0.910044 0.342703 0.974081
O O5 0.397797 0.056774 0.104572
O O6 0.150732 0.082560 0.915280
O O7 0.000000 0.000000 0.500000
O O8 0.204570 0.914874 0.070365
O O9 0.665861 0.778075 0.996494
O O10 0.271388 0.719132 0.384049
O O11 0.428766 0.812778 0.786270
O O12 0.477224 0.642187 0.921027
O O13 0.212594 0.259919 0.620039
O O14 0.942588 0.190732 0.227109
O O15 0.500000 0.000000 0.500000
O O16 0.869616 0.653468 0.767354
#
# Coordination Sequence:
#
# PCOD9094077 Si02
#       7
#     2   2   2   2   2   2   2
#     4  11  22  43  70  94 132 165 200 260 322 380
#     4  10  20  34  53  81 117 164 211 257 309 365
#     4  10  21  38  58  90 123 161 218 258 311 379
#     4   9  20  36  55  83 124 163 209 264 313 368
#     4  10  21  35  54  83 124 163 206 265 311 353
#     4  10  21  38  64  91 120 167 209 257 314 376
#     4  10  21  38  64  88 122 162 204 255 316 370
#
# _framework density 28.56392
#
# number of rings (size 3 to 8) (size 9 to 14) (size 15 to 20)
#    0.000    2.000    1.429    1.714    0.000    4.000 
#    0.000    1.429    0.000    0.000    0.000    0.000 
#    0.000    0.000    0.000    0.000    0.000    0.000 
#
# Total GULP energy -78374.683216 kJ/mol
# GULP energy per Si atom -5598.191658 kJ/mol
# Density = 2.849891 g / cm^3
# Si number density = 28.563920 Si / 1000 Ang^3
#
#
#
# Elastic Constant Matrix: (Units=GPa)
#
#
# Indices 1 2 3 4 5 6 
#
# 1 107.4339 47.2951 48.2146 14.4800 -9.9895 -49.5953
# 2 47.2951 202.2553 81.6007 33.2237 -10.1635 -45.4825
# 3 48.2146 81.6007 187.6478 24.0716 1.7477 -49.5691
# 4 14.4800 33.2237 24.0716 77.1308 -23.8417 -2.6983
# 5 -9.9895 -10.1635 1.7477 -23.8417 57.5037 10.9649
# 6 -49.5953 -45.4825 -49.5691 -2.6983 10.9649 61.6616
#
#
#
# Elastic Compliance Matrix: (Units=1/GPa)
#
#
# Indices 1 2 3 4 5 6 
#
# 1 0.015338 -0.000456 -0.000333 -0.002361 -0.000624 0.011741
# 2 -0.000456 0.006834 -0.001678 -0.002350 -0.000423 0.003298
# 3 -0.000333 -0.001678 0.007807 -0.002244 -0.002498 0.005117
# 4 -0.002361 -0.002350 -0.002244 0.017241 0.007539 -0.006023
# 5 -0.000624 -0.000423 -0.002498 0.007539 0.021617 -0.006336
# 6 0.011741 0.003298 0.005117 -0.006023 -0.006336 0.033070
#
#
# Mechanical properties :
#
#
# Convention : Reuss Voigt Hill
#
# Bulk Modulus (GPa) = 39.92607 94.61754 67.27180
# Shear Modulus (GPa) = 43.40693 60.60766 52.00729
#
# Velocity S-wave (km/s) = 3.90249 4.61133 4.27163
# Velocity P-wave (km/s) = 5.85782 7.84533 6.92327
#
# Compressibility (1/GPa) = 0.02504629
#
# Stress axis : x y z
#
# Youngs Moduli (GPa) = 65.19685 146.32109 128.08696
#
# Poissons Ratio (x) = 0.06667 0.04262
# Poissons Ratio (y) = 0.02971 0.21497
# Poissons Ratio (z) = 0.02169 0.24557
#
# Static dielectric constant tensor:
#      x y z
#    x 2.318870 0.150200 0.019260 
#    y 0.150200 2.292540 0.035670 
#    z 0.019260 0.035670 2.195330 
# 
# From -- ./inp_files/10241.got.cif
#   From: 2010.05.17/outbox.cif.g08.bks.cpg/sg2_6_cif.got.tgz:10241.got - 2010.06.03 11:33:40.
