data_PCOD9094214
_publ_section_title
;
Structure prediction by ZEFSAII (Michael W. Deem and Ramdas Pophale) SiO2 
 PCOD9094214
Probable space group: P -1
;
_chemical_formula_sum "Si O2"
_cell_formula_units_Z 14
_cell_length_a 13.930137
_cell_length_b 6.912092
_cell_length_c 11.707934
_cell_angle_alpha 66.615350
_cell_angle_beta 140.175529
_cell_angle_gamma 85.516952
_cell_volume 502.720402
_symmetry_space_group_name_H-M "P -1"
_symmetry_group_IT_number 2
_symmetry_cell_setting 'triclinic'
loop_
_space_group_symop_operation_xyz
x,y,z
-x,-y,-z
loop_
_atom_site_type_symbol
_atom_site_label
_atom_site_fract_x
_atom_site_fract_y
_atom_site_fract_z
Si Si1 0.988693 0.094113 0.274066
Si Si2 0.677936 0.646144 0.145102
Si Si3 0.287818 0.898755 0.290029
Si Si4 0.135740 0.124460 0.626956
Si Si5 0.641397 0.431859 0.370837
Si Si6 0.453149 0.100219 0.652945
Si Si7 0.860893 0.400933 0.871114
O O1 0.135489 0.058549 0.510541
O O2 0.121408 0.823329 0.376095
O O3 0.835716 0.090869 0.205825
O O4 0.887766 0.357784 0.040886
O O5 0.728639 0.805257 0.232091
O O6 0.581379 0.559238 0.159099
O O7 0.900678 0.387049 0.368893
O O8 0.546369 0.827456 0.874722
O O9 0.402472 0.731143 0.551774
O O10 0.393360 0.958600 0.287062
O O11 0.262296 0.696632 0.250677
O O12 0.069193 0.179201 0.052032
O O13 0.588959 0.679046 0.342992
O O14 0.250025 0.294186 0.350514
#
# Coordination Sequence:
#
# PCOD9094214 Si02
#       7
#     2   2   2   2   2   2   2
#     4   9  17  34  56  82 112 150 190 234 275 326
#     4  10  20  34  55  84 114 146 184 233 284 332
#     4   9  18  32  55  83 111 150 192 227 268 329
#     4   9  19  34  56  81 113 151 192 229 277 334
#     4   9  18  33  55  81 110 144 189 235 275 323
#     4  11  20  33  57  88 116 146 185 231 281 336
#     4   9  17  30  53  82 111 140 184 233 273 323
#
# _framework density 27.848479999999999
#
# number of rings (size 3 to 8) (size 9 to 14) (size 15 to 20)
#    0.000    2.571    0.000    3.857    0.000    5.714 
#    0.000    1.429    0.000   24.000    0.000    1.000 
#    0.000    0.000    0.000    0.000    0.000    0.000 
#
# Total GULP energy -78434.940618 kJ/mol
# GULP energy per Si atom -5602.495758 kJ/mol
# Density = 2.778510 g / cm^3
# Si number density = 27.848480 Si / 1000 Ang^3
#
#
#
# Elastic Constant Matrix: (Units=GPa)
#
#
# Indices 1 2 3 4 5 6 
#
# 1 212.9655 34.9224 110.5643 1.7288 -37.7647 -5.7047
# 2 34.9224 91.7982 39.6483 12.2357 -7.2995 4.7663
# 3 110.5643 39.6483 161.5885 -7.0498 -58.2311 -2.7519
# 4 1.7288 12.2357 -7.0498 43.4152 -0.5683 -3.0717
# 5 -37.7647 -7.2995 -58.2311 -0.5683 72.5187 -1.8549
# 6 -5.7047 4.7663 -2.7519 -3.0717 -1.8549 31.1345
#
#
#
# Elastic Compliance Matrix: (Units=1/GPa)
#
#
# Indices 1 2 3 4 5 6 
#
# 1 0.007387 -0.000593 -0.005011 -0.000880 -0.000221 0.000901
# 2 -0.000593 0.013430 -0.003957 -0.004653 -0.002250 -0.003107
# 3 -0.005011 -0.003957 0.013685 0.003766 0.008055 0.001749
# 4 -0.000880 -0.004653 0.003766 0.025272 0.002385 0.003519
# 5 -0.000221 -0.002250 0.008055 0.002385 0.019997 0.002443
# 6 0.000901 -0.003107 0.001749 0.003519 0.002443 0.033407
#
#
# Mechanical properties :
#
#
# Convention : Reuss Voigt Hill
#
# Bulk Modulus (GPa) = 65.01467 92.95801 78.98634
# Shear Modulus (GPa) = 36.38306 48.16150 42.27228
#
# Velocity S-wave (km/s) = 3.61843 4.16313 3.90030
# Velocity P-wave (km/s) = 6.39170 7.52072 6.97908
#
# Compressibility (1/GPa) = 0.01538114
#
# Stress axis : x y z
#
# Youngs Moduli (GPa) = 135.37926 74.45763 73.07133
#
# Poissons Ratio (x) = 0.04413 0.36619
# Poissons Ratio (y) = 0.08023 0.28911
# Poissons Ratio (z) = 0.67844 0.29459
#
# Static dielectric constant tensor:
#      x y z
#    x 2.116740 -0.010690 0.007260 
#    y -0.010690 2.204710 -0.025490 
#    z 0.007260 -0.025490 2.214160 
# 
# From -- ./inp_files/397007.got.cif
#   From: 2010.05.17/outbox.cif.g08.bks.cpg/sg2_199_cif.got.tgz:397007.got - 2010.06.03 11:33:40.
