data_PCOD9094160
_publ_section_title
;
Structure prediction by ZEFSAII (Michael W. Deem and Ramdas Pophale) SiO2 
 PCOD9094160
Probable space group: P -1
;
_chemical_formula_sum "Si O2"
_cell_formula_units_Z 15
_cell_length_a 15.822749
_cell_length_b 9.103358
_cell_length_c 15.782230
_cell_angle_alpha 50.820465
_cell_angle_beta 25.269168
_cell_angle_gamma 69.467531
_cell_volume 560.744522
_symmetry_space_group_name_H-M "P -1"
_symmetry_group_IT_number 2
_symmetry_cell_setting 'triclinic'
loop_
_space_group_symop_operation_xyz
x,y,z
-x,-y,-z
loop_
_atom_site_type_symbol
_atom_site_label
_atom_site_fract_x
_atom_site_fract_y
_atom_site_fract_z
Si Si1 0.816156 0.623896 0.546586
Si Si2 0.450197 0.184235 0.645809
Si Si3 0.500000 0.000000 0.500000
Si Si4 0.029584 0.829561 0.443626
Si Si5 0.068373 0.911298 0.792863
Si Si6 0.156565 0.626936 0.115570
Si Si7 0.654113 0.927765 0.780047
Si Si8 0.095293 0.622468 0.730228
O O1 0.052065 0.777298 0.346484
O O2 0.761397 0.804018 0.505220
O O3 0.896383 0.563823 0.411881
O O4 0.598530 0.366689 0.888494
O O5 0.717074 0.398887 0.378471
O O6 0.475243 0.169046 0.528816
O O7 0.201315 0.155340 0.907619
O O8 0.377985 0.918733 0.833371
O O9 0.252755 0.932131 0.688345
O O10 0.894519 0.946681 0.523967
O O11 0.849230 0.575974 0.758121
O O12 0.297382 0.012425 0.185930
O O13 0.008760 0.723582 0.840261
O O14 0.142313 0.606542 0.033080
O O15 0.711495 0.154706 0.595150
#
# Coordination Sequence:
#
# PCOD9094160 Si02
#       8
#     2   2   1   2   2   2   2   2
#     4  11  21  35  58  86 120 162 205 247 289 352
#     4  10  22  42  67  90 120 155 197 253 302 369
#     4  10  22  42  70  92 114 152 196 256 318 364
#     4  10  20  34  54  86 123 165 200 239 287 345
#     4  10  22  40  65  91 118 157 202 248 310 361
#     4  10  23  37  57  92 123 159 206 243 297 350
#     4  10  21  34  55  86 126 162 207 238 288 345
#     4  10  21  41  58  91 127 165 198 242 295 352
#
# _framework density 26.750146999999998
#
# number of rings (size 3 to 8) (size 9 to 14) (size 15 to 20)
#    0.000    1.867    1.333    2.000    3.733    5.333 
#    0.000    2.667    0.000   14.400    0.000    0.000 
#    0.000    0.000    0.000    0.000    0.000    0.000 
#
# Total GULP energy -83726.973379 kJ/mol
# GULP energy per Si atom -5581.798225 kJ/mol
# Density = 2.668926 g / cm^3
# Si number density = 26.750147 Si / 1000 Ang^3
#
#
#
# Elastic Constant Matrix: (Units=GPa)
#
#
# Indices 1 2 3 4 5 6 
#
# 1 166.3801 58.6806 13.7265 3.0309 -9.7141 35.6688
# 2 58.6806 117.9691 28.7457 10.4662 -20.1513 16.7975
# 3 13.7265 28.7457 60.1261 16.8545 -17.4222 8.6686
# 4 3.0309 10.4662 16.8545 53.5341 -2.2774 6.7207
# 5 -9.7141 -20.1513 -17.4222 -2.2774 48.9234 -10.8020
# 6 35.6688 16.7975 8.6686 6.7207 -10.8020 56.7391
#
#
#
# Elastic Compliance Matrix: (Units=1/GPa)
#
#
# Indices 1 2 3 4 5 6 
#
# 1 0.008157 -0.003663 0.000077 0.000736 -0.000775 -0.004290
# 2 -0.003663 0.011753 -0.003771 -0.000789 0.002737 0.000014
# 3 0.000077 -0.003771 0.021814 -0.005828 0.005858 -0.000459
# 4 0.000736 -0.000789 -0.005828 0.020821 -0.001757 -0.002139
# 5 -0.000775 0.002737 0.005858 -0.001757 0.024213 0.003599
# 6 -0.004290 0.000014 -0.000459 -0.002139 0.003599 0.021326
#
#
# Mechanical properties :
#
#
# Convention : Reuss Voigt Hill
#
# Bulk Modulus (GPa) = 37.02227 60.75343 48.88785
# Shear Modulus (GPa) = 37.93593 48.06080 42.99837
#
# Velocity S-wave (km/s) = 3.76993 4.24330 4.01360
# Velocity P-wave (km/s) = 5.72886 6.83872 6.30825
#
# Compressibility (1/GPa) = 0.02701077
#
# Stress axis : x y z
#
# Youngs Moduli (GPa) = 122.59577 85.08308 45.84170
#
# Poissons Ratio (x) = 0.31165 -0.00352
# Poissons Ratio (y) = 0.44906 0.17285
# Poissons Ratio (z) = -0.00942 0.32082
#
# Static dielectric constant tensor:
#      x y z
#    x 2.055110 0.011820 -0.003020 
#    y 0.011820 2.043110 -0.016050 
#    z -0.003020 -0.016050 2.053170 
# 
# From -- ./inp_files/528236.got.cif
#   From: 2010.05.17/outbox.cif.g08.bks.cpg/sg2_265_cif.got.tgz:528236.got - 2010.06.03 11:33:40.
