data_PCOD9094354
_publ_section_title
;
Structure prediction by ZEFSAII (Michael W. Deem and Ramdas Pophale) SiO2 
 PCOD9094354
Probable space group: P -1
;
_chemical_formula_sum "Si O2"
_cell_formula_units_Z 16
_cell_length_a 16.995454
_cell_length_b 4.999438
_cell_length_c 19.515762
_cell_angle_alpha 81.335613
_cell_angle_beta 158.527459
_cell_angle_gamma 102.160956
_cell_volume 588.582115
_symmetry_space_group_name_H-M "P -1"
_symmetry_group_IT_number 2
_symmetry_cell_setting 'triclinic'
loop_
_space_group_symop_operation_xyz
x,y,z
-x,-y,-z
loop_
_atom_site_type_symbol
_atom_site_label
_atom_site_fract_x
_atom_site_fract_y
_atom_site_fract_z
Si Si1 0.397711 0.724446 0.971804
Si Si2 0.069910 0.420538 0.351517
Si Si3 0.795228 0.081506 0.460751
Si Si4 0.314941 0.603920 0.193511
Si Si5 0.856277 0.097026 0.715582
Si Si6 0.794839 0.529040 0.744554
Si Si7 0.370003 0.155326 0.154524
Si Si8 0.165033 0.337989 0.675497
O O1 0.289509 0.496367 0.836461
O O2 0.191892 0.705767 0.856625
O O3 0.618317 0.682806 0.191030
O O4 0.500000 0.000000 0.000000
O O5 0.128056 0.612147 0.458012
O O6 0.151750 0.654650 0.353025
O O7 0.179373 0.154125 0.455234
O O8 0.543739 0.093962 0.240987
O O9 0.994070 0.062609 0.570341
O O10 0.325008 0.464946 0.280474
O O11 0.409733 0.445667 0.214845
O O12 0.395953 0.930455 0.242309
O O13 0.055707 0.577767 0.969138
O O14 0.758046 0.221363 0.697841
O O15 0.120469 0.109099 0.929844
O O16 0.762295 0.771973 0.657381
O O17 0.000000 0.500000 0.500000
#
# Coordination Sequence:
#
# PCOD9094354 Si02
#       8
#     2   2   2   2   2   2   2   2
#     4  10  21  43  63  91 127 167 214 258 318 377
#     4  11  23  40  62  82 123 162 194 247 308 363
#     4  11  23  41  59  86 122 160 195 243 313 368
#     4   9  17  32  55  83 117 150 184 254 298 343
#     4  10  20  34  57  88 110 151 200 245 290 358
#     4   9  17  32  55  85 115 145 198 242 297 353
#     4  10  20  34  56  87 114 148 200 242 299 355
#     4  10  23  41  65  94 125 168 214 263 313 376
#
# _framework density 27.183973999999999
#
# number of rings (size 3 to 8) (size 9 to 14) (size 15 to 20)
#    0.000    2.000    1.250    2.250    1.750    3.500 
#    0.000    1.250    0.000   15.000    0.000    0.000 
#    0.000    0.000    0.000    0.000    0.000    0.000 
#
# Total GULP energy -89294.212320 kJ/mol
# GULP energy per Si atom -5580.888270 kJ/mol
# Density = 2.712210 g / cm^3
# Si number density = 27.183974 Si / 1000 Ang^3
#
#
#
# Elastic Constant Matrix: (Units=GPa)
#
#
# Indices 1 2 3 4 5 6 
#
# 1 52.8744 15.0909 14.7003 -0.2422 4.2410 -8.5043
# 2 15.0909 152.6054 36.3326 -10.4855 -1.4268 3.7156
# 3 14.7003 36.3326 162.8150 -4.1101 32.5260 -1.4981
# 4 -0.2422 -10.4855 -4.1101 36.5965 8.3099 -4.5505
# 5 4.2410 -1.4268 32.5260 8.3099 23.9598 -18.3951
# 6 -8.5043 3.7156 -1.4981 -4.5505 -18.3951 40.4019
#
#
#
# Elastic Compliance Matrix: (Units=1/GPa)
#
#
# Indices 1 2 3 4 5 6 
#
# 1 0.020718 -0.001643 -0.002444 -0.000905 0.004894 0.006548
# 2 -0.001643 0.007348 -0.002300 0.000994 0.004216 0.000925
# 3 -0.002444 -0.002300 0.012378 0.005480 -0.027389 -0.011697
# 4 -0.000905 0.000994 0.005480 0.032816 -0.024327 -0.007459
# 5 0.004894 0.004216 -0.027389 -0.024327 0.129680 0.055930
# 6 0.006548 0.000925 -0.011697 -0.007459 0.055930 0.050236
#
#
# Mechanical properties :
#
#
# Convention : Reuss Voigt Hill
#
# Bulk Modulus (GPa) = 36.14067 55.61580 45.87823
# Shear Modulus (GPa) = 18.17042 40.33638 29.25340
#
# Velocity S-wave (km/s) = 2.58819 3.85623 3.28400
# Velocity P-wave (km/s) = 4.71756 6.35065 5.59402
#
# Compressibility (1/GPa) = 0.02766966
#
# Stress axis : x y z
#
# Youngs Moduli (GPa) = 48.26818 136.09003 80.78773
#
# Poissons Ratio (x) = 0.22354 0.19748
# Poissons Ratio (y) = 0.07929 0.18582
# Poissons Ratio (z) = 0.11799 0.31302
#
# Static dielectric constant tensor:
#      x y z
#    x 2.445610 0.082160 0.042290 
#    y 0.082160 2.069330 -0.012110 
#    z 0.042290 -0.012110 2.181410 
# 
# From -- ./inp_files/116659.got.cif
#   From: 2010.05.17/outbox.cif.g08.bks.cpg/sg2_59_cif.got.tgz:116659.got - 2010.06.03 11:33:40.
