data_PCOD9094308
_publ_section_title
;
Structure prediction by ZEFSAII (Michael W. Deem and Ramdas Pophale) SiO2 
 PCOD9094308
Probable space group: P -1
;
_chemical_formula_sum "Si O2"
_cell_formula_units_Z 16
_cell_length_a 8.610346
_cell_length_b 13.848193
_cell_length_c 8.172053
_cell_angle_alpha 46.084239
_cell_angle_beta 101.339255
_cell_angle_gamma 91.347891
_cell_volume 679.388104
_symmetry_space_group_name_H-M "P -1"
_symmetry_group_IT_number 2
_symmetry_cell_setting 'triclinic'
loop_
_space_group_symop_operation_xyz
x,y,z
-x,-y,-z
loop_
_atom_site_type_symbol
_atom_site_label
_atom_site_fract_x
_atom_site_fract_y
_atom_site_fract_z
Si Si1 0.754076 0.878529 0.152386
Si Si2 0.706456 0.926815 0.594916
Si Si3 0.533182 0.121092 0.682609
Si Si4 0.682647 0.239665 0.320757
Si Si5 0.950413 0.829367 0.536258
Si Si6 0.374203 0.362031 0.975795
Si Si7 0.179742 0.441081 0.163466
Si Si8 0.170418 0.426869 0.553179
O O1 0.579598 0.849837 0.217445
O O2 0.836738 0.735084 0.267065
O O3 0.882871 0.919453 0.261894
O O4 0.689756 0.010172 0.878200
O O5 0.589615 0.933955 0.404128
O O6 0.671103 0.792770 0.841049
O O7 0.892768 0.898301 0.613594
O O8 0.679167 0.080590 0.469445
O O9 0.593454 0.251975 0.463018
O O10 0.869095 0.245031 0.349701
O O11 0.566431 0.332812 0.064616
O O12 0.832510 0.717414 0.634494
O O13 0.295294 0.441320 0.028528
O O14 0.302850 0.434333 0.712032
O O15 0.204420 0.479258 0.314512
O O16 0.000000 0.500000 0.000000
O O17 0.000000 0.500000 0.500000
#
# Coordination Sequence:
#
# PCOD9094308 Si02
#       8
#     2   2   2   2   2   2   2   2
#     4   9  18  33  49  77 108 138 186 221 264 322
#     4   9  17  31  50  75 108 142 177 211 263 324
#     4   9  17  31  53  75 106 145 179 224 262 319
#     4  11  18  30  50  79 112 142 176 216 274 325
#     4   9  20  31  49  76 110 144 174 218 277 326
#     4  10  20  34  56  83 104 142 182 220 264 319
#     4  10  20  39  57  76 103 137 184 230 266 313
#     4  11  19  31  58  84  99 132 187 232 262 309
#
# _framework density 23.550605000000001
#
# number of rings (size 3 to 8) (size 9 to 14) (size 15 to 20)
#    0.000    2.250    1.250    5.625    0.000    0.500 
#    0.000    0.625    0.000   12.750    0.000    0.000 
#    0.000    0.000    0.000    0.000    0.000    0.000 
#
# Total GULP energy -89098.057349 kJ/mol
# GULP energy per Si atom -5568.628584 kJ/mol
# Density = 2.349700 g / cm^3
# Si number density = 23.550605 Si / 1000 Ang^3
#
#
#
# Elastic Constant Matrix: (Units=GPa)
#
#
# Indices 1 2 3 4 5 6 
#
# 1 87.3745 18.3589 29.3368 13.3512 19.8097 -12.9310
# 2 18.3589 65.1104 21.9790 -3.4154 3.0544 -17.8620
# 3 29.3368 21.9790 167.9068 23.0676 27.7288 -19.9121
# 4 13.3512 -3.4154 23.0676 33.6378 -9.7550 0.8777
# 5 19.8097 3.0544 27.7288 -9.7550 32.7881 -6.8772
# 6 -12.9310 -17.8620 -19.9121 0.8777 -6.8772 33.3750
#
#
#
# Elastic Compliance Matrix: (Units=1/GPa)
#
#
# Indices 1 2 3 4 5 6 
#
# 1 0.017849 -0.005088 0.002418 -0.013952 -0.015936 0.002719
# 2 -0.005088 0.020269 -0.003309 0.008529 0.008280 0.008384
# 3 0.002418 -0.003309 0.010010 -0.011875 -0.012550 0.002864
# 4 -0.013952 0.008529 -0.011875 0.053971 0.033210 -0.002502
# 5 -0.015936 0.008280 -0.012550 0.033210 0.060338 0.002330
# 6 0.002719 0.008384 0.002864 -0.002502 0.002330 0.037758
#
#
# Mechanical properties :
#
#
# Convention : Reuss Voigt Hill
#
# Bulk Modulus (GPa) = 27.64637 51.08234 39.36435
# Shear Modulus (GPa) = 22.30046 36.67462 29.48754
#
# Velocity S-wave (km/s) = 3.08054 3.95051 3.54233
# Velocity P-wave (km/s) = 4.94141 6.52275 5.78635
#
# Compressibility (1/GPa) = 0.03617112
#
# Stress axis : x y z
#
# Youngs Moduli (GPa) = 56.02458 49.33582 99.89997
#
# Poissons Ratio (x) = 0.25100 -0.24158
# Poissons Ratio (y) = 0.28503 0.33060
# Poissons Ratio (z) = -0.13548 0.16327
#
# Static dielectric constant tensor:
#      x y z
#    x 1.993520 -0.081100 -0.084150 
#    y -0.081100 2.076740 0.042840 
#    z -0.084150 0.042840 2.002600 
# 
# From -- ./inp_files/203792.got.cif
#   From: 2010.05.17/outbox.cif.g08.bks.cpg/sg2_102_cif.got.tgz:203792.got - 2010.06.03 11:33:40.
