data_PCOD9094821
_publ_section_title
;
Structure prediction by ZEFSAII (Michael W. Deem and Ramdas Pophale) SiO2 
 PCOD9094821
Probable space group: P -1
;
_chemical_formula_sum "Si O2"
_cell_formula_units_Z 16
_cell_length_a 13.291512
_cell_length_b 10.845348
_cell_length_c 9.078502
_cell_angle_alpha 120.965451
_cell_angle_beta 86.981596
_cell_angle_gamma 52.934918
_cell_volume 759.215434
_symmetry_space_group_name_H-M "P -1"
_symmetry_group_IT_number 2
_symmetry_cell_setting 'triclinic'
loop_
_space_group_symop_operation_xyz
x,y,z
-x,-y,-z
loop_
_atom_site_type_symbol
_atom_site_label
_atom_site_fract_x
_atom_site_fract_y
_atom_site_fract_z
Si Si1 0.367767 0.728912 0.069354
Si Si2 0.473794 0.205713 0.763125
Si Si3 0.183255 0.667129 0.131705
Si Si4 0.146856 0.756773 0.507980
Si Si5 0.408826 0.229593 0.456740
Si Si6 0.060078 0.586085 0.618177
Si Si7 0.031948 0.104466 0.956146
Si Si8 0.514442 0.614762 0.683540
O O1 0.380196 0.865846 0.235175
O O2 0.226049 0.782541 0.145098
O O3 0.500000 0.500000 0.000000
O O4 0.396672 0.721389 0.889672
O O5 0.439258 0.276904 0.639095
O O6 0.502919 0.010552 0.675199
O O7 0.329206 0.416816 0.987721
O O8 0.097356 0.779650 0.358623
O O9 0.097781 0.697571 0.016673
O O10 0.083382 0.688669 0.560902
O O11 0.324954 0.563419 0.364054
O O12 0.125516 0.925376 0.709500
O O13 0.231531 0.390329 0.545440
O O14 0.478099 0.248300 0.329396
O O15 0.000000 0.500000 0.500000
O O16 0.947845 0.780042 0.865109
O O17 0.000000 0.000000 0.000000
O O18 0.500000 0.500000 0.500000
#
# Coordination Sequence:
#
# PCOD9094821 Si02
#       8
#     2   2   2   2   2   2   2   2
#     4  10  20  34  61  91 123 158 200 252 314 369
#     4  10  20  38  60  90 125 168 199 251 323 374
#     4  11  20  40  64  90 130 159 206 266 314 370
#     4  10  22  39  62  93 122 163 205 257 317 370
#     4  10  22  38  62  89 128 169 206 253 317 383
#     4  10  22  43  63  86 125 168 212 259 308 370
#     4  10  22  39  65  88 118 164 212 261 312 362
#     4  11  21  36  61  93 127 156 203 257 309 373
#
# _framework density 21.074386000000001
#
# number of rings (size 3 to 8) (size 9 to 14) (size 15 to 20)
#    0.000    1.750    3.750    1.875    3.500    2.500 
#    0.000    0.625    0.000    0.000    0.000    0.000 
#    0.000    0.000    0.000    0.000    0.000    0.000 
#
# Total GULP energy -89085.976486 kJ/mol
# GULP energy per Si atom -5567.873530 kJ/mol
# Density = 2.102642 g / cm^3
# Si number density = 21.074386 Si / 1000 Ang^3
#
#
#
# Elastic Constant Matrix: (Units=GPa)
#
#
# Indices 1 2 3 4 5 6 
#
# 1 61.6565 6.9720 36.0742 -9.5638 23.3927 4.3510
# 2 6.9720 70.3872 47.5722 -6.8658 -0.9253 4.4686
# 3 36.0742 47.5722 135.5120 -16.9468 20.8850 5.7470
# 4 -9.5638 -6.8658 -16.9468 34.9749 -2.1621 10.4696
# 5 23.3927 -0.9253 20.8850 -2.1621 33.7454 -3.8499
# 6 4.3510 4.4686 5.7470 10.4696 -3.8499 17.3970
#
#
#
# Elastic Compliance Matrix: (Units=1/GPa)
#
#
# Indices 1 2 3 4 5 6 
#
# 1 0.027519 0.000992 -0.002870 0.010079 -0.018492 -0.016347
# 2 0.000992 0.019541 -0.007458 0.001603 0.004243 -0.002830
# 3 -0.002870 -0.007458 0.012686 0.005358 -0.006431 -0.006205
# 4 0.010079 0.001603 0.005358 0.043565 -0.011280 -0.033416
# 5 -0.018492 0.004243 -0.006431 -0.011280 0.048470 0.023174
# 6 -0.016347 -0.002830 -0.006205 -0.033416 0.023174 0.089585
#
#
# Mechanical properties :
#
#
# Convention : Reuss Voigt Hill
#
# Bulk Modulus (GPa) = 24.34614 49.86583 37.10599
# Shear Modulus (GPa) = 18.26627 29.01928 23.64278
#
# Velocity S-wave (km/s) = 2.94726 3.71481 3.35307
# Velocity P-wave (km/s) = 4.81242 6.48945 5.71281
#
# Compressibility (1/GPa) = 0.04107427
#
# Stress axis : x y z
#
# Youngs Moduli (GPa) = 36.33839 51.17455 78.82865
#
# Poissons Ratio (x) = -0.05076 0.22626
# Poissons Ratio (y) = -0.03605 0.58787
# Poissons Ratio (z) = 0.10430 0.38164
#
# Static dielectric constant tensor:
#      x y z
#    x 1.816450 -0.062080 0.008080 
#    y -0.062080 1.800940 0.024260 
#    z 0.008080 0.024260 1.837090 
# 
# From -- ./inp_files/303917.got.cif
#   From: 2010.05.17/outbox.cif.g08.bks.cpg/sg2_152_cif.got.tgz:303917.got - 2010.06.03 11:33:40.
