data_PCOD9094363
_publ_section_title
;
Structure prediction by ZEFSAII (Michael W. Deem and Ramdas Pophale) SiO2 
 PCOD9094363
Probable space group: P -1
;
_chemical_formula_sum "Si O2"
_cell_formula_units_Z 14
_cell_length_a 8.829897
_cell_length_b 8.570342
_cell_length_c 9.388349
_cell_angle_alpha 87.001515
_cell_angle_beta 109.825538
_cell_angle_gamma 87.525338
_cell_volume 666.036232
_symmetry_space_group_name_H-M "P -1"
_symmetry_group_IT_number 2
_symmetry_cell_setting 'triclinic'
loop_
_space_group_symop_operation_xyz
x,y,z
-x,-y,-z
loop_
_atom_site_type_symbol
_atom_site_label
_atom_site_fract_x
_atom_site_fract_y
_atom_site_fract_z
Si Si1 0.123079 0.915382 0.155893
Si Si2 0.275354 0.757287 0.711760
Si Si3 0.580152 0.145185 0.949103
Si Si4 0.372537 0.445197 0.844990
Si Si5 0.929857 0.635036 0.578708
Si Si6 0.170801 0.035173 0.482752
Si Si7 0.992451 0.573279 0.150232
O O1 0.292498 0.897259 0.130181
O O2 0.052014 0.747044 0.169562
O O3 0.150840 0.001771 0.310043
O O4 0.000000 0.000000 0.000000
O O5 0.360645 0.584129 0.716869
O O6 0.088448 0.724784 0.661119
O O7 0.292464 0.903095 0.603647
O O8 0.326034 0.792497 0.886748
O O9 0.448366 0.274009 0.841604
O O10 0.500000 0.000000 0.000000
O O11 0.192224 0.430030 0.851187
O O12 0.500000 0.500000 0.000000
O O13 0.889208 0.538513 0.709119
O O14 0.000000 0.500000 0.500000
O O15 0.806365 0.780204 0.490316
O O16 0.000000 0.000000 0.500000
O O17 0.000000 0.500000 0.000000
#
# Coordination Sequence:
#
# PCOD9094363 Si02
#       7
#     2   2   2   2   2   2   2
#     4  12  23  38  61  93 121 158 211 262 309 370
#     4   9  19  37  59  85 119 161 203 247 298 367
#     4  11  23  40  62  88 122 166 207 254 317 374
#     4   9  19  36  56  83 123 164 200 245 303 362
#     4  10  20  34  56  88 120 154 192 246 315 367
#     4  10  20  37  59  88 125 158 197 259 314 368
#     4  11  20  34  60  91 118 153 206 261 301 356
#
# _framework density 21.019877999999999
#
# number of rings (size 3 to 8) (size 9 to 14) (size 15 to 20)
#    0.000    1.714    0.000    7.714    0.000    2.286 
#    0.000    1.429    0.000    5.143    0.000    0.000 
#    0.000    0.000    0.000    0.000    0.000    0.000 
#
# Total GULP energy -78016.848299 kJ/mol
# GULP energy per Si atom -5572.632021 kJ/mol
# Density = 2.097204 g / cm^3
# Si number density = 21.019878 Si / 1000 Ang^3
#
#
#
# Elastic Constant Matrix: (Units=GPa)
#
#
# Indices 1 2 3 4 5 6 
#
# 1 88.6207 43.8918 20.7851 -1.3289 -8.0605 -10.9530
# 2 43.8918 193.8081 65.8694 -40.5208 -12.8280 -15.0148
# 3 20.7851 65.8694 123.1894 -11.6532 -13.3824 -20.2502
# 4 -1.3289 -40.5208 -11.6532 53.2653 -3.4153 5.5139
# 5 -8.0605 -12.8280 -13.3824 -3.4153 27.8867 3.7757
# 6 -10.9530 -15.0148 -20.2502 5.5139 3.7757 38.2373
#
#
#
# Elastic Compliance Matrix: (Units=1/GPa)
#
#
# Indices 1 2 3 4 5 6 
#
# 1 0.013312 -0.003103 -0.000177 -0.002233 0.001703 0.002655
# 2 -0.003103 0.008239 -0.003175 0.005668 0.002112 -0.000361
# 3 -0.000177 -0.003175 0.010841 -0.000283 0.003090 0.004180
# 4 -0.002233 0.005668 -0.000283 0.023546 0.005043 -0.002457
# 5 0.001703 0.002112 0.003090 0.005043 0.039652 -0.001689
# 6 0.002655 -0.000361 0.004180 -0.002457 -0.001689 0.029506
#
#
# Mechanical properties :
#
#
# Convention : Reuss Voigt Hill
#
# Bulk Modulus (GPa) = 51.33097 74.07899 62.70498
# Shear Modulus (GPa) = 34.60211 42.21601 38.40906
#
# Velocity S-wave (km/s) = 4.06169 4.48636 4.27930
# Velocity P-wave (km/s) = 6.81687 7.88387 7.36971
#
# Compressibility (1/GPa) = 0.01948142
#
# Stress axis : x y z
#
# Youngs Moduli (GPa) = 75.12063 121.37965 92.24013
#
# Poissons Ratio (x) = 0.37667 0.01629
# Poissons Ratio (y) = 0.23312 0.29290
# Poissons Ratio (z) = 0.01327 0.38543
#
# Static dielectric constant tensor:
#      x y z
#    x 1.741430 -0.056300 0.032370 
#    y -0.056300 1.945390 -0.008620 
#    z 0.032370 -0.008620 1.779860 
# 
# From -- ./inp_files/154854.got.cif
#   From: 2010.05.17/outbox.cif.g08.bks.cpg/sg2_78_cif.got.tgz:154854.got - 2010.06.03 11:33:40.
