data_PCOD9094224
_publ_section_title
;
Structure prediction by ZEFSAII (Michael W. Deem and Ramdas Pophale) SiO2 
 PCOD9094224
Probable space group: P -1
;
_chemical_formula_sum "Si O2"
_cell_formula_units_Z 16
_cell_length_a 22.057127
_cell_length_b 21.077408
_cell_length_c 11.534047
_cell_angle_alpha 151.736058
_cell_angle_beta 39.601713
_cell_angle_gamma 159.876375
_cell_volume 819.366923
_symmetry_space_group_name_H-M "P -1"
_symmetry_group_IT_number 2
_symmetry_cell_setting 'triclinic'
loop_
_space_group_symop_operation_xyz
x,y,z
-x,-y,-z
loop_
_atom_site_type_symbol
_atom_site_label
_atom_site_fract_x
_atom_site_fract_y
_atom_site_fract_z
Si Si1 0.059023 0.386887 0.810946
Si Si2 0.694182 0.063438 0.741406
Si Si3 0.058841 0.509405 0.261534
Si Si4 0.394056 0.333726 0.007028
Si Si5 0.023910 0.181899 0.219379
Si Si6 0.322109 0.538562 0.542194
Si Si7 0.444191 0.114209 0.604312
Si Si8 0.158265 0.511597 0.355500
O O1 0.184571 0.406740 0.639081
O O2 0.851332 0.142150 0.667238
O O3 0.186107 0.655412 0.992992
O O4 0.037836 0.406104 0.005932
O O5 0.525577 0.855181 0.747393
O O6 0.593117 0.926103 0.544537
O O7 0.067176 0.424969 0.225334
O O8 0.903573 0.435514 0.391217
O O9 0.257330 0.828882 0.477823
O O10 0.364921 0.433585 0.284798
O O11 0.500000 0.500000 0.000000
O O12 0.490675 0.323938 0.908658
O O13 0.186644 0.022647 0.784699
O O14 0.191826 0.434119 0.459785
O O15 0.082361 0.288688 0.175548
O O16 0.000000 0.000000 0.000000
O O17 0.619349 0.233871 0.567698
#
# Coordination Sequence:
#
# PCOD9094224 Si02
#       8
#     2   2   2   2   2   2   2   2
#     4  10  23  36  53  82 122 159 197 235 291 355
#     4  10  20  34  55  85 122 153 193 247 293 348
#     4  10  24  39  58  85 120 161 198 233 286 360
#     4  11  20  34  56  89 121 147 188 244 300 354
#     4  10  20  35  60  91 118 149 189 249 303 337
#     4  11  21  34  57  86 120 152 189 241 307 340
#     4  11  19  36  59  90 118 146 198 247 299 340
#     4  11  21  39  61  86 118 154 196 244 293 346
#
# _framework density 19.527270999999999
#
# number of rings (size 3 to 8) (size 9 to 14) (size 15 to 20)
#    0.000    1.500    3.750    2.250    3.500    2.000 
#    0.000    0.000    0.000    3.750    0.000    0.000 
#    0.000    0.000    0.000    0.000    0.000    0.000 
#
# Total GULP energy -89201.387971 kJ/mol
# GULP energy per Si atom -5575.086748 kJ/mol
# Density = 1.948283 g / cm^3
# Si number density = 19.527271 Si / 1000 Ang^3
#
#
#
# Elastic Constant Matrix: (Units=GPa)
#
#
# Indices 1 2 3 4 5 6 
#
# 1 74.6676 19.2736 29.3826 -11.2916 -7.0000 -2.8294
# 2 19.2736 108.3828 25.9606 -15.0158 3.7599 23.6049
# 3 29.3826 25.9606 55.1477 -20.9704 3.1941 1.9737
# 4 -11.2916 -15.0158 -20.9704 39.4830 2.2006 -3.8652
# 5 -7.0000 3.7599 3.1941 2.2006 16.8415 -0.8409
# 6 -2.8294 23.6049 1.9737 -3.8652 -0.8409 33.9725
#
#
#
# Elastic Compliance Matrix: (Units=1/GPa)
#
#
# Indices 1 2 3 4 5 6 
#
# 1 0.018988 -0.002307 -0.010199 -0.001075 0.010678 0.003919
# 2 -0.002307 0.012771 -0.003636 0.001619 -0.003770 -0.008764
# 3 -0.010199 -0.003636 0.030706 0.012719 -0.010859 0.001071
# 4 -0.001075 0.001619 0.012719 0.032964 -0.007447 0.001613
# 5 0.010678 -0.003770 -0.010859 -0.007447 0.067938 0.004974
# 6 0.003919 -0.008764 0.001071 0.001613 0.004974 0.036096
#
#
# Mechanical properties :
#
#
# Convention : Reuss Voigt Hill
#
# Bulk Modulus (GPa) = 33.13064 43.04797 38.08931
# Shear Modulus (GPa) = 20.67778 28.96481 24.82130
#
# Velocity S-wave (km/s) = 3.25763 3.85554 3.56913
# Velocity P-wave (km/s) = 5.58146 6.47404 6.04425
#
# Compressibility (1/GPa) = 0.03018354
#
# Stress axis : x y z
#
# Youngs Moduli (GPa) = 52.66406 78.30075 32.56728
#
# Poissons Ratio (x) = 0.18061 0.33214
# Poissons Ratio (y) = 0.12148 0.11840
# Poissons Ratio (z) = 0.53710 0.28467
#
# Static dielectric constant tensor:
#      x y z
#    x 1.731410 0.040920 -0.047150 
#    y 0.040920 1.758040 -0.044670 
#    z -0.047150 -0.044670 1.759270 
# 
# From -- ./inp_files/457566.got.cif
#   From: 2010.05.17/outbox.cif.g08.bks.cpg/sg2_229_cif.got.tgz:457566.got - 2010.06.03 11:33:40.
