data_PCOD9094990
_publ_section_title
;
Structure prediction by ZEFSAII (Michael W. Deem and Ramdas Pophale) SiO2 
 PCOD9094990
Probable space group: P -1
;
_chemical_formula_sum "Si O2"
_cell_formula_units_Z 16
_cell_length_a 12.684764
_cell_length_b 13.859865
_cell_length_c 24.374479
_cell_angle_alpha 23.265249
_cell_angle_beta 35.814327
_cell_angle_gamma 49.459104
_cell_volume 902.950047
_symmetry_space_group_name_H-M "P -1"
_symmetry_group_IT_number 2
_symmetry_cell_setting 'triclinic'
loop_
_space_group_symop_operation_xyz
x,y,z
-x,-y,-z
loop_
_atom_site_type_symbol
_atom_site_label
_atom_site_fract_x
_atom_site_fract_y
_atom_site_fract_z
Si Si1 0.229113 0.182945 0.742372
Si Si2 0.464124 0.601847 0.337193
Si Si3 0.040112 0.758351 0.583393
Si Si4 0.506411 0.152340 0.002029
Si Si5 0.471128 0.093407 0.230161
Si Si6 0.769350 0.319912 0.698757
Si Si7 0.624363 0.545195 0.837800
Si Si8 0.858599 0.660917 0.181139
O O1 0.306163 0.425521 0.540552
O O2 0.207217 0.278870 0.762423
O O3 0.392027 0.061366 0.737789
O O4 0.020973 0.938129 0.944669
O O5 0.356918 0.551059 0.350118
O O6 0.660967 0.550225 0.286386
O O7 0.531628 0.922303 0.148877
O O8 0.044570 0.547131 0.737542
O O9 0.858379 0.627684 0.686866
O O10 0.261996 0.894669 0.396792
O O11 0.000000 0.000000 0.500000
O O12 0.685497 0.266497 0.823441
O O13 0.505712 0.387650 0.917561
O O14 0.309355 0.974483 0.143430
O O15 0.424402 0.214509 0.243140
O O16 0.572198 0.336819 0.018934
O O17 0.000000 0.500000 0.500000
#
# Coordination Sequence:
#
# PCOD9094990 Si02
#       8
#     2   2   2   2   2   2   2   2
#     4  11  22  33  50  81 117 150 182 218 278 330
#     4  10  21  33  54  78 109 141 178 229 281 329
#     4  10  21  34  51  77 116 152 185 219 259 325
#     4   9  21  36  55  84 107 140 190 229 288 319
#     4  10  20  35  50  79 117 152 189 214 261 333
#     4   9  21  38  57  81 110 136 186 246 288 323
#     4  10  20  35  55  77 116 152 183 226 267 324
#     4  11  22  32  51  80 118 149 184 222 272 337
#
# _framework density 17.719695000000002
#
# number of rings (size 3 to 8) (size 9 to 14) (size 15 to 20)
#    0.750    1.250    2.500    1.125    5.250    1.000 
#    0.000    0.000    0.000    0.750    0.000    1.750 
#    0.000    0.000    0.000    0.000    0.000    0.000 
#
# Total GULP energy -89104.491843 kJ/mol
# GULP energy per Si atom -5569.030740 kJ/mol
# Density = 1.767936 g / cm^3
# Si number density = 17.719695 Si / 1000 Ang^3
#
#
#
# Elastic Constant Matrix: (Units=GPa)
#
#
# Indices 1 2 3 4 5 6 
#
# 1 57.6196 32.5447 33.2743 3.4793 -7.6726 -1.2303
# 2 32.5447 71.0036 39.1028 -0.0723 -4.5620 6.2688
# 3 33.2743 39.1028 115.8401 14.9697 -1.3004 -6.1559
# 4 3.4793 -0.0723 14.9697 20.1870 -3.7074 -5.4347
# 5 -7.6726 -4.5620 -1.3004 -3.7074 32.6107 -0.0154
# 6 -1.2303 6.2688 -6.1559 -5.4347 -0.0154 20.3017
#
#
#
# Elastic Compliance Matrix: (Units=1/GPa)
#
#
# Indices 1 2 3 4 5 6 
#
# 1 0.025741 -0.009637 -0.003935 0.000203 0.004576 0.003400
# 2 -0.009637 0.022470 -0.005758 0.004007 0.001098 -0.008195
# 3 -0.003935 -0.005758 0.012948 -0.008485 -0.002178 0.003193
# 4 0.000203 0.004007 -0.008485 0.060457 0.007149 0.012392
# 5 0.004576 0.001098 -0.002178 0.007149 0.032621 0.001216
# 6 0.003400 -0.008195 0.003193 0.012392 0.001216 0.056280
#
#
# Mechanical properties :
#
#
# Convention : Reuss Voigt Hill
#
# Bulk Modulus (GPa) = 44.44608 50.47855 47.46231
# Shear Modulus (GPa) = 19.47981 23.92263 21.70122
#
# Velocity S-wave (km/s) = 3.31921 3.67830 3.50336
# Velocity P-wave (km/s) = 6.31085 6.82561 6.57327
#
# Compressibility (1/GPa) = 0.02249917
#
# Stress axis : x y z
#
# Youngs Moduli (GPa) = 38.84927 44.50376 77.23199
#
# Poissons Ratio (x) = 0.42890 0.30389
# Poissons Ratio (y) = 0.37440 0.44467
# Poissons Ratio (z) = 0.15286 0.25623
#
# Static dielectric constant tensor:
#      x y z
#    x 1.619260 -0.004390 -0.029570 
#    y -0.004390 1.619660 -0.013290 
#    z -0.029570 -0.013290 1.657200 
# 
# From -- ./inp_files/619557.got.cif
#   From: 2010.05.17/outbox.cif.g08.bks.cpg/sg2_310_cif.got.tgz:619557.got - 2010.06.03 11:33:40.
