data_PCOD9094879
_publ_section_title
;
Structure prediction by ZEFSAII (Michael W. Deem and Ramdas Pophale) SiO2 
 PCOD9094879
Probable space group: P -1
;
_chemical_formula_sum "Si O2"
_cell_formula_units_Z 12
_cell_length_a 15.777530
_cell_length_b 8.783781
_cell_length_c 15.769004
_cell_angle_alpha 83.743626
_cell_angle_beta 18.237146
_cell_angle_gamma 93.479930
_cell_volume 577.419938
_symmetry_space_group_name_H-M "P -1"
_symmetry_group_IT_number 2
_symmetry_cell_setting 'triclinic'
loop_
_space_group_symop_operation_xyz
x,y,z
-x,-y,-z
loop_
_atom_site_type_symbol
_atom_site_label
_atom_site_fract_x
_atom_site_fract_y
_atom_site_fract_z
Si Si1 0.428907 0.709455 0.280089
Si Si2 0.812596 0.693805 0.486043
Si Si3 0.790900 0.009903 0.772507
Si Si4 0.642944 0.201415 0.169606
Si Si5 0.055325 0.790373 0.765781
Si Si6 0.868574 0.137801 0.126272
O O1 0.290965 0.510577 0.387282
O O2 0.161279 0.706873 0.595082
O O3 0.719715 0.761796 0.063156
O O4 0.599459 0.852427 0.033794
O O5 0.524314 0.691946 0.709399
O O6 0.943921 0.815337 0.437435
O O7 0.123457 0.784779 0.126110
O O8 0.000000 0.000000 0.500000
O O9 0.500000 0.000000 0.000000
O O10 0.862117 0.244026 0.042731
O O11 0.338564 0.999663 0.480123
O O12 0.018574 0.740539 0.903527
O O13 0.500000 0.000000 0.500000
O O14 0.000000 0.000000 0.000000
#
# Coordination Sequence:
#
# PCOD9094879 Si02
#       6
#     2   2   2   2   2   2
#     4  12  25  43  68 100 133 171 219 272 332 396
#     4  12  25  43  68 100 133 171 219 272 332 396
#     4  12  26  46  72  95 128 169 216 276 340 402
#     4  11  20  41  66  95 136 180 221 268 318 386
#     4  11  20  41  66  95 136 180 221 268 318 386
#     4  10  20  34  63 102 131 179 232 265 309 376
#
# _framework density 20.782101999999998
#
# number of rings (size 3 to 8) (size 9 to 14) (size 15 to 20)
#    0.000    0.667    3.333    7.000    0.000    1.333 
#    0.000    5.000    0.000    0.000    0.000    0.000 
#    0.000    0.000    0.000    0.000    0.000    0.000 
#
# Total GULP energy -66864.023639 kJ/mol
# GULP energy per Si atom -5572.001970 kJ/mol
# Density = 2.073480 g / cm^3
# Si number density = 20.782102 Si / 1000 Ang^3
#
#
#
# Elastic Constant Matrix: (Units=GPa)
#
#
# Indices 1 2 3 4 5 6 
#
# 1 77.1973 25.1726 -12.7882 -21.3914 5.6298 0.0191
# 2 25.1726 82.5146 -6.0874 -5.7444 12.2769 0.9182
# 3 -12.7882 -6.0874 50.0375 19.3771 -0.7259 0.1405
# 4 -21.3914 -5.7444 19.3771 41.9837 2.1837 -11.1882
# 5 5.6298 12.2769 -0.7259 2.1837 26.2986 21.7359
# 6 0.0191 0.9182 0.1405 -11.1882 21.7359 14.5803
#
#
#
# Elastic Compliance Matrix: (Units=1/GPa)
#
#
# Indices 1 2 3 4 5 6 
#
# 1 0.015034 -0.005532 0.002595 0.001927 0.009467 -0.012330
# 2 -0.005532 0.013218 0.002116 -0.004761 0.003506 -0.009726
# 3 0.002595 0.002116 0.022489 -0.004617 -0.011549 0.013321
# 4 0.001927 -0.004761 -0.004617 0.013317 0.035116 -0.041790
# 5 0.009467 0.003506 -0.011549 0.035116 -0.038581 0.084340
# 6 -0.012330 -0.009726 0.013321 -0.041790 0.084340 -0.088714
#
#
# Mechanical properties :
#
#
# Convention : Reuss Voigt Hill
#
# Bulk Modulus (GPa) = 20.36716 24.70483 22.53600
# Shear Modulus (GPa) = -110.55042 30.13600 -40.20721
#
# Velocity S-wave (km/s) = -7.30140 3.81214 -4.40330
# Velocity P-wave (km/s) = 7.82682 5.59374 3.87099
#
# Compressibility (1/GPa) = 0.04909865
#
# Stress axis : x y z
#
# Youngs Moduli (GPa) = 66.51419 75.65450 44.46697
#
# Poissons Ratio (x) = 0.41854 -0.11539
# Poissons Ratio (y) = 0.36797 -0.09410
# Poissons Ratio (z) = -0.17260 -0.16009
#
# Static dielectric constant tensor:
#      x y z
#    x 2.047490 -0.040010 0.117680 
#    y -0.040010 1.824140 -0.010750 
#    z 0.117680 -0.010750 1.724510 
# 
# From -- ./inp_files/48435.got.cif
#   From: 2010.05.17/outbox.cif.g08.bks.cpg/sg2_25_cif.got.tgz:48435.got - 2010.06.03 11:33:40.
