data_PCOD9094229
_publ_section_title
;
Structure prediction by ZEFSAII (Michael W. Deem and Ramdas Pophale) SiO2 
 PCOD9094229
Probable space group: P -1
;
_chemical_formula_sum "Si O2"
_cell_formula_units_Z 16
_cell_length_a 15.571172
_cell_length_b 7.915008
_cell_length_c 11.571125
_cell_angle_alpha 36.551801
_cell_angle_beta 91.512252
_cell_angle_gamma 76.188100
_cell_volume 763.813757
_symmetry_space_group_name_H-M "P -1"
_symmetry_group_IT_number 2
_symmetry_cell_setting 'triclinic'
loop_
_space_group_symop_operation_xyz
x,y,z
-x,-y,-z
loop_
_atom_site_type_symbol
_atom_site_label
_atom_site_fract_x
_atom_site_fract_y
_atom_site_fract_z
Si Si1 0.764801 0.526924 0.657402
Si Si2 0.374100 0.967951 0.458000
Si Si3 0.033112 0.794899 0.257303
Si Si4 0.096369 0.523852 0.641224
Si Si5 0.458925 0.468887 0.138518
Si Si6 0.291117 0.987097 0.972802
Si Si7 0.061571 0.360569 0.966221
Si Si8 0.282671 0.871319 0.278927
O O1 0.704775 0.842413 0.551318
O O2 0.869825 0.462104 0.656769
O O3 0.764720 0.238722 0.893714
O O4 0.713525 0.462690 0.578330
O O5 0.414495 0.214134 0.279590
O O6 0.458000 0.673141 0.684592
O O7 0.329134 0.872560 0.400583
O O8 0.057065 0.793454 0.396368
O O9 0.947156 0.706522 0.284646
O O10 0.019058 0.136456 0.030173
O O11 0.063928 0.586755 0.738799
O O12 0.210599 0.330523 0.752274
O O13 0.377050 0.805232 0.990338
O O14 0.500000 0.500000 0.000000
O O15 0.327614 0.971360 0.114872
O O16 0.171647 0.130837 0.128596
O O17 0.000000 0.500000 0.000000
#
# Coordination Sequence:
#
# PCOD9094229 Si02
#       8
#     2   2   2   2   2   2   2   2
#     4   8  18  35  58  84 111 148 184 232 274 333
#     4  10  20  38  62  79 114 149 180 238 282 333
#     4  10  20  34  55  86 108 153 193 217 288 334
#     4  10  20  34  56  82 114 150 189 228 276 340
#     4  10  22  38  56  88 111 140 193 231 283 338
#     4   8  18  37  54  78 116 145 182 241 268 333
#     4  10  21  35  55  81 117 149 184 237 272 333
#     4   8  18  37  57  85 107 150 189 217 289 332
#
# _framework density 20.947513000000001
#
# number of rings (size 3 to 8) (size 9 to 14) (size 15 to 20)
#    0.750    2.000    1.250    0.375    3.500    2.000 
#    0.000    5.625    0.000    0.000    0.000    0.000 
#    0.000    0.000    0.000    0.000    0.000    0.000 
#
# Total GULP energy -89129.855781 kJ/mol
# GULP energy per Si atom -5570.615986 kJ/mol
# Density = 2.089984 g / cm^3
# Si number density = 20.947513 Si / 1000 Ang^3
#
#
#
# Elastic Constant Matrix: (Units=GPa)
#
#
# Indices 1 2 3 4 5 6 
#
# 1 56.0202 53.2528 18.4829 16.7888 12.5834 -6.2129
# 2 53.2528 145.8834 36.8221 23.7186 17.3939 -26.3021
# 3 18.4829 36.8221 67.7297 23.2566 3.8612 -3.5677
# 4 16.7888 23.7186 23.2566 28.5151 2.1549 -1.7234
# 5 12.5834 17.3939 3.8612 2.1549 24.9547 14.3867
# 6 -6.2129 -26.3021 -3.5677 -1.7234 14.3867 42.2913
#
#
#
# Elastic Compliance Matrix: (Units=1/GPa)
#
#
# Indices 1 2 3 4 5 6 
#
# 1 0.031422 -0.007805 0.000340 -0.011238 -0.011323 0.003185
# 2 -0.007805 0.014653 -0.003439 -0.003157 -0.012221 0.011705
# 3 0.000340 -0.003439 0.021618 -0.015107 0.000862 -0.001174
# 4 -0.011238 -0.003157 -0.015107 0.055648 0.008596 -0.005545
# 5 -0.011323 -0.012221 0.000862 0.008596 0.072798 -0.033605
# 6 0.003185 0.011705 -0.001174 -0.005545 -0.033605 0.042500
#
#
# Mechanical properties :
#
#
# Convention : Reuss Voigt Hill
#
# Bulk Modulus (GPa) = 21.79325 54.08323 37.93824
# Shear Modulus (GPa) = 18.13299 29.89058 24.01178
#
# Velocity S-wave (km/s) = 2.94537 3.78157 3.38935
# Velocity P-wave (km/s) = 4.68969 6.70384 5.78510
#
# Compressibility (1/GPa) = 0.04588577
#
# Stress axis : x y z
#
# Youngs Moduli (GPa) = 31.82477 68.24770 46.25820
#
# Poissons Ratio (x) = 0.53266 -0.01575
# Poissons Ratio (y) = 0.24839 0.15908
# Poissons Ratio (z) = -0.01083 0.23469
#
# Static dielectric constant tensor:
#      x y z
#    x 1.759940 -0.003190 -0.026380 
#    y -0.003190 1.766680 0.040500 
#    z -0.026380 0.040500 1.795720 
# 
# From -- ./inp_files/446640.got.cif
#   From: 2010.05.17/outbox.cif.g08.bks.cpg/sg2_224_cif.got.tgz:446640.got - 2010.06.03 11:33:40.
