data_PCOD9094673
_publ_section_title
;
Structure prediction by ZEFSAII (Michael W. Deem and Ramdas Pophale) SiO2 
 PCOD9094673
Probable space group: P -1
;
_chemical_formula_sum "Si O2"
_cell_formula_units_Z 14
_cell_length_a 9.338002
_cell_length_b 11.921637
_cell_length_c 8.079276
_cell_angle_alpha 112.598635
_cell_angle_beta 79.251463
_cell_angle_gamma 127.130978
_cell_volume 660.748026
_symmetry_space_group_name_H-M "P -1"
_symmetry_group_IT_number 2
_symmetry_cell_setting 'triclinic'
loop_
_space_group_symop_operation_xyz
x,y,z
-x,-y,-z
loop_
_atom_site_type_symbol
_atom_site_label
_atom_site_fract_x
_atom_site_fract_y
_atom_site_fract_z
Si Si1 0.880160 0.337421 0.018065
Si Si2 0.511918 0.147401 0.128024
Si Si3 0.842887 0.047613 0.733487
Si Si4 0.295360 0.673068 0.477942
Si Si5 0.070763 0.976168 0.802717
Si Si6 0.971204 0.657602 0.642312
Si Si7 0.398124 0.076357 0.606196
O O1 0.878136 0.206933 0.850686
O O2 0.670018 0.274929 0.047335
O O3 0.000000 0.500000 0.000000
O O4 0.959540 0.343574 0.187784
O O5 0.601711 0.218840 0.327436
O O6 0.304557 0.076035 0.171564
O O7 0.500000 0.000000 0.000000
O O8 0.749366 0.987483 0.543105
O O9 0.019120 0.054073 0.725887
O O10 0.215935 0.502303 0.433872
O O11 0.440747 0.748752 0.345046
O O12 0.118775 0.670891 0.494033
O O13 0.967697 0.798768 0.700327
O O14 0.280459 0.038375 0.774557
O O15 0.000000 0.000000 0.000000
O O16 0.500000 0.000000 0.500000
#
# Coordination Sequence:
#
# PCOD9094673 Si02
#       7
#     2   2   2   2   2   2   2
#     4  10  20  34  59  92 126 165 213 266 316 377
#     4   8  17  35  59  85 121 163 213 255 307 376
#     4  10  22  40  62  91 125 168 213 263 321 383
#     4   9  19  37  61  91 119 159 219 265 302 371
#     4  12  24  42  64  94 136 171 208 265 334 388
#     4  10  20  38  60  91 127 167 208 262 328 374
#     4  11  23  40  66  96 121 169 224 267 306 389
#
# _framework density 21.188108
#
# number of rings (size 3 to 8) (size 9 to 14) (size 15 to 20)
#    0.000    2.000    2.857    0.429    2.000    2.286 
#    0.000    5.000    0.000    0.000    0.000    0.000 
#    0.000    0.000    0.000    0.000    0.000    0.000 
#
# Total GULP energy -78044.029041 kJ/mol
# GULP energy per Si atom -5574.573503 kJ/mol
# Density = 2.113988 g / cm^3
# Si number density = 21.188108 Si / 1000 Ang^3
#
#
#
# Elastic Constant Matrix: (Units=GPa)
#
#
# Indices 1 2 3 4 5 6 
#
# 1 72.2056 27.0132 21.6737 -8.1817 -18.5581 5.5741
# 2 27.0132 158.1800 38.6964 9.5478 -21.4595 22.1524
# 3 21.6737 38.6964 82.6635 -5.3556 -15.0178 10.3524
# 4 -8.1817 9.5478 -5.3556 32.6856 0.7037 -1.4872
# 5 -18.5581 -21.4595 -15.0178 0.7037 37.6948 -3.6444
# 6 5.5741 22.1524 10.3524 -1.4872 -3.6444 33.0051
#
#
#
# Elastic Compliance Matrix: (Units=1/GPa)
#
#
# Indices 1 2 3 4 5 6 
#
# 1 0.017373 -0.001776 -0.002235 0.004355 0.006559 -0.000120
# 2 -0.001776 0.008468 -0.002725 -0.003620 0.002501 -0.004416
# 3 -0.002235 -0.002725 0.014931 0.002525 0.003054 -0.002026
# 4 0.004355 -0.003620 0.002525 0.033253 0.000708 0.002478
# 5 0.006559 0.002501 0.003054 0.000708 0.032372 -0.000138
# 6 -0.000120 -0.004416 -0.002026 0.002478 -0.000138 0.034014
#
#
# Mechanical properties :
#
#
# Convention : Reuss Voigt Hill
#
# Bulk Modulus (GPa) = 36.63118 54.20175 45.41647
# Shear Modulus (GPa) = 30.67769 35.72149 33.19959
#
# Velocity S-wave (km/s) = 3.80922 4.11045 3.96270
# Velocity P-wave (km/s) = 6.05582 6.94007 6.51297
#
# Compressibility (1/GPa) = 0.02729915
#
# Stress axis : x y z
#
# Youngs Moduli (GPa) = 57.56007 118.08829 66.97418
#
# Poissons Ratio (x) = 0.20977 0.14967
# Poissons Ratio (y) = 0.10225 0.18254
# Poissons Ratio (z) = 0.12863 0.32185
#
# Static dielectric constant tensor:
#      x y z
#    x 1.212020 0.829170 -0.656980 
#    y 0.829170 0.724850 0.865340 
#    z -0.656980 0.865340 1.031260 
# 
# From -- ./inp_files/185776.got.cif
#   From: 2010.05.17/outbox.cif.g08.bks.cpg/sg2_93_cif.got.tgz:185776.got - 2010.06.03 11:33:40.
