data_PCOD9094687
_publ_section_title
;
Structure prediction by ZEFSAII (Michael W. Deem and Ramdas Pophale) SiO2 
 PCOD9094687
Probable space group: P -1
;
_chemical_formula_sum "Si O2"
_cell_formula_units_Z 16
_cell_length_a 11.821577
_cell_length_b 11.685669
_cell_length_c 10.479494
_cell_angle_alpha 64.479064
_cell_angle_beta 95.592726
_cell_angle_gamma 42.954460
_cell_volume 659.834235
_symmetry_space_group_name_H-M "P -1"
_symmetry_group_IT_number 2
_symmetry_cell_setting 'triclinic'
loop_
_space_group_symop_operation_xyz
x,y,z
-x,-y,-z
loop_
_atom_site_type_symbol
_atom_site_label
_atom_site_fract_x
_atom_site_fract_y
_atom_site_fract_z
Si Si1 0.830371 0.684276 0.006342
Si Si2 0.274774 0.948263 0.298209
Si Si3 0.548116 0.147467 0.370115
Si Si4 0.728752 0.513997 0.441779
Si Si5 0.178962 0.699898 0.043030
Si Si6 0.200640 0.332526 0.423022
Si Si7 0.899517 0.940124 0.153807
Si Si8 0.483014 0.160746 0.975534
O O1 0.659183 0.732892 0.965664
O O2 0.966852 0.552304 0.216895
O O3 0.720198 0.923650 0.842507
O O4 0.000000 0.500000 0.000000
O O5 0.299611 0.947714 0.450579
O O6 0.506416 0.665012 0.408854
O O7 0.037447 0.116521 0.157636
O O8 0.399630 0.406756 0.177675
O O9 0.363846 0.239219 0.380580
O O10 0.705283 0.898527 0.430528
O O11 0.788741 0.585834 0.493221
O O12 0.662941 0.615041 0.244487
O O13 0.945746 0.219629 0.628002
O O14 0.077088 0.759656 0.142450
O O15 0.219782 0.810326 0.993724
O O16 0.714480 0.009332 0.093937
O O17 0.500000 0.000000 0.000000
#
# Coordination Sequence:
#
# PCOD9094687 Si02
#       8
#     2   2   2   2   2   2   2   2
#     4  12  23  40  66  99 132 171 218 271 335 399
#     4  11  19  36  60  95 128 168 216 267 323 381
#     4  10  20  34  59  97 132 166 217 276 320 385
#     4  11  22  40  61  99 135 172 216 266 339 386
#     4  11  21  38  63  93 133 177 230 262 315 393
#     4  10  20  36  60  98 135 163 217 274 332 387
#     4  11  24  40  61  93 134 181 222 269 321 392
#     4  12  25  42  65  97 139 171 211 279 340 391
#
# _framework density 24.248514
#
# number of rings (size 3 to 8) (size 9 to 14) (size 15 to 20)
#    0.000    1.000    7.500    0.750    0.000    3.500 
#    0.000    0.000    0.000    1.500    0.000    0.000 
#    0.000    0.000    0.000    0.000    0.000    0.000 
#
# Total GULP energy -89546.509713 kJ/mol
# GULP energy per Si atom -5596.656857 kJ/mol
# Density = 2.419332 g / cm^3
# Si number density = 24.248514 Si / 1000 Ang^3
#
#
#
# Elastic Constant Matrix: (Units=GPa)
#
#
# Indices 1 2 3 4 5 6 
#
# 1 97.8352 23.7945 45.0981 -13.5969 0.7704 2.3294
# 2 23.7945 47.0895 23.2505 -16.5686 -14.6467 5.4415
# 3 45.0981 23.2505 159.1143 -16.0384 19.5920 7.6298
# 4 -13.5969 -16.5686 -16.0384 29.4644 8.8068 -7.2233
# 5 0.7704 -14.6467 19.5920 8.8068 31.3254 -3.0961
# 6 2.3294 5.4415 7.6298 -7.2233 -3.0961 24.0819
#
#
#
# Elastic Compliance Matrix: (Units=1/GPa)
#
#
# Indices 1 2 3 4 5 6 
#
# 1 0.012959 -0.005076 -0.002520 0.002571 -0.001716 0.001243
# 2 -0.005076 0.034669 -0.004662 0.009461 0.016501 -0.000907
# 3 -0.002520 -0.004662 0.009234 0.003522 -0.009055 -0.001736
# 4 0.002571 0.009461 0.003522 0.047782 -0.010337 0.009501
# 5 -0.001716 0.016501 -0.009055 -0.010337 0.048491 0.002440
# 6 0.001243 -0.000907 -0.001736 0.009501 0.002440 0.045323
#
#
# Mechanical properties :
#
#
# Convention : Reuss Voigt Hill
#
# Bulk Modulus (GPa) = 30.91729 54.25834 42.58781
# Shear Modulus (GPa) = 21.38976 31.10072 26.24524
#
# Velocity S-wave (km/s) = 2.97325 3.58520 3.29347
# Velocity P-wave (km/s) = 4.95629 6.28989 5.66249
#
# Compressibility (1/GPa) = 0.03234436
#
# Stress axis : x y z
#
# Youngs Moduli (GPa) = 77.16682 28.84397 108.30088
#
# Poissons Ratio (x) = 0.14643 0.27295
# Poissons Ratio (y) = 0.39174 0.50489
# Poissons Ratio (z) = 0.19448 0.13447
#
# Static dielectric constant tensor:
#      x y z
#    x 1.954980 -0.038800 0.017880 
#    y -0.038800 2.059970 -0.008750 
#    z 0.017880 -0.008750 1.987340 
# 
# From -- ./inp_files/427833.got.cif
#   From: 2010.05.17/outbox.cif.g08.bks.cpg/sg2_214_cif.got.tgz:427833.got - 2010.06.03 11:33:40.
