data_PCOD9094983
_publ_section_title
;
Structure prediction by ZEFSAII (Michael W. Deem and Ramdas Pophale) SiO2 
 PCOD9094983
Probable space group: P -1
;
_chemical_formula_sum "Si O2"
_cell_formula_units_Z 16
_cell_length_a 14.209637
_cell_length_b 11.879880
_cell_length_c 14.753539
_cell_angle_alpha 109.878211
_cell_angle_beta 19.473817
_cell_angle_gamma 109.604492
_cell_volume 779.922954
_symmetry_space_group_name_H-M "P -1"
_symmetry_group_IT_number 2
_symmetry_cell_setting 'triclinic'
loop_
_space_group_symop_operation_xyz
x,y,z
-x,-y,-z
loop_
_atom_site_type_symbol
_atom_site_label
_atom_site_fract_x
_atom_site_fract_y
_atom_site_fract_z
Si Si1 0.058314 0.238930 0.294159
Si Si2 0.884110 0.864584 0.084039
Si Si3 0.179086 0.364467 0.717254
Si Si4 0.439820 0.120693 0.794366
Si Si5 0.764709 0.523209 0.916752
Si Si6 0.472555 0.852389 0.619072
Si Si7 0.847980 0.588219 0.593321
Si Si8 0.350232 0.505954 0.780584
O O1 0.158648 0.353330 0.171935
O O2 0.096558 0.283530 0.374845
O O3 0.739296 0.193532 0.549193
O O4 0.266264 0.137149 0.048255
O O5 0.151671 0.805884 0.872901
O O6 0.755245 0.827331 0.094372
O O7 0.625169 0.868095 0.388273
O O8 0.000000 0.000000 0.000000
O O9 0.328422 0.239891 0.537519
O O10 0.247951 0.413452 0.769728
O O11 0.339245 0.453933 0.524816
O O12 0.847844 0.379563 0.010860
O O13 0.473411 0.981219 0.701984
O O14 0.010036 0.435651 0.639058
O O15 0.476725 0.456257 0.125075
O O16 0.701866 0.543657 0.085303
O O17 0.000000 0.500000 0.500000
#
# Coordination Sequence:
#
# PCOD9094983 Si02
#       8
#     2   2   2   2   2   2   2   2
#     4  11  21  34  55  85 120 145 182 229 276 340
#     4  10  20  35  49  76 113 149 191 225 255 329
#     4  10  22  40  58  80 114 143 190 248 276 306
#     4  11  21  34  51  85 114 151 189 220 269 350
#     4  11  21  37  60  82 112 152 185 225 290 339
#     4  11  21  37  56  76 113 156 185 230 283 318
#     4  10  20  37  55  82 116 148 181 228 282 344
#     4  10  22  40  58  84 107 142 198 240 274 331
#
# _framework density 20.514848000000001
#
# number of rings (size 3 to 8) (size 9 to 14) (size 15 to 20)
#    0.000    1.500    0.000    9.000    1.750    0.000 
#    9.000    0.000    0.000    0.000    0.000   17.500 
#    0.000    0.000    0.000    0.000    0.000    0.000 
#
# Total GULP energy -89290.944746 kJ/mol
# GULP energy per Si atom -5580.684047 kJ/mol
# Density = 2.046816 g / cm^3
# Si number density = 20.514848 Si / 1000 Ang^3
#
#
#
# Elastic Constant Matrix: (Units=GPa)
#
#
# Indices 1 2 3 4 5 6 
#
# 1 62.4790 23.8599 24.1750 -4.8752 7.4778 17.3224
# 2 23.8599 65.5808 24.4288 10.8889 -5.0501 16.0505
# 3 24.1750 24.4288 122.8432 -3.2376 -3.2862 27.2231
# 4 -4.8752 10.8889 -3.2376 38.4382 7.8136 0.3776
# 5 7.4778 -5.0501 -3.2862 7.8136 48.5419 -1.7746
# 6 17.3224 16.0505 27.2231 0.3776 -1.7746 27.2819
#
#
#
# Elastic Compliance Matrix: (Units=1/GPa)
#
#
# Indices 1 2 3 4 5 6 
#
# 1 0.022959 -0.007015 -0.000897 0.006075 -0.005671 -0.010009
# 2 -0.007015 0.021579 -0.001625 -0.007946 0.004267 -0.006233
# 3 -0.000897 -0.001625 0.010711 0.001309 0.000148 -0.009171
# 4 0.006075 -0.007946 0.001309 0.030509 -0.006634 -0.001342
# 5 -0.005671 0.004267 0.000148 -0.006634 0.023089 0.002536
# 6 -0.010009 -0.006233 -0.009171 -0.001342 0.002536 0.056011
#
#
# Mechanical properties :
#
#
# Convention : Reuss Voigt Hill
#
# Bulk Modulus (GPa) = 27.64267 43.98114 35.81191
# Shear Modulus (GPa) = 25.51172 34.74837 30.13005
#
# Velocity S-wave (km/s) = 3.53026 4.12006 3.83651
# Velocity P-wave (km/s) = 5.48823 6.64217 6.09258
#
# Compressibility (1/GPa) = 0.03617596
#
# Stress axis : x y z
#
# Youngs Moduli (GPa) = 43.55623 46.34149 93.36300
#
# Poissons Ratio (x) = 0.32507 0.08373
# Poissons Ratio (y) = 0.30553 0.15170
# Poissons Ratio (z) = 0.03906 0.07530
#
# Static dielectric constant tensor:
#      x y z
#    x 1.786620 -0.078910 0.036270 
#    y -0.078910 2.193370 -0.113190 
#    z 0.036270 -0.113190 1.796350 
# 
# From -- ./inp_files/531848.got.cif
#   From: 2010.05.17/outbox.cif.g08.bks.cpg/sg2_266_cif.got.tgz:531848.got - 2010.06.03 11:33:40.
