data_PCOD9094885
_publ_section_title
;
Structure prediction by ZEFSAII (Michael W. Deem and Ramdas Pophale) SiO2 
 PCOD9094885
Probable space group: P -1
;
_chemical_formula_sum "Si O2"
_cell_formula_units_Z 16
_cell_length_a 12.964033
_cell_length_b 21.890285
_cell_length_c 9.328193
_cell_angle_alpha 133.485417
_cell_angle_beta 52.045368
_cell_angle_gamma 154.108030
_cell_volume 838.647842
_symmetry_space_group_name_H-M "P -1"
_symmetry_group_IT_number 2
_symmetry_cell_setting 'triclinic'
loop_
_space_group_symop_operation_xyz
x,y,z
-x,-y,-z
loop_
_atom_site_type_symbol
_atom_site_label
_atom_site_fract_x
_atom_site_fract_y
_atom_site_fract_z
Si Si1 0.614879 0.026747 0.800142
Si Si2 0.194317 0.299911 0.275142
Si Si3 0.210670 0.121011 0.901884
Si Si4 0.641171 0.350984 0.092096
Si Si5 0.721624 0.146747 0.450464
Si Si6 0.948537 0.052608 0.532846
Si Si7 0.903196 0.324225 0.857886
Si Si8 0.602845 0.643553 0.500187
O O1 0.764378 0.023059 0.696942
O O2 0.788061 0.188366 0.832808
O O3 0.402203 0.892752 0.654336
O O4 0.500000 0.000000 0.000000
O O5 0.389773 0.473542 0.347654
O O6 0.259104 0.321705 0.423843
O O7 0.924099 0.185629 0.309955
O O8 0.235025 0.235003 0.050777
O O9 0.146744 0.034882 0.677813
O O10 0.446209 0.213907 0.926190
O O11 0.000000 0.000000 0.000000
O O12 0.509487 0.332557 0.297705
O O13 0.817000 0.508392 0.110630
O O14 0.779551 0.346720 0.032874
O O15 0.852605 0.280759 0.661808
O O16 0.500000 0.000000 0.500000
O O17 0.197584 0.231158 0.582093
O O18 0.000000 0.000000 0.500000
#
# Coordination Sequence:
#
# PCOD9094885 Si02
#       8
#     2   2   2   2   2   2   2   2
#     4  11  27  42  63  88 132 172 211 257 316 384
#     4  10  20  35  65  95 123 159 205 262 322 367
#     4  11  23  36  65  95 128 160 210 263 319 364
#     4  10  20  35  65  96 125 156 208 271 312 369
#     4  10  20  34  63  88 122 156 214 255 308 366
#     4  12  27  44  64  92 129 172 215 259 318 379
#     4  10  21  37  65  93 124 163 213 256 322 370
#     4  10  20  38  64  95 132 157 208 266 322 369
#
# _framework density 19.078330999999999
#
# number of rings (size 3 to 8) (size 9 to 14) (size 15 to 20)
#    0.000    1.500    3.750    2.250   10.500    0.000 
#    0.000    1.875    0.000    3.000    0.000    0.000 
#    0.000    0.000    0.000    0.000    0.000    0.000 
#
# Total GULP energy -89272.900936 kJ/mol
# GULP energy per Si atom -5579.556308 kJ/mol
# Density = 1.903491 g / cm^3
# Si number density = 19.078331 Si / 1000 Ang^3
#
#
#
# Elastic Constant Matrix: (Units=GPa)
#
#
# Indices 1 2 3 4 5 6 
#
# 1 77.5133 30.4946 23.8872 -15.3612 -16.5524 13.9213
# 2 30.4946 83.9212 29.0876 -0.0565 4.7126 16.4107
# 3 23.8872 29.0876 78.9769 -10.7705 -6.0654 -1.4272
# 4 -15.3612 -0.0565 -10.7705 32.8079 6.3335 -5.9391
# 5 -16.5524 4.7126 -6.0654 6.3335 29.3822 -3.0637
# 6 13.9213 16.4107 -1.4272 -5.9391 -3.0637 29.1475
#
#
#
# Elastic Compliance Matrix: (Units=1/GPa)
#
#
# Indices 1 2 3 4 5 6 
#
# 1 0.020160 -0.006378 -0.002210 0.006034 0.010223 -0.003842
# 2 -0.006378 0.018846 -0.006521 -0.005357 -0.007829 -0.009798
# 3 -0.002210 -0.006521 0.016781 0.005158 0.002873 0.006901
# 4 0.006034 -0.005357 0.005158 0.036726 -0.001793 0.007682
# 5 0.010223 -0.007829 0.002873 -0.001793 0.042420 0.003760
# 6 -0.003842 -0.009798 0.006901 0.007682 0.003760 0.043958
#
#
# Mechanical properties :
#
#
# Convention : Reuss Voigt Hill
#
# Bulk Modulus (GPa) = 39.11035 45.26115 42.18575
# Shear Modulus (GPa) = 22.97457 28.73032 25.85245
#
# Velocity S-wave (km/s) = 3.47396 3.88482 3.68512
# Velocity P-wave (km/s) = 6.05273 6.62554 6.34560
#
# Compressibility (1/GPa) = 0.02556868
#
# Stress axis : x y z
#
# Youngs Moduli (GPa) = 49.60293 53.06218 59.59244
#
# Poissons Ratio (x) = 0.33845 0.13169
# Poissons Ratio (y) = 0.31639 0.38858
# Poissons Ratio (z) = 0.10961 0.34600
#
# Static dielectric constant tensor:
#      x y z
#    x 1.712580 -0.024100 -0.016760 
#    y -0.024100 1.692130 0.029960 
#    z -0.016760 0.029960 1.672710 
# 
# From -- ./inp_files/283223.got.cif
#   From: 2010.05.17/outbox.cif.g08.bks.cpg/sg2_142_cif.got.tgz:283223.got - 2010.06.03 11:33:40.
