data_PCOD9094170
_publ_section_title
;
Structure prediction by ZEFSAII (Michael W. Deem and Ramdas Pophale) SiO2 
 PCOD9094170
Probable space group: P -1
;
_chemical_formula_sum "Si O2"
_cell_formula_units_Z 16
_cell_length_a 29.374303
_cell_length_b 17.864604
_cell_length_c 6.535643
_cell_angle_alpha 106.973502
_cell_angle_beta 116.465458
_cell_angle_gamma 17.995658
_cell_volume 833.660417
_symmetry_space_group_name_H-M "P -1"
_symmetry_group_IT_number 2
_symmetry_cell_setting 'triclinic'
loop_
_space_group_symop_operation_xyz
x,y,z
-x,-y,-z
loop_
_atom_site_type_symbol
_atom_site_label
_atom_site_fract_x
_atom_site_fract_y
_atom_site_fract_z
Si Si1 0.204585 0.262915 0.954133
Si Si2 0.527060 0.241175 0.686635
Si Si3 0.047412 0.061040 0.673259
Si Si4 0.105567 0.855192 0.301473
Si Si5 0.465438 0.475191 0.051814
Si Si6 0.983067 0.326601 0.851288
Si Si7 0.003849 0.579723 0.426455
Si Si8 0.284154 0.942125 0.430345
O O1 0.056991 0.410332 0.799926
O O2 0.186192 0.303286 0.704143
O O3 0.152280 0.420762 0.085218
O O4 0.378109 0.971003 0.177637
O O5 0.319254 0.534734 0.455465
O O6 0.533873 0.301555 0.913038
O O7 0.626787 0.123185 0.587028
O O8 0.055241 0.014061 0.423067
O O9 0.256164 0.768645 0.907470
O O10 0.946121 0.291013 0.700455
O O11 0.961624 0.116894 0.670795
O O12 0.000000 0.000000 0.000000
O O13 0.500000 0.500000 0.000000
O O14 0.571681 0.317052 0.352025
O O15 0.996926 0.351111 0.684228
O O16 0.167629 0.061641 0.137617
O O17 0.853439 0.820561 0.488053
#
# Coordination Sequence:
#
# PCOD9094170 Si02
#       8
#     2   2   2   2   2   2   2   2
#     4  10  21  34  57  88 120 161 190 229 289 354
#     4  11  22  37  59  86 115 151 202 244 283 343
#     4  10  23  41  60  84 113 153 195 243 294 345
#     4  10  23  44  65  80 108 153 205 249 291 337
#     4  11  22  36  55  88 125 149 188 240 294 353
#     4  11  22  36  58  89 124 153 189 234 294 358
#     4  10  20  34  54  88 129 158 188 222 290 356
#     4  11  20  33  57  88 121 157 186 231 292 354
#
# _framework density 19.192467000000001
#
# number of rings (size 3 to 8) (size 9 to 14) (size 15 to 20)
#    0.000    1.500    2.500    2.625    3.500    6.000 
#    0.000    0.625    0.000    1.500    0.000    0.000 
#    0.000    0.000    0.000    0.000    0.000    0.000 
#
# Total GULP energy -89255.643128 kJ/mol
# GULP energy per Si atom -5578.477696 kJ/mol
# Density = 1.914878 g / cm^3
# Si number density = 19.192467 Si / 1000 Ang^3
#
#
#
# Elastic Constant Matrix: (Units=GPa)
#
#
# Indices 1 2 3 4 5 6 
#
# 1 52.6793 8.9653 34.5004 -0.5624 3.8213 22.7497
# 2 8.9653 59.7676 42.8728 5.5355 8.5045 26.2168
# 3 34.5004 42.8728 141.3447 -14.8670 -13.8557 20.3769
# 4 -0.5624 5.5355 -14.8670 24.7256 3.9624 6.8350
# 5 3.8213 8.5045 -13.8557 3.9624 30.6590 5.7905
# 6 22.7497 26.2168 20.3769 6.8350 5.7905 36.4947
#
#
#
# Elastic Compliance Matrix: (Units=1/GPa)
#
#
# Indices 1 2 3 4 5 6 
#
# 1 0.034159 0.013727 -0.009765 -0.000158 -0.007845 -0.024428
# 2 0.013727 0.037326 -0.013051 -0.007054 -0.012368 -0.024800
# 3 -0.009765 -0.013051 0.014702 0.008881 0.009564 0.004074
# 4 -0.000158 -0.007054 0.008881 0.049722 0.001323 -0.009315
# 5 -0.007845 -0.012368 0.009564 0.001323 0.040855 0.001704
# 6 -0.024428 -0.024800 0.004074 -0.009315 0.001704 0.059644
#
#
# Mechanical properties :
#
#
# Convention : Reuss Voigt Hill
#
# Bulk Modulus (GPa) = 14.70430 47.38540 31.04485
# Shear Modulus (GPa) = 18.03382 29.53941 23.78661
#
# Velocity S-wave (km/s) = 3.06866 3.92741 3.52429
# Velocity P-wave (km/s) = 4.49819 6.73122 5.72464
#
# Compressibility (1/GPa) = 0.06800731
#
# Stress axis : x y z
#
# Youngs Moduli (GPa) = 29.27503 26.79080 68.01940
#
# Poissons Ratio (x) = -0.36776 0.66424
# Poissons Ratio (y) = -0.40186 0.88775
# Poissons Ratio (z) = 0.28588 0.34966
#
# Static dielectric constant tensor:
#      x y z
#    x 1.649310 0.006620 -0.045910 
#    y 0.006620 1.753620 0.043480 
#    z -0.045910 0.043480 1.761990 
# 
# From -- ./inp_files/126885.got.cif
#   From: 2010.05.17/outbox.cif.g08.bks.cpg/sg2_64_cif.got.tgz:126885.got - 2010.06.03 11:33:40.
