data_PCOD9094956
_publ_section_title
;
Structure prediction by ZEFSAII (Michael W. Deem and Ramdas Pophale) SiO2 
 PCOD9094956
Probable space group: P -1
;
_chemical_formula_sum "Si O2"
_cell_formula_units_Z 13
_cell_length_a 8.830383
_cell_length_b 8.396931
_cell_length_c 15.725527
_cell_angle_alpha 145.653608
_cell_angle_beta 55.337387
_cell_angle_gamma 133.441627
_cell_volume 477.655396
_symmetry_space_group_name_H-M "P -1"
_symmetry_group_IT_number 2
_symmetry_cell_setting 'triclinic'
loop_
_space_group_symop_operation_xyz
x,y,z
-x,-y,-z
loop_
_atom_site_type_symbol
_atom_site_label
_atom_site_fract_x
_atom_site_fract_y
_atom_site_fract_z
Si Si1 0.024451 0.686857 0.725713
Si Si2 0.000000 0.500000 0.500000
Si Si3 0.364308 0.682564 0.137762
Si Si4 0.082423 0.798849 0.016162
Si Si5 0.203101 0.443491 0.707236
Si Si6 0.643416 0.052345 0.557106
Si Si7 0.815706 0.962594 0.722813
O O1 0.136733 0.833232 0.666556
O O2 0.869342 0.343644 0.578651
O O3 0.154118 0.618304 0.722774
O O4 0.893823 0.860609 0.873379
O O5 0.821603 0.636720 0.593476
O O6 0.375813 0.788349 0.278994
O O7 0.389507 0.004334 0.222842
O O8 0.500000 0.500000 0.000000
O O9 0.140505 0.429463 0.057225
O O10 0.104527 0.838187 0.127100
O O11 0.243064 0.683604 0.878826
O O12 0.979152 0.139373 0.671763
O O13 0.339402 0.267296 0.571005
O O14 0.500000 0.000000 0.500000
#
# Coordination Sequence:
#
# PCOD9094956 Si02
#       7
#     2   1   2   2   2   2   2
#     4  11  21  41  64  97 122 166 218 269 317 382
#     4  10  20  34  66  92 126 152 222 268 312 366
#     4  11  24  41  65  98 135 171 212 265 336 390
#     4  10  23  38  72  97 124 165 220 273 318 381
#     4  11  20  40  66  91 124 164 228 254 321 387
#     4  12  26  38  63  94 131 173 210 267 324 379
#     4  10  20  38  67  98 121 175 215 271 313 389
#
# _framework density 27.216273999999999
#
# number of rings (size 3 to 8) (size 9 to 14) (size 15 to 20)
#    0.000    1.231    4.615    3.692    4.308    0.000 
#    0.000    3.846    0.000    7.385    0.000    0.000 
#    0.000    0.000    0.000    0.000    0.000    0.000 
#
# Total GULP energy -72473.957114 kJ/mol
# GULP energy per Si atom -5574.919778 kJ/mol
# Density = 2.715433 g / cm^3
# Si number density = 27.216274 Si / 1000 Ang^3
#
#
#
# Elastic Constant Matrix: (Units=GPa)
#
#
# Indices 1 2 3 4 5 6 
#
# 1 160.4745 51.6022 87.9729 -10.8416 -12.1523 -31.9625
# 2 51.6022 72.5329 49.6584 -19.7171 -11.9012 -28.4811
# 3 87.9729 49.6584 257.7301 -10.3437 -48.1561 -32.7597
# 4 -10.8416 -19.7171 -10.3437 56.7192 -20.4694 2.2266
# 5 -12.1523 -11.9012 -48.1561 -20.4694 60.9900 11.2033
# 6 -31.9625 -28.4811 -32.7597 2.2266 11.2033 50.8656
#
#
#
# Elastic Compliance Matrix: (Units=1/GPa)
#
#
# Indices 1 2 3 4 5 6 
#
# 1 0.009243 -0.004689 -0.002326 -0.000951 -0.001611 0.002081
# 2 -0.004689 0.024149 -0.000762 0.008631 0.004471 0.008722
# 3 -0.002326 -0.000762 0.005843 0.001953 0.004511 0.000796
# 4 -0.000951 0.008631 0.001953 0.024679 0.010952 0.002000
# 5 -0.001611 0.004471 0.004511 0.010952 0.024455 -0.001470
# 6 0.002081 0.008722 0.000796 0.002000 -0.001470 0.026600
#
#
# Mechanical properties :
#
#
# Convention : Reuss Voigt Hill
#
# Bulk Modulus (GPa) = 42.22846 96.57827 69.40337
# Shear Modulus (GPa) = 36.12314 53.81522 44.96918
#
# Velocity S-wave (km/s) = 3.64711 4.45153 4.06925
# Velocity P-wave (km/s) = 5.76930 7.87299 6.90177
#
# Compressibility (1/GPa) = 0.02368071
#
# Stress axis : x y z
#
# Youngs Moduli (GPa) = 108.19418 41.41003 171.13901
#
# Poissons Ratio (x) = 0.19416 0.39810
# Poissons Ratio (y) = 0.50728 0.13043
# Poissons Ratio (z) = 0.25168 0.03156
#
# Static dielectric constant tensor:
#      x y z
#    x 2.196610 0.137440 -0.018340 
#    y 0.137440 2.453040 0.024490 
#    z -0.018340 0.024490 2.168580 
# 
# From -- ./inp_files/555776.got.cif
#   From: 2010.05.17/outbox.cif.g08.bks.cpg/sg2_278_cif.got.tgz:555776.got - 2010.06.03 11:33:40.
