data_PCOD9094634
_publ_section_title
;
Structure prediction by ZEFSAII (Michael W. Deem and Ramdas Pophale) SiO2 
 PCOD9094634
Probable space group: P -1
;
_chemical_formula_sum "Si O2"
_cell_formula_units_Z 14
_cell_length_a 9.451759
_cell_length_b 11.426612
_cell_length_c 7.044260
_cell_angle_alpha 103.401690
_cell_angle_beta 100.107300
_cell_angle_gamma 54.164812
_cell_volume 599.216942
_symmetry_space_group_name_H-M "P -1"
_symmetry_group_IT_number 2
_symmetry_cell_setting 'triclinic'
loop_
_space_group_symop_operation_xyz
x,y,z
-x,-y,-z
loop_
_atom_site_type_symbol
_atom_site_label
_atom_site_fract_x
_atom_site_fract_y
_atom_site_fract_z
Si Si1 0.101874 0.742127 0.514833
Si Si2 0.264310 0.006123 0.331735
Si Si3 0.934270 0.592439 0.321986
Si Si4 0.385875 0.706917 0.066611
Si Si5 0.613220 0.810595 0.562608
Si Si6 0.231573 0.553429 0.863530
Si Si7 0.546674 0.343753 0.384808
O O1 0.163019 0.646387 0.688324
O O2 0.260063 0.757390 0.512171
O O3 0.053050 0.652321 0.334718
O O4 0.926102 0.895640 0.585710
O O5 0.416207 0.931139 0.497723
O O6 0.304923 0.115186 0.278141
O O7 0.298839 0.873447 0.162874
O O8 0.744191 0.736126 0.387775
O O9 0.894660 0.498285 0.141695
O O10 0.000000 0.500000 0.500000
O O11 0.260636 0.651777 0.047233
O O12 0.430673 0.681604 0.844369
O O13 0.571387 0.593645 0.168582
O O14 0.594732 0.689708 0.608973
O O15 0.500000 0.500000 0.500000
#
# Coordination Sequence:
#
# PCOD9094634 Si02
#       7
#     2   2   2   2   2   2   2
#     4   9  20  35  59  87 114 150 192 239 283 339
#     4  10  21  37  62  86 110 159 195 229 282 350
#     4   9  15  31  58  82 106 146 195 231 267 332
#     4  10  20  34  59  86 114 151 194 239 286 336
#     4  10  20  36  58  86 117 151 192 233 287 352
#     4   9  17  31  55  85 108 148 193 236 267 332
#     4  11  23  37  58  88 119 151 189 243 298 332
#
# _framework density 23.363828000000002
#
# number of rings (size 3 to 8) (size 9 to 14) (size 15 to 20)
#    0.000    2.286    1.429    2.571    2.000    3.429 
#    0.000    0.000    3.143   13.714    0.000    0.000 
#    0.000    0.000    0.000    0.000    0.000    0.000 
#
# Total GULP energy -78080.038152 kJ/mol
# GULP energy per Si atom -5577.145582 kJ/mol
# Density = 2.331065 g / cm^3
# Si number density = 23.363828 Si / 1000 Ang^3
#
#
#
# Elastic Constant Matrix: (Units=GPa)
#
#
# Indices 1 2 3 4 5 6 
#
# 1 124.1615 23.2376 30.2838 16.4759 20.4436 16.3797
# 2 23.2376 82.2444 29.9280 28.1780 13.0542 -6.6191
# 3 30.2838 29.9280 93.9809 28.6563 26.9130 16.8421
# 4 16.4759 28.1780 28.6563 37.4286 13.3825 17.4031
# 5 20.4436 13.0542 26.9130 13.3825 39.3753 5.9265
# 6 16.3797 -6.6191 16.8421 17.4031 5.9265 41.5436
#
#
#
# Elastic Compliance Matrix: (Units=1/GPa)
#
#
# Indices 1 2 3 4 5 6 
#
# 1 0.009688 -0.002712 -0.001089 0.001688 -0.003352 -0.004039
# 2 -0.002712 0.021644 -0.002674 -0.019692 0.000683 0.013754
# 3 -0.001089 -0.002674 0.016268 -0.005971 -0.007176 -0.003067
# 4 0.001688 -0.019692 -0.005971 0.059564 -0.006691 -0.025380
# 5 -0.003352 0.000683 -0.007176 -0.006691 0.033739 0.002330
# 6 -0.004039 0.013754 -0.003067 -0.025380 0.002330 0.039398
#
#
# Mechanical properties :
#
#
# Convention : Reuss Voigt Hill
#
# Bulk Modulus (GPa) = 28.86086 51.92065 40.39075
# Shear Modulus (GPa) = 24.41379 38.13200 31.27290
#
# Velocity S-wave (km/s) = 3.23606 4.04430 3.66254
# Velocity P-wave (km/s) = 5.13248 6.63923 5.93388
#
# Compressibility (1/GPa) = 0.03464901
#
# Stress axis : x y z
#
# Youngs Moduli (GPa) = 103.21937 46.20274 61.46931
#
# Poissons Ratio (x) = 0.12532 0.06693
# Poissons Ratio (y) = 0.27996 0.16439
# Poissons Ratio (z) = 0.11239 0.12356
#
# Static dielectric constant tensor:
#      x y z
#    x 1.964620 0.042750 0.029820 
#    y 0.042750 1.965760 0.011810 
#    z 0.029820 0.011810 1.915390 
# 
# From -- ./inp_files/190219.got.cif
#   From: 2010.05.17/outbox.cif.g08.bks.cpg/sg2_96_cif.got.tgz:190219.got - 2010.06.03 11:33:40.
