data_PCOD9094129
_publ_section_title
;
Structure prediction by ZEFSAII (Michael W. Deem and Ramdas Pophale) SiO2 
 PCOD9094129
Probable space group: P -1
;
_chemical_formula_sum "Si O2"
_cell_formula_units_Z 16
_cell_length_a 7.977466
_cell_length_b 17.686307
_cell_length_c 20.434622
_cell_angle_alpha 160.557191
_cell_angle_beta 127.457151
_cell_angle_gamma 46.017726
_cell_volume 677.325859
_symmetry_space_group_name_H-M "P -1"
_symmetry_group_IT_number 2
_symmetry_cell_setting 'triclinic'
loop_
_space_group_symop_operation_xyz
x,y,z
-x,-y,-z
loop_
_atom_site_type_symbol
_atom_site_label
_atom_site_fract_x
_atom_site_fract_y
_atom_site_fract_z
Si Si1 0.066457 0.726121 0.760604
Si Si2 0.489981 0.246936 0.239744
Si Si3 0.703437 0.475893 0.936959
Si Si4 0.633646 0.121685 0.722537
Si Si5 0.039428 0.455748 0.664142
Si Si6 0.045726 0.143350 0.924392
Si Si7 0.624114 0.708074 0.594925
Si Si8 0.231826 0.237214 0.917339
O O1 0.311478 0.560189 0.644131
O O2 0.075244 0.536928 0.666366
O O3 0.852249 0.761154 0.690312
O O4 0.000000 0.000000 0.000000
O O5 0.241502 0.481940 0.345721
O O6 0.423966 0.286715 0.334796
O O7 0.500000 0.000000 0.000000
O O8 0.775250 0.126921 0.222510
O O9 0.599227 0.290792 0.787528
O O10 0.982658 0.318916 0.889408
O O11 0.598569 0.724660 0.162956
O O12 0.666233 0.580658 0.940010
O O13 0.755633 0.821534 0.495276
O O14 0.840269 0.135537 0.826734
O O15 0.061671 0.658068 0.881756
O O16 0.186696 0.240627 0.986934
O O17 0.407880 0.944997 0.705032
#
# Coordination Sequence:
#
# PCOD9094129 Si02
#       8
#     2   2   2   2   2   2   2   2
#     4  10  21  35  54  85 119 148 183 226 274 338
#     4   8  16  33  53  80 113 143 180 223 267 331
#     4   9  19  35  57  81 107 141 188 242 279 320
#     4  10  20  36  57  81 108 144 187 231 284 330
#     4  10  20  34  54  81 114 146 182 227 274 333
#     4   9  19  35  57  82 110 147 183 223 278 336
#     4   9  18  34  57  81 110 149 184 221 276 335
#     4   9  17  36  59  79 109 147 186 230 281 330
#
# _framework density 23.622309000000001
#
# number of rings (size 3 to 8) (size 9 to 14) (size 15 to 20)
#    0.000    2.750    0.000    0.750    0.000    4.500 
#    0.000   27.500    0.000    6.000    0.000    0.000 
#    0.000    0.000    0.000    0.000    0.000    0.000 
#
# Total GULP energy -89161.405707 kJ/mol
# GULP energy per Si atom -5572.587857 kJ/mol
# Density = 2.356854 g / cm^3
# Si number density = 23.622309 Si / 1000 Ang^3
#
#
#
# Elastic Constant Matrix: (Units=GPa)
#
#
# Indices 1 2 3 4 5 6 
#
# 1 48.0858 31.1787 29.7168 16.7961 -14.7337 12.2739
# 2 31.1787 75.1627 38.7348 20.6175 -5.4951 8.6865
# 3 29.7168 38.7348 141.0311 20.8267 -40.3602 -1.9586
# 4 16.7961 20.6175 20.8267 48.8466 -4.8576 -3.6840
# 5 -14.7337 -5.4951 -40.3602 -4.8576 33.5417 8.4668
# 6 12.2739 8.6865 -1.9586 -3.6840 8.4668 42.8419
#
#
#
# Elastic Compliance Matrix: (Units=1/GPa)
#
#
# Indices 1 2 3 4 5 6 
#
# 1 0.040168 -0.012154 0.001589 -0.008419 0.019781 -0.013604
# 2 -0.012154 0.021333 -0.005315 -0.003409 -0.008826 0.000365
# 3 0.001589 -0.005315 0.013040 -0.002460 0.015691 -0.002094
# 4 -0.008419 -0.003409 -0.002460 0.025822 -0.005045 0.006208
# 5 0.019781 -0.008826 0.015691 -0.005045 0.059060 -0.015266
# 6 -0.013604 0.000365 -0.002094 0.006208 -0.015266 0.030620
#
#
# Mechanical properties :
#
#
# Convention : Reuss Voigt Hill
#
# Bulk Modulus (GPa) = 23.37449 51.50446 37.43948
# Shear Modulus (GPa) = 21.18066 36.02266 28.60166
#
# Velocity S-wave (km/s) = 2.99764 3.90929 3.48342
# Velocity P-wave (km/s) = 4.67950 6.49826 5.66238
#
# Compressibility (1/GPa) = 0.04278168
#
# Stress axis : x y z
#
# Youngs Moduli (GPa) = 24.89516 46.87541 76.68551
#
# Poissons Ratio (x) = 0.56972 -0.12187
# Poissons Ratio (y) = 0.30257 0.40762
# Poissons Ratio (z) = -0.03956 0.24916
#
# Static dielectric constant tensor:
#      x y z
#    x 2.216160 0.043560 0.116570 
#    y 0.043560 1.880970 0.035490 
#    z 0.116570 0.035490 1.955210 
# 
# From -- ./inp_files/591085.got.cif
#   From: 2010.05.17/outbox.cif.g08.bks.cpg/sg2_296_cif.got.tgz:591085.got - 2010.06.03 11:33:40.
