data_PCOD9094227
_publ_section_title
;
Structure prediction by ZEFSAII (Michael W. Deem and Ramdas Pophale) SiO2 
 PCOD9094227
Probable space group: P -1
;
_chemical_formula_sum "Si O2"
_cell_formula_units_Z 16
_cell_length_a 7.710608
_cell_length_b 7.392256
_cell_length_c 17.071991
_cell_angle_alpha 45.117302
_cell_angle_beta 62.228766
_cell_angle_gamma 82.300006
_cell_volume 579.863286
_symmetry_space_group_name_H-M "P -1"
_symmetry_group_IT_number 2
_symmetry_cell_setting 'triclinic'
loop_
_space_group_symop_operation_xyz
x,y,z
-x,-y,-z
loop_
_atom_site_type_symbol
_atom_site_label
_atom_site_fract_x
_atom_site_fract_y
_atom_site_fract_z
Si Si1 0.617615 0.130853 0.745123
Si Si2 0.826129 0.202094 0.113921
Si Si3 0.413662 0.499787 0.768319
Si Si4 0.319357 0.037201 0.623599
Si Si5 0.666297 0.874983 0.965305
Si Si6 0.749332 0.210884 0.532098
Si Si7 0.948397 0.281762 0.887244
Si Si8 0.968037 0.792056 0.655685
O O1 0.560641 0.356360 0.739843
O O2 0.425676 0.928687 0.800706
O O3 0.678272 0.932743 0.853763
O O4 0.763145 0.287876 0.596886
O O5 0.829211 0.047901 0.243074
O O6 0.861874 0.172262 0.022863
O O7 0.000000 0.500000 0.000000
O O8 0.429642 0.805175 0.658802
O O9 0.191140 0.374724 0.813805
O O10 0.383632 0.410167 0.893711
O O11 0.539350 0.258965 0.527850
O O12 0.160644 0.006710 0.594363
O O13 0.873349 0.064307 0.902263
O O14 0.500000 0.000000 0.000000
O O15 0.802386 0.924125 0.618352
O O16 0.932685 0.340736 0.393664
O O17 0.873912 0.540175 0.808544
#
# Coordination Sequence:
#
# PCOD9094227 Si02
#       8
#     2   2   2   2   2   2   2   2
#     4  10  23  38  58  88 122 157 195 245 293 357
#     4  11  19  35  56  90 124 150 193 240 291 355
#     4  10  20  36  59  88 121 160 186 237 305 355
#     4  10  22  37  65  90 118 158 195 253 295 353
#     4  10  20  34  55  85 125 156 186 231 301 359
#     4  10  23  42  62  85 116 156 209 253 289 346
#     4  11  21  36  60  90 119 157 197 240 294 363
#     4  10  22  41  64  83 116 159 203 249 301 343
#
# _framework density 27.592711999999999
#
# number of rings (size 3 to 8) (size 9 to 14) (size 15 to 20)
#    0.000    1.750    5.000    0.750    3.500    2.000 
#    2.250    5.625    0.000    0.000    0.000    0.000 
#    0.000    0.000    0.000    0.000    0.000    0.000 
#
# Total GULP energy -89213.495556 kJ/mol
# GULP energy per Si atom -5575.843472 kJ/mol
# Density = 2.752991 g / cm^3
# Si number density = 27.592712 Si / 1000 Ang^3
#
#
#
# Elastic Constant Matrix: (Units=GPa)
#
#
# Indices 1 2 3 4 5 6 
#
# 1 114.7783 -1.6129 32.6083 4.5722 8.0277 8.2843
# 2 -1.6129 85.7862 18.3445 14.0134 0.1596 -4.4308
# 3 32.6083 18.3445 66.4732 39.3138 9.3641 2.5943
# 4 4.5722 14.0134 39.3138 56.9529 -2.6513 8.6099
# 5 8.0277 0.1596 9.3641 -2.6513 41.9155 13.5808
# 6 8.2843 -4.4308 2.5943 8.6099 13.5808 33.6762
#
#
#
# Elastic Compliance Matrix: (Units=1/GPa)
#
#
# Indices 1 2 3 4 5 6 
#
# 1 0.011392 0.001040 -0.009602 0.006171 0.001708 -0.004193
# 2 0.001040 0.012699 -0.003325 -0.001242 -0.000262 0.002094
# 3 -0.009602 -0.003325 0.037538 -0.026446 -0.011600 0.010472
# 4 0.006171 -0.001242 -0.026446 0.038314 0.011748 -0.014177
# 5 0.001708 -0.000262 -0.011600 0.011748 0.031860 -0.015413
# 6 -0.004193 0.002094 0.010472 -0.014177 -0.015413 0.040035
#
#
# Mechanical properties :
#
#
# Convention : Reuss Voigt Hill
#
# Bulk Modulus (GPa) = 26.41736 40.63526 33.52631
# Shear Modulus (GPa) = 24.01176 41.02210 32.51693
#
# Velocity S-wave (km/s) = 2.95315 3.85996 3.43660
# Velocity P-wave (km/s) = 4.60684 5.88426 5.28429
#
# Compressibility (1/GPa) = 0.03785390
#
# Stress axis : x y z
#
# Youngs Moduli (GPa) = 87.77835 78.74668 26.63977
#
# Poissons Ratio (x) = -0.08188 0.25580
# Poissons Ratio (y) = -0.09127 0.08858
# Poissons Ratio (z) = 0.84286 0.26184
#
# Static dielectric constant tensor:
#      x y z
#    x 2.525880 -0.172630 -0.133770 
#    y -0.172630 2.546600 -0.129710 
#    z -0.133770 -0.129710 2.271680 
# 
# From -- ./inp_files/492016.got.cif
#   From: 2010.05.17/outbox.cif.g08.bks.cpg/sg2_247_cif.got.tgz:492016.got - 2010.06.03 11:33:40.
