data_PCOD9094449
_publ_section_title
;
Structure prediction by ZEFSAII (Michael W. Deem and Ramdas Pophale) SiO2 
 PCOD9094449
Probable space group: P -1
;
_chemical_formula_sum "Si O2"
_cell_formula_units_Z 16
_cell_length_a 11.502299
_cell_length_b 22.800938
_cell_length_c 21.509645
_cell_angle_alpha 19.243083
_cell_angle_beta 28.477358
_cell_angle_gamma 22.557130
_cell_volume 712.071835
_symmetry_space_group_name_H-M "P -1"
_symmetry_group_IT_number 2
_symmetry_cell_setting 'triclinic'
loop_
_space_group_symop_operation_xyz
x,y,z
-x,-y,-z
loop_
_atom_site_type_symbol
_atom_site_label
_atom_site_fract_x
_atom_site_fract_y
_atom_site_fract_z
Si Si1 0.159416 0.093376 0.545047
Si Si2 0.398152 0.898641 0.505895
Si Si3 0.163075 0.616532 0.883647
Si Si4 0.650046 0.548405 0.550251
Si Si5 0.731496 0.864063 0.265783
Si Si6 0.034055 0.543949 0.633463
Si Si7 0.575534 0.673859 0.057624
Si Si8 0.855043 0.319094 0.028011
O O1 0.185716 0.096356 0.455466
O O2 0.500000 0.000000 0.500000
O O3 0.951339 0.311895 0.464618
O O4 0.087082 0.917037 0.766571
O O5 0.231592 0.795068 0.663703
O O6 0.525948 0.953694 0.334304
O O7 0.699720 0.701735 0.599325
O O8 0.864082 0.672027 0.936850
O O9 0.426952 0.397611 0.940805
O O10 0.118207 0.619360 0.975866
O O11 0.603749 0.768711 0.375404
O O12 0.942217 0.345643 0.654513
O O13 0.730510 0.525143 0.463308
O O14 0.406913 0.508880 0.724814
O O15 0.699331 0.076715 0.042953
O O16 0.042073 0.352908 0.856660
O O17 0.500000 0.500000 0.000000
#
# Coordination Sequence:
#
# PCOD9094449 Si02
#       8
#     2   2   2   2   2   2   2   2
#     4   9  17  29  50  85 116 138 181 237 292 343
#     4   9  17  35  54  88 119 139 192 253 284 347
#     4  10  22  38  58  90 123 149 200 244 291 358
#     4  10  22  40  57  87 119 150 205 244 277 364
#     4  10  21  36  63  83 114 159 197 243 297 332
#     4  10  20  34  57  86 116 148 186 246 297 335
#     4  11  23  40  58  85 123 162 191 240 297 354
#     4  11  19  33  59  85 116 149 189 247 294 333
#
# _framework density 22.469643000000001
#
# number of rings (size 3 to 8) (size 9 to 14) (size 15 to 20)
#    0.000    2.000    5.000    0.375    1.750    2.500 
#    0.000    0.625    0.000    3.750    0.000    0.000 
#    0.000    0.000    0.000    0.000    0.000    0.000 
#
# Total GULP energy -89313.419862 kJ/mol
# GULP energy per Si atom -5582.088741 kJ/mol
# Density = 2.241850 g / cm^3
# Si number density = 22.469643 Si / 1000 Ang^3
#
#
#
# Elastic Constant Matrix: (Units=GPa)
#
#
# Indices 1 2 3 4 5 6 
#
# 1 63.8336 17.0466 28.7593 -12.6912 -15.0040 12.9233
# 2 17.0466 49.6328 34.0479 -16.5993 -6.7314 26.0900
# 3 28.7593 34.0479 94.7730 -8.5553 -17.9550 19.2228
# 4 -12.6912 -16.5993 -8.5553 25.7155 11.0407 -6.7490
# 5 -15.0040 -6.7314 -17.9550 11.0407 32.2716 -4.9889
# 6 12.9233 26.0900 19.2228 -6.7490 -4.9889 32.8996
#
#
#
# Elastic Compliance Matrix: (Units=1/GPa)
#
#
# Indices 1 2 3 4 5 6 
#
# 1 0.020520 0.000729 -0.004207 0.006110 0.004608 -0.004229
# 2 0.000729 0.051101 -0.011896 0.025345 -0.008932 -0.030015
# 3 -0.004207 -0.011896 0.016659 -0.007136 0.007430 0.001015
# 4 0.006110 0.025345 -0.007136 0.061471 -0.018184 -0.008477
# 5 0.004608 -0.008932 0.007430 -0.018184 0.042177 0.003597
# 6 -0.004229 -0.030015 0.001015 -0.008477 0.003597 0.054072
#
#
# Mechanical properties :
#
#
# Convention : Reuss Voigt Hill
#
# Bulk Modulus (GPa) = 17.38104 40.88302 29.13203
# Shear Modulus (GPa) = 16.89618 26.73639 21.81628
#
# Velocity S-wave (km/s) = 2.74516 3.45322 3.11934
# Velocity P-wave (km/s) = 4.21900 5.84242 5.09578
#
# Compressibility (1/GPa) = 0.05753395
#
# Stress axis : x y z
#
# Youngs Moduli (GPa) = 48.73230 19.56920 60.02647
#
# Poissons Ratio (x) = -0.01428 0.25252
# Poissons Ratio (y) = -0.03555 0.71407
# Poissons Ratio (z) = 0.20500 0.23279
#
# Static dielectric constant tensor:
#      x y z
#    x 1.851500 -0.032080 0.003140 
#    y -0.032080 1.901540 0.006130 
#    z 0.003140 0.006130 1.838400 
# 
# From -- ./inp_files/531720.got.cif
#   From: 2010.05.17/outbox.cif.g08.bks.cpg/sg2_266_cif.got.tgz:531720.got - 2010.06.03 11:33:40.
