data_PCOD9094466
_publ_section_title
;
Structure prediction by ZEFSAII (Michael W. Deem and Ramdas Pophale) SiO2 
 PCOD9094466
Probable space group: P -1
;
_chemical_formula_sum "Si O2"
_cell_formula_units_Z 14
_cell_length_a 25.376822
_cell_length_b 5.204635
_cell_length_c 5.513505
_cell_angle_alpha 102.427068
_cell_angle_beta 78.656437
_cell_angle_gamma 130.706764
_cell_volume 537.526101
_symmetry_space_group_name_H-M "P -1"
_symmetry_group_IT_number 2
_symmetry_cell_setting 'triclinic'
loop_
_space_group_symop_operation_xyz
x,y,z
-x,-y,-z
loop_
_atom_site_type_symbol
_atom_site_label
_atom_site_fract_x
_atom_site_fract_y
_atom_site_fract_z
Si Si1 0.049108 0.411102 0.007871
Si Si2 0.536109 0.783092 0.811717
Si Si3 0.333831 0.722232 0.460755
Si Si4 0.406199 0.617235 0.765422
Si Si5 0.920215 0.661950 0.533285
Si Si6 0.276998 0.110298 0.048210
Si Si7 0.207770 0.418016 0.231973
O O1 0.097486 0.513287 0.749398
O O2 0.082730 0.537673 0.270427
O O3 0.000000 0.500000 0.000000
O O4 0.000000 0.000000 0.000000
O O5 0.476077 0.674157 0.648294
O O6 0.610934 0.927705 0.668359
O O7 0.500000 0.500000 0.000000
O O8 0.564943 0.142585 0.976234
O O9 0.376226 0.761742 0.663070
O O10 0.316682 0.379415 0.288526
O O11 0.256541 0.594397 0.464724
O O12 0.338030 0.241445 0.828012
O O13 0.869726 0.743923 0.662223
O O14 0.000000 0.000000 0.500000
O O15 0.224999 0.190508 0.048984
O O16 0.236870 0.730171 0.089223
#
# Coordination Sequence:
#
# PCOD9094466 Si02
#       7
#     2   2   2   2   2   2   2
#     4  10  22  41  66  98 132 170 212 271 332 393
#     4  10  20  34  57  87 121 158 207 257 316 372
#     4   9  21  38  57  87 123 160 211 254 315 379
#     4  10  20  36  59  85 120 163 204 262 310 376
#     4  10  23  44  70 100 137 175 225 279 336 398
#     4   9  22  41  57  87 124 159 209 253 315 380
#     4  10  22  42  62  90 124 165 209 260 319 387
#
# _framework density 26.045248000000001
#
# number of rings (size 3 to 8) (size 9 to 14) (size 15 to 20)
#    0.857    1.429    0.000    1.714    0.000    7.429 
#    2.571    0.000    0.000    0.000    0.000    0.000 
#    0.000    0.000    0.000    0.000    0.000    0.000 
#
# Total GULP energy -78082.787307 kJ/mol
# GULP energy per Si atom -5577.341950 kJ/mol
# Density = 2.598597 g / cm^3
# Si number density = 26.045248 Si / 1000 Ang^3
#
#
#
# Elastic Constant Matrix: (Units=GPa)
#
#
# Indices 1 2 3 4 5 6 
#
# 1 221.1071 48.3334 47.2137 -32.7938 2.7546 12.7820
# 2 48.3334 106.5719 17.9096 -18.2908 6.3185 -0.4148
# 3 47.2137 17.9096 106.0646 -16.8576 8.5109 4.4307
# 4 -32.7938 -18.2908 -16.8576 34.5838 -0.8793 2.0428
# 5 2.7546 6.3185 8.5109 -0.8793 39.7017 -9.0097
# 6 12.7820 -0.4148 4.4307 2.0428 -9.0097 51.1902
#
#
#
# Elastic Compliance Matrix: (Units=1/GPa)
#
#
# Indices 1 2 3 4 5 6 
#
# 1 0.005934 -0.001732 -0.001647 0.003997 -0.000039 -0.001520
# 2 -0.001732 0.010992 -0.000347 0.003957 -0.001435 0.000141
# 3 -0.001647 -0.000347 0.011035 0.003639 -0.002367 -0.001108
# 4 0.003997 0.003957 0.003639 0.036710 -0.001559 -0.003020
# 5 -0.000039 -0.001435 -0.002367 -0.001559 0.027032 0.005023
# 6 -0.001520 0.000141 -0.001108 -0.003020 0.005023 0.021016
#
#
# Mechanical properties :
#
#
# Convention : Reuss Voigt Hill
#
# Bulk Modulus (GPa) = 48.76036 73.40632 61.08334
# Shear Modulus (GPa) = 39.36779 46.44763 42.90771
#
# Velocity S-wave (km/s) = 3.89204 4.22755 4.06326
# Velocity P-wave (km/s) = 6.24174 7.21629 6.74664
#
# Compressibility (1/GPa) = 0.02050846
#
# Stress axis : x y z
#
# Youngs Moduli (GPa) = 168.51499 90.97543 90.62439
#
# Poissons Ratio (x) = 0.15758 0.14928
# Poissons Ratio (y) = 0.29189 0.03143
# Poissons Ratio (z) = 0.27758 0.03155
#
# Static dielectric constant tensor:
#      x y z
#    x 2.069990 -0.168730 -0.147370 
#    y -0.168730 1.718990 -0.087350 
#    z -0.147370 -0.087350 2.113470 
# 
# From -- ./inp_files/125552.got.cif
#   From: 2010.05.17/outbox.cif.g08.bks.cpg/sg2_63_cif.got.tgz:125552.got - 2010.06.03 11:33:40.
