data_PCOD9094291
_publ_section_title
;
Structure prediction by ZEFSAII (Michael W. Deem and Ramdas Pophale) SiO2 
 PCOD9094291
Probable space group: P -1
;
_chemical_formula_sum "Si O2"
_cell_formula_units_Z 16
_cell_length_a 10.034628
_cell_length_b 10.812280
_cell_length_c 20.869532
_cell_angle_alpha 147.000976
_cell_angle_beta 44.351427
_cell_angle_gamma 110.688766
_cell_volume 657.142761
_symmetry_space_group_name_H-M "P -1"
_symmetry_group_IT_number 2
_symmetry_cell_setting 'triclinic'
loop_
_space_group_symop_operation_xyz
x,y,z
-x,-y,-z
loop_
_atom_site_type_symbol
_atom_site_label
_atom_site_fract_x
_atom_site_fract_y
_atom_site_fract_z
Si Si1 0.903417 0.799512 0.125383
Si Si2 0.619644 0.191506 0.499943
Si Si3 0.097402 0.144963 0.200035
Si Si4 0.080117 0.392864 0.783023
Si Si5 0.728508 0.384967 0.650564
Si Si6 0.529095 0.927238 0.048532
Si Si7 0.271274 0.177104 0.377284
Si Si8 0.186516 0.053906 0.483375
O O1 0.075428 0.893473 0.109450
O O2 0.891063 0.711064 0.019467
O O3 0.659015 0.092435 0.369924
O O4 0.000000 0.500000 0.000000
O O5 0.348541 0.306656 0.658980
O O6 0.635302 0.427942 0.628264
O O7 0.863645 0.877594 0.311785
O O8 0.835845 0.482821 0.434942
O O9 0.259697 0.147525 0.200580
O O10 0.258359 0.063929 0.045242
O O11 0.037129 0.352795 0.707196
O O12 0.020481 0.218340 0.469630
O O13 0.653119 0.201237 0.629346
O O14 0.629449 0.627788 0.845459
O O15 0.464392 0.982700 0.169444
O O16 0.333711 0.043840 0.369428
O O17 0.000000 0.000000 0.500000
#
# Coordination Sequence:
#
# PCOD9094291 Si02
#       8
#     2   2   2   2   2   2   2   2
#     4  10  20  34  56  81 106 142 183 229 284 332
#     4   9  17  31  53  81 111 137 174 231 282 323
#     4  10  21  35  53  83 115 144 185 235 282 330
#     4   9  18  33  52  79 110 139 179 228 277 324
#     4   9  18  33  55  85 114 144 185 234 278 320
#     4  10  20  34  57  85 114 149 187 229 280 334
#     4  10  20  35  54  79 115 154 185 220 277 338
#     4   9  19  37  57  80 116 151 184 232 276 325
#
# _framework density 24.347828
#
# number of rings (size 3 to 8) (size 9 to 14) (size 15 to 20)
#    0.000    2.500    0.000    1.875    0.000    5.500 
#    0.000    4.375    0.000    1.500    0.000    0.000 
#    0.000    0.000    0.000    0.000    0.000    0.000 
#
# Total GULP energy -89092.911802 kJ/mol
# GULP energy per Si atom -5568.306988 kJ/mol
# Density = 2.429241 g / cm^3
# Si number density = 24.347828 Si / 1000 Ang^3
#
#
#
# Elastic Constant Matrix: (Units=GPa)
#
#
# Indices 1 2 3 4 5 6 
#
# 1 76.3149 20.5510 42.9593 -7.2971 31.1004 16.6283
# 2 20.5510 121.9336 63.9646 -12.0535 16.7947 14.8688
# 3 42.9593 63.9646 197.6739 -24.9033 42.9059 6.2242
# 4 -7.2971 -12.0535 -24.9033 37.7365 -5.4791 13.1095
# 5 31.1004 16.7947 42.9059 -5.4791 43.8326 -1.2218
# 6 16.6283 14.8688 6.2242 13.1095 -1.2218 25.1452
#
#
#
# Elastic Compliance Matrix: (Units=1/GPa)
#
#
# Indices 1 2 3 4 5 6 
#
# 1 0.027744 0.002761 -0.000141 0.012879 -0.019765 -0.027620
# 2 0.002761 0.011472 -0.002431 0.006011 -0.003540 -0.011314
# 3 -0.000141 -0.002431 0.007902 0.004594 -0.006217 -0.003123
# 4 0.012879 0.006011 0.004594 0.045278 -0.011319 -0.037364
# 5 -0.019765 -0.003540 -0.006217 -0.011319 0.043554 0.024720
# 6 -0.027620 -0.011314 -0.003123 -0.037364 0.024720 0.086178
#
#
# Mechanical properties :
#
#
# Convention : Reuss Voigt Hill
#
# Bulk Modulus (GPa) = 21.05332 72.31913 46.68623
# Shear Modulus (GPa) = 21.04550 39.23935 30.14242
#
# Velocity S-wave (km/s) = 2.94320 4.01885 3.52233
# Velocity P-wave (km/s) = 4.49618 7.16253 5.97986
#
# Compressibility (1/GPa) = 0.04749844
#
# Stress axis : x y z
#
# Youngs Moduli (GPa) = 36.04447 87.16741 126.54419
#
# Poissons Ratio (x) = -0.24069 0.01778
# Poissons Ratio (y) = -0.09953 0.30757
# Poissons Ratio (z) = 0.00507 0.21186
#
# Static dielectric constant tensor:
#      x y z
#    x 2.034430 -0.100980 0.000050 
#    y -0.100980 2.103370 0.062510 
#    z 0.000050 0.062510 2.053310 
# 
# From -- ./inp_files/472707.got.cif
#   From: 2010.05.17/outbox.cif.g08.bks.cpg/sg2_237_cif.got.tgz:472707.got - 2010.06.03 11:33:40.
