data_PCOD9094331
_publ_section_title
;
Structure prediction by ZEFSAII (Michael W. Deem and Ramdas Pophale) SiO2 
 PCOD9094331
Probable space group: P -1
;
_chemical_formula_sum "Si O2"
_cell_formula_units_Z 16
_cell_length_a 5.087219
_cell_length_b 9.890955
_cell_length_c 16.028155
_cell_angle_alpha 104.701336
_cell_angle_beta 103.450216
_cell_angle_gamma 79.075039
_cell_volume 751.361848
_symmetry_space_group_name_H-M "P -1"
_symmetry_group_IT_number 2
_symmetry_cell_setting 'triclinic'
loop_
_space_group_symop_operation_xyz
x,y,z
-x,-y,-z
loop_
_atom_site_type_symbol
_atom_site_label
_atom_site_fract_x
_atom_site_fract_y
_atom_site_fract_z
Si Si1 0.863950 0.396356 0.532197
Si Si2 0.490015 0.917893 0.661356
Si Si3 0.550588 0.614502 0.642635
Si Si4 0.525503 0.792525 0.195730
Si Si5 0.950044 0.718245 0.079679
Si Si6 0.682915 0.482212 0.225570
Si Si7 0.083826 0.103486 0.452724
Si Si8 0.106459 0.410267 0.111598
O O1 0.777009 0.478245 0.623369
O O2 0.596215 0.366078 0.456156
O O3 0.064424 0.251562 0.523102
O O4 0.000000 0.500000 0.500000
O O5 0.630443 0.769446 0.688548
O O6 0.170815 0.897150 0.629831
O O7 0.639858 0.928207 0.584511
O O8 0.508294 0.063179 0.732581
O O9 0.350162 0.568490 0.690476
O O10 0.718617 0.804536 0.132201
O O11 0.648986 0.652831 0.237019
O O12 0.236893 0.761658 0.134366
O O13 0.951092 0.556167 0.084339
O O14 0.911115 0.711491 0.976437
O O15 0.947021 0.404494 0.185504
O O16 0.416398 0.433703 0.153554
O O17 0.000000 0.000000 0.500000
#
# Coordination Sequence:
#
# PCOD9094331 Si02
#       8
#     2   2   2   2   2   2   2   2
#     4  10  21  40  59  79 108 154 194 224 283 334
#     4  11  23  40  56  82 116 149 187 224 287 340
#     4  10  23  38  57  81 114 150 189 233 276 335
#     4  10  20  34  56  85 110 146 185 227 279 327
#     4   9  17  34  56  81 115 146 178 226 280 337
#     4  10  21  33  56  87 109 142 187 236 272 317
#     4  11  24  39  59  83 111 148 187 239 282 325
#     4   9  18  33  55  85 113 141 183 229 280 325
#
# _framework density 21.294664999999998
#
# number of rings (size 3 to 8) (size 9 to 14) (size 15 to 20)
#    0.000    2.000    1.250    1.875    3.500    4.000 
#    0.000    0.000    0.000    4.500    0.000    0.000 
#    0.000    0.000    0.000    0.000    0.000    0.000 
#
# Total GULP energy -89266.299281 kJ/mol
# GULP energy per Si atom -5579.143705 kJ/mol
# Density = 2.124620 g / cm^3
# Si number density = 21.294665 Si / 1000 Ang^3
#
#
#
# Elastic Constant Matrix: (Units=GPa)
#
#
# Indices 1 2 3 4 5 6 
#
# 1 111.4420 98.6298 101.1169 50.2437 -119.9239 60.7596
# 2 98.6298 306.6907 232.3278 129.5886 -254.2460 139.3809
# 3 101.1169 232.3278 268.7943 106.9826 -237.7177 111.8266
# 4 50.2437 129.5886 106.9826 81.0100 -125.7787 62.0665
# 5 -119.9239 -254.2460 -237.7177 -125.7787 310.4869 -155.1972
# 6 60.7596 139.3809 111.8266 62.0665 -155.1972 104.9161
#
#
#
# Elastic Compliance Matrix: (Units=1/GPa)
#
#
# Indices 1 2 3 4 5 6 
#
# 1 0.015723 0.001359 -0.002249 -0.001318 0.004083 -0.001695
# 2 0.001359 0.017771 -0.007012 -0.013580 -0.000904 -0.010226
# 3 -0.002249 -0.007012 0.015248 0.001100 0.009086 0.007155
# 4 -0.001318 -0.013580 0.001100 0.045175 0.011391 0.007757
# 5 0.004083 -0.000904 0.009086 0.011391 0.026239 0.021228
# 6 -0.001695 -0.010226 0.007155 0.007757 0.021228 0.043285
#
#
# Mechanical properties :
#
#
# Convention : Reuss Voigt Hill
#
# Bulk Modulus (GPa) = 30.35981 172.34176 101.35079
# Shear Modulus (GPa) = 26.28509 116.27277 71.27893
#
# Velocity S-wave (km/s) = 3.51714 7.39732 5.79183
# Velocity P-wave (km/s) = 5.54813 12.41242 9.61379
#
# Compressibility (1/GPa) = 0.03293828
#
# Stress axis : x y z
#
# Youngs Moduli (GPa) = 63.60167 56.27123 65.58400
#
# Poissons Ratio (x) = -0.07648 0.14750
# Poissons Ratio (y) = -0.08644 0.45986
# Poissons Ratio (z) = 0.14304 0.39456
#
# Static dielectric constant tensor:
#      x y z
#    x 1.830700 -0.063160 0.049420 
#    y -0.063160 1.812390 -0.019070 
#    z 0.049420 -0.019070 1.830680 
# 
# From -- ./inp_files/47805.got.cif
#   From: 2010.05.17/outbox.cif.g08.bks.cpg/sg2_24_cif.got.tgz:47805.got - 2010.06.03 11:33:40.
