data_PCOD9094749
_publ_section_title
;
Structure prediction by ZEFSAII (Michael W. Deem and Ramdas Pophale) SiO2 
 PCOD9094749
Probable space group: P -1
;
_chemical_formula_sum "Si O2"
_cell_formula_units_Z 12
_cell_length_a 10.239750
_cell_length_b 12.631511
_cell_length_c 10.307063
_cell_angle_alpha 97.830572
_cell_angle_beta 60.996973
_cell_angle_gamma 144.986884
_cell_volume 571.492233
_symmetry_space_group_name_H-M "P -1"
_symmetry_group_IT_number 2
_symmetry_cell_setting 'triclinic'
loop_
_space_group_symop_operation_xyz
x,y,z
-x,-y,-z
loop_
_atom_site_type_symbol
_atom_site_label
_atom_site_fract_x
_atom_site_fract_y
_atom_site_fract_z
Si Si1 0.329275 0.034483 0.497418
Si Si2 0.574325 0.272008 0.147719
Si Si3 0.887173 0.866463 0.336429
Si Si4 0.767865 0.233677 0.849069
Si Si5 0.336019 0.469068 0.714087
Si Si6 0.769732 0.258949 0.561265
O O1 0.140406 0.809355 0.520386
O O2 0.522590 0.184880 0.299804
O O3 0.152060 0.031069 0.622234
O O4 0.543864 0.144421 0.534362
O O5 0.670615 0.454735 0.150150
O O6 0.789753 0.346981 0.955143
O O7 0.235468 0.058325 0.219111
O O8 0.668191 0.688846 0.528872
O O9 0.757281 0.712142 0.256947
O O10 0.655125 0.187073 0.751787
O O11 0.083255 0.365274 0.722553
O O12 0.500000 0.000000 0.000000
O O13 0.000000 0.500000 0.500000
#
# Coordination Sequence:
#
# PCOD9094749 Si02
#       6
#     2   2   2   2   2   2
#     4  10  21  37  60  86 117 158 199 242 297 352
#     4  11  21  38  64  93 120 155 203 254 295 348
#     4  10  20  36  60  92 121 153 203 250 293 354
#     4  12  22  40  63  91 124 156 200 252 298 350
#     4  10  20  34  60  92 119 154 201 247 296 349
#     4  11  23  39  59  87 123 159 198 242 300 360
#
# _framework density 20.997661000000001
#
# number of rings (size 3 to 8) (size 9 to 14) (size 15 to 20)
#    0.000    1.333    3.333    4.500    0.000    4.000 
#    0.000    0.833    0.000    2.000    0.000    0.000 
#    0.000    0.000    0.000    0.000    0.000    0.000 
#
# Total GULP energy -66902.360583 kJ/mol
# GULP energy per Si atom -5575.196715 kJ/mol
# Density = 2.094987 g / cm^3
# Si number density = 20.997661 Si / 1000 Ang^3
#
#
#
# Elastic Constant Matrix: (Units=GPa)
#
#
# Indices 1 2 3 4 5 6 
#
# 1 75.2697 37.1301 39.6997 2.9230 -13.0242 -22.2468
# 2 37.1301 154.8040 26.5564 20.5572 -4.6490 -42.2367
# 3 39.6997 26.5564 58.1303 14.8408 -5.3586 -15.2979
# 4 2.9230 20.5572 14.8408 40.1401 -3.0984 -14.2117
# 5 -13.0242 -4.6490 -5.3586 -3.0984 37.5242 5.3241
# 6 -22.2468 -42.2367 -15.2979 -14.2117 5.3241 41.1276
#
#
#
# Elastic Compliance Matrix: (Units=1/GPa)
#
#
# Indices 1 2 3 4 5 6 
#
# 1 0.026032 -0.002251 -0.016302 0.008538 0.006016 0.007877
# 2 -0.002251 0.009399 -0.000319 -0.001842 -0.000921 0.007799
# 3 -0.016302 -0.000319 0.030696 -0.010548 -0.002028 -0.001110
# 4 0.008538 -0.001842 -0.010548 0.032804 0.002546 0.009809
# 5 0.006016 -0.000921 -0.002028 0.002546 0.028726 -0.001285
# 6 0.007877 0.007799 -0.001110 0.009809 -0.001285 0.039728
#
#
# Mechanical properties :
#
#
# Convention : Reuss Voigt Hill
#
# Bulk Modulus (GPa) = 35.23273 54.99738 45.11505
# Shear Modulus (GPa) = 23.30027 36.07955 29.68991
#
# Velocity S-wave (km/s) = 3.33477 4.14969 3.76435
# Velocity P-wave (km/s) = 5.62524 7.01491 6.35816
#
# Compressibility (1/GPa) = 0.02838270
#
# Stress axis : x y z
#
# Youngs Moduli (GPa) = 38.41450 106.39117 32.57793
#
# Poissons Ratio (x) = 0.23950 0.53109
# Poissons Ratio (y) = 0.08648 0.01039
# Poissons Ratio (z) = 0.62624 0.03392
#
# Static dielectric constant tensor:
#      x y z
#    x 1.783000 -0.041470 -0.043360 
#    y -0.041470 1.839560 0.043240 
#    z -0.043360 0.043240 1.690610 
# 
# From -- ./inp_files/170363.got.cif
#   From: 2010.05.17/outbox.cif.g08.bks.cpg/sg2_86_cif.got.tgz:170363.got - 2010.06.03 11:33:40.
