data_PCOD9094300
_publ_section_title
;
Structure prediction by ZEFSAII (Michael W. Deem and Ramdas Pophale) SiO2 
 PCOD9094300
Probable space group: P -1
;
_chemical_formula_sum "Si O2"
_cell_formula_units_Z 14
_cell_length_a 13.420720
_cell_length_b 11.636056
_cell_length_c 11.460580
_cell_angle_alpha 117.698706
_cell_angle_beta 87.215037
_cell_angle_gamma 37.280343
_cell_volume 600.376339
_symmetry_space_group_name_H-M "P -1"
_symmetry_group_IT_number 2
_symmetry_cell_setting 'triclinic'
loop_
_space_group_symop_operation_xyz
x,y,z
-x,-y,-z
loop_
_atom_site_type_symbol
_atom_site_label
_atom_site_fract_x
_atom_site_fract_y
_atom_site_fract_z
Si Si1 0.211788 0.758720 0.016526
Si Si2 0.897695 0.714354 0.939438
Si Si3 0.150354 0.006881 0.753825
Si Si4 0.467426 0.320902 0.584922
Si Si5 0.309164 0.994315 0.338754
Si Si6 0.689497 0.747617 0.108612
Si Si7 0.030782 0.676784 0.680200
O O1 0.247882 0.649055 0.835804
O O2 0.480871 0.375490 0.874975
O O3 0.165814 0.965526 0.115861
O O4 0.966485 0.991381 0.209302
O O5 0.693734 0.851192 0.058104
O O6 0.804680 0.964879 0.116768
O O7 0.961553 0.655016 0.773042
O O8 0.163172 0.372931 0.840863
O O9 0.394372 0.737904 0.529795
O O10 0.904657 0.379971 0.885645
O O11 0.673289 0.021930 0.529780
O O12 0.319606 0.388083 0.551648
O O13 0.436517 0.971659 0.267822
O O14 0.040888 0.284844 0.426335
#
# Coordination Sequence:
#
# PCOD9094300 Si02
#       7
#     2   2   2   2   2   2   2
#     4   9  20  37  54  81 110 145 178 218 269 317
#     4   9  17  33  60  81 101 145 183 216 271 318
#     4   9  17  35  59  79 107 142 179 222 270 314
#     4  10  20  34  56  82 108 143 178 220 271 313
#     4   9  20  35  56  78 110 144 179 221 269 314
#     4   8  16  37  56  81 105 137 188 217 269 319
#     4  12  19  35  57  79 113 144 180 217 269 324
#
# _framework density 23.318705999999999
#
# number of rings (size 3 to 8) (size 9 to 14) (size 15 to 20)
#    1.714    0.857    2.857    0.857    0.000    1.143 
#    0.000    6.429    0.000    1.714    0.000    0.000 
#    0.000    0.000    0.000    0.000    0.000    0.000 
#
# Total GULP energy -78068.126148 kJ/mol
# GULP energy per Si atom -5576.294725 kJ/mol
# Density = 2.326563 g / cm^3
# Si number density = 23.318706 Si / 1000 Ang^3
#
#
#
# Elastic Constant Matrix: (Units=GPa)
#
#
# Indices 1 2 3 4 5 6 
#
# 1 65.2111 46.0990 17.2933 -11.3756 -8.4601 10.6451
# 2 46.0990 129.2462 43.6063 -6.2876 -18.3961 -12.6539
# 3 17.2933 43.6063 88.2431 -8.8131 -22.8120 -2.1127
# 4 -11.3756 -6.2876 -8.8131 21.9368 16.4735 -0.8491
# 5 -8.4601 -18.3961 -22.8120 16.4735 35.3897 -2.1390
# 6 10.6451 -12.6539 -2.1127 -0.8491 -2.1390 43.0308
#
#
#
# Elastic Compliance Matrix: (Units=1/GPa)
#
#
# Indices 1 2 3 4 5 6 
#
# 1 0.026112 -0.010342 -0.000573 0.015431 -0.007266 -0.009586
# 2 -0.010342 0.013872 -0.003834 -0.007186 0.006012 0.006607
# 3 -0.000573 -0.003834 0.015394 -0.001637 0.008565 0.000164
# 4 0.015431 -0.007186 -0.001637 0.079546 -0.038514 -0.006356
# 5 -0.007266 0.006012 0.008565 -0.038514 0.053449 0.005883
# 6 -0.009586 0.006607 0.000164 -0.006356 0.005883 0.027728
#
#
# Mechanical properties :
#
#
# Convention : Reuss Voigt Hill
#
# Bulk Modulus (GPa) = 38.64019 55.18863 46.91441
# Shear Modulus (GPa) = 19.66756 31.78491 25.72623
#
# Velocity S-wave (km/s) = 2.90733 3.69598 3.32512
# Velocity P-wave (km/s) = 5.27982 6.47550 5.90799
#
# Compressibility (1/GPa) = 0.02587979
#
# Stress axis : x y z
#
# Youngs Moduli (GPa) = 38.29695 72.08625 64.96163
#
# Poissons Ratio (x) = 0.74551 0.03724
# Poissons Ratio (y) = 0.39606 0.24905
# Poissons Ratio (z) = 0.02195 0.27636
#
# Static dielectric constant tensor:
#      x y z
#    x 1.872290 0.041260 0.058440 
#    y 0.041260 1.941650 0.064790 
#    z 0.058440 0.064790 1.884890 
# 
# From -- ./inp_files/428542.got.cif
#   From: 2010.05.17/outbox.cif.g08.bks.cpg/sg2_215_cif.got.tgz:428542.got - 2010.06.03 11:33:40.
