data_PCOD9094798
_publ_section_title
;
Structure prediction by ZEFSAII (Michael W. Deem and Ramdas Pophale) SiO2 
 PCOD9094798
Probable space group: P -1
;
_chemical_formula_sum "Si O2"
_cell_formula_units_Z 16
_cell_length_a 9.425785
_cell_length_b 30.215776
_cell_length_c 21.145074
_cell_angle_alpha 10.302031
_cell_angle_beta 136.162914
_cell_angle_gamma 134.567457
_cell_volume 744.413034
_symmetry_space_group_name_H-M "P -1"
_symmetry_group_IT_number 2
_symmetry_cell_setting 'triclinic'
loop_
_space_group_symop_operation_xyz
x,y,z
-x,-y,-z
loop_
_atom_site_type_symbol
_atom_site_label
_atom_site_fract_x
_atom_site_fract_y
_atom_site_fract_z
Si Si1 0.814971 0.096022 0.485006
Si Si2 0.081176 0.167697 0.347030
Si Si3 0.582367 0.698401 0.893692
Si Si4 0.486773 0.796038 0.588000
Si Si5 0.949776 0.960270 0.937484
Si Si6 0.261567 0.533172 0.393609
Si Si7 0.081543 0.766727 0.128838
Si Si8 0.029225 0.551018 0.684897
O O1 0.649992 0.324324 0.126429
O O2 0.956453 0.163804 0.376938
O O3 0.691663 0.865629 0.743838
O O4 0.931146 0.974468 0.753412
O O5 0.321742 0.109869 0.521165
O O6 0.056046 0.431001 0.931972
O O7 0.000000 0.000000 0.500000
O O8 0.546044 0.849168 0.604765
O O9 0.748748 0.478959 0.236941
O O10 0.263912 0.909841 0.340494
O O11 0.500000 0.500000 0.000000
O O12 0.035828 0.162660 0.726997
O O13 0.861284 0.711915 0.285832
O O14 0.114721 0.889135 0.035617
O O15 0.500000 0.500000 0.500000
O O16 0.236783 0.695230 0.221819
O O17 0.127241 0.606070 0.185393
O O18 0.000000 0.500000 0.500000
#
# Coordination Sequence:
#
# PCOD9094798 Si02
#       8
#     2   2   2   2   2   2   2   2
#     4  11  20  36  60  94 121 161 207 260 305 355
#     4  11  21  35  60  91 129 157 204 261 301 362
#     4  10  20  34  61  87 127 157 206 250 309 374
#     4  11  20  37  59  91 124 163 202 244 319 376
#     4  11  23  40  66  87 128 166 202 256 315 373
#     4  11  25  43  66  92 117 164 219 261 299 369
#     4  10  22  41  60  89 122 163 211 253 297 374
#     4  11  22  44  61  94 127 165 205 250 324 374
#
# _framework density 21.493445000000001
#
# number of rings (size 3 to 8) (size 9 to 14) (size 15 to 20)
#    0.000    1.250    7.500    0.375    3.500    0.000 
#    2.250    4.375    0.000    0.000    0.000    0.000 
#    0.000    0.000    0.000    0.000    0.000    0.000 
#
# Total GULP energy -89087.141320 kJ/mol
# GULP energy per Si atom -5567.946332 kJ/mol
# Density = 2.144452 g / cm^3
# Si number density = 21.493445 Si / 1000 Ang^3
#
#
#
# Elastic Constant Matrix: (Units=GPa)
#
#
# Indices 1 2 3 4 5 6 
#
# 1 182.7105 34.6688 18.5450 -4.3271 18.2496 -3.3581
# 2 34.6688 48.8340 3.5703 3.3989 1.4579 -2.9218
# 3 18.5450 3.5703 53.6670 -5.6463 2.0057 -11.7431
# 4 -4.3271 3.3989 -5.6463 26.3668 -7.0824 1.1046
# 5 18.2496 1.4579 2.0057 -7.0824 33.0084 -0.9797
# 6 -3.3581 -2.9218 -11.7431 1.1046 -0.9797 29.1479
#
#
#
# Elastic Compliance Matrix: (Units=1/GPa)
#
#
# Indices 1 2 3 4 5 6 
#
# 1 0.006917 -0.004726 -0.002042 0.000414 -0.003421 -0.000630
# 2 -0.004726 0.024190 0.000052 -0.003755 0.000797 0.002070
# 3 -0.002042 0.000052 0.021563 0.004185 0.000962 0.008331
# 4 0.000414 -0.003755 0.004185 0.041690 0.008630 0.000068
# 5 -0.003421 0.000797 0.000962 0.008630 0.033971 0.000888
# 6 -0.000630 0.002070 0.008331 0.000068 0.000888 0.037826
#
#
# Mechanical properties :
#
#
# Convention : Reuss Voigt Hill
#
# Bulk Modulus (GPa) = 25.48558 44.30885 34.89721
# Shear Modulus (GPa) = 25.95118 32.93312 29.44215
#
# Velocity S-wave (km/s) = 3.47854 3.91863 3.70512
# Velocity P-wave (km/s) = 5.29308 6.41358 5.88008
#
# Compressibility (1/GPa) = 0.03923788
#
# Stress axis : x y z
#
# Youngs Moduli (GPa) = 144.56953 41.33906 46.37573
#
# Poissons Ratio (x) = 0.19536 0.09471
# Poissons Ratio (y) = 0.68320 -0.00241
# Poissons Ratio (z) = 0.29526 -0.00214
#
# Static dielectric constant tensor:
#      x y z
#    x 1.841420 -0.023980 -0.012430 
#    y -0.023980 1.870940 0.058400 
#    z -0.012430 0.058400 1.902280 
# 
# From -- ./inp_files/399467.got.cif
#   From: 2010.05.17/outbox.cif.g08.bks.cpg/sg2_200_cif.got.tgz:399467.got - 2010.06.03 11:33:40.
