data_PCOD9094496
_publ_section_title
;
Structure prediction by ZEFSAII (Michael W. Deem and Ramdas Pophale) SiO2 
 PCOD9094496
Probable space group: P -1
;
_chemical_formula_sum "Si O2"
_cell_formula_units_Z 14
_cell_length_a 8.866751
_cell_length_b 5.722853
_cell_length_c 12.223163
_cell_angle_alpha 93.342350
_cell_angle_beta 73.652014
_cell_angle_gamma 63.634854
_cell_volume 520.996763
_symmetry_space_group_name_H-M "P -1"
_symmetry_group_IT_number 2
_symmetry_cell_setting 'triclinic'
loop_
_space_group_symop_operation_xyz
x,y,z
-x,-y,-z
loop_
_atom_site_type_symbol
_atom_site_label
_atom_site_fract_x
_atom_site_fract_y
_atom_site_fract_z
Si Si1 0.864317 0.621111 0.373311
Si Si2 0.689605 0.748691 0.929414
Si Si3 0.782465 0.401114 0.707703
Si Si4 0.298419 0.748335 0.871263
Si Si5 0.195012 0.831897 0.512485
Si Si6 0.099854 0.982456 0.140609
Si Si7 0.716431 0.735439 0.167086
O O1 0.802372 0.404321 0.417958
O O2 0.836506 0.648517 0.248007
O O3 0.072552 0.512903 0.362907
O O4 0.763272 0.933662 0.446180
O O5 0.662288 0.567517 0.840516
O O6 0.816809 0.831468 0.841685
O O7 0.790144 0.659278 0.024224
O O8 0.500000 0.000000 0.000000
O O9 0.695062 0.336348 0.621272
O O10 0.910663 0.144382 0.747551
O O11 0.388359 0.435597 0.816908
O O12 0.365837 0.945610 0.812367
O O13 0.245178 0.799612 0.012679
O O14 0.095754 0.876885 0.866578
O O15 0.000000 0.000000 0.500000
#
# Coordination Sequence:
#
# PCOD9094496 Si02
#       7
#     2   2   2   2   2   2   2
#     4  11  22  37  62  94 126 155 200 248 313 375
#     4  11  26  41  59  90 124 169 213 251 304 364
#     4  11  21  37  61  87 127 162 196 252 309 365
#     4  10  20  34  57  94 120 153 192 246 317 383
#     4  10  23  37  58  94 129 158 195 244 314 377
#     4  10  21  33  60  85 125 156 197 245 313 370
#     4  11  21  39  61  89 127 156 200 254 310 365
#
# _framework density 26.871566000000001
#
# number of rings (size 3 to 8) (size 9 to 14) (size 15 to 20)
#    0.000    1.429    2.857    3.429    8.000    2.857 
#    0.000    0.000    0.000    1.714    0.000    0.000 
#    0.000    0.000    0.000    0.000    0.000    0.000 
#
# Total GULP energy -77954.918332 kJ/mol
# GULP energy per Si atom -5568.208452 kJ/mol
# Density = 2.681041 g / cm^3
# Si number density = 26.871566 Si / 1000 Ang^3
#
#
#
# Elastic Constant Matrix: (Units=GPa)
#
#
# Indices 1 2 3 4 5 6 
#
# 1 61.3889 46.5200 27.5257 -0.4269 10.7515 17.5380
# 2 46.5200 170.0806 68.7456 0.5006 7.5009 50.3456
# 3 27.5257 68.7456 139.1477 19.4381 9.6515 5.2674
# 4 -0.4269 0.5006 19.4381 58.7156 15.1763 12.2818
# 5 10.7515 7.5009 9.6515 15.1763 36.2549 6.4383
# 6 17.5380 50.3456 5.2674 12.2818 6.4383 39.2209
#
#
#
# Elastic Compliance Matrix: (Units=1/GPa)
#
#
# Indices 1 2 3 4 5 6 
#
# 1 0.022675 -0.002869 -0.002981 0.004028 -0.005896 -0.006350
# 2 -0.002869 0.015194 -0.007095 0.006107 0.000459 -0.019255
# 3 -0.002981 -0.007095 0.011730 -0.006063 -0.000149 0.010788
# 4 0.004028 0.006107 -0.006063 0.024327 -0.008351 -0.015074
# 5 -0.005896 0.000459 -0.000149 -0.008351 0.032899 -0.000718
# 6 -0.006350 -0.019255 0.010788 -0.015074 -0.000718 0.056442
#
#
# Mechanical properties :
#
#
# Convention : Reuss Voigt Hill
#
# Bulk Modulus (GPa) = 42.17962 72.91109 57.54535
# Shear Modulus (GPa) = 25.37292 42.02669 33.69981
#
# Velocity S-wave (km/s) = 3.07617 3.95901 3.54518
# Velocity P-wave (km/s) = 5.32427 6.93473 6.18217
#
# Compressibility (1/GPa) = 0.02370813
#
# Stress axis : x y z
#
# Youngs Moduli (GPa) = 44.10082 65.81754 85.24848
#
# Poissons Ratio (x) = 0.18885 0.25416
# Poissons Ratio (y) = 0.12654 0.60482
# Poissons Ratio (z) = 0.13148 0.46696
#
# Static dielectric constant tensor:
#      x y z
#    x 2.157160 0.021580 -0.027820 
#    y 0.021580 2.408650 0.129820 
#    z -0.027820 0.129820 2.164240 
# 
# From -- ./inp_files/409292.got.cif
#   From: 2010.05.17/outbox.cif.g08.bks.cpg/sg2_205_cif.got.tgz:409292.got - 2010.06.03 11:33:40.
