data_PCOD9094058
_publ_section_title
;
Structure prediction by ZEFSAII (Michael W. Deem and Ramdas Pophale) SiO2 
 PCOD9094058
Probable space group: P -1
;
_chemical_formula_sum "Si O2"
_cell_formula_units_Z 16
_cell_length_a 9.268498
_cell_length_b 12.709326
_cell_length_c 7.935466
_cell_angle_alpha 55.627970
_cell_angle_beta 95.259688
_cell_angle_gamma 90.101020
_cell_volume 766.877203
_symmetry_space_group_name_H-M "P -1"
_symmetry_group_IT_number 2
_symmetry_cell_setting 'triclinic'
loop_
_space_group_symop_operation_xyz
x,y,z
-x,-y,-z
loop_
_atom_site_type_symbol
_atom_site_label
_atom_site_fract_x
_atom_site_fract_y
_atom_site_fract_z
Si Si1 0.585222 0.126621 0.757393
Si Si2 0.511722 0.913034 0.745062
Si Si3 0.891946 0.194668 0.124897
Si Si4 0.644278 0.507188 0.277287
Si Si5 0.149792 0.026206 0.901233
Si Si6 0.636707 0.354066 0.757838
Si Si7 0.687915 0.260216 0.306621
Si Si8 0.201419 0.232494 0.959568
O O1 0.540603 0.239532 0.779216
O O2 0.637118 0.191702 0.532231
O O3 0.477306 0.017686 0.794460
O O4 0.728386 0.058382 0.910700
O O5 0.411997 0.797553 0.797926
O O6 0.671775 0.853630 0.854840
O O7 0.500000 0.000000 0.500000
O O8 0.861757 0.046408 0.212601
O O9 0.848577 0.222772 0.288273
O O10 0.052716 0.221025 0.057690
O O11 0.781008 0.291150 0.917761
O O12 0.677290 0.432747 0.524379
O O13 0.474932 0.556275 0.227299
O O14 0.668472 0.408421 0.215891
O O15 0.744359 0.625914 0.167739
O O16 0.179666 0.170963 0.825750
O O17 0.000000 0.000000 0.000000
#
# Coordination Sequence:
#
# PCOD9094058 Si02
#       8
#     2   2   2   2   2   2   2   2
#     4   8  16  33  55  76 101 132 172 216 257 302
#     4   9  18  34  54  76 104 136 170 214 259 302
#     4  10  20  34  55  80 105 136 173 215 262 307
#     4  10  21  36  54  76 105 141 176 212 256 309
#     4   8  16  33  52  73 102 133 168 212 257 303
#     4   9  19  36  56  77 102 136 177 216 257 306
#     4  10  20  34  53  77 107 140 171 212 260 306
#     4  10  20  34  54  78 106 138 174 213 256 310
#
# _framework density 20.863835999999999
#
# number of rings (size 3 to 8) (size 9 to 14) (size 15 to 20)
#    0.000    2.750    0.000    0.750    0.000    4.000 
#    0.000   15.000    0.000   10.500    0.000    0.000 
#    0.000    0.000    0.000    0.000    0.000    0.000 
#
# Total GULP energy -89182.949871 kJ/mol
# GULP energy per Si atom -5573.934367 kJ/mol
# Density = 2.081635 g / cm^3
# Si number density = 20.863836 Si / 1000 Ang^3
#
#
#
# Elastic Constant Matrix: (Units=GPa)
#
#
# Indices 1 2 3 4 5 6 
#
# 1 100.1210 44.0686 28.8945 -5.6416 -13.1782 -1.4220
# 2 44.0686 183.5431 23.0115 -10.0641 -24.5984 -1.9473
# 3 28.8945 23.0115 57.4410 -7.1039 -4.8574 5.0989
# 4 -5.6416 -10.0641 -7.1039 30.1471 -0.6824 -12.0110
# 5 -13.1782 -24.5984 -4.8574 -0.6824 9.5395 -1.2458
# 6 -1.4220 -1.9473 5.0989 -12.0110 -1.2458 34.7736
#
#
#
# Elastic Compliance Matrix: (Units=1/GPa)
#
#
# Indices 1 2 3 4 5 6 
#
# 1 0.014063 -0.000305 -0.005478 0.002768 0.016427 0.002906
# 2 -0.000305 0.009020 -0.001249 0.004377 0.022908 0.003008
# 3 -0.005478 -0.001249 0.021191 0.002541 -0.000145 -0.002529
# 4 0.002768 0.004377 0.002541 0.042364 0.021444 0.015387
# 5 0.016427 0.022908 -0.000145 0.021444 0.190166 0.016196
# 6 0.002906 0.003008 -0.002529 0.015387 0.016196 0.035310
#
#
# Mechanical properties :
#
#
# Convention : Reuss Voigt Hill
#
# Bulk Modulus (GPa) = 33.10126 59.22825 46.16476
# Shear Modulus (GPa) = 14.86992 31.23406 23.05199
#
# Velocity S-wave (km/s) = 2.67256 3.87336 3.32758
# Velocity P-wave (km/s) = 5.04215 6.96086 6.07770
#
# Compressibility (1/GPa) = 0.03021033
#
# Stress axis : x y z
#
# Youngs Moduli (GPa) = 71.10968 110.86271 47.18898
#
# Poissons Ratio (x) = 0.03386 0.25850
# Poissons Ratio (y) = 0.02172 0.05892
# Poissons Ratio (z) = 0.38954 0.13841
#
# Static dielectric constant tensor:
#      x y z
#    x 1.740070 0.008560 -0.018080 
#    y 0.008560 1.840100 0.019910 
#    z -0.018080 0.019910 1.783800 
# 
# From -- ./inp_files/175161.got.cif
#   From: 2010.05.17/outbox.cif.g08.bks.cpg/sg2_88_cif.got.tgz:175161.got - 2010.06.03 11:33:40.
