data_PCOD9094733
_publ_section_title
;
Structure prediction by ZEFSAII (Michael W. Deem and Ramdas Pophale) SiO2 
 PCOD9094733
Probable space group: P -1
;
_chemical_formula_sum "Si O2"
_cell_formula_units_Z 14
_cell_length_a 14.498814
_cell_length_b 5.704252
_cell_length_c 7.954020
_cell_angle_alpha 120.728741
_cell_angle_beta 81.262597
_cell_angle_gamma 99.581092
_cell_volume 555.848443
_symmetry_space_group_name_H-M "P -1"
_symmetry_group_IT_number 2
_symmetry_cell_setting 'triclinic'
loop_
_space_group_symop_operation_xyz
x,y,z
-x,-y,-z
loop_
_atom_site_type_symbol
_atom_site_label
_atom_site_fract_x
_atom_site_fract_y
_atom_site_fract_z
Si Si1 0.437316 0.365751 0.117938
Si Si2 0.546440 0.139406 0.272365
Si Si3 0.834945 0.039505 0.535496
Si Si4 0.888304 0.429173 0.982843
Si Si5 0.885946 0.931022 0.987019
Si Si6 0.893439 0.555717 0.524126
Si Si7 0.361085 0.856208 0.406075
O O1 0.504608 0.381200 0.269107
O O2 0.350910 0.541057 0.230469
O O3 0.500000 0.500000 0.000000
O O4 0.414968 0.053061 0.953332
O O5 0.621456 0.169728 0.410155
O O6 0.454187 0.992009 0.337424
O O7 0.873609 0.242812 0.750484
O O8 0.844942 0.246675 0.449126
O O9 0.723555 0.978236 0.561304
O O10 0.881597 0.757050 0.442858
O O11 0.849595 0.719899 0.065667
O O12 0.849998 0.223093 0.064966
O O13 0.000000 0.500000 0.000000
O O14 0.868729 0.747860 0.756494
O O15 0.000000 0.000000 0.000000
O O16 0.000000 0.500000 0.500000
#
# Coordination Sequence:
#
# PCOD9094733 Si02
#       7
#     2   2   2   2   2   2   2
#     4   9  18  35  59  87 118 161 202 249 305 382
#     4   9  19  36  60  88 124 166 204 244 312 390
#     4  10  21  34  57  85 115 153 205 259 298 373
#     4   8  14  27  47  71  97 133 177 229 281 336
#     4   8  14  26  48  69  90 125 176 222 269 346
#     4  10  20  36  56  76 110 154 195 249 314 361
#     4  10  20  34  60  89 122 166 206 254 315 367
#
# _framework density 25.186723000000001
#
# number of rings (size 3 to 8) (size 9 to 14) (size 15 to 20)
#    0.000    2.857    0.000    0.857    2.000    0.000 
#    0.000    0.000   25.143    0.000    0.000    0.000 
#    0.000    0.000    0.000    0.000    0.000    0.000 
#
# Total GULP energy -78118.781680 kJ/mol
# GULP energy per Si atom -5579.912977 kJ/mol
# Density = 2.512940 g / cm^3
# Si number density = 25.186723 Si / 1000 Ang^3
#
#
#
# Elastic Constant Matrix: (Units=GPa)
#
#
# Indices 1 2 3 4 5 6 
#
# 1 81.1212 14.1565 12.3339 4.7747 1.6399 -17.0634
# 2 14.1565 243.3257 41.8716 2.4917 -0.4745 -31.6744
# 3 12.3339 41.8716 80.9970 -9.0868 9.8276 -8.6879
# 4 4.7747 2.4917 -9.0868 49.5194 -11.8332 0.5151
# 5 1.6399 -0.4745 9.8276 -11.8332 12.4108 3.0084
# 6 -17.0634 -31.6744 -8.6879 0.5151 3.0084 27.6804
#
#
#
# Elastic Compliance Matrix: (Units=1/GPa)
#
#
# Indices 1 2 3 4 5 6 
#
# 1 0.014911 0.000699 -0.001054 -0.003428 -0.006917 0.010477
# 2 0.000699 0.005211 -0.002240 -0.000886 -0.000357 0.005746
# 3 -0.001054 -0.002240 0.015580 -0.000096 -0.013128 0.003106
# 4 -0.003428 -0.000886 -0.000096 0.027365 0.028218 -0.006733
# 5 -0.006917 -0.000357 -0.013128 0.028218 0.124309 -0.022828
# 6 0.010477 0.005746 0.003106 -0.006733 -0.022828 0.052741
#
#
# Mechanical properties :
#
#
# Convention : Reuss Voigt Hill
#
# Bulk Modulus (GPa) = 32.77335 60.24091 46.50713
# Shear Modulus (GPa) = 19.57134 40.39426 29.98280
#
# Velocity S-wave (km/s) = 2.79059 4.00908 3.45399
# Velocity P-wave (km/s) = 4.83979 6.73795 5.86615
#
# Compressibility (1/GPa) = 0.03051260
#
# Stress axis : x y z
#
# Youngs Moduli (GPa) = 67.06586 191.90803 64.18594
#
# Poissons Ratio (x) = -0.13418 0.06762
# Poissons Ratio (y) = -0.04689 0.14378
# Poissons Ratio (z) = 0.07066 0.42987
#
# Static dielectric constant tensor:
#      x y z
#    x 1.941600 -0.043080 0.059370 
#    y -0.043080 2.071800 0.014540 
#    z 0.059370 0.014540 2.018810 
# 
# From -- ./inp_files/122683.got.cif
#   From: 2010.05.17/outbox.cif.g08.bks.cpg/sg2_62_cif.got.tgz:122683.got - 2010.06.03 11:33:40.
