data_PCOD9094239
_publ_section_title
;
Structure prediction by ZEFSAII (Michael W. Deem and Ramdas Pophale) SiO2 
 PCOD9094239
Probable space group: P -1
;
_chemical_formula_sum "Si O2"
_cell_formula_units_Z 16
_cell_length_a 12.395335
_cell_length_b 12.190593
_cell_length_c 12.203215
_cell_angle_alpha 34.577241
_cell_angle_beta 53.362291
_cell_angle_gamma 42.612000
_cell_volume 708.303481
_symmetry_space_group_name_H-M "P -1"
_symmetry_group_IT_number 2
_symmetry_cell_setting 'triclinic'
loop_
_space_group_symop_operation_xyz
x,y,z
-x,-y,-z
loop_
_atom_site_type_symbol
_atom_site_label
_atom_site_fract_x
_atom_site_fract_y
_atom_site_fract_z
Si Si1 0.421376 0.867653 0.011540
Si Si2 0.340067 0.599065 0.630818
Si Si3 0.624577 0.661793 0.372744
Si Si4 0.630103 0.110248 0.328813
Si Si5 0.823569 0.300625 0.127259
Si Si6 0.159751 0.311889 0.616689
Si Si7 0.646537 0.762850 0.754958
Si Si8 0.084098 0.028972 0.032081
O O1 0.520726 0.829979 0.872327
O O2 0.380761 0.120496 0.859739
O O3 0.532108 0.661906 0.193571
O O4 0.269581 0.850581 0.089409
O O5 0.448078 0.708104 0.461903
O O6 0.287311 0.559713 0.577328
O O7 0.207736 0.696051 0.727132
O O8 0.720699 0.622478 0.459914
O O9 0.681302 0.288758 0.167158
O O10 0.447112 0.243314 0.291096
O O11 0.740878 0.912576 0.335802
O O12 0.666251 0.967529 0.536658
O O13 0.981054 0.086044 0.156756
O O14 0.797884 0.533066 0.899560
O O15 0.000000 0.500000 0.500000
O O16 0.094517 0.244600 0.814977
O O17 0.000000 0.000000 0.000000
#
# Coordination Sequence:
#
# PCOD9094239 Si02
#       8
#     2   2   2   2   2   2   2   2
#     4  10  20  39  60  85 119 161 199 249 301 355
#     4  10  23  38  67  88 114 161 202 261 292 349
#     4  10  21  42  60  91 118 152 213 248 298 355
#     4  11  20  35  56  83 121 154 191 254 295 351
#     4  11  22  36  57  89 121 154 204 241 306 357
#     4  11  23  38  61  88 122 163 193 249 308 361
#     4  10  20  34  55  87 114 154 198 246 303 349
#     4  11  21  37  54  87 125 157 196 239 300 373
#
# _framework density 22.589189000000001
#
# number of rings (size 3 to 8) (size 9 to 14) (size 15 to 20)
#    0.000    1.500    3.750    2.250    3.500    1.000 
#    0.000    2.500    0.000    8.250    0.000    0.000 
#    0.000    0.000    0.000    0.000    0.000    0.000 
#
# Total GULP energy -89197.677113 kJ/mol
# GULP energy per Si atom -5574.854820 kJ/mol
# Density = 2.253777 g / cm^3
# Si number density = 22.589189 Si / 1000 Ang^3
#
#
#
# Elastic Constant Matrix: (Units=GPa)
#
#
# Indices 1 2 3 4 5 6 
#
# 1 61.5666 26.7839 2.5516 0.7974 -8.0563 18.5383
# 2 26.7839 107.6075 -1.6544 35.6776 -1.6370 17.6988
# 3 2.5516 -1.6544 70.1512 9.4927 -7.6787 3.8008
# 4 0.7974 35.6776 9.4927 33.8995 -0.5315 1.7149
# 5 -8.0563 -1.6370 -7.6787 -0.5315 28.9745 -0.0543
# 6 18.5383 17.6988 3.8008 1.7149 -0.0543 29.9168
#
#
#
# Elastic Compliance Matrix: (Units=1/GPa)
#
#
# Indices 1 2 3 4 5 6 
#
# 1 0.022855 -0.006003 -0.000624 0.006600 0.005951 -0.010899
# 2 -0.006003 0.018620 0.003744 -0.020169 -0.000007 -0.006615
# 3 -0.000624 0.003744 0.016114 -0.008202 0.004152 -0.003398
# 4 0.006600 -0.020169 -0.008202 0.052563 -0.000503 0.005870
# 5 0.005951 -0.000007 0.004152 -0.000503 0.037251 -0.004114
# 6 -0.010899 -0.006615 -0.003398 0.005870 -0.004114 0.044181
#
#
# Mechanical properties :
#
#
# Convention : Reuss Voigt Hill
#
# Bulk Modulus (GPa) = 19.29637 32.74304 26.01970
# Shear Modulus (GPa) = 23.29645 32.66778 27.98211
#
# Velocity S-wave (km/s) = 3.21488 3.80698 3.52339
# Velocity P-wave (km/s) = 4.72668 5.81813 5.30057
#
# Compressibility (1/GPa) = 0.05182323
#
# Stress axis : x y z
#
# Youngs Moduli (GPa) = 43.75364 53.70557 62.05662
#
# Poissons Ratio (x) = 0.32242 0.03873
# Poissons Ratio (y) = 0.26267 -0.23236
# Poissons Ratio (z) = 0.02731 -0.20109
#
# Static dielectric constant tensor:
#      x y z
#    x 1.963970 -0.025870 0.072500 
#    y -0.025870 1.945410 -0.030550 
#    z 0.072500 -0.030550 1.927430 
# 
# From -- ./inp_files/424943.got.cif
#   From: 2010.05.17/outbox.cif.g08.bks.cpg/sg2_213_cif.got.tgz:424943.got - 2010.06.03 11:33:40.
