data_PCOD9094725
_publ_section_title
;
Structure prediction by ZEFSAII (Michael W. Deem and Ramdas Pophale) SiO2 
 PCOD9094725
Probable space group: P -1
;
_chemical_formula_sum "Si O2"
_cell_formula_units_Z 16
_cell_length_a 19.842502
_cell_length_b 17.004642
_cell_length_c 26.540537
_cell_angle_alpha 161.722394
_cell_angle_beta 161.824987
_cell_angle_gamma 28.633687
_cell_volume 848.184268
_symmetry_space_group_name_H-M "P -1"
_symmetry_group_IT_number 2
_symmetry_cell_setting 'triclinic'
loop_
_space_group_symop_operation_xyz
x,y,z
-x,-y,-z
loop_
_atom_site_type_symbol
_atom_site_label
_atom_site_fract_x
_atom_site_fract_y
_atom_site_fract_z
Si Si1 0.648382 0.016770 0.350768
Si Si2 0.783643 0.571615 0.115681
Si Si3 0.259247 0.110004 0.189279
Si Si4 0.697265 0.310656 0.461744
Si Si5 0.936721 0.717790 0.122743
Si Si6 0.628754 0.045752 0.066128
Si Si7 0.551591 0.489482 0.792352
Si Si8 0.743992 0.984567 0.754338
O O1 0.419044 0.963722 0.185987
O O2 0.648846 0.218138 0.428115
O O3 0.849819 0.141818 0.607470
O O4 0.686366 0.760982 0.196254
O O5 0.048678 0.693717 0.372933
O O6 0.674672 0.542473 0.965302
O O7 0.742666 0.284528 0.934545
O O8 0.313640 0.398034 0.380210
O O9 0.304040 0.125034 0.290025
O O10 0.997202 0.981933 0.918936
O O11 0.527684 0.120704 0.188844
O O12 0.844719 0.932553 0.157101
O O13 0.737432 0.586406 0.939873
O O14 0.000000 0.500000 0.000000
O O15 0.635150 0.344226 0.241388
O O16 0.500000 0.000000 0.000000
O O17 0.430150 0.193182 0.514919
#
# Coordination Sequence:
#
# PCOD9094725 Si02
#       8
#     2   2   2   2   2   2   2   2
#     4  12  22  39  65  94 126 150 206 259 312 361
#     4  11  22  38  63  92 120 168 202 252 303 364
#     4  10  23  40  62  88 116 167 204 254 298 367
#     4  11  20  39  63  92 126 156 201 251 315 370
#     4  11  23  37  61  98 127 154 194 259 318 359
#     4  10  20  34  60  88 124 161 194 245 306 365
#     4  11  20  40  60  87 123 162 207 245 303 369
#     4  10  23  42  61  83 124 168 215 238 301 364
#
# _framework density 18.863826
#
# number of rings (size 3 to 8) (size 9 to 14) (size 15 to 20)
#    0.000    1.250    2.500    5.625    0.000    2.500 
#    0.000    1.875    0.000    0.000    0.000    0.000 
#    0.000    0.000    0.000    0.000    0.000    0.000 
#
# Total GULP energy -89388.273712 kJ/mol
# GULP energy per Si atom -5586.767107 kJ/mol
# Density = 1.882089 g / cm^3
# Si number density = 18.863826 Si / 1000 Ang^3
#
#
#
# Elastic Constant Matrix: (Units=GPa)
#
#
# Indices 1 2 3 4 5 6 
#
# 1 94.8597 76.9076 69.3712 -16.2393 -16.4757 -25.3166
# 2 76.9076 102.5122 29.9125 0.7919 0.1138 2.4890
# 3 69.3712 29.9125 71.4213 3.4452 -13.1540 3.2280
# 4 -16.2393 0.7919 3.4452 5.2008 2.9314 -11.3103
# 5 -16.4757 0.1138 -13.1540 2.9314 23.7851 -6.3491
# 6 -25.3166 2.4890 3.2280 -11.3103 -6.3491 34.0086
#
#
#
# Elastic Compliance Matrix: (Units=1/GPa)
#
#
# Indices 1 2 3 4 5 6 
#
# 1 -0.001240 0.000437 0.003611 -0.034250 0.002074 -0.012301
# 2 0.000437 0.011239 -0.007230 0.020178 -0.004625 0.006037
# 3 0.003611 -0.007230 0.014059 0.019791 0.010663 0.010456
# 4 -0.034250 0.020178 0.019791 0.036227 -0.022971 -0.021093
# 5 0.002074 -0.004625 0.010663 -0.022971 0.053067 0.003138
# 6 -0.012301 0.006037 0.010456 -0.021093 0.003138 0.012384
#
#
# Mechanical properties :
#
#
# Convention : Reuss Voigt Hill
#
# Bulk Modulus (GPa) = 56.51315 69.01953 62.76634
# Shear Modulus (GPa) = 36.23273 18.77237 27.50255
#
# Velocity S-wave (km/s) = 4.38739 3.15802 3.82246
# Velocity P-wave (km/s) = 7.46252 7.06861 7.26823
#
# Compressibility (1/GPa) = 0.01769500
#
# Stress axis : x y z
#
# Youngs Moduli (GPa) = -806.57977 88.97486 71.13059
#
# Poissons Ratio (x) = -0.03892 -0.25685
# Poissons Ratio (y) = 0.35280 0.51427
# Poissons Ratio (z) = 2.91258 0.64328
#
# Static dielectric constant tensor:
#      x y z
#    x 1.612520 0.008020 -0.001190 
#    y 0.008020 1.683870 0.007250 
#    z -0.001190 0.007250 1.622160 
# 
# From -- ./inp_files/184825.got.cif
#   From: 2010.05.17/outbox.cif.g08.bks.cpg/sg2_93_cif.got.tgz:184825.got - 2010.06.03 11:33:40.
