data_PCOD9094918
_publ_section_title
;
Structure prediction by ZEFSAII (Michael W. Deem and Ramdas Pophale) SiO2 
 PCOD9094918
Probable space group: P -1
;
_chemical_formula_sum "Si O2"
_cell_formula_units_Z 15
_cell_length_a 5.109163
_cell_length_b 9.630878
_cell_length_c 18.046060
_cell_angle_alpha 114.578702
_cell_angle_beta 131.254499
_cell_angle_gamma 70.640108
_cell_volume 604.946842
_symmetry_space_group_name_H-M "P -1"
_symmetry_group_IT_number 2
_symmetry_cell_setting 'triclinic'
loop_
_space_group_symop_operation_xyz
x,y,z
-x,-y,-z
loop_
_atom_site_type_symbol
_atom_site_label
_atom_site_fract_x
_atom_site_fract_y
_atom_site_fract_z
Si Si1 0.373191 0.145654 0.167747
Si Si2 0.145824 0.431086 0.111159
Si Si3 0.694071 0.065012 0.776706
Si Si4 0.446827 0.757035 0.404290
Si Si5 0.236392 0.285801 0.938902
Si Si6 0.255578 0.346378 0.722350
Si Si7 0.500000 0.000000 0.000000
Si Si8 0.856970 0.912480 0.631950
O O1 0.207547 0.317569 0.166401
O O2 0.454753 0.095186 0.088954
O O3 0.738407 0.124413 0.277572
O O4 0.151968 0.022981 0.141802
O O5 0.503759 0.515757 0.187628
O O6 0.827971 0.562916 0.089401
O O7 0.076461 0.344886 0.001984
O O8 0.398718 0.199323 0.765738
O O9 0.994720 0.167832 0.829010
O O10 0.645685 0.943914 0.676505
O O11 0.652198 0.710359 0.357099
O O12 0.710253 0.781108 0.525958
O O13 0.157674 0.638791 0.340300
O O14 0.238764 0.926415 0.392785
O O15 0.548829 0.167826 0.996405
#
# Coordination Sequence:
#
# PCOD9094918 Si02
#       8
#     2   2   2   2   2   2   1   2
#     4  11  21  39  60  95 124 172 207 277 315 398
#     4   9  21  37  61  85 138 161 218 254 343 375
#     4  10  20  35  67  86 130 158 225 259 333 371
#     4  10  22  38  69  94 129 165 229 269 331 369
#     4   9  18  39  58  93 121 169 206 271 311 406
#     4  10  21  42  63  96 125 179 210 277 318 400
#     4  10  20  34  64  86 124 156 220 250 324 368
#     4  10  21  37  62  97 123 161 218 278 316 384
#
# _framework density 24.795569
#
# number of rings (size 3 to 8) (size 9 to 14) (size 15 to 20)
#    0.000    2.133    2.667    0.000    1.867    3.733 
#    2.400    2.667    0.000    8.800    0.000    0.000 
#    0.000    0.000    0.000    0.000    0.000    0.000 
#
# Total GULP energy -83504.330012 kJ/mol
# GULP energy per Si atom -5566.955334 kJ/mol
# Density = 2.473913 g / cm^3
# Si number density = 24.795569 Si / 1000 Ang^3
#
#
#
# Elastic Constant Matrix: (Units=GPa)
#
#
# Indices 1 2 3 4 5 6 
#
# 1 66.2279 27.3569 11.4268 8.9916 -4.2791 10.9928
# 2 27.3569 138.5698 30.7496 -16.9849 -0.0800 -2.8215
# 3 11.4268 30.7496 119.8746 3.8222 -11.8941 -0.2686
# 4 8.9916 -16.9849 3.8222 24.2042 -0.4526 5.6068
# 5 -4.2791 -0.0800 -11.8941 -0.4526 23.1783 -2.5613
# 6 10.9928 -2.8215 -0.2686 5.6068 -2.5613 24.6704
#
#
#
# Elastic Compliance Matrix: (Units=1/GPa)
#
#
# Indices 1 2 3 4 5 6 
#
# 1 0.019864 -0.005208 -0.000009 -0.009351 0.002684 -0.007043
# 2 -0.005208 0.009930 -0.002525 0.008991 -0.001916 0.001186
# 3 -0.000009 -0.002525 0.009596 -0.003450 0.004970 0.001120
# 4 -0.009351 0.008991 -0.003450 0.053270 -0.003231 -0.007285
# 5 0.002684 -0.001916 0.004970 -0.003231 0.046585 0.004210
# 6 -0.007043 0.001186 0.001120 -0.007285 0.004210 0.045913
#
#
# Mechanical properties :
#
#
# Convention : Reuss Voigt Hill
#
# Bulk Modulus (GPa) = 41.82835 51.52655 46.67745
# Shear Modulus (GPa) = 23.96803 31.41983 27.69393
#
# Velocity S-wave (km/s) = 3.11243 3.56357 3.34562
# Velocity P-wave (km/s) = 5.46097 6.14473 5.81292
#
# Compressibility (1/GPa) = 0.02390723
#
# Stress axis : x y z
#
# Youngs Moduli (GPa) = 50.34233 100.70417 104.20694
#
# Poissons Ratio (x) = 0.52443 0.00094
# Poissons Ratio (y) = 0.26216 0.26312
# Poissons Ratio (z) = 0.00045 0.25427
#
# Static dielectric constant tensor:
#      x y z
#    x 1.762330 0.043300 -0.002690 
#    y 0.043300 2.089160 -0.033890 
#    z -0.002690 -0.033890 1.931500 
# 
# From -- ./inp_files/34475.got.cif
#   From: 2010.05.17/outbox.cif.g08.bks.cpg/sg2_18_cif.got.tgz:34475.got - 2010.06.03 11:33:40.
