data_PCOD9094381
_publ_section_title
;
Structure prediction by ZEFSAII (Michael W. Deem and Ramdas Pophale) SiO2 
 PCOD9094381
Probable space group: P -1
;
_chemical_formula_sum "Si O2"
_cell_formula_units_Z 12
_cell_length_a 16.171534
_cell_length_b 15.431222
_cell_length_c 10.361413
_cell_angle_alpha 147.181212
_cell_angle_beta 145.809166
_cell_angle_gamma 17.911329
_cell_volume 425.076687
_symmetry_space_group_name_H-M "P -1"
_symmetry_group_IT_number 2
_symmetry_cell_setting 'triclinic'
loop_
_space_group_symop_operation_xyz
x,y,z
-x,-y,-z
loop_
_atom_site_type_symbol
_atom_site_label
_atom_site_fract_x
_atom_site_fract_y
_atom_site_fract_z
Si Si1 0.666020 0.242916 0.495165
Si Si2 0.401354 0.921779 0.015991
Si Si3 0.221521 0.256114 0.877576
Si Si4 0.381900 0.237449 0.545026
Si Si5 0.081070 0.126128 0.321121
Si Si6 0.230132 0.784844 0.777088
O O1 0.500000 0.500000 0.500000
O O2 0.734488 0.030867 0.226460
O O3 0.446535 0.452197 0.591497
O O4 0.952308 0.049009 0.666693
O O5 0.377423 0.817069 0.971036
O O6 0.710456 0.672111 0.054120
O O7 0.309440 0.182082 0.264946
O O8 0.140186 0.171348 0.588149
O O9 0.000000 0.500000 0.000000
O O10 0.500000 0.000000 0.000000
O O11 0.114993 0.586062 0.662364
O O12 0.500000 0.000000 0.500000
O O13 0.621474 0.138694 0.689038
O O14 0.897757 0.147209 0.164885
#
# Coordination Sequence:
#
# PCOD9094381 Si02
#       6
#     2   2   2   2   2   2
#     4  10  20  34  56  91 129 159 189 232 295 371
#     4  10  22  38  62  88 120 163 203 242 297 360
#     4  11  21  34  55  88 122 157 193 231 287 364
#     4  11  25  45  64  85 116 162 214 261 304 354
#     4  11  23  41  62  88 123 157 199 260 311 356
#     4  11  22  38  60  94 127 156 193 246 307 373
#
# _framework density 28.2302
#
# number of rings (size 3 to 8) (size 9 to 14) (size 15 to 20)
#    0.000    1.333    0.000    7.500    0.000   10.667 
#    0.000    1.667    0.000    0.000    0.000    0.000 
#    0.000    0.000    0.000    0.000    0.000    0.000 
#
# Total GULP energy -67137.410768 kJ/mol
# GULP energy per Si atom -5594.784231 kJ/mol
# Density = 2.816595 g / cm^3
# Si number density = 28.230200 Si / 1000 Ang^3
#
#
#
# Elastic Constant Matrix: (Units=GPa)
#
#
# Indices 1 2 3 4 5 6 
#
# 1 176.6897 31.0783 27.2157 -11.0824 26.3467 -24.9162
# 2 31.0783 173.9049 10.2180 -10.2787 11.0125 -14.0895
# 3 27.2157 10.2180 83.8503 -19.0978 27.5131 -5.9386
# 4 -11.0824 -10.2787 -19.0978 32.8186 -2.0493 4.4102
# 5 26.3467 11.0125 27.5131 -2.0493 51.9524 4.1927
# 6 -24.9162 -14.0895 -5.9386 4.4102 4.1927 59.1563
#
#
#
# Elastic Compliance Matrix: (Units=1/GPa)
#
#
# Indices 1 2 3 4 5 6 
#
# 1 0.006812 -0.000688 -0.000636 0.001145 -0.003152 0.002780
# 2 -0.000688 0.006118 0.000306 0.001635 -0.001139 0.001157
# 3 -0.000636 0.000306 0.017069 0.009086 -0.008540 0.001447
# 4 0.001145 0.001635 0.009086 0.036477 -0.004249 -0.000634
# 5 -0.003152 -0.001139 -0.008540 -0.004249 0.025763 -0.003965
# 6 0.002780 0.001157 0.001447 -0.000634 -0.003965 0.018824
#
#
# Mechanical properties :
#
#
# Convention : Reuss Voigt Hill
#
# Bulk Modulus (GPa) = 35.75990 63.49654 49.62822
# Shear Modulus (GPa) = 40.84304 53.18098 47.01201
#
# Velocity S-wave (km/s) = 3.80779 4.34502 4.08525
# Velocity P-wave (km/s) = 5.65925 6.90750 6.31429
#
# Compressibility (1/GPa) = 0.02796428
#
# Stress axis : x y z
#
# Youngs Moduli (GPa) = 146.79536 163.46043 58.58462
#
# Poissons Ratio (x) = 0.11240 0.03724
# Poissons Ratio (y) = 0.10094 -0.01791
# Poissons Ratio (z) = 0.09330 -0.04997
#
# Static dielectric constant tensor:
#      x y z
#    x 2.378470 0.093560 0.032700 
#    y 0.093560 2.156620 0.095750 
#    z 0.032700 0.095750 2.365740 
# 
# From -- ./inp_files/455102.got.cif
#   From: 2010.05.17/outbox.cif.g08.bks.cpg/sg2_228_cif.got.tgz:455102.got - 2010.06.03 11:33:40.
