data_PCOD9094405
_publ_section_title
;
Structure prediction by ZEFSAII (Michael W. Deem and Ramdas Pophale) SiO2 
 PCOD9094405
Probable space group: P -1
;
_chemical_formula_sum "Si O2"
_cell_formula_units_Z 14
_cell_length_a 16.044040
_cell_length_b 10.380569
_cell_length_c 8.372608
_cell_angle_alpha 106.114327
_cell_angle_beta 66.110763
_cell_angle_gamma 154.047003
_cell_volume 544.751731
_symmetry_space_group_name_H-M "P -1"
_symmetry_group_IT_number 2
_symmetry_cell_setting 'triclinic'
loop_
_space_group_symop_operation_xyz
x,y,z
-x,-y,-z
loop_
_atom_site_type_symbol
_atom_site_label
_atom_site_fract_x
_atom_site_fract_y
_atom_site_fract_z
Si Si1 0.645502 0.801269 0.410821
Si Si2 0.352406 0.505006 0.032589
Si Si3 0.267458 0.093336 0.978278
Si Si4 0.633038 0.374510 0.270187
Si Si5 0.883246 0.542714 0.691720
Si Si6 0.823578 0.384103 0.017772
Si Si7 0.740869 0.315453 0.384815
O O1 0.500000 0.500000 0.500000
O O2 0.614437 0.764362 0.232836
O O3 0.569252 0.835215 0.567182
O O4 0.884934 0.098681 0.353147
O O5 0.600401 0.821968 0.971053
O O6 0.259945 0.514326 0.190273
O O7 0.274955 0.260426 0.073858
O O8 0.295730 0.436876 0.864345
O O9 0.034857 0.744838 0.010384
O O10 0.626506 0.223347 0.132704
O O11 0.774552 0.511723 0.355124
O O12 0.854839 0.446885 0.505605
O O13 0.840586 0.382876 0.815772
O O14 0.801501 0.293589 0.184813
O O15 0.500000 0.000000 0.500000
#
# Coordination Sequence:
#
# PCOD9094405 Si02
#       7
#     2   2   2   2   2   2   2
#     4  11  21  34  58  91 124 158 190 230 284 361
#     4  10  20  35  55  89 118 165 184 236 288 354
#     4  10  20  34  57  81 128 157 195 222 294 353
#     4   9  20  36  55  86 118 150 193 243 277 347
#     4  10  22  37  61  84 121 152 197 239 293 345
#     4   8  21  37  58  86 114 154 190 248 279 357
#     4  10  22  42  64  83 111 154 202 256 299 330
#
# _framework density 25.699781999999999
#
# number of rings (size 3 to 8) (size 9 to 14) (size 15 to 20)
#    0.857    1.429    1.429    0.857    4.000    2.286 
#    0.000    2.857    0.000    2.571    0.000    0.000 
#    0.000    0.000    0.000    0.000    0.000    0.000 
#
# Total GULP energy -78055.197806 kJ/mol
# GULP energy per Si atom -5575.371272 kJ/mol
# Density = 2.564129 g / cm^3
# Si number density = 25.699782 Si / 1000 Ang^3
#
#
#
# Elastic Constant Matrix: (Units=GPa)
#
#
# Indices 1 2 3 4 5 6 
#
# 1 129.7342 29.4949 51.0349 1.6817 1.6535 13.8101
# 2 29.4949 95.5990 43.0262 7.8259 11.8535 12.3775
# 3 51.0349 43.0262 170.9869 12.1489 26.3850 1.4629
# 4 1.6817 7.8259 12.1489 33.3440 5.2159 8.1251
# 5 1.6535 11.8535 26.3850 5.2159 41.1370 5.6659
# 6 13.8101 12.3775 1.4629 8.1251 5.6659 22.5695
#
#
#
# Elastic Compliance Matrix: (Units=1/GPa)
#
#
# Indices 1 2 3 4 5 6 
#
# 1 0.009863 -0.001290 -0.003117 0.002128 0.002606 -0.006546
# 2 -0.001290 0.012953 -0.002614 -0.000454 -0.001163 -0.005689
# 3 -0.003117 -0.002614 0.008329 -0.002728 -0.004805 0.004989
# 4 0.002128 -0.000454 -0.002728 0.034276 -0.000757 -0.013026
# 5 0.002606 -0.001163 -0.004805 -0.000757 0.028763 -0.007594
# 6 -0.006546 -0.005689 0.004989 -0.013026 -0.007594 0.057706
#
#
# Mechanical properties :
#
#
# Convention : Reuss Voigt Hill
#
# Bulk Modulus (GPa) = 58.46695 71.49244 64.97969
# Shear Modulus (GPa) = 29.13198 37.59438 33.36318
#
# Velocity S-wave (km/s) = 3.37048 3.82884 3.60695
# Velocity P-wave (km/s) = 6.16005 6.88661 6.53344
#
# Compressibility (1/GPa) = 0.01710368
#
# Stress axis : x y z
#
# Youngs Moduli (GPa) = 101.38416 77.20327 120.06268
#
# Poissons Ratio (x) = 0.09961 0.37420
# Poissons Ratio (y) = 0.13081 0.31383
# Poissons Ratio (z) = 0.31598 0.20180
#
# Static dielectric constant tensor:
#      x y z
#    x 2.185680 -0.043150 0.038650 
#    y -0.043150 2.022240 0.024690 
#    z 0.038650 0.024690 2.025840 
# 
# From -- ./inp_files/215041.got.cif
#   From: 2010.05.17/outbox.cif.g08.bks.cpg/sg2_108_cif.got.tgz:215041.got - 2010.06.03 11:33:40.
