data_PCOD9094867
_publ_section_title
;
Structure prediction by ZEFSAII (Michael W. Deem and Ramdas Pophale) SiO2 
 PCOD9094867
Probable space group: P -1
;
_chemical_formula_sum "Si O2"
_cell_formula_units_Z 16
_cell_length_a 7.840707
_cell_length_b 14.869165
_cell_length_c 10.182995
_cell_angle_alpha 111.174908
_cell_angle_beta 135.577477
_cell_angle_gamma 94.893583
_cell_volume 659.023522
_symmetry_space_group_name_H-M "P -1"
_symmetry_group_IT_number 2
_symmetry_cell_setting 'triclinic'
loop_
_space_group_symop_operation_xyz
x,y,z
-x,-y,-z
loop_
_atom_site_type_symbol
_atom_site_label
_atom_site_fract_x
_atom_site_fract_y
_atom_site_fract_z
Si Si1 0.679711 0.460031 0.891080
Si Si2 0.688450 0.662179 0.114889
Si Si3 0.746065 0.351648 0.358263
Si Si4 0.183116 0.716876 0.086040
Si Si5 0.789163 0.564969 0.557941
Si Si6 0.671567 0.918531 0.334299
Si Si7 0.067975 0.872309 0.289622
Si Si8 0.546275 0.894237 0.969189
O O1 0.468709 0.385400 0.859232
O O2 0.839120 0.392917 0.919357
O O3 0.509990 0.453490 0.662197
O O4 0.804209 0.583534 0.088515
O O5 0.923827 0.794142 0.299155
O O6 0.467086 0.652508 0.875353
O O7 0.761884 0.445379 0.514267
O O8 0.039078 0.399922 0.466968
O O9 0.643068 0.223606 0.275742
O O10 0.519130 0.810303 0.288006
O O11 0.088410 0.788264 0.157312
O O12 0.971979 0.660605 0.815349
O O13 0.484975 0.864831 0.073896
O O14 0.646075 0.015532 0.445733
O O15 0.000000 0.000000 0.500000
O O16 0.866695 0.915643 0.139543
O O17 0.500000 0.000000 0.000000
#
# Coordination Sequence:
#
# PCOD9094867 Si02
#       8
#     2   2   2   2   2   2   2   2
#     4  10  20  35  65  89 121 164 207 253 299 373
#     4   9  18  38  60  91 119 162 214 249 300 368
#     4   9  17  35  58  88 124 149 207 261 293 356
#     4  12  22  42  61  90 133 163 197 258 327 372
#     4  10  20  34  62  94 121 159 203 252 311 366
#     4  10  21  41  63  84 116 163 215 252 306 363
#     4  10  23  40  62  87 127 166 199 259 323 367
#     4  10  20  39  62  89 118 158 214 260 297 365
#
# _framework density 24.278347
#
# number of rings (size 3 to 8) (size 9 to 14) (size 15 to 20)
#    0.000    2.000    2.500    1.875    1.750    3.500 
#    2.250    6.250    0.000    0.000    0.000    0.000 
#    0.000    0.000    0.000    0.000    0.000    0.000 
#
# Total GULP energy -89111.317523 kJ/mol
# GULP energy per Si atom -5569.457345 kJ/mol
# Density = 2.422309 g / cm^3
# Si number density = 24.278347 Si / 1000 Ang^3
#
#
#
# Elastic Constant Matrix: (Units=GPa)
#
#
# Indices 1 2 3 4 5 6 
#
# 1 83.6895 26.5044 5.9451 9.9730 -7.6402 -24.9802
# 2 26.5044 156.9760 28.9171 29.6429 5.1101 -31.7690
# 3 5.9451 28.9171 67.7149 29.1434 -5.5450 -13.6810
# 4 9.9730 29.6429 29.1434 54.2214 -11.0593 3.6713
# 5 -7.6402 5.1101 -5.5450 -11.0593 31.8412 14.4045
# 6 -24.9802 -31.7690 -13.6810 3.6713 14.4045 40.6215
#
#
#
# Elastic Compliance Matrix: (Units=1/GPa)
#
#
# Indices 1 2 3 4 5 6 
#
# 1 0.016122 0.001087 0.003945 -0.007648 -0.004834 0.014498
# 2 0.001087 0.011459 0.001902 -0.011011 -0.012111 0.015560
# 3 0.003945 0.001902 0.023757 -0.017454 -0.008799 0.016612
# 4 -0.007648 -0.011011 -0.017454 0.042842 0.026450 -0.032444
# 5 -0.004834 -0.012111 -0.008799 0.026450 0.057047 -0.038027
# 6 0.014498 0.015560 0.016612 -0.032444 -0.038027 0.067714
#
#
# Mechanical properties :
#
#
# Convention : Reuss Voigt Hill
#
# Bulk Modulus (GPa) = 15.33595 47.90152 31.61874
# Shear Modulus (GPa) = 22.04499 41.80440 31.92470
#
# Velocity S-wave (km/s) = 3.01659 4.15406 3.63015
# Velocity P-wave (km/s) = 4.29692 6.54074 5.53375
#
# Compressibility (1/GPa) = 0.06520626
#
# Stress axis : x y z
#
# Youngs Moduli (GPa) = 62.02682 87.26653 42.09295
#
# Poissons Ratio (x) = -0.09485 -0.16607
# Poissons Ratio (y) = -0.06741 -0.08006
# Poissons Ratio (z) = -0.24471 -0.16598
#
# Static dielectric constant tensor:
#      x y z
#    x 2.122880 -0.048860 0.034620 
#    y -0.048860 1.980900 -0.017460 
#    z 0.034620 -0.017460 2.182580 
# 
# From -- ./inp_files/304546.got.cif
#   From: 2010.05.17/outbox.cif.g08.bks.cpg/sg2_153_cif.got.tgz:304546.got - 2010.06.03 11:33:40.
