data_PCOD9094786
_publ_section_title
;
Structure prediction by ZEFSAII (Michael W. Deem and Ramdas Pophale) SiO2 
 PCOD9094786
Probable space group: P -1
;
_chemical_formula_sum "Si O2"
_cell_formula_units_Z 16
_cell_length_a 10.699532
_cell_length_b 16.493274
_cell_length_c 12.865171
_cell_angle_alpha 156.696246
_cell_angle_beta 116.184863
_cell_angle_gamma 65.600371
_cell_volume 805.782960
_symmetry_space_group_name_H-M "P -1"
_symmetry_group_IT_number 2
_symmetry_cell_setting 'triclinic'
loop_
_space_group_symop_operation_xyz
x,y,z
-x,-y,-z
loop_
_atom_site_type_symbol
_atom_site_label
_atom_site_fract_x
_atom_site_fract_y
_atom_site_fract_z
Si Si1 0.383058 0.322193 0.335393
Si Si2 0.538970 0.253219 0.099118
Si Si3 0.034986 0.234886 0.412425
Si Si4 0.151965 0.415320 0.197801
Si Si5 0.222121 0.019103 0.062571
Si Si6 0.120825 0.213357 0.646136
Si Si7 0.733070 0.959381 0.316565
Si Si8 0.809660 0.370602 0.751885
O O1 0.489626 0.254565 0.204159
O O2 0.444327 0.508831 0.642691
O O3 0.254190 0.421003 0.339179
O O4 0.322988 0.139152 0.163984
O O5 0.414430 0.150984 0.871163
O O6 0.682482 0.125897 0.000035
O O7 0.135256 0.182164 0.291958
O O8 0.102084 0.159302 0.456041
O O9 0.992519 0.474335 0.694255
O O10 0.891305 0.115898 0.198141
O O11 0.204385 0.548672 0.276000
O O12 0.164198 0.182900 0.886313
O O13 0.197272 0.050085 0.555959
O O14 0.966306 0.272262 0.701922
O O15 0.199965 0.428300 0.943614
O O16 0.714594 0.184962 0.529428
#
# Coordination Sequence:
#
# PCOD9094786 Si02
#       8
#     2   2   2   2   2   2   2   2
#     4  10  21  37  59  84 113 151 184 238 287 326
#     4  10  22  37  56  87 114 140 195 238 273 339
#     4  10  22  40  57  81 121 149 189 236 267 344
#     4   9  19  33  55  86 116 137 186 232 279 331
#     4  11  23  40  57  83 114 158 190 223 284 333
#     4   9  19  35  53  83 117 142 187 234 278 332
#     4  10  20  34  61  85 111 149 184 233 290 332
#     4   9  18  34  55  87 116 144 180 239 284 334
#
# _framework density 19.856462000000001
#
# number of rings (size 3 to 8) (size 9 to 14) (size 15 to 20)
#    0.000    2.250    1.250    1.500    7.000    4.500 
#    0.000    0.625    0.000    1.500    0.000    0.000 
#    0.000    0.000    0.000    0.000    0.000    0.000 
#
# Total GULP energy -89277.949637 kJ/mol
# GULP energy per Si atom -5579.871852 kJ/mol
# Density = 1.981127 g / cm^3
# Si number density = 19.856462 Si / 1000 Ang^3
#
#
#
# Elastic Constant Matrix: (Units=GPa)
#
#
# Indices 1 2 3 4 5 6 
#
# 1 26.3740 -8.8598 9.5983 4.7607 -5.3233 -2.8469
# 2 -8.8598 52.3122 13.4661 -0.8886 -5.3232 -8.4043
# 3 9.5983 13.4661 34.8414 7.4386 -1.9157 0.3592
# 4 4.7607 -0.8886 7.4386 28.3787 1.9148 -0.5852
# 5 -5.3233 -5.3232 -1.9157 1.9148 24.9589 0.7805
# 6 -2.8469 -8.4043 0.3592 -0.5852 0.7805 16.2606
#
#
#
# Elastic Compliance Matrix: (Units=1/GPa)
#
#
# Indices 1 2 3 4 5 6 
#
# 1 0.059108 0.020664 -0.022839 -0.003862 0.014910 0.020678
# 2 0.020664 0.031379 -0.017967 0.002032 0.008943 0.019877
# 3 -0.022839 -0.017967 0.043593 -0.008164 -0.004283 -0.014336
# 4 -0.003862 0.002032 -0.008164 0.038405 -0.004030 0.002130
# 5 0.014910 0.008943 -0.004283 -0.004030 0.044977 0.005023
# 6 0.020678 0.019877 -0.014336 0.002130 0.005023 0.075544
#
#
# Mechanical properties :
#
#
# Convention : Reuss Voigt Hill
#
# Bulk Modulus (GPa) = 10.66157 15.77074 13.21615
# Shear Modulus (GPa) = 13.71535 20.54118 17.12827
#
# Velocity S-wave (km/s) = 2.63102 3.21983 2.94020
# Velocity P-wave (km/s) = 3.82239 4.66719 4.26575
#
# Compressibility (1/GPa) = 0.09379484
#
# Stress axis : x y z
#
# Youngs Moduli (GPa) = 16.91820 31.86883 22.93949
#
# Poissons Ratio (x) = -0.65853 0.52391
# Poissons Ratio (y) = -0.34959 0.41216
# Poissons Ratio (z) = 0.38639 0.57260
#
# Static dielectric constant tensor:
#      x y z
#    x 1.698670 -0.019750 0.010670 
#    y -0.019750 1.704950 -0.001980 
#    z 0.010670 -0.001980 1.747480 
# 
# From -- ./inp_files/523121.got.cif
#   From: 2010.05.17/outbox.cif.g08.bks.cpg/sg2_262_cif.got.tgz:523121.got - 2010.06.03 11:33:40.
