data_PCOD9094268
_publ_section_title
;
Structure prediction by ZEFSAII (Michael W. Deem and Ramdas Pophale) SiO2 
 PCOD9094268
Probable space group: P -1
;
_chemical_formula_sum "Si O2"
_cell_formula_units_Z 16
_cell_length_a 15.770290
_cell_length_b 20.728142
_cell_length_c 11.794644
_cell_angle_alpha 26.905546
_cell_angle_beta 43.804738
_cell_angle_gamma 25.663540
_cell_volume 686.143546
_symmetry_space_group_name_H-M "P -1"
_symmetry_group_IT_number 2
_symmetry_cell_setting 'triclinic'
loop_
_space_group_symop_operation_xyz
x,y,z
-x,-y,-z
loop_
_atom_site_type_symbol
_atom_site_label
_atom_site_fract_x
_atom_site_fract_y
_atom_site_fract_z
Si Si1 0.337841 0.048077 0.645191
Si Si2 0.272555 0.614599 0.538973
Si Si3 0.381195 0.794851 0.697325
Si Si4 0.064217 0.837951 0.982027
Si Si5 0.033972 0.332254 0.306808
Si Si6 0.556579 0.648482 0.510440
Si Si7 0.339859 0.921082 0.077737
Si Si8 0.422873 0.455181 0.882681
O O1 0.500000 0.000000 0.500000
O O2 0.112527 0.294443 0.415932
O O3 0.345982 0.033855 0.795777
O O4 0.407894 0.820526 0.899130
O O5 0.521956 0.348822 0.680962
O O6 0.247094 0.627887 0.680665
O O7 0.175983 0.562380 0.661440
O O8 0.109536 0.890043 0.217725
O O9 0.446136 0.774994 0.540344
O O10 0.246015 0.774444 0.859713
O O11 0.220918 0.061576 0.489625
O O12 0.586149 0.587563 0.910686
O O13 0.906377 0.899212 0.956388
O O14 0.190762 0.609445 0.300294
O O15 0.000000 0.500000 0.000000
O O16 0.450257 0.850059 0.202008
O O17 0.499225 0.543477 0.686558
#
# Coordination Sequence:
#
# PCOD9094268 Si02
#       8
#     2   2   2   2   2   2   2   2
#     4  10  22  39  60  87 118 156 210 255 300 357
#     4  10  20  34  55  93 122 157 205 251 306 353
#     4   9  21  39  57  93 125 160 207 246 298 367
#     4  10  20  35  56  88 125 167 196 245 300 361
#     4  10  20  39  66  89 113 157 206 257 303 356
#     4  11  22  38  59  90 132 164 198 247 306 371
#     4  11  23  36  59  90 130 161 197 256 312 356
#     4   9  17  35  58  83 120 162 194 248 296 349
#
# _framework density 23.318736000000001
#
# number of rings (size 3 to 8) (size 9 to 14) (size 15 to 20)
#    0.000    2.000    1.250    4.125    3.500    1.000 
#    4.500    0.000    0.000    7.500    0.000    0.000 
#    0.000    0.000    0.000    0.000    0.000    0.000 
#
# Total GULP energy -89137.986936 kJ/mol
# GULP energy per Si atom -5571.124183 kJ/mol
# Density = 2.326566 g / cm^3
# Si number density = 23.318736 Si / 1000 Ang^3
#
#
#
# Elastic Constant Matrix: (Units=GPa)
#
#
# Indices 1 2 3 4 5 6 
#
# 1 66.7373 37.8969 41.0301 2.7573 55.2995 3.9744
# 2 37.8969 71.0064 38.5116 18.1831 33.8467 2.0167
# 3 41.0301 38.5116 126.2017 20.6300 59.8195 10.8946
# 4 2.7573 18.1831 20.6300 27.3215 5.9376 16.3125
# 5 55.2995 33.8467 59.8195 5.9376 55.6630 2.2651
# 6 3.9744 2.0167 10.8946 16.3125 2.2651 23.5341
#
#
#
# Elastic Compliance Matrix: (Units=1/GPa)
#
#
# Indices 1 2 3 4 5 6 
#
# 1 0.234985 -0.040378 0.067969 0.064607 -0.285376 -0.085004
# 2 -0.040378 0.033923 -0.008840 -0.036972 0.031687 0.030581
# 3 0.067969 -0.008840 0.038373 0.006038 -0.103107 -0.022746
# 4 0.064607 -0.036972 0.006038 0.111731 -0.056753 -0.082521
# 5 -0.285376 0.031687 -0.103107 -0.056753 0.395224 0.094509
# 6 -0.085004 0.030581 -0.022746 -0.082521 0.094509 0.112859
#
#
# Mechanical properties :
#
#
# Convention : Reuss Voigt Hill
#
# Bulk Modulus (GPa) = 2.90038 55.42474 29.16256
# Shear Modulus (GPa) = 4.97750 31.07083 18.02417
#
# Velocity S-wave (km/s) = 1.46259 3.65422 2.78321
# Velocity P-wave (km/s) = 2.02454 6.45170 4.78138
#
# Compressibility (1/GPa) = 0.34478234
#
# Stress axis : x y z
#
# Youngs Moduli (GPa) = 4.25559 29.47853 26.06016
#
# Poissons Ratio (x) = 1.19029 -1.77129
# Poissons Ratio (y) = 0.17183 0.23038
# Poissons Ratio (z) = -0.28925 0.26060
#
# Static dielectric constant tensor:
#      x y z
#    x 1.953920 -0.034520 0.032300 
#    y -0.034520 1.956970 0.015760 
#    z 0.032300 0.015760 1.943600 
# 
# From -- ./inp_files/457627.got.cif
#   From: 2010.05.17/outbox.cif.g08.bks.cpg/sg2_229_cif.got.tgz:457627.got - 2010.06.03 11:33:40.
