data_PCOD9094270
_publ_section_title
;
Structure prediction by ZEFSAII (Michael W. Deem and Ramdas Pophale) SiO2 
 PCOD9094270
Probable space group: P -1
;
_chemical_formula_sum "Si O2"
_cell_formula_units_Z 14
_cell_length_a 8.630019
_cell_length_b 18.442989
_cell_length_c 8.785031
_cell_angle_alpha 28.509142
_cell_angle_beta 94.162915
_cell_angle_gamma 99.250477
_cell_volume 651.671459
_symmetry_space_group_name_H-M "P -1"
_symmetry_group_IT_number 2
_symmetry_cell_setting 'triclinic'
loop_
_space_group_symop_operation_xyz
x,y,z
-x,-y,-z
loop_
_atom_site_type_symbol
_atom_site_label
_atom_site_fract_x
_atom_site_fract_y
_atom_site_fract_z
Si Si1 0.850767 0.921848 0.334160
Si Si2 0.644480 0.321811 0.367337
Si Si3 0.260229 0.897484 0.747021
Si Si4 0.372995 0.379966 0.006020
Si Si5 0.574721 0.772825 0.001413
Si Si6 0.378918 0.112029 0.906621
Si Si7 0.175308 0.834380 0.533357
O O1 0.773009 0.760080 0.708845
O O2 0.747473 0.913471 0.190150
O O3 0.032166 0.915847 0.329890
O O4 0.831150 0.063965 0.180594
O O5 0.521777 0.353932 0.168313
O O6 0.548709 0.174247 0.727750
O O7 0.802544 0.300590 0.330471
O O8 0.668854 0.462285 0.228475
O O9 0.399051 0.804726 0.957559
O O10 0.163369 0.810692 0.757068
O O11 0.336009 0.070337 0.369047
O O12 0.416353 0.363899 0.862688
O O13 0.645030 0.765809 0.188619
O O14 0.344470 0.952791 0.293746
#
# Coordination Sequence:
#
# PCOD9094270 Si02
#       7
#     2   2   2   2   2   2   2
#     4  10  21  34  53  78 110 135 167 209 262 312
#     4  10  20  34  56  76 103 136 178 214 248 301
#     4   9  18  31  53  79 100 134 174 213 255 298
#     4   9  19  37  54  77 100 137 180 212 247 302
#     4   9  17  32  55  76 102 131 175 219 249 296
#     4  10  22  33  53  80 106 135 170 215 259 302
#     4  11  20  34  53  81 107 135 166 213 264 307
#
# _framework density 21.483218000000001
#
# number of rings (size 3 to 8) (size 9 to 14) (size 15 to 20)
#    0.000    2.286    1.429    1.286    8.000    1.143 
#    0.000    0.000    0.000    0.857    0.000    0.000 
#    0.000    0.000    0.000    0.000    0.000    0.000 
#
# Total GULP energy -78052.334948 kJ/mol
# GULP energy per Si atom -5575.166782 kJ/mol
# Density = 2.143432 g / cm^3
# Si number density = 21.483218 Si / 1000 Ang^3
#
#
#
# Elastic Constant Matrix: (Units=GPa)
#
#
# Indices 1 2 3 4 5 6 
#
# 1 63.5352 62.4650 11.0767 -3.0970 12.6151 -30.1437
# 2 62.4650 227.6555 31.9600 -4.6615 20.6141 -33.8360
# 3 11.0767 31.9600 26.2305 0.0803 -0.2845 -9.0897
# 4 -3.0970 -4.6615 0.0803 30.0918 -1.8094 12.0400
# 5 12.6151 20.6141 -0.2845 -1.8094 22.0838 -2.4249
# 6 -30.1437 -33.8360 -9.0897 12.0400 -2.4249 29.4269
#
#
#
# Elastic Compliance Matrix: (Units=1/GPa)
#
#
# Indices 1 2 3 4 5 6 
#
# 1 0.043929 -0.004370 0.002448 -0.015458 -0.017239 0.045635
# 2 -0.004370 0.007046 -0.006294 -0.000147 -0.004019 0.001410
# 3 0.002448 -0.006294 0.049512 -0.005879 0.006112 0.013474
# 4 -0.015458 -0.000147 -0.005879 0.046635 0.008740 -0.036180
# 5 -0.017239 -0.004019 0.006112 0.008740 0.057565 -0.019224
# 6 0.045635 0.001410 0.013474 -0.036180 -0.019224 0.099731
#
#
# Mechanical properties :
#
#
# Convention : Reuss Voigt Hill
#
# Bulk Modulus (GPa) = 11.89693 58.71385 35.30539
# Shear Modulus (GPa) = 14.33212 30.44846 22.39029
#
# Velocity S-wave (km/s) = 2.58569 3.76881 3.23185
# Velocity P-wave (km/s) = 3.80318 6.80647 5.51326
#
# Compressibility (1/GPa) = 0.08405529
#
# Stress axis : x y z
#
# Youngs Moduli (GPa) = 22.76382 141.93090 20.19730
#
# Poissons Ratio (x) = 0.62026 -0.04945
# Poissons Ratio (y) = 0.09948 0.12712
# Poissons Ratio (z) = -0.05573 0.89329
#
# Static dielectric constant tensor:
#      x y z
#    x 1.755570 -0.006320 -0.013960 
#    y -0.006320 1.903080 -0.025870 
#    z -0.013960 -0.025870 1.839920 
# 
# From -- ./inp_files/154033.got.cif
#   From: 2010.05.17/outbox.cif.g08.bks.cpg/sg2_78_cif.got.tgz:154033.got - 2010.06.03 11:33:40.
