data_PCOD9094679
_publ_section_title
;
Structure prediction by ZEFSAII (Michael W. Deem and Ramdas Pophale) SiO2 
 PCOD9094679
Probable space group: P -1
;
_chemical_formula_sum "Si O2"
_cell_formula_units_Z 16
_cell_length_a 8.724497
_cell_length_b 9.550589
_cell_length_c 20.493528
_cell_angle_alpha 48.191598
_cell_angle_beta 37.366992
_cell_angle_gamma 72.484736
_cell_volume 666.343188
_symmetry_space_group_name_H-M "P -1"
_symmetry_group_IT_number 2
_symmetry_cell_setting 'triclinic'
loop_
_space_group_symop_operation_xyz
x,y,z
-x,-y,-z
loop_
_atom_site_type_symbol
_atom_site_label
_atom_site_fract_x
_atom_site_fract_y
_atom_site_fract_z
Si Si1 0.213104 0.570780 0.504608
Si Si2 0.597427 0.338173 0.452903
Si Si3 0.191240 0.453334 0.188679
Si Si4 0.309223 0.779149 0.947712
Si Si5 0.857137 0.393277 0.149671
Si Si6 0.909044 0.051680 0.318134
Si Si7 0.675517 0.808107 0.687246
Si Si8 0.716083 0.191906 0.730188
O O1 0.406101 0.454027 0.479454
O O2 0.350648 0.730522 0.470805
O O3 0.248495 0.689275 0.387632
O O4 0.871392 0.375420 0.676416
O O5 0.935684 0.507279 0.271809
O O6 0.422510 0.140690 0.523450
O O7 0.331380 0.410706 0.216987
O O8 0.004296 0.207279 0.300019
O O9 0.388380 0.632259 0.013549
O O10 0.507666 0.847213 0.793046
O O11 0.384358 0.990268 0.899277
O O12 0.983045 0.600741 0.090472
O O13 0.961720 0.228272 0.189371
O O14 0.514842 0.255960 0.294217
O O15 0.000000 0.500000 0.000000
O O16 0.098021 0.932512 0.291468
O O17 0.000000 0.000000 0.500000
#
# Coordination Sequence:
#
# PCOD9094679 Si02
#       8
#     2   2   2   2   2   2   2   2
#     4   9  22  41  60  90 117 163 230 258 298 348
#     4  10  21  39  61  89 125 163 206 273 296 363
#     4  11  22  36  61  94 131 158 200 247 329 388
#     4  10  22  40  58  90 132 165 191 252 332 370
#     4   9  21  34  53  89 134 157 191 241 308 388
#     4  10  20  34  59  93 128 157 202 244 323 373
#     4  11  22  36  58  93 131 164 204 241 298 392
#     4  10  20  39  65  84 119 171 208 260 303 373
#
# _framework density 24.011649999999999
#
# number of rings (size 3 to 8) (size 9 to 14) (size 15 to 20)
#    0.000    2.000    1.250    1.500    8.750    1.000 
#    0.000    1.250    0.000    0.000    0.000    0.000 
#    0.000    0.000    0.000    0.000    0.000    0.000 
#
# Total GULP energy -89106.488047 kJ/mol
# GULP energy per Si atom -5569.155503 kJ/mol
# Density = 2.395700 g / cm^3
# Si number density = 24.011650 Si / 1000 Ang^3
#
#
#
# Elastic Constant Matrix: (Units=GPa)
#
#
# Indices 1 2 3 4 5 6 
#
# 1 175.2231 29.9823 43.6649 -16.2439 -4.9369 -3.1453
# 2 29.9823 28.6352 3.6980 -14.0769 -6.0558 12.2157
# 3 43.6649 3.6980 87.5489 -17.3989 -12.8688 -1.0136
# 4 -16.2439 -14.0769 -17.3989 29.3535 4.0073 -3.4361
# 5 -4.9369 -6.0558 -12.8688 4.0073 53.0895 -10.8963
# 6 -3.1453 12.2157 -1.0136 -3.4361 -10.8963 20.4959
#
#
#
# Elastic Compliance Matrix: (Units=1/GPa)
#
#
# Indices 1 2 3 4 5 6 
#
# 1 0.009238 -0.014931 -0.004546 -0.003656 0.000309 0.009643
# 2 -0.014931 0.085903 0.009608 0.033200 -0.001690 -0.048347
# 3 -0.004546 0.009608 0.015892 0.010820 0.003282 -0.002079
# 4 -0.003656 0.033200 0.010820 0.053117 -0.000200 -0.011015
# 5 0.000309 -0.001690 0.003282 -0.000200 0.022142 0.012954
# 6 0.009643 -0.048347 -0.002079 -0.011015 0.012954 0.084023
#
#
# Mechanical properties :
#
#
# Convention : Reuss Voigt Hill
#
# Bulk Modulus (GPa) = 10.95353 49.56641 30.25997
# Shear Modulus (GPa) = 15.60142 34.85856 25.22999
#
# Velocity S-wave (km/s) = 2.55177 3.81430 3.24503
# Velocity P-wave (km/s) = 3.64057 6.33135 5.16428
#
# Compressibility (1/GPa) = 0.09129478
#
# Stress axis : x y z
#
# Youngs Moduli (GPa) = 108.25422 11.64109 62.92295
#
# Poissons Ratio (x) = 0.17381 0.28605
# Poissons Ratio (y) = 1.61632 -0.60456
# Poissons Ratio (z) = 0.49213 -0.11185
#
# Static dielectric constant tensor:
#      x y z
#    x 1.979760 0.030930 -0.043370 
#    y 0.030930 1.997930 0.020360 
#    z -0.043370 0.020360 1.979980 
# 
# From -- ./inp_files/607519.got.cif
#   From: 2010.05.17/outbox.cif.g08.bks.cpg/sg2_304_cif.got.tgz:607519.got - 2010.06.03 11:33:40.
