data_PCOD9094012
_publ_section_title
;
Structure prediction by ZEFSAII (Michael W. Deem and Ramdas Pophale) SiO2 
 PCOD9094012
Probable space group: P -1
;
_chemical_formula_sum "Si O2"
_cell_formula_units_Z 16
_cell_length_a 12.297031
_cell_length_b 13.090651
_cell_length_c 9.592980
_cell_angle_alpha 43.259156
_cell_angle_beta 141.270191
_cell_angle_gamma 138.761623
_cell_volume 598.142228
_symmetry_space_group_name_H-M "P -1"
_symmetry_group_IT_number 2
_symmetry_cell_setting 'triclinic'
loop_
_space_group_symop_operation_xyz
x,y,z
-x,-y,-z
loop_
_atom_site_type_symbol
_atom_site_label
_atom_site_fract_x
_atom_site_fract_y
_atom_site_fract_z
Si Si1 0.990748 0.566688 0.140581
Si Si2 0.316018 0.032214 0.071084
Si Si3 0.067474 0.737962 0.307228
Si Si4 0.833800 0.246762 0.134771
Si Si5 0.424059 0.433311 0.274228
Si Si6 0.716200 0.032218 0.471260
Si Si7 0.587040 0.753239 0.286066
Si Si8 0.329506 0.262031 0.089761
O O1 0.979516 0.406938 0.207545
O O2 0.074848 0.600194 0.346939
O O3 0.775015 0.550030 0.955236
O O4 0.099564 0.717407 0.992841
O O5 0.488396 0.976789 0.287141
O O6 0.396219 0.196184 0.087236
O O7 0.146527 0.895608 0.123712
O O8 0.277859 0.090698 0.825060
O O9 0.200033 0.803810 0.509026
O O10 0.851962 0.703925 0.164232
O O11 0.812840 0.090699 0.360037
O O12 0.621539 0.243080 0.931306
O O13 0.572578 0.593062 0.344547
O O14 0.382152 0.282592 0.488878
O O15 0.474649 0.399798 0.202568
O O16 0.749091 0.895616 0.726267
#
# Coordination Sequence:
#
# PCOD9094012 Si02
#       8
#     2   2   2   2   2   2   2   2
#     4   9  19  35  53  74 100 130 165 204 245 291
#     4  10  20  34  52  74 101 131 165 204 245 292
#     4  10  20  34  52  74 101 131 165 204 245 292
#     4   9  19  35  53  74 100 130 165 204 245 291
#     4   9  19  35  53  74 100 130 165 204 245 291
#     4  10  20  34  52  74 101 131 165 204 245 292
#     4   9  19  35  53  74 100 130 165 204 245 291
#     4  10  20  34  52  74 101 131 165 204 245 292
#
# _framework density 26.749493000000001
#
# number of rings (size 3 to 8) (size 9 to 14) (size 15 to 20)
#    0.000    2.500    0.000    3.000    0.000    6.000 
#    0.000    5.000    0.000    0.000    0.000    0.000 
#    0.000    0.000    0.000    0.000    0.000    0.000 
#
# Total GULP energy -89538.646277 kJ/mol
# GULP energy per Si atom -5596.165392 kJ/mol
# Density = 2.668861 g / cm^3
# Si number density = 26.749493 Si / 1000 Ang^3
#
#
#
# Elastic Constant Matrix: (Units=GPa)
#
#
# Indices 1 2 3 4 5 6 
#
# 1 99.3216 20.8882 34.9389 5.6221 -30.8580 -0.2585
# 2 20.8882 59.8298 12.4528 2.3929 -6.5323 -6.2940
# 3 34.9389 12.4528 94.7598 -8.0436 -21.3019 5.3523
# 4 5.6221 2.3929 -8.0436 34.5513 3.4613 -17.9094
# 5 -30.8580 -6.5323 -21.3019 3.4613 61.2104 4.6324
# 6 -0.2585 -6.2940 5.3523 -17.9094 4.6324 45.7637
#
#
#
# Elastic Compliance Matrix: (Units=1/GPa)
#
#
# Indices 1 2 3 4 5 6 
#
# 1 0.014254 -0.003621 -0.003707 -0.004810 0.005968 -0.002470
# 2 -0.003621 0.018483 -0.001341 0.000594 -0.000578 0.002969
# 3 -0.003707 -0.001341 0.012933 0.003079 0.002372 -0.000753
# 4 -0.004810 0.000594 0.003079 0.038828 -0.004648 0.015360
# 5 0.005968 -0.000578 0.002372 -0.004648 0.020693 -0.004237
# 6 -0.002470 0.002969 -0.000753 0.015360 -0.004237 0.028774
#
#
# Mechanical properties :
#
#
# Convention : Reuss Voigt Hill
#
# Bulk Modulus (GPa) = 35.29526 43.38567 39.34046
# Shear Modulus (GPa) = 31.10486 40.68052 35.89269
#
# Velocity S-wave (km/s) = 3.41371 3.90397 3.66704
# Velocity P-wave (km/s) = 5.36296 6.04779 5.71564
#
# Compressibility (1/GPa) = 0.02833242
#
# Stress axis : x y z
#
# Youngs Moduli (GPa) = 70.15632 54.10428 77.32113
#
# Poissons Ratio (x) = 0.19590 0.28661
# Poissons Ratio (y) = 0.25402 0.10370
# Poissons Ratio (z) = 0.26006 0.07256
#
# Static dielectric constant tensor:
#      x y z
#    x 2.012150 -0.061050 -0.053340 
#    y -0.061050 2.262000 -0.042220 
#    z -0.053340 -0.042220 1.993090 
# 
# From -- ./inp_files/204272.got.cif
#   From: 2010.05.17/outbox.cif.g08.bks.cpg/sg2_103_cif.got.tgz:204272.got - 2010.06.03 11:33:40.
