data_PCOD9094748
_publ_section_title
;
Structure prediction by ZEFSAII (Michael W. Deem and Ramdas Pophale) SiO2 
 PCOD9094748
Probable space group: P -1
;
_chemical_formula_sum "Si O2"
_cell_formula_units_Z 16
_cell_length_a 8.744594
_cell_length_b 14.000645
_cell_length_c 9.353110
_cell_angle_alpha 55.732975
_cell_angle_beta 123.035395
_cell_angle_gamma 87.146195
_cell_volume 680.091918
_symmetry_space_group_name_H-M "P -1"
_symmetry_group_IT_number 2
_symmetry_cell_setting 'triclinic'
loop_
_space_group_symop_operation_xyz
x,y,z
-x,-y,-z
loop_
_atom_site_type_symbol
_atom_site_label
_atom_site_fract_x
_atom_site_fract_y
_atom_site_fract_z
Si Si1 0.245580 0.418696 0.235967
Si Si2 0.977806 0.244453 0.823388
Si Si3 0.972012 0.867915 0.496374
Si Si4 0.349533 0.459371 0.549694
Si Si5 0.658583 0.149455 0.630900
Si Si6 0.599093 0.402922 0.992592
Si Si7 0.697592 0.932243 0.052352
Si Si8 0.894715 0.932977 0.697832
O O1 0.280369 0.394857 0.444564
O O2 0.420588 0.273256 0.386343
O O3 0.316578 0.518591 0.125174
O O4 0.000000 0.500000 0.000000
O O5 0.856798 0.402653 0.624685
O O6 0.827434 0.199151 0.701807
O O7 0.219520 0.171386 0.950813
O O8 0.987482 0.194871 0.032444
O O9 0.877998 0.837777 0.337370
O O10 0.959297 0.007246 0.328840
O O11 0.836967 0.894639 0.549826
O O12 0.209628 0.744772 0.744227
O O13 0.500000 0.500000 0.500000
O O14 0.454254 0.385677 0.813838
O O15 0.722635 0.052318 0.608348
O O16 0.692605 0.058005 0.864252
O O17 0.500000 0.500000 0.000000
O O18 0.500000 0.000000 0.000000
#
# Coordination Sequence:
#
# PCOD9094748 Si02
#       8
#     2   2   2   2   2   2   2   2
#     4  11  25  42  62  91 125 163 205 254 315 370
#     4  11  18  41  66  86 114 161 217 245 294 376
#     4  11  21  34  59  93 126 145 203 252 304 351
#     4  10  20  39  67  92 117 164 213 254 302 368
#     4  11  20  41  65  83 119 162 213 244 303 372
#     4  11  22  38  66  94 122 162 209 255 300 366
#     4  11  24  39  59  90 126 163 191 258 318 363
#     4  10  20  34  60  92 112 154 200 259 287 348
#
# _framework density 23.526232
#
# number of rings (size 3 to 8) (size 9 to 14) (size 15 to 20)
#    0.000    1.250    5.000    3.750    1.750    0.000 
#    2.250    1.875    0.000    0.000    0.000    0.000 
#    0.000    0.000    0.000    0.000    0.000    0.000 
#
# Total GULP energy -89204.746668 kJ/mol
# GULP energy per Si atom -5575.296667 kJ/mol
# Density = 2.347268 g / cm^3
# Si number density = 23.526232 Si / 1000 Ang^3
#
#
#
# Elastic Constant Matrix: (Units=GPa)
#
#
# Indices 1 2 3 4 5 6 
#
# 1 81.4554 29.0868 25.9459 6.7197 -3.8440 -34.9393
# 2 29.0868 47.2285 21.1650 6.0776 -3.1156 -30.3224
# 3 25.9459 21.1650 150.2768 7.0962 -5.3371 -22.5863
# 4 6.7197 6.0776 7.0962 40.9365 -15.3431 -5.7699
# 5 -3.8440 -3.1156 -5.3371 -15.3431 26.4245 -2.1221
# 6 -34.9393 -30.3224 -22.5863 -5.7699 -2.1221 32.4252
#
#
#
# Elastic Compliance Matrix: (Units=1/GPa)
#
#
# Indices 1 2 3 4 5 6 
#
# 1 0.024617 0.006991 0.000087 0.003099 0.008974 0.034263
# 2 0.006991 0.058529 0.000602 0.005288 0.016306 0.064695
# 3 0.000087 0.000602 0.007539 0.000303 0.002273 0.006112
# 4 0.003099 0.005288 0.000303 0.033521 0.021875 0.015892
# 5 0.008974 0.016306 0.002273 0.021875 0.056973 0.034123
# 6 0.034263 0.064695 0.006112 0.015892 0.034123 0.137577
#
#
# Mechanical properties :
#
#
# Convention : Reuss Voigt Hill
#
# Bulk Modulus (GPa) = 9.42975 47.92847 28.67911
# Shear Modulus (GPa) = 14.76044 33.47476 24.11760
#
# Velocity S-wave (km/s) = 2.50752 3.77619 3.20525
# Velocity P-wave (km/s) = 3.52142 6.27928 5.09067
#
# Compressibility (1/GPa) = 0.10604730
#
# Stress axis : x y z
#
# Youngs Moduli (GPa) = 40.62258 17.08544 132.63483
#
# Poissons Ratio (x) = -0.11945 -0.01156
# Poissons Ratio (y) = -0.28400 -0.07991
# Poissons Ratio (z) = -0.00354 -0.01029
#
# Static dielectric constant tensor:
#      x y z
#    x 1.989630 0.005210 0.029080 
#    y 0.005210 2.058710 0.138510 
#    z 0.029080 0.138510 1.919280 
# 
# From -- ./inp_files/205737.got.cif
#   From: 2010.05.17/outbox.cif.g08.bks.cpg/sg2_103_cif.got.tgz:205737.got - 2010.06.03 11:33:40.
