data_PCOD9094804
_publ_section_title
;
Structure prediction by ZEFSAII (Michael W. Deem and Ramdas Pophale) SiO2 
 PCOD9094804
Probable space group: P -1
;
_chemical_formula_sum "Si O2"
_cell_formula_units_Z 14
_cell_length_a 18.184150
_cell_length_b 9.004118
_cell_length_c 8.880731
_cell_angle_alpha 114.793665
_cell_angle_beta 105.606927
_cell_angle_gamma 129.061952
_cell_volume 670.243984
_symmetry_space_group_name_H-M "P -1"
_symmetry_group_IT_number 2
_symmetry_cell_setting 'triclinic'
loop_
_space_group_symop_operation_xyz
x,y,z
-x,-y,-z
loop_
_atom_site_type_symbol
_atom_site_label
_atom_site_fract_x
_atom_site_fract_y
_atom_site_fract_z
Si Si1 0.333002 0.634162 0.759389
Si Si2 0.915659 0.709578 0.736999
Si Si3 0.836174 0.459800 0.141118
Si Si4 0.315564 0.154914 0.105331
Si Si5 0.651783 0.698683 0.483001
Si Si6 0.924795 0.191295 0.377328
Si Si7 0.865185 0.363042 0.812286
O O1 0.239535 0.526123 0.518384
O O2 0.245369 0.542252 0.818261
O O3 0.330793 0.435438 0.656150
O O4 0.500000 0.000000 0.000000
O O5 0.899263 0.516684 0.744052
O O6 0.014562 0.841648 0.707959
O O7 0.000000 0.000000 0.000000
O O8 0.004854 0.734360 0.394708
O O9 0.828790 0.435123 0.947552
O O10 0.752614 0.146443 0.023156
O O11 0.484289 0.439371 0.294136
O O12 0.291928 0.212101 0.273248
O O13 0.239223 0.084849 0.883768
O O14 0.734524 0.998466 0.578935
O O15 0.000000 0.500000 0.500000
O O16 0.000000 0.500000 0.000000
#
# Coordination Sequence:
#
# PCOD9094804 Si02
#       7
#     2   2   2   2   2   2   2
#     4  11  21  39  64  91 127 163 195 247 309 367
#     4  11  23  41  65  87 117 165 210 243 307 371
#     4   9  19  35  61  88 121 155 201 248 304 347
#     4   9  16  32  58  88 117 158 204 237 297 367
#     4  10  20  34  61  88 120 160 199 246 302 359
#     4   9  17  33  60  88 113 152 200 252 289 360
#     4  11  22  41  62  90 122 157 207 258 294 358
#
# _framework density 20.887916000000001
#
# number of rings (size 3 to 8) (size 9 to 14) (size 15 to 20)
#    0.000    2.000    1.429    4.286    0.000    0.000 
#    0.000    9.286    3.143    0.000    0.000    0.000 
#    0.000    0.000    0.000    0.000    0.000    0.000 
#
# Total GULP energy -78138.596075 kJ/mol
# GULP energy per Si atom -5581.328291 kJ/mol
# Density = 2.084037 g / cm^3
# Si number density = 20.887916 Si / 1000 Ang^3
#
#
#
# Elastic Constant Matrix: (Units=GPa)
#
#
# Indices 1 2 3 4 5 6 
#
# 1 90.0388 1.8054 43.3200 -2.8153 -18.6249 10.1105
# 2 1.8054 34.2367 14.8952 3.5033 3.2652 0.5106
# 3 43.3200 14.8952 119.7238 5.4573 3.6817 -1.0785
# 4 -2.8153 3.5033 5.4573 12.7825 6.4290 -0.4173
# 5 -18.6249 3.2652 3.6817 6.4290 52.2221 -5.2673
# 6 10.1105 0.5106 -1.0785 -0.4173 -5.2673 18.6216
#
#
#
# Elastic Compliance Matrix: (Units=1/GPa)
#
#
# Indices 1 2 3 4 5 6 
#
# 1 0.016127 0.001231 -0.006355 0.003184 0.004956 -0.007685
# 2 0.001231 0.031674 -0.004093 -0.006390 -0.000679 -0.002109
# 3 -0.006355 -0.004093 0.011439 -0.004061 -0.001956 0.003581
# 4 0.003184 -0.006390 -0.004061 0.086929 -0.009124 -0.002422
# 5 0.004956 -0.000679 -0.001956 -0.009124 0.022562 0.003392
# 6 -0.007685 -0.002109 0.003581 -0.002422 0.003392 0.059044
#
#
# Mechanical properties :
#
#
# Convention : Reuss Voigt Hill
#
# Bulk Modulus (GPa) = 24.50665 40.44895 32.47780
# Shear Modulus (GPa) = 19.24476 28.99048 24.11762
#
# Velocity S-wave (km/s) = 3.03864 3.72950 3.40166
# Velocity P-wave (km/s) = 4.90602 6.16055 5.56873
#
# Compressibility (1/GPa) = 0.04080525
#
# Stress axis : x y z
#
# Youngs Moduli (GPa) = 62.00847 31.57135 87.42211
#
# Poissons Ratio (x) = -0.03885 0.55558
# Poissons Ratio (y) = -0.07631 0.35780
# Poissons Ratio (z) = 0.39407 0.12922
#
# Static dielectric constant tensor:
#      x y z
#    x 1.768810 0.016700 -0.004310 
#    y 0.016700 1.750200 -0.036890 
#    z -0.004310 -0.036890 1.823880 
# 
# From -- ./inp_files/157209.got.cif
#   From: 2010.05.17/outbox.cif.g08.bks.cpg/sg2_79_cif.got.tgz:157209.got - 2010.06.03 11:33:40.
