data_PCOD9094066
_publ_section_title
;
Structure prediction by ZEFSAII (Michael W. Deem and Ramdas Pophale) SiO2 
 PCOD9094066
Probable space group: P -1
;
_chemical_formula_sum "Si O2"
_cell_formula_units_Z 14
_cell_length_a 12.705024
_cell_length_b 18.221790
_cell_length_c 8.902703
_cell_angle_alpha 132.986019
_cell_angle_beta 77.489233
_cell_angle_gamma 140.778962
_cell_volume 704.576482
_symmetry_space_group_name_H-M "P -1"
_symmetry_group_IT_number 2
_symmetry_cell_setting 'triclinic'
loop_
_space_group_symop_operation_xyz
x,y,z
-x,-y,-z
loop_
_atom_site_type_symbol
_atom_site_label
_atom_site_fract_x
_atom_site_fract_y
_atom_site_fract_z
Si Si1 0.298550 0.847621 0.729883
Si Si2 0.293100 0.057049 0.138843
Si Si3 0.678197 0.328316 0.909426
Si Si4 0.863913 0.817674 0.901222
Si Si5 0.544785 0.387421 0.262586
Si Si6 0.383272 0.013741 0.335581
Si Si7 0.003085 0.564292 0.865647
O O1 0.432210 0.925465 0.647147
O O2 0.110691 0.607706 0.453721
O O3 0.500000 0.000000 0.000000
O O4 0.223763 0.900291 0.846621
O O5 0.447651 0.248738 0.245820
O O6 0.419289 0.121863 0.339765
O O7 0.067875 0.931116 0.083547
O O8 0.431358 0.099820 0.602098
O O9 0.827190 0.464105 0.901616
O O10 0.654684 0.400752 0.130825
O O11 0.811387 0.349255 0.982044
O O12 0.724165 0.616577 0.579704
O O13 0.669397 0.729090 0.906570
O O14 0.000000 0.000000 0.000000
O O15 0.141073 0.767882 0.036697
#
# Coordination Sequence:
#
# PCOD9094066 Si02
#       7
#     2   2   2   2   2   2   2
#     4   9  19  32  50  81 112 142 180 218 264 317
#     4  10  20  34  56  81 107 141 180 224 276 318
#     4  10  21  35  55  81 110 149 185 218 268 325
#     4   9  20  36  57  82 103 133 181 229 276 325
#     4  10  20  37  59  79 105 137 180 232 272 320
#     4  10  21  35  53  82 117 146 180 223 267 323
#     4  10  20  34  53  79 115 152 184 219 263 321
#
# _framework density 19.870092
#
# number of rings (size 3 to 8) (size 9 to 14) (size 15 to 20)
#    0.000    2.286    0.000    2.143    0.000   10.286 
#    0.000    0.714    0.000   11.143    0.000    0.000 
#    0.000    0.000    0.000    0.000    0.000    0.000 
#
# Total GULP energy -77945.057287 kJ/mol
# GULP energy per Si atom -5567.504092 kJ/mol
# Density = 1.982487 g / cm^3
# Si number density = 19.870092 Si / 1000 Ang^3
#
#
#
# Elastic Constant Matrix: (Units=GPa)
#
#
# Indices 1 2 3 4 5 6 
#
# 1 94.1351 31.2098 20.3076 -2.8405 2.7132 6.8656
# 2 31.2098 67.8440 37.3501 8.7820 -12.5730 2.9818
# 3 20.3076 37.3501 112.3888 14.7240 -2.0870 -15.2156
# 4 -2.8405 8.7820 14.7240 28.3853 -0.8454 -2.6915
# 5 2.7132 -12.5730 -2.0870 -0.8454 25.2214 1.3278
# 6 6.8656 2.9818 -15.2156 -2.6915 1.3278 22.9106
#
#
#
# Elastic Compliance Matrix: (Units=1/GPa)
#
#
# Indices 1 2 3 4 5 6 
#
# 1 0.013620 -0.006782 -0.001219 0.003641 -0.004651 -0.003311
# 2 -0.006782 0.025233 -0.007265 -0.005035 0.012929 -0.007417
# 3 -0.001219 -0.007265 0.013329 -0.003943 -0.003039 0.009876
# 4 0.003641 -0.005035 -0.003943 0.039296 -0.001999 0.001678
# 5 -0.004651 0.012929 -0.003039 -0.001999 0.046552 -0.005240
# 6 -0.003311 -0.007417 0.009876 0.001678 -0.005240 0.052665
#
#
# Mechanical properties :
#
#
# Convention : Reuss Voigt Hill
#
# Bulk Modulus (GPa) = 46.18689 50.23364 48.21027
# Shear Modulus (GPa) = 21.88732 27.67017 24.77875
#
# Velocity S-wave (km/s) = 3.32252 3.73574 3.53517
# Velocity P-wave (km/s) = 6.16553 6.62900 6.40146
#
# Compressibility (1/GPa) = 0.02165117
#
# Stress axis : x y z
#
# Youngs Moduli (GPa) = 73.42204 39.63098 75.02318
#
# Poissons Ratio (x) = 0.26879 0.09143
# Poissons Ratio (y) = 0.49796 0.54501
# Poissons Ratio (z) = 0.08948 0.28790
#
# Static dielectric constant tensor:
#      x y z
#    x 1.748720 0.023880 0.006610 
#    y 0.023880 1.750490 0.036140 
#    z 0.006610 0.036140 1.767720 
# 
# From -- ./inp_files/72077.got.cif
#   From: 2010.05.17/outbox.cif.g08.bks.cpg/sg2_37_cif.got.tgz:72077.got - 2010.06.03 11:33:40.
