data_PCOD9094451
_publ_section_title
;
Structure prediction by ZEFSAII (Michael W. Deem and Ramdas Pophale) SiO2 
 PCOD9094451
Probable space group: P -1
;
_chemical_formula_sum "Si O2"
_cell_formula_units_Z 16
_cell_length_a 6.120268
_cell_length_b 20.926535
_cell_length_c 6.083251
_cell_angle_alpha 65.125104
_cell_angle_beta 84.766175
_cell_angle_gamma 90.843395
_cell_volume 702.674995
_symmetry_space_group_name_H-M "P -1"
_symmetry_group_IT_number 2
_symmetry_cell_setting 'triclinic'
loop_
_space_group_symop_operation_xyz
x,y,z
-x,-y,-z
loop_
_atom_site_type_symbol
_atom_site_label
_atom_site_fract_x
_atom_site_fract_y
_atom_site_fract_z
Si Si1 0.002323 0.140452 0.965573
Si Si2 0.706113 0.602975 0.832160
Si Si3 0.670155 0.019491 0.147678
Si Si4 0.345623 0.104257 0.360241
Si Si5 0.623159 0.232953 0.059663
Si Si6 0.948684 0.356115 0.888100
Si Si7 0.654816 0.474835 0.714795
Si Si8 0.723998 0.726939 0.331417
O O1 0.156789 0.196699 0.733164
O O2 0.875754 0.070884 0.980039
O O3 0.809437 0.186384 0.008231
O O4 0.151049 0.116629 0.189432
O O5 0.751395 0.543444 0.734755
O O6 0.660915 0.676215 0.611910
O O7 0.500380 0.570703 0.036287
O O8 0.907597 0.616986 0.958403
O O9 0.531576 0.063121 0.272570
O O10 0.731324 0.947219 0.362392
O O11 0.500000 0.000000 0.000000
O O12 0.464670 0.180333 0.294979
O O13 0.757844 0.298342 0.061385
O O14 0.475806 0.259977 0.834105
O O15 0.835630 0.422423 0.697293
O O16 0.104172 0.316758 0.763279
O O17 0.500000 0.500000 0.500000
#
# Coordination Sequence:
#
# PCOD9094451 Si02
#       8
#     2   2   2   2   2   2   2   2
#     4   9  19  37  59  83 117 157 193 239 293 345
#     4  11  24  39  61  90 117 153 196 242 293 351
#     4  10  20  34  57  86 116 152 196 242 286 339
#     4   9  19  37  56  81 118 155 193 237 289 344
#     4   9  19  38  60  83 117 157 192 241 294 342
#     4  11  22  39  63  88 116 153 196 241 295 349
#     4  11  25  43  61  86 122 155 192 241 294 352
#     4  10  22  41  62  86 119 155 197 243 294 351
#
# _framework density 22.770130000000002
#
# number of rings (size 3 to 8) (size 9 to 14) (size 15 to 20)
#    0.000    2.000    0.000    3.000    0.000    7.500 
#    0.000   13.750    0.000    0.000    0.000    0.000 
#    0.000    0.000    0.000    0.000    0.000    0.000 
#
# Total GULP energy -89483.384288 kJ/mol
# GULP energy per Si atom -5592.711518 kJ/mol
# Density = 2.271830 g / cm^3
# Si number density = 22.770130 Si / 1000 Ang^3
#
#
#
# Elastic Constant Matrix: (Units=GPa)
#
#
# Indices 1 2 3 4 5 6 
#
# 1 105.1364 44.5364 45.8560 -21.5649 1.4318 6.4991
# 2 44.5364 120.6715 50.1036 -29.7459 -8.5063 32.2238
# 3 45.8560 50.1036 120.9895 -44.6786 -3.5680 8.6669
# 4 -21.5649 -29.7459 -44.6786 36.0556 -6.9391 -2.1927
# 5 1.4318 -8.5063 -3.5680 -6.9391 26.9499 -12.7510
# 6 6.4991 32.2238 8.6669 -2.1927 -12.7510 59.4955
#
#
#
# Elastic Compliance Matrix: (Units=1/GPa)
#
#
# Indices 1 2 3 4 5 6 
#
# 1 0.012451 -0.003476 -0.003332 0.000125 -0.001879 0.000610
# 2 -0.003476 0.013899 -0.000500 0.009202 0.004104 -0.005857
# 3 -0.003332 -0.000500 0.017760 0.021194 0.008094 0.000563
# 4 0.000125 0.009202 0.021194 0.065893 0.022250 -0.000888
# 5 -0.001879 0.004104 0.008094 0.022250 0.049162 0.008160
# 6 0.000610 -0.005857 0.000563 -0.000888 0.008160 0.021547
#
#
# Mechanical properties :
#
#
# Convention : Reuss Voigt Hill
#
# Bulk Modulus (GPa) = 33.90553 69.75438 51.82996
# Shear Modulus (GPa) = 24.37127 38.25364 31.31245
#
# Velocity S-wave (km/s) = 3.27512 4.10322 3.71233
# Velocity P-wave (km/s) = 5.40597 7.29035 6.41770
#
# Compressibility (1/GPa) = 0.02949371
#
# Stress axis : x y z
#
# Youngs Moduli (GPa) = 80.31508 71.94794 56.30668
#
# Poissons Ratio (x) = 0.25010 0.18763
# Poissons Ratio (y) = 0.27919 0.02813
# Poissons Ratio (z) = 0.26764 0.03594
#
# Static dielectric constant tensor:
#      x y z
#    x 1.827040 -0.009740 -0.050500 
#    y -0.009740 1.874790 -0.022180 
#    z -0.050500 -0.022180 1.813630 
# 
# From -- ./inp_files/12834.got.cif
#   From: 2010.05.17/outbox.cif.g08.bks.cpg/sg2_7_cif.got.tgz:12834.got - 2010.06.03 11:33:40.
