data_PCOD9094588
_publ_section_title
;
Structure prediction by ZEFSAII (Michael W. Deem and Ramdas Pophale) SiO2 
 PCOD9094588
Probable space group: P -1
;
_chemical_formula_sum "Si O2"
_cell_formula_units_Z 16
_cell_length_a 11.990565
_cell_length_b 14.015891
_cell_length_c 11.792295
_cell_angle_alpha 148.691371
_cell_angle_beta 120.482626
_cell_angle_gamma 42.061371
_cell_volume 642.335919
_symmetry_space_group_name_H-M "P -1"
_symmetry_group_IT_number 2
_symmetry_cell_setting 'triclinic'
loop_
_space_group_symop_operation_xyz
x,y,z
-x,-y,-z
loop_
_atom_site_type_symbol
_atom_site_label
_atom_site_fract_x
_atom_site_fract_y
_atom_site_fract_z
Si Si1 0.013427 0.400570 0.242698
Si Si2 0.028422 0.977345 0.167457
Si Si3 0.675292 0.892093 0.053695
Si Si4 0.308059 0.696471 0.551448
Si Si5 0.428483 0.487277 0.071129
Si Si6 0.798661 0.511979 0.897088
Si Si7 0.223303 0.072610 0.235310
Si Si8 0.128263 0.012466 0.505095
O O1 0.139836 0.351552 0.158689
O O2 0.165896 0.219581 0.236045
O O3 0.851840 0.697216 0.485060
O O4 0.932284 0.276315 0.066853
O O5 0.100888 0.995812 0.340619
O O6 0.818920 0.203193 0.304444
O O7 0.096347 0.024941 0.146507
O O8 0.681345 0.798192 0.085537
O O9 0.500000 0.000000 0.000000
O O10 0.710168 0.075619 0.266178
O O11 0.500000 0.500000 0.500000
O O12 0.270496 0.573938 0.318219
O O13 0.264810 0.501679 0.026846
O O14 0.338488 0.753679 0.357793
O O15 0.500000 0.500000 0.000000
O O16 0.588041 0.210433 0.928913
O O17 0.013642 0.303593 0.775645
O O18 0.000000 0.000000 0.500000
#
# Coordination Sequence:
#
# PCOD9094588 Si02
#       8
#     2   2   2   2   2   2   2   2
#     4  10  23  38  59  94 126 160 202 248 317 374
#     4  10  20  38  61  87 122 163 202 251 310 365
#     4  11  20  34  60  89 123 158 198 252 304 367
#     4  10  20  34  58  91 120 155 202 252 304 372
#     4  11  22  39  67  91 118 167 216 247 301 370
#     4  10  21  39  63  88 122 160 202 254 307 356
#     4  11  22  39  61  88 128 168 197 252 312 371
#     4   9  19  38  65  86 115 164 207 251 304 354
#
# _framework density 24.909085000000001
#
# number of rings (size 3 to 8) (size 9 to 14) (size 15 to 20)
#    0.000    1.750    2.500    2.625    1.750    0.000 
#    0.000    0.625    5.500   10.500    0.000    0.000 
#    0.000    0.000    0.000    0.000    0.000    0.000 
#
# Total GULP energy -89096.730862 kJ/mol
# GULP energy per Si atom -5568.545679 kJ/mol
# Density = 2.485239 g / cm^3
# Si number density = 24.909085 Si / 1000 Ang^3
#
#
#
# Elastic Constant Matrix: (Units=GPa)
#
#
# Indices 1 2 3 4 5 6 
#
# 1 100.6357 11.1430 30.8198 14.3658 -15.2472 16.9301
# 2 11.1430 74.1877 35.2624 33.3204 -7.6991 3.4811
# 3 30.8198 35.2624 137.9594 32.9965 -15.1510 -18.9617
# 4 14.3658 33.3204 32.9965 49.5833 -6.6636 3.2326
# 5 -15.2472 -7.6991 -15.1510 -6.6636 43.1316 0.5435
# 6 16.9301 3.4811 -18.9617 3.2326 0.5435 39.2063
#
#
#
# Elastic Compliance Matrix: (Units=1/GPa)
#
#
# Indices 1 2 3 4 5 6 
#
# 1 0.012775 0.000896 -0.003443 -0.001086 0.003390 -0.007219
# 2 0.000896 0.020126 -0.002798 -0.011597 0.001167 -0.002587
# 3 -0.003443 -0.002798 0.011047 -0.004781 0.001331 0.007454
# 4 -0.001086 -0.011597 -0.004781 0.031792 0.000822 -0.003446
# 5 0.003390 0.001167 0.001331 0.000822 0.025203 -0.001341
# 6 -0.007219 -0.002587 0.007454 -0.003446 -0.001341 0.032761
#
#
# Mechanical properties :
#
#
# Convention : Reuss Voigt Hill
#
# Bulk Modulus (GPa) = 30.06844 51.91479 40.99161
# Shear Modulus (GPa) = 32.15851 42.08810 37.12330
#
# Velocity S-wave (km/s) = 3.59700 4.11502 3.86470
# Velocity P-wave (km/s) = 5.41744 6.59278 6.03380
#
# Compressibility (1/GPa) = 0.03325746
#
# Stress axis : x y z
#
# Youngs Moduli (GPa) = 78.27729 49.68767 90.52280
#
# Poissons Ratio (x) = -0.04452 0.31168
# Poissons Ratio (y) = -0.07014 0.25329
# Poissons Ratio (z) = 0.26952 0.13903
#
# Static dielectric constant tensor:
#      x y z
#    x 2.011720 0.043830 0.074910 
#    y 0.043830 2.157840 0.045190 
#    z 0.074910 0.045190 2.106600 
# 
# From -- ./inp_files/521920.got.cif
#   From: 2010.05.17/outbox.cif.g08.bks.cpg/sg2_261_cif.got.tgz:521920.got - 2010.06.03 11:33:40.
