data_PCOD9094108
_publ_section_title
;
Structure prediction by ZEFSAII (Michael W. Deem and Ramdas Pophale) SiO2 
 PCOD9094108
Probable space group: P -1
;
_chemical_formula_sum "Si O2"
_cell_formula_units_Z 16
_cell_length_a 21.968186
_cell_length_b 10.408969
_cell_length_c 8.057168
_cell_angle_alpha 96.423044
_cell_angle_beta 63.060513
_cell_angle_gamma 44.576013
_cell_volume 829.343893
_symmetry_space_group_name_H-M "P -1"
_symmetry_group_IT_number 2
_symmetry_cell_setting 'triclinic'
loop_
_space_group_symop_operation_xyz
x,y,z
-x,-y,-z
loop_
_atom_site_type_symbol
_atom_site_label
_atom_site_fract_x
_atom_site_fract_y
_atom_site_fract_z
Si Si1 0.563102 0.716296 0.079998
Si Si2 0.309129 0.560923 0.457158
Si Si3 0.795247 0.042770 0.136759
Si Si4 0.957934 0.416997 0.043639
Si Si5 0.680004 0.949316 0.334841
Si Si6 0.962264 0.960972 0.308775
Si Si7 0.175166 0.800047 0.137572
Si Si8 0.486823 0.939621 0.676378
O O1 0.441998 0.850747 0.353709
O O2 0.542256 0.905017 0.126812
O O3 0.593641 0.603839 0.847536
O O4 0.695530 0.481916 0.992651
O O5 0.282220 0.742767 0.601314
O O6 0.160363 0.771706 0.601221
O O7 0.380661 0.353112 0.473553
O O8 0.735192 0.999200 0.224351
O O9 0.779525 0.143337 0.999429
O O10 0.956597 0.773239 0.932107
O O11 0.798935 0.679013 0.245108
O O12 0.011365 0.226736 0.815161
O O13 0.000000 0.500000 0.000000
O O14 0.629586 0.967410 0.227103
O O15 0.917454 0.021248 0.563469
O O16 0.091660 0.842349 0.125384
O O17 0.500000 0.000000 0.500000
#
# Coordination Sequence:
#
# PCOD9094108 Si02
#       8
#     2   2   2   2   2   2   2   2
#     4  10  21  36  56  82 114 144 180 224 272 328
#     4  10  21  36  56  84 111 141 182 226 271 325
#     4  10  21  37  58  82 108 143 188 226 270 325
#     4   9  19  37  56  78 109 143 180 221 271 327
#     4  10  21  37  56  79 113 150 178 223 273 322
#     4   9  20  38  59  81 110 142 182 232 274 314
#     4  10  20  36  59  84 107 142 185 229 273 321
#     4  10  20  34  54  79 108 142 180 220 267 321
#
# _framework density 19.292358
#
# number of rings (size 3 to 8) (size 9 to 14) (size 15 to 20)
#    0.000    2.250    0.000    2.625    0.000    7.500 
#    0.000    8.750    0.000    0.000    0.000    0.000 
#    0.000    0.000    0.000    0.000    0.000    0.000 
#
# Total GULP energy -89084.242068 kJ/mol
# GULP energy per Si atom -5567.765129 kJ/mol
# Density = 1.924845 g / cm^3
# Si number density = 19.292358 Si / 1000 Ang^3
#
#
#
# Elastic Constant Matrix: (Units=GPa)
#
#
# Indices 1 2 3 4 5 6 
#
# 1 81.2770 47.7578 25.2266 2.4454 -10.0548 2.0348
# 2 47.7578 89.0390 25.8124 12.4008 3.3602 6.1674
# 3 25.2266 25.8124 69.9572 6.4012 -11.8161 3.1941
# 4 2.4454 12.4008 6.4012 25.5893 0.3254 5.6530
# 5 -10.0548 3.3602 -11.8161 0.3254 15.3950 0.5205
# 6 2.0348 6.1674 3.1941 5.6530 0.5205 20.8374
#
#
#
# Elastic Compliance Matrix: (Units=1/GPa)
#
#
# Indices 1 2 3 4 5 6 
#
# 1 0.021931 -0.012716 -0.000830 0.004010 0.016369 0.000253
# 2 -0.012716 0.021391 -0.005424 -0.007161 -0.016922 -0.001893
# 3 -0.000830 -0.005424 0.019489 -0.002120 0.015682 -0.001118
# 4 0.004010 -0.007161 -0.002120 0.044921 0.001950 -0.010183
# 5 0.016369 -0.016922 0.015682 0.001950 0.091397 -0.001806
# 6 0.000253 -0.001893 -0.001118 -0.010183 -0.001806 0.051505
#
#
# Mechanical properties :
#
#
# Convention : Reuss Voigt Hill
#
# Bulk Modulus (GPa) = 40.20784 48.65186 44.42985
# Shear Modulus (GPa) = 16.84266 21.79611 19.31938
#
# Velocity S-wave (km/s) = 2.95790 3.36487 3.16792
# Velocity P-wave (km/s) = 5.70545 6.35369 6.03827
#
# Compressibility (1/GPa) = 0.02487077
#
# Stress axis : x y z
#
# Youngs Moduli (GPa) = 45.59669 46.74821 51.31139
#
# Poissons Ratio (x) = 0.59447 0.04259
# Poissons Ratio (y) = 0.57983 0.27830
# Poissons Ratio (z) = 0.03785 0.25355
#
# Static dielectric constant tensor:
#      x y z
#    x 1.723980 -0.020180 0.003930 
#    y -0.020180 1.662010 0.006030 
#    z 0.003930 0.006030 1.697470 
# 
# From -- ./inp_files/260350.got.cif
#   From: 2010.05.17/outbox.cif.g08.bks.cpg/sg2_131_cif.got.tgz:260350.got - 2010.06.03 11:33:40.
