data_PCOD9094961
_publ_section_title
;
Structure prediction by ZEFSAII (Michael W. Deem and Ramdas Pophale) SiO2 
 PCOD9094961
Probable space group: P -1
;
_chemical_formula_sum "Si O2"
_cell_formula_units_Z 16
_cell_length_a 10.475220
_cell_length_b 5.577718
_cell_length_c 13.173887
_cell_angle_alpha 80.247579
_cell_angle_beta 102.458171
_cell_angle_gamma 83.095919
_cell_volume 730.843784
_symmetry_space_group_name_H-M "P -1"
_symmetry_group_IT_number 2
_symmetry_cell_setting 'triclinic'
loop_
_space_group_symop_operation_xyz
x,y,z
-x,-y,-z
loop_
_atom_site_type_symbol
_atom_site_label
_atom_site_fract_x
_atom_site_fract_y
_atom_site_fract_z
Si Si1 0.900976 0.261878 0.804862
Si Si2 0.205569 0.853805 0.598585
Si Si3 0.969629 0.279812 0.583823
Si Si4 0.814738 0.881104 0.053302
Si Si5 0.280093 0.408313 0.764776
Si Si6 0.617454 0.287778 0.065566
Si Si7 0.243471 0.216831 0.171539
Si Si8 0.540058 0.007680 0.254682
O O1 0.941958 0.330099 0.693386
O O2 0.816721 0.516577 0.813173
O O3 0.027246 0.176930 0.906560
O O4 0.833423 0.015224 0.805052
O O5 0.158090 0.827581 0.477047
O O6 0.191453 0.589446 0.662052
O O7 0.350251 0.907278 0.656172
O O8 0.097272 0.066640 0.611506
O O9 0.000000 0.500000 0.500000
O O10 0.778556 0.793479 0.166117
O O11 0.723989 0.152356 0.014431
O O12 0.766336 0.751613 0.955353
O O13 0.305386 0.590122 0.844774
O O14 0.408815 0.283035 0.732665
O O15 0.548526 0.096755 0.132477
O O16 0.500000 0.500000 0.000000
O O17 0.390767 0.120791 0.246780
#
# Coordination Sequence:
#
# PCOD9094961 Si02
#       8
#     2   2   2   2   2   2   2   2
#     4  12  29  47  68 103 137 188 236 279 345 421
#     4  10  22  40  77 102 130 168 223 306 351 401
#     4  11  24  46  76 104 129 167 229 301 356 403
#     4  11  24  42  67  98 138 190 233 288 336 396
#     4  10  20  37  68 100 132 169 233 292 337 397
#     4  10  20  34  66  96 132 174 237 289 332 394
#     4  12  29  45  68  97 150 194 229 272 334 431
#     4  10  22  41  61 101 135 184 225 284 341 399
#
# _framework density 21.892503000000001
#
# number of rings (size 3 to 8) (size 9 to 14) (size 15 to 20)
#    0.000    1.250    0.000    6.000   14.000    2.000 
#    0.000    1.250    0.000    0.000    0.000    0.000 
#    0.000    0.000    0.000    0.000    0.000    0.000 
#
# Total GULP energy -89134.273313 kJ/mol
# GULP energy per Si atom -5570.892082 kJ/mol
# Density = 2.184267 g / cm^3
# Si number density = 21.892503 Si / 1000 Ang^3
#
#
#
# Elastic Constant Matrix: (Units=GPa)
#
#
# Indices 1 2 3 4 5 6 
#
# 1 89.4710 42.3470 34.2597 -11.9489 25.9797 -22.3721
# 2 42.3470 154.1864 43.1389 -16.5060 -1.9799 -35.9422
# 3 34.2597 43.1389 110.0980 4.2144 24.0710 -22.0871
# 4 -11.9489 -16.5060 4.2144 45.9627 0.4911 2.4048
# 5 25.9797 -1.9799 24.0710 0.4911 27.2765 -9.2707
# 6 -22.3721 -35.9422 -22.0871 2.4048 -9.2707 26.7651
#
#
#
# Elastic Compliance Matrix: (Units=1/GPa)
#
#
# Indices 1 2 3 4 5 6 
#
# 1 0.020014 -0.004368 0.000195 0.003578 -0.018110 0.004429
# 2 -0.004368 0.012555 -0.003633 0.002806 0.013162 0.014518
# 3 0.000195 -0.003633 0.013605 -0.002523 -0.011470 0.002765
# 4 0.003578 0.002806 -0.002523 0.023811 -0.000616 0.002324
# 5 -0.018110 0.013162 -0.011470 -0.000616 0.071025 0.017728
# 6 0.004429 0.014518 0.002765 0.002324 0.017728 0.068774
#
#
# Mechanical properties :
#
#
# Convention : Reuss Voigt Hill
#
# Bulk Modulus (GPa) = 32.72061 65.91631 49.31846
# Shear Modulus (GPa) = 21.22392 35.60149 28.41271
#
# Velocity S-wave (km/s) = 3.11699 4.03699 3.60645
# Velocity P-wave (km/s) = 5.28514 7.20445 6.31810
#
# Compressibility (1/GPa) = 0.03056178
#
# Stress axis : x y z
#
# Youngs Moduli (GPa) = 49.96543 79.64656 73.50476
#
# Poissons Ratio (x) = 0.34792 -0.01433
# Poissons Ratio (y) = 0.21827 0.26702
# Poissons Ratio (z) = -0.00974 0.28933
#
# Static dielectric constant tensor:
#      x y z
#    x 1.906300 0.041900 -0.011860 
#    y 0.041900 1.851180 -0.079810 
#    z -0.011860 -0.079810 1.797610 
# 
# From -- ./inp_files/488296.got.cif
#   From: 2010.05.17/outbox.cif.g08.bks.cpg/sg2_245_cif.got.tgz:488296.got - 2010.06.03 11:33:40.
