data_PCOD9094059
_publ_section_title
;
Structure prediction by ZEFSAII (Michael W. Deem and Ramdas Pophale) SiO2 
 PCOD9094059
Probable space group: P -1
;
_chemical_formula_sum "Si O2"
_cell_formula_units_Z 16
_cell_length_a 19.182521
_cell_length_b 5.008874
_cell_length_c 10.546546
_cell_angle_alpha 66.930294
_cell_angle_beta 77.500570
_cell_angle_gamma 119.894941
_cell_volume 692.238432
_symmetry_space_group_name_H-M "P -1"
_symmetry_group_IT_number 2
_symmetry_cell_setting 'triclinic'
loop_
_space_group_symop_operation_xyz
x,y,z
-x,-y,-z
loop_
_atom_site_type_symbol
_atom_site_label
_atom_site_fract_x
_atom_site_fract_y
_atom_site_fract_z
Si Si1 0.567950 0.453232 0.414794
Si Si2 0.715738 0.308979 0.795967
Si Si3 0.121854 0.522230 0.617494
Si Si4 0.694089 0.360024 0.513140
Si Si5 0.410577 0.600161 0.028877
Si Si6 0.501933 0.571841 0.785066
Si Si7 0.980509 0.345065 0.182015
Si Si8 0.912585 0.555319 0.643672
O O1 0.500000 0.500000 0.500000
O O2 0.660520 0.564150 0.419246
O O3 0.582049 0.651232 0.239400
O O4 0.500000 0.000000 0.500000
O O5 0.711290 0.467656 0.634580
O O6 0.666435 0.372184 0.908416
O O7 0.821953 0.492753 0.737092
O O8 0.652546 0.856814 0.885756
O O9 0.218698 0.598707 0.576278
O O10 0.103439 0.700189 0.704980
O O11 0.113063 0.626530 0.456242
O O12 0.045281 0.062142 0.743465
O O13 0.603491 0.910215 0.625496
O O14 0.480812 0.674454 0.098248
O O15 0.475454 0.773123 0.847422
O O16 0.057943 0.568018 0.225169
O O17 0.000000 0.500000 0.000000
O O18 0.000000 0.000000 0.500000
#
# Coordination Sequence:
#
# PCOD9094059 Si02
#       8
#     2   2   2   2   2   2   2   2
#     4  10  20  34  53  78 107 147 189 233 276 324
#     4  10  21  37  57  85 113 147 192 240 281 343
#     4  10  22  40  65  91 118 159 205 248 292 361
#     4   9  20  37  59  84 113 150 199 241 278 333
#     4  10  21  36  55  82 117 152 187 233 289 340
#     4   9  20  36  56  81 114 154 190 233 286 339
#     4  11  23  42  62  91 125 158 191 247 315 368
#     4   9  21  40  66  91 117 157 205 246 298 360
#
# _framework density 23.113426
#
# number of rings (size 3 to 8) (size 9 to 14) (size 15 to 20)
#    0.000    2.250    0.000    1.500    0.000   19.500 
#    4.500    0.000    0.000    0.000    0.000    0.000 
#    0.000    0.000    0.000    0.000    0.000    0.000 
#
# Total GULP energy -89246.929266 kJ/mol
# GULP energy per Si atom -5577.933079 kJ/mol
# Density = 2.306082 g / cm^3
# Si number density = 23.113426 Si / 1000 Ang^3
#
#
#
# Elastic Constant Matrix: (Units=GPa)
#
#
# Indices 1 2 3 4 5 6 
#
# 1 175.4551 25.4624 75.1603 18.2246 -2.3186 15.1722
# 2 25.4624 38.3990 16.2879 16.3286 -7.9659 -16.2066
# 3 75.1603 16.2879 120.1163 26.0675 5.1104 2.5484
# 4 18.2246 16.3286 26.0675 33.0074 -0.4724 -8.6528
# 5 -2.3186 -7.9659 5.1104 -0.4724 50.9747 6.2360
# 6 15.1722 -16.2066 2.5484 -8.6528 6.2360 41.5163
#
#
#
# Elastic Compliance Matrix: (Units=1/GPa)
#
#
# Indices 1 2 3 4 5 6 
#
# 1 0.009156 -0.006450 -0.004880 0.000546 0.000580 -0.005538
# 2 -0.006450 0.043695 0.000727 -0.014450 0.004408 0.015696
# 3 -0.004880 0.000727 0.013102 -0.008086 -0.001472 -0.000201
# 4 0.000546 -0.014450 -0.008086 0.044603 -0.001521 0.004180
# 5 0.000580 0.004408 -0.001472 -0.001521 0.020690 -0.001826
# 6 -0.005538 0.015696 -0.000201 0.004180 -0.001826 0.033396
#
#
# Mechanical properties :
#
#
# Convention : Reuss Voigt Hill
#
# Bulk Modulus (GPa) = 22.34875 63.08794 42.71834
# Shear Modulus (GPa) = 24.90469 39.57034 32.23752
#
# Velocity S-wave (km/s) = 3.28609 4.14213 3.73869
# Velocity P-wave (km/s) = 4.90795 7.08735 6.09584
#
# Compressibility (1/GPa) = 0.04474523
#
# Stress axis : x y z
#
# Youngs Moduli (GPa) = 109.21908 22.88572 76.32310
#
# Poissons Ratio (x) = 0.14762 0.37247
# Poissons Ratio (y) = 0.70452 -0.05546
# Poissons Ratio (z) = 0.53301 -0.01663
#
# Static dielectric constant tensor:
#      x y z
#    x 1.897810 0.036320 0.080700 
#    y 0.036320 1.973790 0.023270 
#    z 0.080700 0.023270 2.002060 
# 
# From -- ./inp_files/339339.got.cif
#   From: 2010.05.17/outbox.cif.g08.bks.cpg/sg2_170_cif.got.tgz:339339.got - 2010.06.03 11:33:40.
