data_PCOD9094120
_publ_section_title
;
Structure prediction by ZEFSAII (Michael W. Deem and Ramdas Pophale) SiO2 
 PCOD9094120
Probable space group: P -1
;
_chemical_formula_sum "Si O2"
_cell_formula_units_Z 14
_cell_length_a 18.964714
_cell_length_b 18.732630
_cell_length_c 6.039680
_cell_angle_alpha 108.808976
_cell_angle_beta 71.429655
_cell_angle_gamma 165.431068
_cell_volume 510.718864
_symmetry_space_group_name_H-M "P -1"
_symmetry_group_IT_number 2
_symmetry_cell_setting 'triclinic'
loop_
_space_group_symop_operation_xyz
x,y,z
-x,-y,-z
loop_
_atom_site_type_symbol
_atom_site_label
_atom_site_fract_x
_atom_site_fract_y
_atom_site_fract_z
Si Si1 0.850188 0.676698 0.290126
Si Si2 0.249994 0.999994 0.584624
Si Si3 0.350197 0.676706 0.862894
Si Si4 0.810320 0.777106 0.659041
Si Si5 0.287176 0.894005 0.683322
Si Si6 0.212819 0.105989 0.969662
Si Si7 0.310322 0.777107 0.774531
O O1 0.749992 0.499993 0.114830
O O2 0.027911 0.819274 0.461118
O O3 0.664970 0.562291 0.475384
O O4 0.028661 0.890258 0.134229
O O5 0.130027 0.812883 0.660117
O O6 0.369963 0.187106 0.794402
O O7 0.472079 0.180715 0.378391
O O8 0.164974 0.562294 0.819262
O O9 0.528666 0.890263 0.088967
O O10 0.016320 0.946920 0.813296
O O11 0.361722 0.323881 0.151248
O O12 0.000000 0.000000 0.500000
O O13 0.138276 0.676116 0.726932
O O14 0.483676 0.053076 0.452095
O O15 0.500000 0.000000 0.000000
#
# Coordination Sequence:
#
# PCOD9094120 Si02
#       7
#     2   2   2   2   2   2   2
#     4  10  20  34  54  81 110 140 178 223 269 317
#     4  10  20  34  54  80 110 142 182 224 264 314
#     4  10  20  34  54  81 110 140 178 223 269 317
#     4   8  16  32  54  77 104 142 180 216 264 317
#     4   9  17  32  55  77 105 144 179 217 267 316
#     4   9  17  32  55  77 105 144 179 217 267 316
#     4   8  16  32  54  77 104 142 180 216 264 317
#
# _framework density 27.412341999999999
#
# number of rings (size 3 to 8) (size 9 to 14) (size 15 to 20)
#    0.000    2.857    0.000    0.857    0.000    4.571 
#    0.000    1.429    0.000   70.286    0.000    0.000 
#    0.000    0.000    0.000    0.000    0.000    0.000 
#
# Total GULP energy -78188.696144 kJ/mol
# GULP energy per Si atom -5584.906867 kJ/mol
# Density = 2.734995 g / cm^3
# Si number density = 27.412342 Si / 1000 Ang^3
#
#
#
# Elastic Constant Matrix: (Units=GPa)
#
#
# Indices 1 2 3 4 5 6 
#
# 1 222.7281 45.4501 93.7853 -6.7167 27.5307 -39.3913
# 2 45.4501 38.5092 35.0601 -9.6110 -1.3144 -20.4482
# 3 93.7853 35.0601 200.5460 23.7986 -42.1935 1.2775
# 4 -6.7167 -9.6110 23.7986 130.5883 -18.6377 32.4562
# 5 27.5307 -1.3144 -42.1935 -18.6377 79.0223 0.0994
# 6 -39.3913 -20.4482 1.2775 32.4562 0.0994 45.6970
#
#
#
# Elastic Compliance Matrix: (Units=1/GPa)
#
#
# Indices 1 2 3 4 5 6 
#
# 1 0.009439 -0.002665 -0.005162 -0.001780 -0.006519 0.008367
# 2 -0.002665 0.045332 -0.007232 -0.000404 -0.002298 0.018482
# 3 -0.005162 -0.007232 0.010187 0.000441 0.007232 -0.008299
# 4 -0.001780 -0.000404 0.000441 0.010141 0.003252 -0.008937
# 5 -0.006519 -0.002298 0.007232 0.003252 0.019528 -0.009202
# 6 0.008367 0.018482 -0.008299 -0.008937 -0.009202 0.043966
#
#
# Mechanical properties :
#
#
# Convention : Reuss Voigt Hill
#
# Bulk Modulus (GPa) = 28.70265 90.04158 59.37212
# Shear Modulus (GPa) = 27.72801 70.22737 48.97769
#
# Velocity S-wave (km/s) = 3.18388 5.06700 4.23153
# Velocity P-wave (km/s) = 4.89996 8.19458 6.75132
#
# Compressibility (1/GPa) = 0.03483998
#
# Stress axis : x y z
#
# Youngs Moduli (GPa) = 105.94304 22.05963 98.16583
#
# Poissons Ratio (x) = 0.05878 0.50674
# Poissons Ratio (y) = 0.28230 0.70995
# Poissons Ratio (z) = 0.54688 0.15954
#
# Static dielectric constant tensor:
#      x y z
#    x 2.262260 -0.068380 -0.062660 
#    y -0.068380 2.338920 0.037230 
#    z -0.062660 0.037230 2.106770 
# 
# From -- ./inp_files/49728.got.cif
#   From: 2010.05.17/outbox.cif.g08.bks.cpg/sg2_25_cif.got.tgz:49728.got - 2010.06.03 11:33:40.
