data_PCOD9094115
_publ_section_title
;
Structure prediction by ZEFSAII (Michael W. Deem and Ramdas Pophale) SiO2 
 PCOD9094115
Probable space group: P -1
;
_chemical_formula_sum "Si O2"
_cell_formula_units_Z 16
_cell_length_a 5.345384
_cell_length_b 7.371376
_cell_length_c 23.123809
_cell_angle_alpha 51.887670
_cell_angle_beta 63.699961
_cell_angle_gamma 81.153207
_cell_volume 633.364231
_symmetry_space_group_name_H-M "P -1"
_symmetry_group_IT_number 2
_symmetry_cell_setting 'triclinic'
loop_
_space_group_symop_operation_xyz
x,y,z
-x,-y,-z
loop_
_atom_site_type_symbol
_atom_site_label
_atom_site_fract_x
_atom_site_fract_y
_atom_site_fract_z
Si Si1 0.106269 0.521053 0.271796
Si Si2 0.041389 0.689067 0.011633
Si Si3 0.411296 0.604605 0.580694
Si Si4 0.963292 0.932289 0.150416
Si Si5 0.881664 0.702259 0.436169
Si Si6 0.635028 0.212594 0.703020
Si Si7 0.206644 0.312957 0.134373
Si Si8 0.394745 0.603621 0.818105
O O1 0.185373 0.728375 0.269375
O O2 0.387805 0.421710 0.249142
O O3 0.849601 0.348306 0.362094
O O4 0.036029 0.671103 0.193617
O O5 0.262051 0.576935 0.050764
O O6 0.757893 0.638113 0.089138
O O7 0.000000 0.500000 0.000000
O O8 0.093200 0.941387 0.928287
O O9 0.644117 0.783706 0.485866
O O10 0.276095 0.424219 0.579281
O O11 0.582465 0.462369 0.634079
O O12 0.194426 0.124196 0.121618
O O13 0.677142 0.899934 0.223876
O O14 0.000000 0.500000 0.500000
O O15 0.159253 0.871752 0.349765
O O16 0.878218 0.286966 0.193817
O O17 0.414664 0.278414 0.171115
#
# Coordination Sequence:
#
# PCOD9094115 Si02
#       8
#     2   2   2   2   2   2   2   2
#     4  10  21  31  53  79 113 136 177 230 276 317
#     4   8  19  36  54  75 101 144 185 226 265 329
#     4   8  15  27  45  72 107 139 171 211 269 315
#     4  10  20  34  54  80 104 140 178 235 271 320
#     4   8  13  26  45  70 106 140 170 209 261 324
#     4   9  18  29  47  78 111 134 173 220 279 308
#     4   9  22  39  57  75 105 146 191 219 270 332
#     4  10  22  39  55  78 106 146 184 227 271 326
#
# _framework density 25.261925999999999
#
# number of rings (size 3 to 8) (size 9 to 14) (size 15 to 20)
#    0.750    2.250    0.000    0.000    5.250    3.500 
#    0.000    1.250    0.000    0.000    0.000    1.750 
#    0.000    0.000    0.000    0.000    0.000    0.000 
#
# Total GULP energy -89122.185062 kJ/mol
# GULP energy per Si atom -5570.136566 kJ/mol
# Density = 2.520443 g / cm^3
# Si number density = 25.261926 Si / 1000 Ang^3
#
#
#
# Elastic Constant Matrix: (Units=GPa)
#
#
# Indices 1 2 3 4 5 6 
#
# 1 85.9646 13.6827 11.0646 0.8117 -1.4891 -11.1153
# 2 13.6827 50.3339 14.7376 8.7102 -10.9795 1.0512
# 3 11.0646 14.7376 107.8257 17.2566 -30.4849 -3.8438
# 4 0.8117 8.7102 17.2566 34.5399 -15.2994 -10.5888
# 5 -1.4891 -10.9795 -30.4849 -15.2994 54.0982 13.4123
# 6 -11.1153 1.0512 -3.8438 -10.5888 13.4123 26.5615
#
#
#
# Elastic Compliance Matrix: (Units=1/GPa)
#
#
# Indices 1 2 3 4 5 6 
#
# 1 0.013538 -0.004443 -0.001724 0.002970 -0.002675 0.008127
# 2 -0.004443 0.023421 -0.000862 -0.005703 0.004364 -0.007388
# 3 -0.001724 -0.000862 0.011846 -0.004043 0.006235 -0.003733
# 4 0.002970 -0.005703 -0.004043 0.038466 0.004005 0.014196
# 5 -0.002675 0.004364 0.006235 0.004005 0.027028 -0.012441
# 6 0.008127 -0.007388 -0.003733 0.014196 -0.012441 0.052743
#
#
# Mechanical properties :
#
#
# Convention : Reuss Voigt Hill
#
# Bulk Modulus (GPa) = 28.77950 35.89933 32.33942
# Shear Modulus (GPa) = 25.94967 36.68255 31.31611
#
# Velocity S-wave (km/s) = 3.20851 3.81476 3.52470
# Velocity P-wave (km/s) = 5.01430 5.80042 5.42163
#
# Compressibility (1/GPa) = 0.03474695
#
# Stress axis : x y z
#
# Youngs Moduli (GPa) = 73.86568 42.69757 84.41882
#
# Poissons Ratio (x) = 0.18969 0.14554
# Poissons Ratio (y) = 0.32816 0.07277
# Poissons Ratio (z) = 0.12734 0.03681
#
# Static dielectric constant tensor:
#      x y z
#    x 2.063180 0.026500 0.004810 
#    y 0.026500 2.058680 -0.007860 
#    z 0.004810 -0.007860 2.084470 
# 
# From -- ./inp_files/340344.got.cif
#   From: 2010.05.17/outbox.cif.g08.bks.cpg/sg2_171_cif.got.tgz:340344.got - 2010.06.03 11:33:40.
