data_PCOD9094808
_publ_section_title
;
Structure prediction by ZEFSAII (Michael W. Deem and Ramdas Pophale) SiO2 
 PCOD9094808
Probable space group: P -1
;
_chemical_formula_sum "Si O2"
_cell_formula_units_Z 12
_cell_length_a 7.489555
_cell_length_b 7.547050
_cell_length_c 21.352037
_cell_angle_alpha 35.621657
_cell_angle_beta 139.034028
_cell_angle_gamma 125.214354
_cell_volume 458.664672
_symmetry_space_group_name_H-M "P -1"
_symmetry_group_IT_number 2
_symmetry_cell_setting 'triclinic'
loop_
_space_group_symop_operation_xyz
x,y,z
-x,-y,-z
loop_
_atom_site_type_symbol
_atom_site_label
_atom_site_fract_x
_atom_site_fract_y
_atom_site_fract_z
Si Si1 0.767761 0.793559 0.980622
Si Si2 0.252938 0.670007 0.495041
Si Si3 0.174283 0.461598 0.400474
Si Si4 0.783741 0.145251 0.228209
Si Si5 0.390771 0.757703 0.638978
Si Si6 0.672436 0.900734 0.789087
O O1 0.453109 0.951041 0.854339
O O2 0.799942 0.721322 0.935111
O O3 0.779862 0.502316 0.111788
O O4 0.000000 0.000000 0.000000
O O5 0.318898 0.526182 0.486733
O O6 0.444074 0.655264 0.610574
O O7 0.000000 0.500000 0.500000
O O8 0.088230 0.997135 0.345047
O O9 0.191818 0.779053 0.275149
O O10 0.860527 0.412709 0.350774
O O11 0.285050 0.124304 0.500216
O O12 0.646072 0.061948 0.281221
O O13 0.635071 0.737461 0.760029
#
# Coordination Sequence:
#
# PCOD9094808 Si02
#       6
#     2   2   2   2   2   2
#     4   9  21  37  63  88 113 163 213 248 294 354
#     4  10  21  38  61  94 128 158 192 245 314 364
#     4  10  21  36  58  92 123 158 200 240 299 369
#     4   9  20  38  60  88 122 156 202 250 300 356
#     4  10  21  36  59  87 132 160 191 253 301 354
#     4  10  20  34  61  89 116 157 213 240 297 363
#
# _framework density 26.162904000000001
#
# number of rings (size 3 to 8) (size 9 to 14) (size 15 to 20)
#    1.000    1.333    0.000    3.500    4.667    0.667 
#    0.000    5.833    0.000    8.000    0.000    0.000 
#    0.000    0.000    0.000    0.000    0.000    0.000 
#
# Total GULP energy -66969.253722 kJ/mol
# GULP energy per Si atom -5580.771143 kJ/mol
# Density = 2.610336 g / cm^3
# Si number density = 26.162904 Si / 1000 Ang^3
#
#
#
# Elastic Constant Matrix: (Units=GPa)
#
#
# Indices 1 2 3 4 5 6 
#
# 1 119.8964 54.6793 29.9074 -9.5961 -44.1514 -11.7063
# 2 54.6793 169.5070 42.7407 12.7135 -22.0222 21.9017
# 3 29.9074 42.7407 101.0858 -8.6557 -25.1102 4.9197
# 4 -9.5961 12.7135 -8.6557 40.7507 14.2779 -19.1428
# 5 -44.1514 -22.0222 -25.1102 14.2779 45.4180 -8.3265
# 6 -11.7063 21.9017 4.9197 -19.1428 -8.3265 54.9686
#
#
#
# Elastic Compliance Matrix: (Units=1/GPa)
#
#
# Indices 1 2 3 4 5 6 
#
# 1 0.017729 -0.005747 0.000910 0.005708 0.015035 0.010250
# 2 -0.005747 0.010093 -0.003220 -0.008559 -0.001274 -0.008131
# 3 0.000910 -0.003220 0.012556 0.002922 0.005757 0.002243
# 4 0.005708 -0.008559 0.002922 0.039413 -0.006232 0.017146
# 5 0.015035 -0.001274 0.005757 -0.006232 0.042527 0.007466
# 6 0.010250 -0.008131 0.002243 0.017146 0.007466 0.030516
#
#
# Mechanical properties :
#
#
# Convention : Reuss Voigt Hill
#
# Bulk Modulus (GPa) = 41.21799 71.68266 56.45032
# Shear Modulus (GPa) = 28.24265 45.77158 37.00711
#
# Velocity S-wave (km/s) = 3.28913 4.18722 3.76505
# Velocity P-wave (km/s) = 5.49664 7.12988 6.36585
#
# Compressibility (1/GPa) = 0.02426125
#
# Stress axis : x y z
#
# Youngs Moduli (GPa) = 56.40442 99.08312 79.64099
#
# Poissons Ratio (x) = 0.56947 -0.07244
# Poissons Ratio (y) = 0.32418 0.25648
# Poissons Ratio (z) = -0.05130 0.31910
#
# Static dielectric constant tensor:
#      x y z
#    x 2.224340 0.021490 0.079230 
#    y 0.021490 2.108700 -0.019330 
#    z 0.079230 -0.019330 2.119250 
# 
# From -- ./inp_files/605964.got.cif
#   From: 2010.05.17/outbox.cif.g08.bks.cpg/sg2_303_cif.got.tgz:605964.got - 2010.06.03 11:33:40.
