data_PCOD9094262
_publ_section_title
;
Structure prediction by ZEFSAII (Michael W. Deem and Ramdas Pophale) SiO2 
 PCOD9094262
Probable space group: P -1
;
_chemical_formula_sum "Si O2"
_cell_formula_units_Z 14
_cell_length_a 5.381747
_cell_length_b 9.219461
_cell_length_c 16.180497
_cell_angle_alpha 140.086464
_cell_angle_beta 80.239772
_cell_angle_gamma 104.945108
_cell_volume 497.174127
_symmetry_space_group_name_H-M "P -1"
_symmetry_group_IT_number 2
_symmetry_cell_setting 'triclinic'
loop_
_space_group_symop_operation_xyz
x,y,z
-x,-y,-z
loop_
_atom_site_type_symbol
_atom_site_label
_atom_site_fract_x
_atom_site_fract_y
_atom_site_fract_z
Si Si1 0.305922 0.127468 0.132538
Si Si2 0.658731 0.955089 0.550421
Si Si3 0.014549 0.262169 0.771948
Si Si4 0.729673 0.834353 0.022067
Si Si5 0.508008 0.721657 0.168332
Si Si6 0.715804 0.509265 0.423576
Si Si7 0.966726 0.801887 0.674418
O O1 0.561042 0.024760 0.084740
O O2 0.279034 0.257657 0.277173
O O3 0.035285 0.936383 0.062703
O O4 0.286802 0.280761 0.119740
O O5 0.932913 0.127897 0.631968
O O6 0.669225 0.686825 0.434498
O O7 0.500000 0.000000 0.500000
O O8 0.509291 0.038598 0.676366
O O9 0.983479 0.062320 0.756742
O O10 0.792642 0.402912 0.863468
O O11 0.299824 0.387841 0.832857
O O12 0.591882 0.752099 0.081793
O O13 0.500000 0.500000 0.500000
O O14 0.956943 0.673151 0.531321
O O15 0.815511 0.272842 0.313991
#
# Coordination Sequence:
#
# PCOD9094262 Si02
#       7
#     2   2   2   2   2   2   2
#     4  10  19  26  46  68 102 132 164 205 247 308
#     4   9  20  34  50  73  99 134 172 213 250 297
#     4   9  18  28  49  68  94 132 155 208 240 298
#     4  10  17  29  43  72  98 133 164 200 260 299
#     4  10  16  30  47  67  98 125 164 198 253 291
#     4  10  20  31  51  71 100 139 171 203 253 309
#     4  10  18  30  44  71 100 131 168 202 253 297
#
# _framework density 28.159147999999998
#
# number of rings (size 3 to 8) (size 9 to 14) (size 15 to 20)
#    0.857    1.429    2.857    0.857    2.000    0.571 
#    0.000    0.000    0.000    0.000    0.000    1.000 
#    0.000    2.286    0.000    0.000    0.000    0.000 
#
# Total GULP energy -78040.144693 kJ/mol
# GULP energy per Si atom -5574.296050 kJ/mol
# Density = 2.809506 g / cm^3
# Si number density = 28.159148 Si / 1000 Ang^3
#
#
#
# Elastic Constant Matrix: (Units=GPa)
#
#
# Indices 1 2 3 4 5 6 
#
# 1 143.2176 24.8122 -13.4151 -9.9090 3.5939 -17.8807
# 2 24.8122 131.7111 10.4790 -31.5468 10.2005 -6.1285
# 3 -13.4151 10.4790 73.9780 -27.1946 21.6585 -3.1328
# 4 -9.9090 -31.5468 -27.1946 41.0747 -15.2394 0.1102
# 5 3.5939 10.2005 21.6585 -15.2394 51.2274 -7.8323
# 6 -17.8807 -6.1285 -3.1328 0.1102 -7.8323 59.6854
#
#
#
# Elastic Compliance Matrix: (Units=1/GPa)
#
#
# Indices 1 2 3 4 5 6 
#
# 1 0.007914 -0.000860 0.002864 0.003015 -0.000333 0.002384
# 2 -0.000860 0.009634 0.001514 0.008218 0.000070 0.000805
# 3 0.002864 0.001514 0.020248 0.013459 -0.004843 0.001416
# 4 0.003015 0.008218 0.013459 0.042340 0.005531 0.003101
# 5 -0.000333 0.000070 -0.004843 0.005531 0.023643 0.002745
# 6 0.002384 0.000805 0.001416 0.003101 0.002745 0.017980
#
#
# Mechanical properties :
#
#
# Convention : Reuss Voigt Hill
#
# Bulk Modulus (GPa) = 22.30560 43.62877 32.96719
# Shear Modulus (GPa) = 38.56028 52.19954 45.37991
#
# Velocity S-wave (km/s) = 3.70451 4.31017 4.01877
# Velocity P-wave (km/s) = 5.12214 6.34802 5.76774
#
# Compressibility (1/GPa) = 0.04483179
#
# Stress axis : x y z
#
# Youngs Moduli (GPa) = 126.35598 103.79519 49.38868
#
# Poissons Ratio (x) = 0.08926 -0.14144
# Poissons Ratio (y) = 0.10866 -0.07478
# Poissons Ratio (z) = -0.36185 -0.15715
#
# Static dielectric constant tensor:
#      x y z
#    x 2.497460 0.079400 0.127690 
#    y 0.079400 2.710940 0.452020 
#    z 0.127690 0.452020 2.646940 
# 
# From -- ./inp_files/548944.got.cif
#   From: 2010.05.17/outbox.cif.g08.bks.cpg/sg2_275_cif.got.tgz:548944.got - 2010.06.03 11:33:40.
