data_PCOD9094149
_publ_section_title
;
Structure prediction by ZEFSAII (Michael W. Deem and Ramdas Pophale) SiO2 
 PCOD9094149
Probable space group: P -1
;
_chemical_formula_sum "Si O2"
_cell_formula_units_Z 16
_cell_length_a 14.153968
_cell_length_b 5.992811
_cell_length_c 9.066623
_cell_angle_alpha 73.272672
_cell_angle_beta 67.939881
_cell_angle_gamma 88.814497
_cell_volume 679.269923
_symmetry_space_group_name_H-M "P -1"
_symmetry_group_IT_number 2
_symmetry_cell_setting 'triclinic'
loop_
_space_group_symop_operation_xyz
x,y,z
-x,-y,-z
loop_
_atom_site_type_symbol
_atom_site_label
_atom_site_fract_x
_atom_site_fract_y
_atom_site_fract_z
Si Si1 0.582314 0.813124 0.476025
Si Si2 0.779331 0.670391 0.499375
Si Si3 0.670168 0.196464 0.797991
Si Si4 0.016383 0.148067 0.111832
Si Si5 0.835960 0.842397 0.723391
Si Si6 0.470390 0.337742 0.772751
Si Si7 0.698110 0.429605 0.027767
Si Si8 0.160298 0.560905 0.796199
O O1 0.693778 0.846767 0.478012
O O2 0.528632 0.575746 0.626053
O O3 0.596369 0.771962 0.302059
O O4 0.500000 0.000000 0.500000
O O5 0.720117 0.443584 0.656547
O O6 0.859509 0.784628 0.550874
O O7 0.819409 0.564846 0.345338
O O8 0.555431 0.174090 0.806666
O O9 0.743465 0.005043 0.745992
O O10 0.670262 0.220212 0.970705
O O11 0.077221 0.053925 0.233247
O O12 0.908402 0.224240 0.216867
O O13 0.088936 0.371360 0.968097
O O14 0.000000 0.000000 0.000000
O O15 0.788500 0.596712 0.867362
O O16 0.397960 0.419714 0.926616
O O17 0.738469 0.369768 0.177729
#
# Coordination Sequence:
#
# PCOD9094149 Si02
#       8
#     2   2   2   2   2   2   2   2
#     4  10  20  35  54  83 122 153 188 235 274 330
#     4  10  21  39  58  84 118 152 188 230 288 338
#     4  10  21  36  56  83 121 153 186 235 277 332
#     4  10  22  41  62  85 111 143 191 241 291 343
#     4  10  22  38  58  84 114 150 190 234 286 342
#     4  10  20  34  54  84 115 154 194 228 279 330
#     4  10  20  37  57  83 115 151 195 231 282 335
#     4  10  21  40  62  83 114 149 186 241 289 337
#
# _framework density 23.554703
#
# number of rings (size 3 to 8) (size 9 to 14) (size 15 to 20)
#    0.000    2.000    1.250    1.875    0.000    4.000 
#    2.250    1.250    0.000    0.000    0.000    0.000 
#    0.000    0.000    0.000    0.000    0.000    0.000 
#
# Total GULP energy -89391.527852 kJ/mol
# GULP energy per Si atom -5586.970491 kJ/mol
# Density = 2.350109 g / cm^3
# Si number density = 23.554703 Si / 1000 Ang^3
#
#
#
# Elastic Constant Matrix: (Units=GPa)
#
#
# Indices 1 2 3 4 5 6 
#
# 1 137.1157 32.4574 56.0639 22.4316 42.4642 -16.1029
# 2 32.4574 51.3537 35.5594 18.6031 26.7988 -18.2209
# 3 56.0639 35.5594 106.0897 26.4139 24.3426 -6.5747
# 4 22.4316 18.6031 26.4139 51.8111 11.9081 -8.2290
# 5 42.4642 26.7988 24.3426 11.9081 39.7169 2.5202
# 6 -16.1029 -18.2209 -6.5747 -8.2290 2.5202 30.0112
#
#
#
# Elastic Compliance Matrix: (Units=1/GPa)
#
#
# Indices 1 2 3 4 5 6 
#
# 1 0.015621 0.011036 -0.006024 -0.000289 -0.021352 0.015476
# 2 0.011036 0.064080 -0.012436 -0.002861 -0.049443 0.045470
# 3 -0.006024 -0.012436 0.015581 -0.003921 0.007031 -0.009035
# 4 -0.000289 -0.002861 -0.003921 0.023709 -0.002718 0.003978
# 5 -0.021352 -0.049443 0.007031 -0.002718 0.080886 -0.047473
# 6 0.015476 0.045470 -0.009035 0.003978 -0.047473 0.072330
#
#
# Mechanical properties :
#
#
# Convention : Reuss Voigt Hill
#
# Bulk Modulus (GPa) = 12.43235 60.30226 36.36731
# Shear Modulus (GPa) = 15.93046 35.67307 25.80176
#
# Velocity S-wave (km/s) = 2.60343 3.89585 3.31327
# Velocity P-wave (km/s) = 3.78506 6.77447 5.48726
#
# Compressibility (1/GPa) = 0.08043529
#
# Stress axis : x y z
#
# Youngs Moduli (GPa) = 64.01616 15.60553 64.18236
#
# Poissons Ratio (x) = -0.17223 0.38663
# Poissons Ratio (y) = -0.70651 0.79814
# Poissons Ratio (z) = 0.38563 0.19406
#
# Static dielectric constant tensor:
#      x y z
#    x 1.902680 0.017830 0.025370 
#    y 0.017830 1.899270 -0.019010 
#    z 0.025370 -0.019010 1.904340 
# 
# From -- ./inp_files/37402.got.cif
#   From: 2010.05.17/outbox.cif.g08.bks.cpg/sg2_19_cif.got.tgz:37402.got - 2010.06.03 11:33:40.
