data_PCOD9094701
_publ_section_title
;
Structure prediction by ZEFSAII (Michael W. Deem and Ramdas Pophale) SiO2 
 PCOD9094701
Probable space group: P -1
;
_chemical_formula_sum "Si O2"
_cell_formula_units_Z 16
_cell_length_a 12.861387
_cell_length_b 12.372314
_cell_length_c 9.750894
_cell_angle_alpha 93.224123
_cell_angle_beta 101.025744
_cell_angle_gamma 147.982477
_cell_volume 732.895691
_symmetry_space_group_name_H-M "P -1"
_symmetry_group_IT_number 2
_symmetry_cell_setting 'triclinic'
loop_
_space_group_symop_operation_xyz
x,y,z
-x,-y,-z
loop_
_atom_site_type_symbol
_atom_site_label
_atom_site_fract_x
_atom_site_fract_y
_atom_site_fract_z
Si Si1 0.128273 0.831613 0.072526
Si Si2 0.271568 0.016528 0.386425
Si Si3 0.793454 0.406794 0.792619
Si Si4 0.070530 0.263375 0.494871
Si Si5 0.150982 0.300120 0.205669
Si Si6 0.514127 0.035385 0.166911
Si Si7 0.476429 0.416813 0.344153
Si Si8 0.267139 0.674602 0.517848
O O1 0.383823 0.032974 0.142214
O O2 0.087447 0.803816 0.221505
O O3 0.005574 0.621225 0.954480
O O4 0.040589 0.853687 0.964621
O O5 0.360467 0.201311 0.341431
O O6 0.480199 0.123514 0.454746
O O7 0.153534 0.941612 0.491880
O O8 0.725431 0.471601 0.748686
O O9 0.618288 0.181059 0.812843
O O10 0.841200 0.391231 0.659298
O O11 0.057275 0.208383 0.330458
O O12 0.274948 0.383675 0.626377
O O13 0.150671 0.459230 0.517575
O O14 0.315600 0.351068 0.215520
O O15 0.714904 0.232725 0.338517
O O16 0.500000 0.000000 0.000000
O O17 0.500000 0.500000 0.500000
#
# Coordination Sequence:
#
# PCOD9094701 Si02
#       8
#     2   2   2   2   2   2   2   2
#     4   9  21  38  55  78 109 148 176 229 284 323
#     4  10  20  34  60  83 112 147 182 227 275 322
#     4   9  19  39  56  73 112 148 182 223 277 324
#     4   9  18  35  58  84 109 146 190 218 268 331
#     4   8  18  34  56  75 111 146 178 226 268 324
#     4  11  22  35  57  84 109 142 184 232 281 327
#     4   9  18  35  56  84 114 145 182 228 271 321
#     4   9  20  38  57  81 114 146 184 226 271 330
#
# _framework density 21.831211
#
# number of rings (size 3 to 8) (size 9 to 14) (size 15 to 20)
#    0.750    2.000    0.000    1.500    1.750    3.500 
#    0.000    2.500    0.000    0.000    0.000    0.000 
#    0.000    0.000    0.000    0.000    0.000    0.000 
#
# Total GULP energy -89079.893098 kJ/mol
# GULP energy per Si atom -5567.493319 kJ/mol
# Density = 2.178152 g / cm^3
# Si number density = 21.831211 Si / 1000 Ang^3
#
#
#
# Elastic Constant Matrix: (Units=GPa)
#
#
# Indices 1 2 3 4 5 6 
#
# 1 67.1001 27.7143 11.9775 -16.3231 9.2979 9.6015
# 2 27.7143 48.9472 3.1848 -7.1055 -0.2443 9.7282
# 3 11.9775 3.1848 79.4334 1.2226 -18.6408 -9.5900
# 4 -16.3231 -7.1055 1.2226 27.8872 -6.8653 -7.9219
# 5 9.2979 -0.2443 -18.6408 -6.8653 30.8626 0.0112
# 6 9.6015 9.7282 -9.5900 -7.9219 0.0112 26.2316
#
#
#
# Elastic Compliance Matrix: (Units=1/GPa)
#
#
# Indices 1 2 3 4 5 6 
#
# 1 0.024720 -0.011554 -0.006151 0.008185 -0.009432 -0.004537
# 2 -0.011554 0.028074 0.000880 -0.000315 0.004167 -0.005958
# 3 -0.006151 0.000880 0.017514 0.001491 0.012767 0.008773
# 4 0.008185 -0.000315 0.001491 0.045905 0.008639 0.011525
# 5 -0.009432 0.004167 0.012767 0.008639 0.044906 0.009164
# 6 -0.004537 -0.005958 0.008773 0.011525 0.009164 0.048676
#
#
# Mechanical properties :
#
#
# Convention : Reuss Voigt Hill
#
# Bulk Modulus (GPa) = 27.27968 31.24821 29.26394
# Shear Modulus (GPa) = 19.55692 27.16990 23.36341
#
# Velocity S-wave (km/s) = 2.99628 3.53164 3.27492
# Velocity P-wave (km/s) = 4.94905 5.56548 5.26629
#
# Compressibility (1/GPa) = 0.03665733
#
# Stress axis : x y z
#
# Youngs Moduli (GPa) = 40.45241 35.62011 57.09853
#
# Poissons Ratio (x) = 0.41155 0.35123
# Poissons Ratio (y) = 0.46739 -0.05025
# Poissons Ratio (z) = 0.24884 -0.03134
#
# Static dielectric constant tensor:
#      x y z
#    x 1.936680 -0.000090 -0.011520 
#    y -0.000090 1.801140 0.048490 
#    z -0.011520 0.048490 1.909760 
# 
# From -- ./inp_files/311488.got.cif
#   From: 2010.05.17/outbox.cif.g08.bks.cpg/sg2_156_cif.got.tgz:311488.got - 2010.06.03 11:33:40.
