data_PCOD9094116
_publ_section_title
;
Structure prediction by ZEFSAII (Michael W. Deem and Ramdas Pophale) SiO2 
 PCOD9094116
Probable space group: P -1
;
_chemical_formula_sum "Si O2"
_cell_formula_units_Z 14
_cell_length_a 9.564636
_cell_length_b 8.105689
_cell_length_c 14.195670
_cell_angle_alpha 128.929636
_cell_angle_beta 109.863935
_cell_angle_gamma 94.573579
_cell_volume 737.698362
_symmetry_space_group_name_H-M "P -1"
_symmetry_group_IT_number 2
_symmetry_cell_setting 'triclinic'
loop_
_space_group_symop_operation_xyz
x,y,z
-x,-y,-z
loop_
_atom_site_type_symbol
_atom_site_label
_atom_site_fract_x
_atom_site_fract_y
_atom_site_fract_z
Si Si1 0.827069 0.646453 0.346508
Si Si2 0.849477 0.147273 0.593438
Si Si3 0.997307 0.258049 0.875201
Si Si4 0.689407 0.040536 0.824724
Si Si5 0.579933 0.420961 0.359394
Si Si6 0.680743 0.518541 0.060458
Si Si7 0.451290 0.778852 0.522938
O O1 0.719689 0.460176 0.330611
O O2 0.737884 0.595180 0.207189
O O3 0.010009 0.676068 0.378574
O O4 0.838739 0.893660 0.474908
O O5 0.914342 0.207034 0.735401
O O6 0.679246 0.160977 0.540453
O O7 0.871690 0.073166 0.851302
O O8 0.183931 0.301205 0.914119
O O9 0.000000 0.500000 0.000000
O O10 0.582700 0.811140 0.776288
O O11 0.588368 0.992456 0.685512
O O12 0.687170 0.269794 0.953112
O O13 0.531298 0.639787 0.429773
O O14 0.631372 0.389006 0.466408
O O15 0.500000 0.500000 0.000000
#
# Coordination Sequence:
#
# PCOD9094116 Si02
#       7
#     2   2   2   2   2   2   2
#     4  10  21  35  53  82 110 138 177 215 269 308
#     4  10  20  34  56  81 107 138 177 224 254 314
#     4   9  19  34  54  76 103 138 173 220 261 303
#     4   9  18  35  52  73 109 141 168 216 263 305
#     4   9  20  35  52  80 107 142 173 219 262 317
#     4  10  20  34  54  80 106 136 180 217 260 313
#     4   9  19  35  54  82 102 140 183 210 264 309
#
# _framework density 18.977945999999999
#
# number of rings (size 3 to 8) (size 9 to 14) (size 15 to 20)
#    0.857    1.714    0.000    1.714    0.000    5.714 
#    0.000    1.429    0.000    8.571    0.000    0.000 
#    0.000    0.000    0.000    0.000    0.000    0.000 
#
# Total GULP energy -77942.041674 kJ/mol
# GULP energy per Si atom -5567.288691 kJ/mol
# Density = 1.893475 g / cm^3
# Si number density = 18.977946 Si / 1000 Ang^3
#
#
#
# Elastic Constant Matrix: (Units=GPa)
#
#
# Indices 1 2 3 4 5 6 
#
# 1 108.2225 19.5215 27.1922 -2.9985 8.0492 31.6637
# 2 19.5215 23.0049 5.9655 6.5825 -1.3687 18.8617
# 3 27.1922 5.9655 111.1437 13.7032 -7.5933 -2.4204
# 4 -2.9985 6.5825 13.7032 11.6296 -1.9279 6.6512
# 5 8.0492 -1.3687 -7.5933 -1.9279 29.2596 1.9411
# 6 31.6637 18.8617 -2.4204 6.6512 1.9411 44.2390
#
#
#
# Elastic Compliance Matrix: (Units=1/GPa)
#
#
# Indices 1 2 3 4 5 6 
#
# 1 0.017673 -0.010722 -0.007497 0.025595 -0.004818 -0.012125
# 2 -0.010722 0.080377 0.003086 -0.038920 0.006329 -0.020853
# 3 -0.007497 0.003086 0.014118 -0.024470 0.003705 0.008339
# 4 0.025595 -0.038920 -0.024470 0.158231 -0.003014 -0.026722
# 5 -0.004818 0.006329 0.003705 -0.003014 0.036575 -0.000199
# 6 -0.012125 -0.020853 0.008339 -0.026722 -0.000199 0.044656
#
#
# Mechanical properties :
#
#
# Convention : Reuss Voigt Hill
#
# Bulk Modulus (GPa) = 12.20984 38.63662 25.42323
# Shear Modulus (GPa) = 12.21904 29.67176 20.94540
#
# Velocity S-wave (km/s) = 2.54018 3.95838 3.32576
# Velocity P-wave (km/s) = 3.87957 6.42609 5.30781
#
# Compressibility (1/GPa) = 0.08190116
#
# Stress axis : x y z
#
# Youngs Moduli (GPa) = 56.58323 12.44131 70.83326
#
# Poissons Ratio (x) = 0.13340 0.53106
# Poissons Ratio (y) = 0.60669 -0.21858
# Poissons Ratio (z) = 0.42422 -0.03839
#
# Static dielectric constant tensor:
#      x y z
#    x 1.704750 0.061910 0.025160 
#    y 0.061910 1.677420 0.016960 
#    z 0.025160 0.016960 1.650530 
# 
# From -- ./inp_files/167612.got.cif
#   From: 2010.05.17/outbox.cif.g08.bks.cpg/sg2_84_cif.got.tgz:167612.got - 2010.06.03 11:33:40.
