data_PCOD9094976
_publ_section_title
;
Structure prediction by ZEFSAII (Michael W. Deem and Ramdas Pophale) SiO2 
 PCOD9094976
Probable space group: P -1
;
_chemical_formula_sum "Si O2"
_cell_formula_units_Z 14
_cell_length_a 7.314400
_cell_length_b 24.835130
_cell_length_c 7.643399
_cell_angle_alpha 117.692390
_cell_angle_beta 97.095709
_cell_angle_gamma 135.388146
_cell_volume 589.505555
_symmetry_space_group_name_H-M "P -1"
_symmetry_group_IT_number 2
_symmetry_cell_setting 'triclinic'
loop_
_space_group_symop_operation_xyz
x,y,z
-x,-y,-z
loop_
_atom_site_type_symbol
_atom_site_label
_atom_site_fract_x
_atom_site_fract_y
_atom_site_fract_z
Si Si1 0.722807 0.440352 0.623838
Si Si2 0.421457 0.470523 0.150838
Si Si3 0.644899 0.812551 0.294116
Si Si4 0.772483 0.978623 0.076049
Si Si5 0.739616 0.263594 0.218918
Si Si6 0.331159 0.223082 0.396877
Si Si7 0.434473 0.345390 0.055844
O O1 0.776249 0.525961 0.799584
O O2 0.469649 0.331981 0.572528
O O3 0.507593 0.370912 0.309679
O O4 0.141431 0.532835 0.795176
O O5 0.242885 0.352788 0.986117
O O6 0.826868 0.592059 0.484960
O O7 0.500000 0.500000 0.000000
O O8 0.473433 0.754943 0.383023
O O9 0.402352 0.771438 0.049045
O O10 0.743350 0.771182 0.188609
O O11 0.018018 0.958296 0.614593
O O12 0.365611 0.831654 0.847950
O O13 0.889426 0.078037 0.158618
O O14 0.000000 0.000000 0.000000
O O15 0.486409 0.238271 0.261441
#
# Coordination Sequence:
#
# PCOD9094976 Si02
#       7
#     2   2   2   2   2   2   2
#     4  11  22  42  62  92 131 165 217 260 315 385
#     4  12  27  39  63  96 129 169 212 265 315 384
#     4  10  20  34  69  92 124 169 206 262 316 375
#     4   8  19  34  63  99 120 164 216 256 312 380
#     4  11  19  42  59  97 129 160 216 258 313 375
#     4   9  19  36  63  91 122 163 209 259 310 371
#     4  11  22  41  65  91 126 171 210 263 324 372
#
# _framework density 23.748716000000002
#
# number of rings (size 3 to 8) (size 9 to 14) (size 15 to 20)
#    0.857    0.857    2.857    2.571    2.000    1.143 
#    0.000    0.714    0.000    0.857    0.000    0.000 
#    0.000    0.000    0.000    0.000    0.000    0.000 
#
# Total GULP energy -78109.449871 kJ/mol
# GULP energy per Si atom -5579.246419 kJ/mol
# Density = 2.369466 g / cm^3
# Si number density = 23.748716 Si / 1000 Ang^3
#
#
#
# Elastic Constant Matrix: (Units=GPa)
#
#
# Indices 1 2 3 4 5 6 
#
# 1 68.9476 25.3838 12.2729 -0.5045 -12.0806 -5.6355
# 2 25.3838 107.5086 12.1783 4.2157 -6.2234 -15.8515
# 3 12.2729 12.1783 95.3634 -11.0059 -22.2339 2.3417
# 4 -0.5045 4.2157 -11.0059 40.4990 1.2794 -9.9993
# 5 -12.0806 -6.2234 -22.2339 1.2794 24.6361 1.5151
# 6 -5.6355 -15.8515 2.3417 -9.9993 1.5151 23.0144
#
#
#
# Elastic Compliance Matrix: (Units=1/GPa)
#
#
# Indices 1 2 3 4 5 6 
#
# 1 0.017206 -0.003411 -0.000001 0.000755 0.007431 0.001703
# 2 -0.003411 0.011275 -0.001244 0.000232 -0.000401 0.007184
# 3 -0.000001 -0.001244 0.013878 0.003091 0.012156 -0.001727
# 4 0.000755 0.000232 0.003091 0.028539 0.000976 0.012366
# 5 0.007431 -0.000401 0.012156 0.000976 0.055232 -0.002906
# 6 0.001703 0.007184 -0.001727 0.012366 -0.002906 0.054556
#
#
# Mechanical properties :
#
#
# Convention : Reuss Voigt Hill
#
# Bulk Modulus (GPa) = 30.25898 41.27664 35.76781
# Shear Modulus (GPa) = 24.87375 32.42888 28.65132
#
# Velocity S-wave (km/s) = 3.23982 3.69928 3.47715
# Velocity P-wave (km/s) = 5.17342 5.97198 5.58698
#
# Compressibility (1/GPa) = 0.03304804
#
# Stress axis : x y z
#
# Youngs Moduli (GPa) = 58.11793 88.69336 72.05402
#
# Poissons Ratio (x) = 0.30252 0.00007
# Poissons Ratio (y) = 0.19823 0.08963
# Poissons Ratio (z) = 0.00006 0.11033
#
# Static dielectric constant tensor:
#      x y z
#    x 1.928030 -0.021800 0.004040 
#    y -0.021800 1.928620 0.034810 
#    z 0.004040 0.034810 1.939870 
# 
# From -- ./inp_files/226924.got.cif
#   From: 2010.05.17/outbox.cif.g08.bks.cpg/sg2_114_cif.got.tgz:226924.got - 2010.06.03 11:33:40.
