data_PCOD9094791
_publ_section_title
;
Structure prediction by ZEFSAII (Michael W. Deem and Ramdas Pophale) SiO2 
 PCOD9094791
Probable space group: P -1
;
_chemical_formula_sum "Si O2"
_cell_formula_units_Z 16
_cell_length_a 15.351898
_cell_length_b 8.249081
_cell_length_c 7.939002
_cell_angle_alpha 119.963945
_cell_angle_beta 93.210597
_cell_angle_gamma 53.658551
_cell_volume 658.809650
_symmetry_space_group_name_H-M "P -1"
_symmetry_group_IT_number 2
_symmetry_cell_setting 'triclinic'
loop_
_space_group_symop_operation_xyz
x,y,z
-x,-y,-z
loop_
_atom_site_type_symbol
_atom_site_label
_atom_site_fract_x
_atom_site_fract_y
_atom_site_fract_z
Si Si1 0.377580 0.000738 0.209743
Si Si2 0.954535 0.103210 0.739738
Si Si3 0.809630 0.585000 0.808663
Si Si4 0.583470 0.355937 0.215825
Si Si5 0.771668 0.795994 0.380071
Si Si6 0.471864 0.857296 0.612183
Si Si7 0.949591 0.371347 0.379662
Si Si8 0.838575 0.934852 0.158983
O O1 0.319162 0.181691 0.133281
O O2 0.280421 0.087992 0.382231
O O3 0.457044 0.053267 0.316759
O O4 0.424351 0.741309 0.010687
O O5 0.054147 0.079068 0.833179
O O6 0.840279 0.383661 0.841485
O O7 0.948853 0.920608 0.749411
O O8 0.000000 0.000000 0.500000
O O9 0.864237 0.445190 0.564368
O O10 0.862817 0.706037 0.944897
O O11 0.523259 0.641933 0.366535
O O12 0.525365 0.287275 0.302879
O O13 0.717649 0.183251 0.202453
O O14 0.870592 0.506442 0.277567
O O15 0.822049 0.898115 0.333992
O O16 0.659433 0.902450 0.315075
O O17 0.000000 0.500000 0.500000
#
# Coordination Sequence:
#
# PCOD9094791 Si02
#       8
#     2   2   2   2   2   2   2   2
#     4  10  20  37  60  84 125 151 192 248 294 339
#     4  10  20  34  61  86 107 157 193 231 291 351
#     4   9  20  37  59  85 112 157 194 236 290 347
#     4   9  21  36  59  89 111 159 199 239 285 351
#     4  10  21  36  58  85 115 156 186 244 301 328
#     4  10  20  37  60  84 119 155 198 237 292 352
#     4  10  21  39  59  84 119 148 192 242 293 345
#     4  10  20  38  59  82 120 147 200 241 280 357
#
# _framework density 24.286225000000002
#
# number of rings (size 3 to 8) (size 9 to 14) (size 15 to 20)
#    0.000    2.250    0.000    2.625    5.250    0.500 
#    2.250    2.500    8.250    0.000    0.000    0.000 
#    0.000    0.000    0.000    0.000    0.000    0.000 
#
# Total GULP energy -89389.885649 kJ/mol
# GULP energy per Si atom -5586.867853 kJ/mol
# Density = 2.423095 g / cm^3
# Si number density = 24.286225 Si / 1000 Ang^3
#
#
#
# Elastic Constant Matrix: (Units=GPa)
#
#
# Indices 1 2 3 4 5 6 
#
# 1 65.0103 36.5391 25.8772 7.2463 17.6032 4.3092
# 2 36.5391 156.3686 24.9355 17.0343 20.9129 3.5476
# 3 25.8772 24.9355 101.3616 -1.4884 6.6518 0.8972
# 4 7.2463 17.0343 -1.4884 29.2565 2.6263 -5.3663
# 5 17.6032 20.9129 6.6518 2.6263 32.3605 0.3119
# 6 4.3092 3.5476 0.8972 -5.3663 0.3119 14.4384
#
#
#
# Elastic Compliance Matrix: (Units=1/GPa)
#
#
# Indices 1 2 3 4 5 6 
#
# 1 0.022004 -0.002566 -0.004404 -0.004700 -0.008955 -0.007216
# 2 -0.002566 0.008157 -0.001178 -0.004381 -0.003251 -0.002723
# 3 -0.004404 -0.001178 0.011262 0.002638 0.000610 0.001871
# 4 -0.004700 -0.004381 0.002638 0.041133 0.001338 0.017574
# 5 -0.008955 -0.003251 0.000610 0.001338 0.037610 0.003118
# 6 -0.007216 -0.002723 0.001871 0.017574 0.003118 0.078431
#
#
# Mechanical properties :
#
#
# Convention : Reuss Voigt Hill
#
# Bulk Modulus (GPa) = 39.79884 55.27157 47.53520
# Shear Modulus (GPa) = 22.39452 30.90366 26.64909
#
# Velocity S-wave (km/s) = 3.03992 3.57105 3.31613
# Velocity P-wave (km/s) = 5.36139 6.30960 5.85472
#
# Compressibility (1/GPa) = 0.02512636
#
# Stress axis : x y z
#
# Youngs Moduli (GPa) = 45.44533 122.60088 88.79450
#
# Poissons Ratio (x) = 0.31462 0.39103
# Poissons Ratio (y) = 0.11662 0.10462
# Poissons Ratio (z) = 0.20013 0.14446
#
# Static dielectric constant tensor:
#      x y z
#    x 1.916100 0.002650 -0.054760 
#    y 0.002650 1.988790 0.004780 
#    z -0.054760 0.004780 2.015420 
# 
# From -- ./inp_files/217422.got.cif
#   From: 2010.05.17/outbox.cif.g08.bks.cpg/sg2_109_cif.got.tgz:217422.got - 2010.06.03 11:33:40.
