data_PCOD9094770
_publ_section_title
;
Structure prediction by ZEFSAII (Michael W. Deem and Ramdas Pophale) SiO2 
 PCOD9094770
Probable space group: P -1
;
_chemical_formula_sum "Si O2"
_cell_formula_units_Z 16
_cell_length_a 9.665684
_cell_length_b 9.045334
_cell_length_c 13.080396
_cell_angle_alpha 68.356026
_cell_angle_beta 43.893743
_cell_angle_gamma 52.233239
_cell_volume 621.279709
_symmetry_space_group_name_H-M "P -1"
_symmetry_group_IT_number 2
_symmetry_cell_setting 'triclinic'
loop_
_space_group_symop_operation_xyz
x,y,z
-x,-y,-z
loop_
_atom_site_type_symbol
_atom_site_label
_atom_site_fract_x
_atom_site_fract_y
_atom_site_fract_z
Si Si1 0.418569 0.762968 0.804486
Si Si2 0.509731 0.168602 0.897443
Si Si3 0.777780 0.871776 0.672329
Si Si4 0.716028 0.027721 0.382533
Si Si5 0.822096 0.446593 0.565056
Si Si6 0.206367 0.723341 0.128641
Si Si7 0.092000 0.450189 0.151598
Si Si8 0.589137 0.639030 0.429266
O O1 0.577720 0.847536 0.730254
O O2 0.285588 0.859799 0.745638
O O3 0.602477 0.540023 0.737100
O O4 0.245481 0.793798 0.980506
O O5 0.645683 0.226984 0.887089
O O6 0.646579 0.077137 0.742154
O O7 0.243222 0.352784 0.993976
O O8 0.500000 0.000000 0.000000
O O9 0.876150 0.721618 0.752804
O O10 0.013420 0.771030 0.501699
O O11 0.647581 0.154236 0.487951
O O12 0.500000 0.000000 0.500000
O O13 0.956023 0.832234 0.291475
O O14 0.707030 0.579755 0.493721
O O15 0.000000 0.500000 0.500000
O O16 0.217498 0.536165 0.129486
O O17 0.810140 0.598954 0.252672
O O18 0.500000 0.500000 0.500000
#
# Coordination Sequence:
#
# PCOD9094770 Si02
#       8
#     2   2   2   2   2   2   2   2
#     4  10  20  37  63  89 121 165 205 251 312 377
#     4  10  20  34  60  96 123 162 203 260 313 368
#     4   9  18  36  62  91 119 163 207 255 308 368
#     4  11  24  42  61  88 122 165 216 255 308 378
#     4   8  17  34  58  86 117 156 209 248 299 368
#     4  12  22  37  64  94 127 163 210 256 310 382
#     4  10  20  36  58  94 125 159 203 259 306 374
#     4  10  21  36  63  87 118 165 209 254 307 376
#
# _framework density 25.753295999999999
#
# number of rings (size 3 to 8) (size 9 to 14) (size 15 to 20)
#    0.000    2.000    3.750    0.750    5.250    0.000 
#    0.000    0.000    5.500    5.250    0.000    0.000 
#    0.000    0.000    0.000    0.000    0.000    0.000 
#
# Total GULP energy -89333.039495 kJ/mol
# GULP energy per Si atom -5583.314968 kJ/mol
# Density = 2.569468 g / cm^3
# Si number density = 25.753296 Si / 1000 Ang^3
#
#
#
# Elastic Constant Matrix: (Units=GPa)
#
#
# Indices 1 2 3 4 5 6 
#
# 1 55.9499 24.3741 35.3844 6.8580 13.2697 8.7231
# 2 24.3741 130.8305 74.9924 43.4972 2.1131 36.1277
# 3 35.3844 74.9924 160.2795 39.9265 16.7442 24.5794
# 4 6.8580 43.4972 39.9265 71.4056 9.0654 8.7557
# 5 13.2697 2.1131 16.7442 9.0654 38.1632 -0.9273
# 6 8.7231 36.1277 24.5794 8.7557 -0.9273 23.8318
#
#
#
# Elastic Compliance Matrix: (Units=1/GPa)
#
#
# Indices 1 2 3 4 5 6 
#
# 1 0.022766 -0.002210 -0.003452 0.002273 -0.006880 -0.002525
# 2 -0.002210 0.017583 -0.003299 -0.006498 0.002300 -0.019967
# 3 -0.003452 -0.003299 0.009902 -0.002503 -0.002443 -0.003125
# 4 0.002273 -0.006498 -0.002503 0.019076 -0.003756 0.004445
# 5 -0.006880 0.002300 -0.002443 -0.003756 0.030532 0.004119
# 6 -0.002525 -0.019967 -0.003125 0.004445 0.004119 0.074903
#
#
# Mechanical properties :
#
#
# Convention : Reuss Voigt Hill
#
# Bulk Modulus (GPa) = 30.93103 68.50685 49.71894
# Shear Modulus (GPa) = 24.57483 40.83406 32.70444
#
# Velocity S-wave (km/s) = 3.09243 3.98626 3.56745
# Velocity P-wave (km/s) = 4.97870 6.91708 6.02633
#
# Compressibility (1/GPa) = 0.03232999
#
# Stress axis : x y z
#
# Youngs Moduli (GPa) = 43.92520 56.87392 100.98531
#
# Poissons Ratio (x) = 0.12568 0.34863
# Poissons Ratio (y) = 0.09706 0.33311
# Poissons Ratio (z) = 0.15164 0.18760
#
# Static dielectric constant tensor:
#      x y z
#    x 2.050810 -0.099870 0.018640 
#    y -0.099870 2.149340 0.082220 
#    z 0.018640 0.082220 2.050610 
# 
# From -- ./inp_files/566708.got.cif
#   From: 2010.05.17/outbox.cif.g08.bks.cpg/sg2_284_cif.got.tgz:566708.got - 2010.06.03 11:33:40.
