data_PCOD9094550
_publ_section_title
;
Structure prediction by ZEFSAII (Michael W. Deem and Ramdas Pophale) SiO2 
 PCOD9094550
Probable space group: P -1
;
_chemical_formula_sum "Si O2"
_cell_formula_units_Z 16
_cell_length_a 11.093843
_cell_length_b 17.222259
_cell_length_c 8.813810
_cell_angle_alpha 119.947490
_cell_angle_beta 127.628885
_cell_angle_gamma 36.046005
_cell_volume 784.726826
_symmetry_space_group_name_H-M "P -1"
_symmetry_group_IT_number 2
_symmetry_cell_setting 'triclinic'
loop_
_space_group_symop_operation_xyz
x,y,z
-x,-y,-z
loop_
_atom_site_type_symbol
_atom_site_label
_atom_site_fract_x
_atom_site_fract_y
_atom_site_fract_z
Si Si1 0.678011 0.202979 0.297334
Si Si2 0.687308 0.872936 0.194629
Si Si3 0.814945 0.937722 0.082682
Si Si4 0.044580 0.060200 0.214331
Si Si5 0.766793 0.639644 0.392987
Si Si6 0.294077 0.804435 0.327262
Si Si7 0.252487 0.144842 0.435812
Si Si8 0.227904 0.366495 0.976320
O O1 0.698069 0.204842 0.493842
O O2 0.846241 0.176822 0.284893
O O3 0.744974 0.071173 0.182650
O O4 0.431904 0.330985 0.174356
O O5 0.796899 0.895438 0.188059
O O6 0.805475 0.824113 0.400168
O O7 0.733015 0.752561 0.057177
O O8 0.414247 0.003577 0.116439
O O9 0.082978 0.831038 0.146535
O O10 0.119161 0.117701 0.242249
O O11 0.224498 0.934241 0.340323
O O12 0.000000 0.000000 0.000000
O O13 0.544318 0.686924 0.335396
O O14 0.760461 0.749402 0.535089
O O15 0.759685 0.635400 0.199404
O O16 0.000000 0.500000 0.500000
O O17 0.500000 0.000000 0.500000
O O18 0.000000 0.500000 0.000000
#
# Coordination Sequence:
#
# PCOD9094550 Si02
#       8
#     2   2   2   2   2   2   2   2
#     4  10  20  34  58  86 117 159 201 254 310 368
#     4   9  19  36  56  91 121 156 206 260 301 373
#     4   9  18  32  57  87 124 150 197 256 313 359
#     4  11  22  37  61  93 129 160 207 266 315 371
#     4  11  24  42  61  90 127 169 214 261 313 381
#     4  11  20  35  59  88 124 163 202 255 319 372
#     4  11  22  37  62  91 122 167 205 253 313 369
#     4  10  21  40  60  82 117 167 215 250 307 372
#
# _framework density 20.389261999999999
#
# number of rings (size 3 to 8) (size 9 to 14) (size 15 to 20)
#    0.000    1.750    1.250    4.500    5.250    0.000 
#    2.250    1.250    0.000    6.750    0.000    0.000 
#    0.000    0.000    0.000    0.000    0.000    0.000 
#
# Total GULP energy -89069.764035 kJ/mol
# GULP energy per Si atom -5566.860252 kJ/mol
# Density = 2.034286 g / cm^3
# Si number density = 20.389262 Si / 1000 Ang^3
#
#
#
# Elastic Constant Matrix: (Units=GPa)
#
#
# Indices 1 2 3 4 5 6 
#
# 1 136.9708 44.0464 26.6960 -11.8749 19.7909 -22.5593
# 2 44.0464 97.0623 22.0913 -24.7460 12.5066 -23.8648
# 3 26.6960 22.0913 102.7330 -17.7872 10.8046 -11.4413
# 4 -11.8749 -24.7460 -17.7872 29.6385 -0.9510 4.3369
# 5 19.7909 12.5066 10.8046 -0.9510 31.2298 -2.0324
# 6 -22.5593 -23.8648 -11.4413 4.3369 -2.0324 39.2470
#
#
#
# Elastic Compliance Matrix: (Units=1/GPa)
#
#
# Indices 1 2 3 4 5 6 
#
# 1 0.009565 -0.002613 -0.001014 0.000411 -0.004435 0.003339
# 2 -0.002613 0.016820 0.000420 0.012041 -0.004384 0.007291
# 3 -0.001014 0.000420 0.011610 0.006491 -0.003203 0.002174
# 4 0.000411 0.012041 0.006491 0.047094 -0.005637 0.003955
# 5 -0.004435 -0.004384 -0.003203 -0.005637 0.037289 -0.003595
# 6 0.003339 0.007291 0.002174 0.003955 -0.003595 0.031843
#
#
# Mechanical properties :
#
#
# Convention : Reuss Voigt Hill
#
# Bulk Modulus (GPa) = 31.66436 58.04818 44.85627
# Shear Modulus (GPa) = 29.21208 36.28523 32.74866
#
# Velocity S-wave (km/s) = 3.78923 4.22314 4.01206
# Velocity P-wave (km/s) = 5.89135 7.23268 6.59620
#
# Compressibility (1/GPa) = 0.03158125
#
# Stress axis : x y z
#
# Youngs Moduli (GPa) = 104.54872 59.45268 86.13224
#
# Poissons Ratio (x) = 0.15532 0.08736
# Poissons Ratio (y) = 0.27313 -0.03617
# Poissons Ratio (z) = 0.10604 -0.02496
#
# Static dielectric constant tensor:
#      x y z
#    x 1.852290 -0.047580 0.034870 
#    y -0.047580 1.712100 0.020040 
#    z 0.034870 0.020040 1.867370 
# 
# From -- ./inp_files/279726.got.cif
#   From: 2010.05.17/outbox.cif.g08.bks.cpg/sg2_140_cif.got.tgz:279726.got - 2010.06.03 11:33:40.
