data_PCOD9094922
_publ_section_title
;
Structure prediction by ZEFSAII (Michael W. Deem and Ramdas Pophale) SiO2 
 PCOD9094922
Probable space group: P -1
;
_chemical_formula_sum "Si O2"
_cell_formula_units_Z 16
_cell_length_a 13.615769
_cell_length_b 11.424531
_cell_length_c 8.110060
_cell_angle_alpha 90.741366
_cell_angle_beta 79.256596
_cell_angle_gamma 146.528893
_cell_volume 659.487882
_symmetry_space_group_name_H-M "P -1"
_symmetry_group_IT_number 2
_symmetry_cell_setting 'triclinic'
loop_
_space_group_symop_operation_xyz
x,y,z
-x,-y,-z
loop_
_atom_site_type_symbol
_atom_site_label
_atom_site_fract_x
_atom_site_fract_y
_atom_site_fract_z
Si Si1 0.614462 0.396123 0.911609
Si Si2 0.033853 0.107467 0.226988
Si Si3 0.971577 0.555341 0.285266
Si Si4 0.574240 0.414064 0.417461
Si Si5 0.008065 0.847638 0.395351
Si Si6 0.362897 0.308922 0.789215
Si Si7 0.286830 0.719736 0.320500
Si Si8 0.391733 0.777558 0.787713
O O1 0.453951 0.326584 0.907329
O O2 0.671954 0.373339 0.735535
O O3 0.798483 0.653780 0.900128
O O4 0.569030 0.254373 0.058605
O O5 0.968534 0.110072 0.415871
O O6 0.101059 0.048311 0.274374
O O7 0.860173 0.920304 0.155683
O O8 0.055420 0.765802 0.312551
O O9 0.826088 0.379003 0.475346
O O10 0.831226 0.423604 0.172244
O O11 0.141209 0.632081 0.232936
O O12 0.786545 0.643430 0.419295
O O13 0.435192 0.318868 0.598493
O O14 0.562563 0.485615 0.261139
O O15 0.547859 0.254518 0.373207
O O16 0.480533 0.982271 0.261218
#
# Coordination Sequence:
#
# PCOD9094922 Si02
#       8
#     2   2   2   2   2   2   2   2
#     4  12  24  41  55  90 126 158 198 237 291 369
#     4  10  20  34  64  90 115 159 186 240 304 344
#     4  10  22  42  64  90 113 147 207 260 280 349
#     4   9  19  39  60  93 115 152 200 243 293 349
#     4   9  17  37  61  92 117 141 197 250 294 342
#     4  10  21  36  65  88 119 150 198 247 288 355
#     4  11  24  41  63  86 114 158 210 246 289 339
#     4  11  25  40  62  83 127 161 188 246 302 346
#
# _framework density 24.261247999999998
#
# number of rings (size 3 to 8) (size 9 to 14) (size 15 to 20)
#    0.000    1.750    2.500    1.500    3.500    3.000 
#    0.000    5.625    0.000    0.000    0.000    0.000 
#    0.000    0.000    0.000    0.000    0.000    0.000 
#
# Total GULP energy -89606.835489 kJ/mol
# GULP energy per Si atom -5600.427218 kJ/mol
# Density = 2.420603 g / cm^3
# Si number density = 24.261248 Si / 1000 Ang^3
#
#
#
# Elastic Constant Matrix: (Units=GPa)
#
#
# Indices 1 2 3 4 5 6 
#
# 1 107.8903 36.0306 7.4440 4.7845 11.6731 4.5555
# 2 36.0306 108.0364 5.2189 -4.4872 2.9721 -12.9006
# 3 7.4440 5.2189 50.9179 5.9601 -1.7280 0.7239
# 4 4.7845 -4.4872 5.9601 23.9435 3.7081 14.1479
# 5 11.6731 2.9721 -1.7280 3.7081 33.5154 -1.1581
# 6 4.5555 -12.9006 0.7239 14.1479 -1.1581 36.6594
#
#
#
# Elastic Compliance Matrix: (Units=1/GPa)
#
#
# Indices 1 2 3 4 5 6 
#
# 1 0.011192 -0.003910 -0.001261 -0.000520 -0.003650 -0.002656
# 2 -0.003910 0.011106 -0.000665 0.000450 0.000440 0.004247
# 3 -0.001261 -0.000665 0.020724 -0.006680 0.002380 0.002167
# 4 -0.000520 0.000450 -0.006680 0.057887 -0.007375 -0.022218
# 5 -0.003650 0.000440 0.002380 -0.007375 0.032161 0.004424
# 6 -0.002656 0.004247 0.002167 -0.022218 0.004424 0.037774
#
#
# Mechanical properties :
#
#
# Convention : Reuss Voigt Hill
#
# Bulk Modulus (GPa) = 31.89732 40.47016 36.18374
# Shear Modulus (GPa) = 25.91147 33.36708 29.63927
#
# Velocity S-wave (km/s) = 3.27160 3.71256 3.49903
# Velocity P-wave (km/s) = 5.23900 5.92407 5.59204
#
# Compressibility (1/GPa) = 0.03135060
#
# Stress axis : x y z
#
# Youngs Moduli (GPa) = 89.35297 90.04134 48.25364
#
# Poissons Ratio (x) = 0.35205 0.06083
# Poissons Ratio (y) = 0.34936 0.03208
# Poissons Ratio (z) = 0.11264 0.05987
#
# Static dielectric constant tensor:
#      x y z
#    x 1.913700 0.017040 0.017940 
#    y 0.017040 1.874300 0.043930 
#    z 0.017940 0.043930 1.988340 
# 
# From -- ./inp_files/307536.got.cif
#   From: 2010.05.17/outbox.cif.g08.bks.cpg/sg2_154_cif.got.tgz:307536.got - 2010.06.03 11:33:40.
