data_PCOD9094304
_publ_section_title
;
Structure prediction by ZEFSAII (Michael W. Deem and Ramdas Pophale) SiO2 
 PCOD9094304
Probable space group: P -1
;
_chemical_formula_sum "Si O2"
_cell_formula_units_Z 12
_cell_length_a 13.313572
_cell_length_b 10.591335
_cell_length_c 16.149553
_cell_angle_alpha 147.392276
_cell_angle_beta 153.171349
_cell_angle_gamma 33.304507
_cell_volume 519.716349
_symmetry_space_group_name_H-M "P -1"
_symmetry_group_IT_number 2
_symmetry_cell_setting 'triclinic'
loop_
_space_group_symop_operation_xyz
x,y,z
-x,-y,-z
loop_
_atom_site_type_symbol
_atom_site_label
_atom_site_fract_x
_atom_site_fract_y
_atom_site_fract_z
Si Si1 0.567362 0.992761 0.406948
Si Si2 0.554245 0.345050 0.738018
Si Si3 0.215403 0.236340 0.844825
Si Si4 0.063951 0.694132 0.595809
Si Si5 0.282046 0.085729 0.001326
Si Si6 0.727081 0.565703 0.676421
O O1 0.641199 0.143463 0.618450
O O2 0.366484 0.194119 0.318707
O O3 0.474435 0.796062 0.277307
O O4 0.810613 0.855202 0.460188
O O5 0.290143 0.528362 0.618327
O O6 0.707439 0.518671 0.961021
O O7 0.942561 0.334782 0.671302
O O8 0.431898 0.031426 0.843964
O O9 0.227526 0.136495 0.892390
O O10 0.000000 0.500000 0.500000
O O11 0.168753 0.876723 0.824488
O O12 0.185955 0.332820 0.120866
O O13 0.500000 0.500000 0.500000
#
# Coordination Sequence:
#
# PCOD9094304 Si02
#       6
#     2   2   2   2   2   2
#     4  10  20  34  56  82 111 141 179 225 270 319
#     4   9  19  37  57  78 105 147 186 218 265 323
#     4  10  21  38  58  78 107 146 185 221 268 323
#     4   9  18  36  59  80 104 142 184 220 265 321
#     4  10  21  38  59  80 108 145 183 222 267 323
#     4  12  24  35  54  85 114 142 178 226 275 317
#
# _framework density 23.089518000000002
#
# number of rings (size 3 to 8) (size 9 to 14) (size 15 to 20)
#    0.000    2.000    0.000    3.500    0.000    2.667 
#    0.000    7.500    0.000    0.000    0.000    0.000 
#    0.000    0.000    0.000    0.000    0.000    0.000 
#
# Total GULP energy -67033.751299 kJ/mol
# GULP energy per Si atom -5586.145942 kJ/mol
# Density = 2.303697 g / cm^3
# Si number density = 23.089518 Si / 1000 Ang^3
#
#
#
# Elastic Constant Matrix: (Units=GPa)
#
#
# Indices 1 2 3 4 5 6 
#
# 1 43.9070 27.8480 18.1573 -13.0204 12.5146 -5.6602
# 2 27.8480 117.6865 19.6489 -36.7894 21.3960 -9.8209
# 3 18.1573 19.6489 49.0741 -0.9959 22.8205 4.6658
# 4 -13.0204 -36.7894 -0.9959 60.7559 -2.6901 8.8493
# 5 12.5146 21.3960 22.8205 -2.6901 26.2729 -10.0550
# 6 -5.6602 -9.8209 4.6658 8.8493 -10.0550 36.0913
#
#
#
# Elastic Compliance Matrix: (Units=1/GPa)
#
#
# Indices 1 2 3 4 5 6 
#
# 1 0.031260 -0.004166 -0.009514 0.003409 -0.001445 0.003760
# 2 -0.004166 0.013025 0.000936 0.006815 -0.009310 -0.001495
# 3 -0.009514 0.000936 0.045239 0.000149 -0.042799 -0.019046
# 4 0.003409 0.006815 0.000149 0.021724 -0.006951 -0.004893
# 5 -0.001445 -0.009310 -0.042799 -0.006951 0.094595 0.030831
# 6 0.003760 -0.001495 -0.019046 -0.004893 0.030831 0.040142
#
#
# Mechanical properties :
#
#
# Convention : Reuss Voigt Hill
#
# Bulk Modulus (GPa) = 15.61642 37.99734 26.80688
# Shear Modulus (GPa) = 17.07540 34.29156 25.68348
#
# Velocity S-wave (km/s) = 2.72238 3.85795 3.33880
# Velocity P-wave (km/s) = 4.08166 6.02805 5.14768
#
# Compressibility (1/GPa) = 0.06403516
#
# Stress axis : x y z
#
# Youngs Moduli (GPa) = 31.98984 76.77519 22.10484
#
# Poissons Ratio (x) = 0.31988 0.21031
# Poissons Ratio (y) = 0.13328 -0.02070
# Poissons Ratio (z) = 0.30436 -0.07190
#
# Static dielectric constant tensor:
#      x y z
#    x 1.847180 -0.003030 0.011910 
#    y -0.003030 1.886910 -0.046220 
#    z 0.011910 -0.046220 1.851250 
# 
# From -- ./inp_files/27997.got.cif
#   From: 2010.05.17/outbox.cif.g08.bks.cpg/sg2_14_cif.got.tgz:27997.got - 2010.06.03 11:33:40.
