data_PCOD9094002
_publ_section_title
;
Structure prediction by ZEFSAII (Michael W. Deem and Ramdas Pophale) SiO2 
 PCOD9094002
Probable space group: P -1
;
_chemical_formula_sum "Si O2"
_cell_formula_units_Z 16
_cell_length_a 16.415338
_cell_length_b 13.961579
_cell_length_c 15.533984
_cell_angle_alpha 36.019874
_cell_angle_beta 162.261533
_cell_angle_gamma 142.268871
_cell_volume 633.659820
_symmetry_space_group_name_H-M "P -1"
_symmetry_group_IT_number 2
_symmetry_cell_setting 'triclinic'
loop_
_space_group_symop_operation_xyz
x,y,z
-x,-y,-z
loop_
_atom_site_type_symbol
_atom_site_label
_atom_site_fract_x
_atom_site_fract_y
_atom_site_fract_z
Si Si1 0.582142 0.490885 0.942053
Si Si2 0.867125 0.088361 0.882252
Si Si3 0.564075 0.802073 0.108276
Si Si4 0.680056 0.041983 0.476757
Si Si5 0.863589 0.000816 0.502435
Si Si6 0.428099 0.543959 0.561788
Si Si7 0.053957 0.352802 0.099180
Si Si8 0.861401 0.350719 0.547711
O O1 0.572691 0.309265 0.027444
O O2 0.554254 0.581024 0.756478
O O3 0.329596 0.508571 0.735361
O O4 0.837887 0.568440 0.195237
O O5 0.799886 0.244981 0.649597
O O6 0.603062 0.999878 0.728269
O O7 0.000000 0.000000 0.000000
O O8 0.112061 0.086456 0.194665
O O9 0.621605 0.656298 0.338984
O O10 0.851241 0.889001 0.302768
O O11 0.346277 0.923811 0.828128
O O12 0.800089 0.222591 0.501463
O O13 0.693197 0.018549 0.405732
O O14 0.944261 0.816744 0.723896
O O15 0.652163 0.601883 0.676614
O O16 0.169094 0.634027 0.210653
O O17 0.000000 0.500000 0.000000
#
# Coordination Sequence:
#
# PCOD9094002 Si02
#       8
#     2   2   2   2   2   2   2   2
#     4  10  22  37  69  85 132 177 243 263 321 389
#     4  10  20  34  51  85 131 176 223 287 342 401
#     4  10  24  46  68  96 139 194 230 266 339 425
#     4  11  23  34  57  89 138 182 228 283 358 376
#     4  12  25  45  67 100 143 183 222 293 353 405
#     4  10  24  46  74  99 139 185 229 269 344 421
#     4  12  26  47  76 112 137 167 223 291 352 416
#     4  11  19  35  55  95 124 181 237 287 311 398
#
# _framework density 25.250142
#
# number of rings (size 3 to 8) (size 9 to 14) (size 15 to 20)
#    0.750    0.500    0.000    7.875    5.250    0.000 
#    0.000    7.500    0.000    0.000    0.000    0.000 
#    0.000    0.000    0.000    0.000    0.000    0.000 
#
# Total GULP energy -89360.423482 kJ/mol
# GULP energy per Si atom -5585.026468 kJ/mol
# Density = 2.519267 g / cm^3
# Si number density = 25.250142 Si / 1000 Ang^3
#
#
#
# Elastic Constant Matrix: (Units=GPa)
#
#
# Indices 1 2 3 4 5 6 
#
# 1 -1.4602 24.3560 0.5444 23.2232 -5.9783 -1.4955
# 2 24.3560 147.4390 47.3543 -8.8915 6.7776 17.9105
# 3 0.5444 47.3543 122.2350 0.4391 12.8263 -1.8781
# 4 23.2232 -8.8915 0.4391 54.0302 4.6389 8.6923
# 5 -5.9783 6.7776 12.8263 4.6389 26.2870 7.7891
# 6 -1.4955 17.9105 -1.8781 8.6923 7.7891 28.3870
#
#
#
# Elastic Compliance Matrix: (Units=1/GPa)
#
#
# Indices 1 2 3 4 5 6 
#
# 1 -0.043461 0.012047 -0.003606 0.023969 -0.011194 -0.014397
# 2 0.012047 0.005570 -0.002685 -0.004127 0.004216 -0.002951
# 3 -0.003606 -0.002685 0.009940 0.000987 -0.006208 0.003562
# 4 0.023969 -0.004127 0.000987 0.007039 0.004642 0.000502
# 5 -0.011194 0.004216 -0.006208 0.004642 0.041498 -0.016469
# 6 -0.014397 -0.002951 0.003562 0.000502 -0.016469 0.040931
#
#
# Mechanical properties :
#
#
# Convention : Reuss Voigt Hill
#
# Bulk Modulus (GPa) = -60.83210 45.85813 -7.48698
# Shear Modulus (GPa) = 112.29270 34.80479 73.54874
#
# Velocity S-wave (km/s) = 6.67598 3.71671 5.40290
# Velocity P-wave (km/s) = 5.93976 6.05141 5.99584
#
# Compressibility (1/GPa) = -0.01643869
#
# Stress axis : x y z
#
# Youngs Moduli (GPa) = -23.00924 179.51798 100.60773
#
# Poissons Ratio (x) = -2.16258 0.36279
# Poissons Ratio (y) = 0.27718 0.27009
# Poissons Ratio (z) = -0.08297 0.48193
#
# Static dielectric constant tensor:
#      x y z
#    x 4.111760 -1.496580 3.172570 
#    y -1.496580 3.264090 -2.748280 
#    z 3.172570 -2.748280 7.941050 
# 
# From -- ./inp_files/534303.got.cif
#   From: 2010.05.17/outbox.cif.g08.bks.cpg/sg2_268_cif.got.tgz:534303.got - 2010.06.03 11:33:40.
