data_PCOD9094444
_publ_section_title
;
Structure prediction by ZEFSAII (Michael W. Deem and Ramdas Pophale) SiO2 
 PCOD9094444
Probable space group: P -1
;
_chemical_formula_sum "Si O2"
_cell_formula_units_Z 16
_cell_length_a 9.854518
_cell_length_b 18.799312
_cell_length_c 6.583514
_cell_angle_alpha 104.006991
_cell_angle_beta 77.755625
_cell_angle_gamma 145.392790
_cell_volume 671.917027
_symmetry_space_group_name_H-M "P -1"
_symmetry_group_IT_number 2
_symmetry_cell_setting 'triclinic'
loop_
_space_group_symop_operation_xyz
x,y,z
-x,-y,-z
loop_
_atom_site_type_symbol
_atom_site_label
_atom_site_fract_x
_atom_site_fract_y
_atom_site_fract_z
Si Si1 0.129336 0.327011 0.942655
Si Si2 0.430116 0.403758 0.226797
Si Si3 0.076010 0.583054 0.345101
Si Si4 0.270767 0.265546 0.558273
Si Si5 0.244761 0.978922 0.552113
Si Si6 0.510047 0.214364 0.410181
Si Si7 0.393354 0.910438 0.165286
Si Si8 0.634010 0.349354 0.080899
O O1 0.334167 0.463199 0.864941
O O2 0.170927 0.265307 0.783767
O O3 0.858022 0.234939 0.923080
O O4 0.206680 0.352454 0.169831
O O5 0.414052 0.386847 0.461908
O O6 0.422078 0.315089 0.095672
O O7 0.253411 0.713927 0.497062
O O8 0.000000 0.500000 0.500000
O O9 0.827902 0.481955 0.236328
O O10 0.243648 0.621749 0.144003
O O11 0.429694 0.261813 0.538851
O O12 0.038756 0.143666 0.416109
O O13 0.308340 0.072356 0.444579
O O14 0.401689 0.048133 0.756327
O O15 0.312667 0.934753 0.376993
O O16 0.564577 0.252194 0.182542
O O17 0.500000 0.000000 0.000000
#
# Coordination Sequence:
#
# PCOD9094444 Si02
#       8
#     2   2   2   2   2   2   2   2
#     4  10  21  36  58  84 110 149 193 231 285 340
#     4  10  20  35  57  86 110 147 189 234 286 338
#     4   9  18  34  52  77 116 152 182 227 279 332
#     4  10  20  38  59  80 119 146 184 242 284 333
#     4  10  22  38  59  85 111 150 197 229 282 346
#     4  10  20  34  57  86 110 149 186 234 287 339
#     4  10  22  41  58  80 116 152 189 241 282 331
#     4   9  19  34  53  80 120 147 186 233 282 337
#
# _framework density 23.812462
#
# number of rings (size 3 to 8) (size 9 to 14) (size 15 to 20)
#    0.000    2.250    0.000    2.250    1.750    1.000 
#    4.500    0.000    0.000    8.250    0.000    0.000 
#    0.000    0.000    0.000    0.000    0.000    0.000 
#
# Total GULP energy -89208.119839 kJ/mol
# GULP energy per Si atom -5575.507490 kJ/mol
# Density = 2.375826 g / cm^3
# Si number density = 23.812462 Si / 1000 Ang^3
#
#
#
# Elastic Constant Matrix: (Units=GPa)
#
#
# Indices 1 2 3 4 5 6 
#
# 1 72.9340 26.5961 34.1450 -0.9107 26.8238 9.8864
# 2 26.5961 114.7615 21.0891 -12.8149 23.9849 17.0730
# 3 34.1450 21.0891 80.9324 -4.8857 23.0023 19.3508
# 4 -0.9107 -12.8149 -4.8857 24.8155 9.9029 -0.5053
# 5 26.8238 23.9849 23.0023 9.9029 39.0137 3.3780
# 6 9.8864 17.0730 19.3508 -0.5053 3.3780 30.2299
#
#
#
# Elastic Compliance Matrix: (Units=1/GPa)
#
#
# Indices 1 2 3 4 5 6 
#
# 1 0.020867 -0.000624 -0.004320 0.004479 -0.012358 -0.002251
# 2 -0.000624 0.013224 0.002599 0.011788 -0.011581 -0.007437
# 3 -0.004320 0.002599 0.020272 0.009751 -0.012057 -0.011521
# 4 0.004479 0.011788 0.009751 0.060463 -0.030562 -0.009938
# 5 -0.012358 -0.011581 -0.012057 -0.030562 0.055108 0.011631
# 6 -0.002251 -0.007437 -0.011521 -0.009938 0.011631 0.043925
#
#
# Mechanical properties :
#
#
# Convention : Reuss Voigt Hill
#
# Bulk Modulus (GPa) = 20.13246 48.03203 34.08225
# Shear Modulus (GPa) = 21.26692 31.26501 26.26596
#
# Velocity S-wave (km/s) = 2.99172 3.62742 3.32480
# Velocity P-wave (km/s) = 4.51739 6.14484 5.39286
#
# Compressibility (1/GPa) = 0.04967103
#
# Stress axis : x y z
#
# Youngs Moduli (GPa) = 47.92153 75.62085 49.33016
#
# Poissons Ratio (x) = 0.04722 0.21312
# Poissons Ratio (y) = 0.02992 -0.12820
# Poissons Ratio (z) = 0.20704 -0.19652
#
# Static dielectric constant tensor:
#      x y z
#    x 1.901400 0.027390 0.025510 
#    y 0.027390 1.956520 0.068950 
#    z 0.025510 0.068950 1.938320 
# 
# From -- ./inp_files/83242.got.cif
#   From: 2010.05.17/outbox.cif.g08.bks.cpg/sg2_42_cif.got.tgz:83242.got - 2010.06.03 11:33:40.
