data_PCOD9094631
_publ_section_title
;
Structure prediction by ZEFSAII (Michael W. Deem and Ramdas Pophale) SiO2 
 PCOD9094631
Probable space group: P -1
;
_chemical_formula_sum "Si O2"
_cell_formula_units_Z 14
_cell_length_a 12.264749
_cell_length_b 8.061769
_cell_length_c 9.295984
_cell_angle_alpha 111.459645
_cell_angle_beta 54.674074
_cell_angle_gamma 131.485023
_cell_volume 561.556371
_symmetry_space_group_name_H-M "P -1"
_symmetry_group_IT_number 2
_symmetry_cell_setting 'triclinic'
loop_
_space_group_symop_operation_xyz
x,y,z
-x,-y,-z
loop_
_atom_site_type_symbol
_atom_site_label
_atom_site_fract_x
_atom_site_fract_y
_atom_site_fract_z
Si Si1 0.588288 0.862037 0.967684
Si Si2 0.086336 0.003149 0.167000
Si Si3 0.373211 0.495800 0.791732
Si Si4 0.109705 0.725057 0.262252
Si Si5 0.982428 0.740833 0.879521
Si Si6 0.662295 0.167940 0.623651
Si Si7 0.425187 0.681738 0.512610
O O1 0.718170 0.808702 0.893311
O O2 0.497704 0.726217 0.850985
O O3 0.717303 0.122556 0.913825
O O4 0.460106 0.820550 0.172370
O O5 0.026859 0.840274 0.299129
O O6 0.986029 0.099008 0.226355
O O7 0.084769 0.875404 0.985479
O O8 0.205010 0.357437 0.963856
O O9 0.333730 0.530008 0.672144
O O10 0.466830 0.384258 0.667124
O O11 0.179620 0.769708 0.385108
O O12 0.020281 0.469777 0.215263
O O13 0.693432 0.323163 0.515469
O O14 0.556988 0.925814 0.556024
#
# Coordination Sequence:
#
# PCOD9094631 Si02
#       7
#     2   2   2   2   2   2   2
#     4  10  20  36  61  91 114 146 199 246 280 347
#     4   9  23  34  55  96 115 142 196 250 292 336
#     4  11  21  38  58  88 118 152 195 239 293 342
#     4  10  20  34  59  85 117 147 190 244 285 342
#     4  11  20  38  59  87 118 152 188 251 291 338
#     4  11  19  36  56  87 118 153 187 243 292 339
#     4  10  23  33  53  87 124 153 185 236 298 352
#
# _framework density 24.930713000000001
#
# number of rings (size 3 to 8) (size 9 to 14) (size 15 to 20)
#    0.857    0.857    2.857    2.571    2.000    1.143 
#    0.000    0.000    0.000    8.571    3.714    0.000 
#    0.000    0.000    0.000    0.000    0.000    0.000 
#
# Total GULP energy -78265.151870 kJ/mol
# GULP energy per Si atom -5590.367991 kJ/mol
# Density = 2.487397 g / cm^3
# Si number density = 24.930713 Si / 1000 Ang^3
#
#
#
# Elastic Constant Matrix: (Units=GPa)
#
#
# Indices 1 2 3 4 5 6 
#
# 1 107.8715 56.6904 31.1659 -11.3247 35.8565 -35.0741
# 2 56.6904 225.1521 -128.8066 75.7128 -66.4424 -131.0090
# 3 31.1659 -128.8066 237.7427 -75.7278 61.3259 88.9029
# 4 -11.3247 75.7128 -75.7278 59.8214 -42.7872 -40.6519
# 5 35.8565 -66.4424 61.3259 -42.7872 65.9157 35.5146
# 6 -35.0741 -131.0090 88.9029 -40.6519 35.5146 113.8443
#
#
#
# Elastic Compliance Matrix: (Units=1/GPa)
#
#
# Indices 1 2 3 4 5 6 
#
# 1 0.040678 -0.027210 -0.009734 0.002836 -0.039885 0.002276
# 2 -0.027210 0.036479 0.006163 -0.011665 0.030054 0.015242
# 3 -0.009734 0.006163 0.010331 0.006603 0.008478 -0.004261
# 4 0.002836 -0.011665 0.006603 0.046465 0.013604 -0.005358
# 5 -0.039885 0.030054 0.008478 0.013604 0.068565 -0.000855
# 6 0.002276 0.015242 -0.004261 -0.005358 -0.000855 0.028706
#
#
# Mechanical properties :
#
#
# Convention : Reuss Voigt Hill
#
# Bulk Modulus (GPa) = 38.57187 54.31842 46.44515
# Shear Modulus (GPa) = 16.58762 88.69738 52.64250
#
# Velocity S-wave (km/s) = 2.58223 5.97116 4.60015
# Velocity P-wave (km/s) = 4.93921 8.32915 6.84728
#
# Compressibility (1/GPa) = 0.02592563
#
# Stress axis : x y z
#
# Youngs Moduli (GPa) = 24.58311 27.41314 96.79143
#
# Poissons Ratio (x) = 0.74592 0.94221
# Poissons Ratio (y) = 0.66892 -0.59655
# Poissons Ratio (z) = 0.23930 -0.16896
#
# Static dielectric constant tensor:
#      x y z
#    x 1.999210 -0.066360 0.032530 
#    y -0.066360 2.001350 -0.016360 
#    z 0.032530 -0.016360 1.916170 
# 
# From -- ./inp_files/293212.got.cif
#   From: 2010.05.17/outbox.cif.g08.bks.cpg/sg2_147_cif.got.tgz:293212.got - 2010.06.03 11:33:40.
