data_PCOD9094562
_publ_section_title
;
Structure prediction by ZEFSAII (Michael W. Deem and Ramdas Pophale) SiO2 
 PCOD9094562
Probable space group: P -1
;
_chemical_formula_sum "Si O2"
_cell_formula_units_Z 16
_cell_length_a 17.915143
_cell_length_b 8.281449
_cell_length_c 9.850326
_cell_angle_alpha 114.586576
_cell_angle_beta 64.261573
_cell_angle_gamma 153.221822
_cell_volume 591.651065
_symmetry_space_group_name_H-M "P -1"
_symmetry_group_IT_number 2
_symmetry_cell_setting 'triclinic'
loop_
_space_group_symop_operation_xyz
x,y,z
-x,-y,-z
loop_
_atom_site_type_symbol
_atom_site_label
_atom_site_fract_x
_atom_site_fract_y
_atom_site_fract_z
Si Si1 0.199975 0.855963 0.999746
Si Si2 0.839840 0.574479 0.944622
Si Si3 0.012536 0.610024 0.672529
Si Si4 0.130457 0.999245 0.290654
Si Si5 0.390936 0.927267 0.468460
Si Si6 0.427618 0.735559 0.806662
Si Si7 0.166110 0.324404 0.621560
Si Si8 0.373274 0.253064 0.722216
O O1 0.315258 0.068861 0.848485
O O2 0.203625 0.671743 0.005080
O O3 0.257500 0.144929 0.134426
O O4 0.000000 0.500000 0.000000
O O5 0.901878 0.577806 0.767469
O O6 0.668618 0.366217 0.021984
O O7 0.000000 0.000000 0.000000
O O8 0.951465 0.340068 0.723073
O O9 0.000000 0.500000 0.500000
O O10 0.201213 0.000752 0.701724
O O11 0.013652 0.928169 0.284972
O O12 0.174725 0.173145 0.459737
O O13 0.216406 0.572754 0.558499
O O14 0.442200 0.224738 0.562919
O O15 0.500000 0.000000 0.500000
O O16 0.416051 0.916538 0.290597
O O17 0.283575 0.503762 0.720134
O O18 0.477690 0.627800 0.771902
#
# Coordination Sequence:
#
# PCOD9094562 Si02
#       8
#     2   2   2   2   2   2   2   2
#     4  11  18  34  55  82 121 153 197 239 303 352
#     4  11  21  36  59  91 120 154 198 254 296 357
#     4  11  22  37  57  91 130 156 189 248 316 360
#     4  10  20  34  58  87 120 160 193 251 303 360
#     4  10  21  39  61  85 118 161 207 251 292 358
#     4  11  22  36  61  88 120 159 204 251 295 360
#     4  10  20  36  58  87 118 158 205 243 305 350
#     4  12  21  38  58  89 123 158 203 248 301 359
#
# _framework density 27.042967999999998
#
# number of rings (size 3 to 8) (size 9 to 14) (size 15 to 20)
#    0.000    1.250    5.000    3.375    0.000    0.000 
#    2.250    0.000    0.000   16.500    0.000    0.000 
#    0.000    0.000    0.000    0.000    0.000    0.000 
#
# Total GULP energy -89306.259074 kJ/mol
# GULP energy per Si atom -5581.641192 kJ/mol
# Density = 2.698142 g / cm^3
# Si number density = 27.042968 Si / 1000 Ang^3
#
#
#
# Elastic Constant Matrix: (Units=GPa)
#
#
# Indices 1 2 3 4 5 6 
#
# 1 87.7437 36.0430 33.6605 2.3541 -15.8822 -13.3886
# 2 36.0430 46.8921 17.0275 -7.2177 -12.5408 -14.7883
# 3 33.6605 17.0275 215.5953 19.2107 -21.0342 -16.2559
# 4 2.3541 -7.2177 19.2107 38.1455 -12.2302 -1.6950
# 5 -15.8822 -12.5408 -21.0342 -12.2302 48.9516 -0.7287
# 6 -13.3886 -14.7883 -16.2559 -1.6950 -0.7287 47.9750
#
#
#
# Elastic Compliance Matrix: (Units=1/GPa)
#
#
# Indices 1 2 3 4 5 6 
#
# 1 0.017581 -0.012958 -0.001357 -0.002453 0.001194 0.000384
# 2 -0.012958 0.038112 -0.000549 0.011318 0.008278 0.008471
# 3 -0.001357 -0.000549 0.005297 -0.002268 0.001146 0.001184
# 4 -0.002453 0.011318 -0.002268 0.032804 0.009375 0.003337
# 5 0.001194 0.008278 0.001146 0.009375 0.025830 0.003997
# 6 0.000384 0.008471 0.001184 0.003337 0.003997 0.024142
#
#
# Mechanical properties :
#
#
# Convention : Reuss Voigt Hill
#
# Bulk Modulus (GPa) = 31.98853 58.18812 45.08833
# Shear Modulus (GPa) = 27.18635 44.58109 35.88372
#
# Velocity S-wave (km/s) = 3.17409 4.06461 3.64664
# Velocity P-wave (km/s) = 5.02868 6.60240 5.86853
#
# Compressibility (1/GPa) = 0.03126121
#
# Stress axis : x y z
#
# Youngs Moduli (GPa) = 56.88050 26.23831 188.79462
#
# Poissons Ratio (x) = 0.33999 0.25628
# Poissons Ratio (y) = 0.73704 0.10368
# Poissons Ratio (z) = 0.07721 0.01441
#
# Static dielectric constant tensor:
#      x y z
#    x 2.085630 0.050070 0.077180 
#    y 0.050070 2.363460 -0.029400 
#    z 0.077180 -0.029400 2.403390 
# 
# From -- ./inp_files/469515.got.cif
#   From: 2010.05.17/outbox.cif.g08.bks.cpg/sg2_235_cif.got.tgz:469515.got - 2010.06.03 11:33:40.
