data_PCOD9094771
_publ_section_title
;
Structure prediction by ZEFSAII (Michael W. Deem and Ramdas Pophale) SiO2 
 PCOD9094771
Probable space group: P -1
;
_chemical_formula_sum "Si O2"
_cell_formula_units_Z 14
_cell_length_a 5.455139
_cell_length_b 19.758949
_cell_length_c 13.108275
_cell_angle_alpha 26.599974
_cell_angle_beta 62.011084
_cell_angle_gamma 67.982675
_cell_volume 555.060672
_symmetry_space_group_name_H-M "P -1"
_symmetry_group_IT_number 2
_symmetry_cell_setting 'triclinic'
loop_
_space_group_symop_operation_xyz
x,y,z
-x,-y,-z
loop_
_atom_site_type_symbol
_atom_site_label
_atom_site_fract_x
_atom_site_fract_y
_atom_site_fract_z
Si Si1 0.313491 0.912292 0.745824
Si Si2 0.174307 0.966634 0.407965
Si Si3 0.556380 0.726365 0.623808
Si Si4 0.737382 0.582467 0.970275
Si Si5 0.143218 0.306212 0.574226
Si Si6 0.322146 0.497026 0.692320
Si Si7 0.206253 0.657577 0.237450
O O1 0.500000 0.000000 0.500000
O O2 0.522636 0.942160 0.758993
O O3 0.228056 0.731044 0.020318
O O4 0.020992 0.978808 0.713485
O O5 0.269826 0.801076 0.591960
O O6 0.000000 0.000000 0.500000
O O7 0.508863 0.552006 0.827809
O O8 0.758272 0.794518 0.402328
O O9 0.683493 0.718102 0.723026
O O10 0.763286 0.608158 0.050547
O O11 0.000000 0.500000 0.000000
O O12 0.429991 0.379747 0.476145
O O13 0.933645 0.420536 0.410200
O O14 0.939540 0.237390 0.796955
O O15 0.487915 0.389991 0.732394
O O16 0.000000 0.500000 0.500000
#
# Coordination Sequence:
#
# PCOD9094771 Si02
#       7
#     2   2   2   2   2   2   2
#     4  10  24  44  63  99 128 172 224 268 333 390
#     4  10  24  42  64  91 132 178 219 269 331 397
#     4  10  22  38  58  90 134 169 222 270 329 391
#     4  10  20  34  60  96 126 172 216 275 330 383
#     4  10  21  39  57  94 126 164 214 264 331 382
#     4  10  21  35  60  95 127 165 208 270 328 378
#     4  10  23  43  70  96 135 174 224 277 326 392
#
# _framework density 25.222467000000002
#
# number of rings (size 3 to 8) (size 9 to 14) (size 15 to 20)
#    0.000    2.000    1.429    0.429    6.000    5.714 
#    0.000    1.429    0.000    0.000    0.000    0.000 
#    0.000    0.000    0.000    0.000    0.000    0.000 
#
# Total GULP energy -77954.722355 kJ/mol
# GULP energy per Si atom -5568.194454 kJ/mol
# Density = 2.516506 g / cm^3
# Si number density = 25.222467 Si / 1000 Ang^3
#
#
#
# Elastic Constant Matrix: (Units=GPa)
#
#
# Indices 1 2 3 4 5 6 
#
# 1 166.5390 27.2087 42.1444 -9.0712 26.4943 -37.0635
# 2 27.2087 133.4907 34.3959 13.9542 11.0305 -32.4776
# 3 42.1444 34.3959 109.7843 8.1462 13.7315 -5.5091
# 4 -9.0712 13.9542 8.1462 42.8843 -3.5195 2.0925
# 5 26.4943 11.0305 13.7315 -3.5195 42.0393 -8.6847
# 6 -37.0635 -32.4776 -5.5091 2.0925 -8.6847 45.1307
#
#
#
# Elastic Compliance Matrix: (Units=1/GPa)
#
#
# Indices 1 2 3 4 5 6 
#
# 1 0.008700 0.000686 -0.002941 0.001591 -0.003208 0.006589
# 2 0.000686 0.010323 -0.002767 -0.003136 -0.000925 0.007622
# 3 -0.002941 -0.002767 0.011322 -0.001872 -0.001960 -0.003315
# 4 0.001591 -0.003136 -0.001872 0.025302 0.002149 -0.001938
# 5 -0.003208 -0.000925 -0.001960 0.002149 0.027202 0.001595
# 6 0.006589 0.007622 -0.003315 -0.001938 0.001595 0.033046
#
#
# Mechanical properties :
#
#
# Convention : Reuss Voigt Hill
#
# Bulk Modulus (GPa) = 49.25531 68.59024 58.92278
# Shear Modulus (GPa) = 37.67748 46.41518 42.04633
#
# Velocity S-wave (km/s) = 3.86917 4.29445 4.08734
# Velocity P-wave (km/s) = 6.28740 7.20020 6.75922
#
# Compressibility (1/GPa) = 0.02030238
#
# Stress axis : x y z
#
# Youngs Moduli (GPa) = 114.94160 96.87272 88.32095
#
# Poissons Ratio (x) = -0.06648 0.25975
# Poissons Ratio (y) = -0.07888 0.24436
# Poissons Ratio (z) = 0.33804 0.26802
#
# Static dielectric constant tensor:
#      x y z
#    x 2.007940 0.081380 -0.093170 
#    y 0.081380 2.143800 0.047430 
#    z -0.093170 0.047430 2.385450 
# 
# From -- ./inp_files/67353.got.cif
#   From: 2010.05.17/outbox.cif.g08.bks.cpg/sg2_34_cif.got.tgz:67353.got - 2010.06.03 11:33:40.
