data_PCOD9094361
_publ_section_title
;
Structure prediction by ZEFSAII (Michael W. Deem and Ramdas Pophale) SiO2 
 PCOD9094361
Probable space group: P -1
;
_chemical_formula_sum "Si O2"
_cell_formula_units_Z 13
_cell_length_a 7.275916
_cell_length_b 7.403467
_cell_length_c 9.572402
_cell_angle_alpha 98.742105
_cell_angle_beta 81.202055
_cell_angle_gamma 109.500905
_cell_volume 477.511103
_symmetry_space_group_name_H-M "P -1"
_symmetry_group_IT_number 2
_symmetry_cell_setting 'triclinic'
loop_
_space_group_symop_operation_xyz
x,y,z
-x,-y,-z
loop_
_atom_site_type_symbol
_atom_site_label
_atom_site_fract_x
_atom_site_fract_y
_atom_site_fract_z
Si Si1 0.746329 0.802945 0.752852
Si Si2 0.192141 0.415855 0.757556
Si Si3 0.000000 0.000000 0.000000
Si Si4 0.631984 0.913003 0.204940
Si Si5 0.553464 0.240643 0.423795
Si Si6 0.402503 0.662696 0.984996
Si Si7 0.843037 0.420909 0.634595
O O1 0.675232 0.820728 0.603882
O O2 0.546957 0.776079 0.859515
O O3 0.796753 0.603370 0.726400
O O4 0.914672 0.946498 0.841169
O O5 0.280117 0.248051 0.764113
O O6 0.335969 0.557263 0.644698
O O7 0.207414 0.542036 0.912639
O O8 0.973039 0.345343 0.717383
O O9 0.787513 0.011974 0.077175
O O10 0.627434 0.072479 0.334454
O O11 0.431450 0.799066 0.131443
O O12 0.643979 0.283026 0.572770
O O13 0.500000 0.500000 0.000000
O O14 0.000000 0.500000 0.500000
#
# Coordination Sequence:
#
# PCOD9094361 Si02
#       7
#     2   2   1   2   2   2   2
#     4  10  20  35  56  84 114 148 188 229 283 337
#     4   9  19  36  58  82 109 146 186 231 278 328
#     4  10  20  34  56  88 116 142 186 236 282 338
#     4  10  20  37  58  86 115 145 187 231 285 338
#     4  10  21  37  59  80 112 153 187 230 278 331
#     4   8  17  35  58  83 112 143 182 233 283 335
#     4  10  20  36  58  81 112 153 190 230 278 330
#
# _framework density 27.224499000000002
#
# number of rings (size 3 to 8) (size 9 to 14) (size 15 to 20)
#    0.000    2.462    0.000    2.308    0.000    7.385 
#    0.000   18.462    0.000   12.923    0.000    0.000 
#    0.000    0.000    0.000    0.000    0.000    0.000 
#
# Total GULP energy -72481.773646 kJ/mol
# GULP energy per Si atom -5575.521050 kJ/mol
# Density = 2.716253 g / cm^3
# Si number density = 27.224499 Si / 1000 Ang^3
#
#
#
# Elastic Constant Matrix: (Units=GPa)
#
#
# Indices 1 2 3 4 5 6 
#
# 1 130.7387 10.6305 67.7353 12.4979 36.9917 -4.7286
# 2 10.6305 97.6869 39.2010 18.8938 -1.9169 -27.1521
# 3 67.7353 39.2010 194.8002 17.7720 54.5397 -11.5341
# 4 12.4979 18.8938 17.7720 22.6742 -3.4467 -3.1383
# 5 36.9917 -1.9169 54.5397 -3.4467 75.2604 -5.7947
# 6 -4.7286 -27.1521 -11.5341 -3.1383 -5.7947 39.0025
#
#
#
# Elastic Compliance Matrix: (Units=1/GPa)
#
#
# Indices 1 2 3 4 5 6 
#
# 1 0.010258 0.000721 -0.002228 -0.005041 -0.003629 0.000142
# 2 0.000721 0.015923 -0.002588 -0.009921 0.002237 0.009941
# 3 -0.002228 -0.002588 0.008179 -0.003908 -0.005134 -0.000730
# 4 -0.005041 -0.009921 -0.003908 0.058970 0.007542 -0.002808
# 5 -0.003629 0.002237 -0.005134 0.007542 0.019432 0.003093
# 6 0.000142 0.009941 -0.000730 -0.002808 0.003093 0.032595
#
#
# Mechanical properties :
#
#
# Convention : Reuss Voigt Hill
#
# Bulk Modulus (GPa) = 38.20942 73.15103 55.68023
# Shear Modulus (GPa) = 30.81296 47.76470 39.28883
#
# Velocity S-wave (km/s) = 3.36789 4.19319 3.80299
# Velocity P-wave (km/s) = 5.40268 7.09730 6.30716
#
# Compressibility (1/GPa) = 0.02617155
#
# Stress axis : x y z
#
# Youngs Moduli (GPa) = 97.48227 62.80402 122.25815
#
# Poissons Ratio (x) = -0.04527 0.27234
# Poissons Ratio (y) = -0.07026 0.31635
# Poissons Ratio (z) = 0.21715 0.16251
#
# Static dielectric constant tensor:
#      x y z
#    x 2.112430 0.036370 -0.028310 
#    y 0.036370 2.243270 -0.148600 
#    z -0.028310 -0.148600 2.289360 
# 
# From -- ./inp_files/375077.got.cif
#   From: 2010.05.17/outbox.cif.g08.bks.cpg/sg2_188_cif.got.tgz:375077.got - 2010.06.03 11:33:40.
