data_PCOD9094714
_publ_section_title
;
Structure prediction by ZEFSAII (Michael W. Deem and Ramdas Pophale) SiO2 
 PCOD9094714
Probable space group: P -1
;
_chemical_formula_sum "Si O2"
_cell_formula_units_Z 14
_cell_length_a 16.577329
_cell_length_b 11.372168
_cell_length_c 11.148654
_cell_angle_alpha 38.253231
_cell_angle_beta 147.877121
_cell_angle_gamma 149.070071
_cell_volume 560.967951
_symmetry_space_group_name_H-M "P -1"
_symmetry_group_IT_number 2
_symmetry_cell_setting 'triclinic'
loop_
_space_group_symop_operation_xyz
x,y,z
-x,-y,-z
loop_
_atom_site_type_symbol
_atom_site_label
_atom_site_fract_x
_atom_site_fract_y
_atom_site_fract_z
Si Si1 0.961286 0.189434 0.694293
Si Si2 0.819745 0.446093 0.886830
Si Si3 0.574352 0.267185 0.372369
Si Si4 0.928165 0.923170 0.642334
Si Si5 0.966420 0.438446 0.700881
Si Si6 0.722828 0.975452 0.140268
Si Si7 0.602149 0.489684 0.970131
O O1 0.945441 0.353125 0.450692
O O2 0.871695 0.197018 0.698719
O O3 0.175835 0.334203 0.892592
O O4 0.915737 0.979340 0.719812
O O5 0.796719 0.647946 0.663369
O O6 0.681347 0.168896 0.916611
O O7 0.000000 0.500000 0.000000
O O8 0.884668 0.509285 0.055779
O O9 0.793116 0.418910 0.559304
O O10 0.472704 0.351374 0.254196
O O11 0.500000 0.000000 0.500000
O O12 0.562653 0.347300 0.159610
O O13 0.141861 0.015602 0.801850
O O14 0.855573 0.037319 0.373094
O O15 0.527122 0.725303 0.109035
#
# Coordination Sequence:
#
# PCOD9094714 Si02
#       7
#     2   2   2   2   2   2   2
#     4  10  21  41  62  90 124 160 201 243 306 365
#     4  10  22  34  59  89 115 155 205 247 290 353
#     4  10  22  36  60  90 122 153 203 253 298 348
#     4  10  20  34  60  86 117 157 202 247 295 357
#     4  10  21  39  63  89 122 162 201 245 301 362
#     4  10  20  36  57  86 121 154 204 246 293 354
#     4  10  22  37  60  89 121 158 196 252 302 348
#
# _framework density 24.956862000000001
#
# number of rings (size 3 to 8) (size 9 to 14) (size 15 to 20)
#    0.000    2.000    1.429    2.571   10.000    0.571 
#    0.000    0.714    0.000    0.857    0.000    0.000 
#    0.000    0.000    0.000    0.000    0.000    0.000 
#
# Total GULP energy -78181.460484 kJ/mol
# GULP energy per Si atom -5584.390035 kJ/mol
# Density = 2.490006 g / cm^3
# Si number density = 24.956862 Si / 1000 Ang^3
#
#
#
# Elastic Constant Matrix: (Units=GPa)
#
#
# Indices 1 2 3 4 5 6 
#
# 1 72.4850 19.2694 11.9380 -1.5184 4.6301 -27.9857
# 2 19.2694 115.8224 21.7901 -23.2610 13.6309 -28.0508
# 3 11.9380 21.7901 47.7765 -9.0438 4.6594 -0.1663
# 4 -1.5184 -23.2610 -9.0438 44.5363 -4.9633 4.3665
# 5 4.6301 13.6309 4.6594 -4.9633 24.8514 -3.2454
# 6 -27.9857 -28.0508 -0.1663 4.3665 -3.2454 30.4661
#
#
#
# Elastic Compliance Matrix: (Units=1/GPa)
#
#
# Indices 1 2 3 4 5 6 
#
# 1 0.023916 0.003435 -0.007568 -0.001608 -0.001963 0.025112
# 2 0.003435 0.014277 -0.006055 0.004358 -0.004485 0.015165
# 3 -0.007568 -0.006055 0.026237 0.003036 -0.001274 -0.012954
# 4 -0.001608 0.004358 0.003036 0.025638 0.002347 -0.000873
# 5 -0.001963 -0.004485 -0.001274 0.002347 0.043559 -0.001635
# 6 0.025112 0.015165 -0.012954 -0.000873 -0.001635 0.069734
#
#
# Mechanical properties :
#
#
# Convention : Reuss Voigt Hill
#
# Bulk Modulus (GPa) = 22.69927 38.00875 30.35401
# Shear Modulus (GPa) = 20.97111 32.17650 26.57381
#
# Velocity S-wave (km/s) = 2.90193 3.59456 3.26665
# Velocity P-wave (km/s) = 4.51037 5.70005 5.13975
#
# Compressibility (1/GPa) = 0.04405429
#
# Stress axis : x y z
#
# Youngs Moduli (GPa) = 41.81237 70.04032 38.11403
#
# Poissons Ratio (x) = -0.24056 0.28845
# Poissons Ratio (y) = -0.14361 0.23077
# Poissons Ratio (z) = 0.31644 0.42408
#
# Static dielectric constant tensor:
#      x y z
#    x 2.036660 0.028930 0.007420 
#    y 0.028930 1.968840 -0.052420 
#    z 0.007420 -0.052420 1.958300 
# 
# From -- ./inp_files/456000.got.cif
#   From: 2010.05.17/outbox.cif.g08.bks.cpg/sg2_228_cif.got.tgz:456000.got - 2010.06.03 11:33:40.
