data_PCOD9094165
_publ_section_title
;
Structure prediction by ZEFSAII (Michael W. Deem and Ramdas Pophale) SiO2 
 PCOD9094165
Probable space group: P -1
;
_chemical_formula_sum "Si O2"
_cell_formula_units_Z 16
_cell_length_a 10.090624
_cell_length_b 11.817896
_cell_length_c 8.695725
_cell_angle_alpha 123.087049
_cell_angle_beta 71.969881
_cell_angle_gamma 130.148053
_cell_volume 662.642134
_symmetry_space_group_name_H-M "P -1"
_symmetry_group_IT_number 2
_symmetry_cell_setting 'triclinic'
loop_
_space_group_symop_operation_xyz
x,y,z
-x,-y,-z
loop_
_atom_site_type_symbol
_atom_site_label
_atom_site_fract_x
_atom_site_fract_y
_atom_site_fract_z
Si Si1 0.716650 0.569309 0.313917
Si Si2 0.048788 0.449937 0.292799
Si Si3 0.213861 0.305733 0.287452
Si Si4 0.535764 0.784700 0.994061
Si Si5 0.243605 0.889129 0.030837
Si Si6 0.007413 0.019779 0.699181
Si Si7 0.089045 0.670519 0.189398
Si Si8 0.396845 0.317479 0.822748
O O1 0.698536 0.578117 0.507757
O O2 0.633410 0.382030 0.144496
O O3 0.616811 0.636261 0.315244
O O4 0.923633 0.675112 0.278568
O O5 0.174368 0.399060 0.249414
O O6 0.135522 0.617581 0.285838
O O7 0.000000 0.500000 0.500000
O O8 0.879467 0.282087 0.151414
O O9 0.322068 0.248062 0.131033
O O10 0.040209 0.142011 0.306292
O O11 0.602830 0.959134 0.015344
O O12 0.530653 0.769048 0.170412
O O13 0.250141 0.821632 0.146966
O O14 0.133252 0.955122 0.173417
O O15 0.191013 0.178123 0.809514
O O16 0.000000 0.000000 0.500000
O O17 0.000000 0.500000 0.000000
O O18 0.500000 0.500000 0.000000
#
# Coordination Sequence:
#
# PCOD9094165 Si02
#       8
#     2   2   2   2   2   2   2   2
#     4  11  20  39  57  90 124 162 198 247 320 373
#     4  11  22  37  61  89 119 160 213 259 295 357
#     4  11  21  35  61  91 123 154 208 253 307 373
#     4  10  23  37  61  91 126 156 191 263 325 366
#     4  10  21  40  60  90 120 157 211 253 307 367
#     4  11  19  34  62  90 123 162 200 258 313 364
#     4  10  21  38  62  84 113 160 212 248 294 362
#     4  10  20  34  54  87 127 158 194 242 313 373
#
# _framework density 24.145765000000001
#
# number of rings (size 3 to 8) (size 9 to 14) (size 15 to 20)
#    0.000    1.500    3.750    1.875    1.750    2.000 
#    0.000    2.500    0.000    0.750    0.000    0.000 
#    0.000    0.000    0.000    0.000    0.000    0.000 
#
# Total GULP energy -89200.626107 kJ/mol
# GULP energy per Si atom -5575.039132 kJ/mol
# Density = 2.409081 g / cm^3
# Si number density = 24.145765 Si / 1000 Ang^3
#
#
#
# Elastic Constant Matrix: (Units=GPa)
#
#
# Indices 1 2 3 4 5 6 
#
# 1 77.1522 64.6298 32.2883 -11.3860 10.8910 -16.1164
# 2 64.6298 209.0837 28.3756 -11.6348 21.7196 -13.9453
# 3 32.2883 28.3756 82.5611 -15.8773 0.1534 -6.0397
# 4 -11.3860 -11.6348 -15.8773 31.9279 -8.5610 2.4180
# 5 10.8910 21.7196 0.1534 -8.5610 30.3648 -9.7939
# 6 -16.1164 -13.9453 -6.0397 2.4180 -9.7939 51.1786
#
#
#
# Elastic Compliance Matrix: (Units=1/GPa)
#
#
# Indices 1 2 3 4 5 6 
#
# 1 0.021138 -0.005156 -0.005823 0.001916 -0.002005 0.004090
# 2 -0.005156 0.006711 -0.000396 -0.000417 -0.003207 -0.000436
# 3 -0.005823 -0.000396 0.015857 0.006798 0.004351 0.000441
# 4 0.001916 -0.000417 0.006798 0.038009 0.010797 0.001562
# 5 -0.002005 -0.003207 0.004351 0.010797 0.041015 0.006347
# 6 0.004090 -0.000436 0.000441 0.001562 0.006347 0.021902
#
#
# Mechanical properties :
#
#
# Convention : Reuss Voigt Hill
#
# Bulk Modulus (GPa) = 47.72057 68.82050 58.27054
# Shear Modulus (GPa) = 28.67504 38.92779 33.80142
#
# Velocity S-wave (km/s) = 3.44987 4.01958 3.74557
# Velocity P-wave (km/s) = 5.97287 7.07860 6.54912
#
# Compressibility (1/GPa) = 0.02095532
#
# Stress axis : x y z
#
# Youngs Moduli (GPa) = 47.30911 149.00467 63.06269
#
# Poissons Ratio (x) = 0.76825 0.36722
# Poissons Ratio (y) = 0.24392 0.02499
# Poissons Ratio (z) = 0.27549 0.05906
#
# Static dielectric constant tensor:
#      x y z
#    x 2.014210 -0.023100 -0.007200 
#    y -0.023100 2.038490 -0.043560 
#    z -0.007200 -0.043560 1.904180 
# 
# From -- ./inp_files/263016.got.cif
#   From: 2010.05.17/outbox.cif.g08.bks.cpg/sg2_132_cif.got.tgz:263016.got - 2010.06.03 11:33:40.
