data_PCOD9094865
_publ_section_title
;
Structure prediction by ZEFSAII (Michael W. Deem and Ramdas Pophale) SiO2 
 PCOD9094865
Probable space group: P -1
;
_chemical_formula_sum "Si O2"
_cell_formula_units_Z 15
_cell_length_a 10.945846
_cell_length_b 13.122188
_cell_length_c 9.302910
_cell_angle_alpha 93.720576
_cell_angle_beta 82.490806
_cell_angle_gamma 31.575347
_cell_volume 652.472759
_symmetry_space_group_name_H-M "P -1"
_symmetry_group_IT_number 2
_symmetry_cell_setting 'triclinic'
loop_
_space_group_symop_operation_xyz
x,y,z
-x,-y,-z
loop_
_atom_site_type_symbol
_atom_site_label
_atom_site_fract_x
_atom_site_fract_y
_atom_site_fract_z
Si Si1 0.810379 0.699023 0.947992
Si Si2 0.000000 0.000000 0.000000
Si Si3 0.030256 0.243671 0.290570
Si Si4 0.903537 0.198096 0.825926
Si Si5 0.431986 0.807007 0.051533
Si Si6 0.619311 0.477695 0.169012
Si Si7 0.831692 0.712352 0.495927
Si Si8 0.712864 0.894425 0.253670
O O1 0.618770 0.749332 0.939036
O O2 0.692881 0.864120 0.094965
O O3 0.923333 0.687518 0.805811
O O4 0.000000 0.500000 0.000000
O O5 0.987974 0.991949 0.185639
O O6 0.261675 0.875905 0.967485
O O7 0.060803 0.260422 0.449230
O O8 0.767074 0.390385 0.284763
O O9 0.254276 0.004657 0.197179
O O10 0.654132 0.376790 0.784710
O O11 0.096310 0.148827 0.771333
O O12 0.805913 0.275254 0.019388
O O13 0.578336 0.614295 0.102218
O O14 0.821117 0.730341 0.328701
O O15 0.000000 0.500000 0.500000
O O16 0.556193 0.891171 0.617438
#
# Coordination Sequence:
#
# PCOD9094865 Si02
#       8
#     2   1   2   2   2   2   2   2
#     4  12  21  36  64  97 127 161 205 268 334 376
#     4  10  20  34  62  92 134 158 202 248 330 376
#     4  12  22  39  63  93 126 158 217 266 315 380
#     4  10  20  40  59  97 131 167 198 265 320 379
#     4  11  21  34  56  92 125 165 194 261 317 375
#     4  10  21  36  60  93 132 154 205 255 321 383
#     4  11  27  43  64  91 127 179 218 263 319 381
#     4  11  23  45  62  92 137 166 210 271 320 378
#
# _framework density 22.989464000000002
#
# number of rings (size 3 to 8) (size 9 to 14) (size 15 to 20)
#    0.000    1.067    5.333    1.200    1.867    0.000 
#    4.800    0.667    0.000    4.000    0.000    0.000 
#    0.000    0.000    0.000    0.000    0.000    0.000 
#
# Total GULP energy -83672.226083 kJ/mol
# GULP energy per Si atom -5578.148406 kJ/mol
# Density = 2.293714 g / cm^3
# Si number density = 22.989464 Si / 1000 Ang^3
#
#
#
# Elastic Constant Matrix: (Units=GPa)
#
#
# Indices 1 2 3 4 5 6 
#
# 1 152.2278 33.0128 13.7073 4.6479 -12.7588 -36.6887
# 2 33.0128 98.0872 1.3938 -3.3706 -6.4617 -2.8881
# 3 13.7073 1.3938 48.9937 -8.4719 6.4101 -7.9744
# 4 4.6479 -3.3706 -8.4719 14.3634 3.3276 2.5541
# 5 -12.7588 -6.4617 6.4101 3.3276 29.8642 -3.6194
# 6 -36.6887 -2.8881 -7.9744 2.5541 -3.6194 59.9360
#
#
#
# Elastic Compliance Matrix: (Units=1/GPa)
#
#
# Indices 1 2 3 4 5 6 
#
# 1 0.009813 -0.002964 -0.003979 -0.008714 0.006112 0.006075
# 2 -0.002964 0.011311 0.001009 0.004366 0.000320 -0.001302
# 3 -0.003979 0.001009 0.025937 0.019008 -0.009203 -0.000302
# 4 -0.008714 0.004366 0.019008 0.090139 -0.017812 -0.007511
# 5 0.006112 0.000320 -0.009203 -0.017812 0.040823 0.005757
# 6 0.006075 -0.001302 -0.000302 -0.007511 0.005757 0.020968
#
#
# Mechanical properties :
#
#
# Convention : Reuss Voigt Hill
#
# Bulk Modulus (GPa) = 28.41510 43.94849 36.18179
# Shear Modulus (GPa) = 22.46281 37.57904 30.02093
#
# Velocity S-wave (km/s) = 3.12924 4.04743 3.61758
# Velocity P-wave (km/s) = 5.04411 6.40317 5.76384
#
# Compressibility (1/GPa) = 0.03519255
#
# Stress axis : x y z
#
# Youngs Moduli (GPa) = 101.91014 88.40923 38.55473
#
# Poissons Ratio (x) = 0.26204 0.15340
# Poissons Ratio (y) = 0.30206 -0.03888
# Poissons Ratio (z) = 0.40547 -0.08916
#
# Static dielectric constant tensor:
#      x y z
#    x 1.558200 -0.451850 -0.008520 
#    y -0.451850 1.288640 -0.007460 
#    z -0.008520 -0.007460 1.845620 
# 
# From -- ./inp_files/273103.got.cif
#   From: 2010.05.17/outbox.cif.g08.bks.cpg/sg2_137_cif.got.tgz:273103.got - 2010.06.03 11:33:40.
