data_PCOD9094665
_publ_section_title
;
Structure prediction by ZEFSAII (Michael W. Deem and Ramdas Pophale) SiO2 
 PCOD9094665
Probable space group: P -1
;
_chemical_formula_sum "Si O2"
_cell_formula_units_Z 14
_cell_length_a 12.576882
_cell_length_b 10.515665
_cell_length_c 13.559379
_cell_angle_alpha 68.735048
_cell_angle_beta 147.322481
_cell_angle_gamma 133.316385
_cell_volume 589.849803
_symmetry_space_group_name_H-M "P -1"
_symmetry_group_IT_number 2
_symmetry_cell_setting 'triclinic'
loop_
_space_group_symop_operation_xyz
x,y,z
-x,-y,-z
loop_
_atom_site_type_symbol
_atom_site_label
_atom_site_fract_x
_atom_site_fract_y
_atom_site_fract_z
Si Si1 0.938874 0.375817 0.390222
Si Si2 0.924500 0.795900 0.339888
Si Si3 0.745697 0.515916 0.092209
Si Si4 0.080678 0.389380 0.125603
Si Si5 0.249623 0.242246 0.417656
Si Si6 0.100448 0.840193 0.130263
Si Si7 0.440106 0.264714 0.336331
O O1 0.878381 0.194873 0.436411
O O2 0.235481 0.530183 0.510311
O O3 0.000000 0.500000 0.500000
O O4 0.707942 0.347245 0.157773
O O5 0.872565 0.690693 0.223622
O O6 0.583880 0.617819 0.163881
O O7 0.055775 0.015271 0.369381
O O8 0.991165 0.653526 0.159509
O O9 0.082041 0.299373 0.252553
O O10 0.442307 0.574146 0.332615
O O11 0.857177 0.184992 0.940264
O O12 0.000000 0.500000 0.000000
O O13 0.362943 0.252977 0.393593
O O14 0.806228 0.783890 0.908970
O O15 0.370139 0.068669 0.318424
#
# Coordination Sequence:
#
# PCOD9094665 Si02
#       7
#     2   2   2   2   2   2   2
#     4  10  22  34  54  94 128 153 188 245 307 356
#     4  10  20  38  59  87 125 152 196 246 301 359
#     4  10  20  34  59  90 124 155 188 250 307 345
#     4  10  24  40  60  89 125 155 202 248 297 356
#     4  10  22  42  65  88 117 165 198 245 304 350
#     4  10  20  37  64  93 117 156 201 252 299 345
#     4  10  20  37  65  94 119 150 205 250 293 358
#
# _framework density 23.734855
#
# number of rings (size 3 to 8) (size 9 to 14) (size 15 to 20)
#    0.000    2.000    2.857    0.000    2.000    4.000 
#    0.000    0.714    0.000    1.714    0.000    0.000 
#    0.000    0.000    0.000    0.000    0.000    0.000 
#
# Total GULP energy -78063.930264 kJ/mol
# GULP energy per Si atom -5575.995019 kJ/mol
# Density = 2.368083 g / cm^3
# Si number density = 23.734855 Si / 1000 Ang^3
#
#
#
# Elastic Constant Matrix: (Units=GPa)
#
#
# Indices 1 2 3 4 5 6 
#
# 1 39.6725 4.0066 10.9313 4.8335 -4.9664 5.8328
# 2 4.0066 174.3452 29.1485 -21.0653 -2.2888 -9.4277
# 3 10.9313 29.1485 52.0042 -17.0814 -2.0522 -9.7908
# 4 4.8335 -21.0653 -17.0814 46.5004 -8.0767 4.9377
# 5 -4.9664 -2.2888 -2.0522 -8.0767 19.2764 -1.0597
# 6 5.8328 -9.4277 -9.7908 4.9377 -1.0597 32.3240
#
#
#
# Elastic Compliance Matrix: (Units=1/GPa)
#
#
# Indices 1 2 3 4 5 6 
#
# 1 0.029924 -0.000112 -0.009067 -0.004982 0.004244 -0.007278
# 2 -0.000112 0.006511 -0.002723 0.002115 0.001386 0.000817
# 3 -0.009067 -0.002723 0.027560 0.009838 0.004828 0.007845
# 4 -0.004982 0.002115 0.009838 0.028631 0.012040 0.000517
# 5 0.004244 0.001386 0.004828 0.012040 0.058759 0.001188
# 6 -0.007278 0.000817 0.007845 0.000517 0.001188 0.034825
#
#
# Mechanical properties :
#
#
# Convention : Reuss Voigt Hill
#
# Bulk Modulus (GPa) = 24.87970 39.35498 32.11734
# Shear Modulus (GPa) = 22.38024 34.41585 28.39805
#
# Velocity S-wave (km/s) = 3.07404 3.81203 3.46276
# Velocity P-wave (km/s) = 4.80674 5.99938 5.43587
#
# Compressibility (1/GPa) = 0.04019340
#
# Stress axis : x y z
#
# Youngs Moduli (GPa) = 33.41787 153.57469 36.28395
#
# Poissons Ratio (x) = 0.01714 0.32897
# Poissons Ratio (y) = 0.00373 0.09880
# Poissons Ratio (z) = 0.30299 0.41820
#
# Static dielectric constant tensor:
#      x y z
#    x 1.968170 -0.036820 -0.014800 
#    y -0.036820 1.921250 -0.078160 
#    z -0.014800 -0.078160 1.914030 
# 
# From -- ./inp_files/257297.got.cif
#   From: 2010.05.17/outbox.cif.g08.bks.cpg/sg2_129_cif.got.tgz:257297.got - 2010.06.03 11:33:40.
