data_PCOD9094713
_publ_section_title
;
Structure prediction by ZEFSAII (Michael W. Deem and Ramdas Pophale) SiO2 
 PCOD9094713
Probable space group: P -1
;
_chemical_formula_sum "Si O2"
_cell_formula_units_Z 13
_cell_length_a 7.687782
_cell_length_b 15.730000
_cell_length_c 13.582283
_cell_angle_alpha 28.211618
_cell_angle_beta 58.656977
_cell_angle_gamma 44.227439
_cell_volume 509.801075
_symmetry_space_group_name_H-M "P -1"
_symmetry_group_IT_number 2
_symmetry_cell_setting 'triclinic'
loop_
_space_group_symop_operation_xyz
x,y,z
-x,-y,-z
loop_
_atom_site_type_symbol
_atom_site_label
_atom_site_fract_x
_atom_site_fract_y
_atom_site_fract_z
Si Si1 0.689437 0.597100 0.880250
Si Si2 0.500000 0.500000 0.500000
Si Si3 0.953702 0.302336 0.905746
Si Si4 0.092903 0.309187 0.563989
Si Si5 0.826945 0.417099 0.228155
Si Si6 0.857756 0.977048 0.327433
Si Si7 0.498578 0.146718 0.975412
O O1 0.796969 0.445718 0.905343
O O2 0.390492 0.834327 0.724304
O O3 0.884637 0.652989 0.790162
O O4 0.725598 0.445812 0.118912
O O5 0.587624 0.256949 0.767497
O O6 0.785970 0.430156 0.523771
O O7 0.869697 0.497115 0.650944
O O8 0.260288 0.166700 0.978573
O O9 0.898434 0.123772 0.093919
O O10 0.199700 0.164854 0.576437
O O11 0.266192 0.112959 0.794370
O O12 0.637106 0.667054 0.083217
O O13 0.876808 0.219816 0.487158
#
# Coordination Sequence:
#
# PCOD9094713 Si02
#       7
#     2   1   2   2   2   2   2
#     4  10  20  35  55  89 120 159 199 228 283 342
#     4  10  20  40  68  90 104 150 204 236 302 352
#     4  10  24  37  57  93 120 154 200 233 280 352
#     4  11  22  41  63  85 119 152 191 248 293 346
#     4  10  20  34  60  86 116 160 197 232 287 345
#     4  12  21  37  61  84 124 159 191 242 285 337
#     4  10  20  41  61  87 117 152 191 244 295 345
#
# _framework density 25.500140999999999
#
# number of rings (size 3 to 8) (size 9 to 14) (size 15 to 20)
#    0.000    1.538    6.154    1.385    0.000    1.846 
#    0.000    3.077    0.000    5.538    0.000    0.000 
#    0.000    0.000    0.000    0.000    0.000    0.000 
#
# Total GULP energy -72573.393413 kJ/mol
# GULP energy per Si atom -5582.568724 kJ/mol
# Density = 2.544210 g / cm^3
# Si number density = 25.500141 Si / 1000 Ang^3
#
#
#
# Elastic Constant Matrix: (Units=GPa)
#
#
# Indices 1 2 3 4 5 6 
#
# 1 44.8806 24.9917 36.8736 0.1315 9.0266 -2.9140
# 2 24.9917 93.9089 35.9773 -26.6828 -3.3612 1.8259
# 3 36.8736 35.9773 229.5460 7.8928 27.4928 -8.7792
# 4 0.1315 -26.6828 7.8928 30.7486 -12.0354 -0.7494
# 5 9.0266 -3.3612 27.4928 -12.0354 44.4423 2.0278
# 6 -2.9140 1.8259 -8.7792 -0.7494 2.0278 25.2566
#
#
#
# Elastic Compliance Matrix: (Units=1/GPa)
#
#
# Indices 1 2 3 4 5 6 
#
# 1 0.033478 -0.013585 -0.001100 -0.016124 -0.011738 0.004926
# 2 -0.013585 0.025054 -0.004843 0.029084 0.015776 -0.005466
# 3 -0.001100 -0.004843 0.006466 -0.008346 -0.006529 0.002747
# 4 -0.016124 0.029084 -0.008346 0.071687 0.030379 -0.007176
# 5 -0.011738 0.015776 -0.006529 0.030379 0.038662 -0.006967
# 6 0.004926 -0.005466 0.002747 -0.007176 -0.006967 0.041859
#
#
# Mechanical properties :
#
#
# Convention : Reuss Voigt Hill
#
# Bulk Modulus (GPa) = 38.54793 62.66897 50.60845
# Shear Modulus (GPa) = 18.87437 38.12235 28.49836
#
# Velocity S-wave (km/s) = 2.72355 3.87070 3.34664
# Velocity P-wave (km/s) = 5.00399 6.67875 5.90108
#
# Compressibility (1/GPa) = 0.02594173
#
# Stress axis : x y z
#
# Youngs Moduli (GPa) = 29.87046 39.91341 154.65173
#
# Poissons Ratio (x) = 0.54224 0.17009
# Poissons Ratio (y) = 0.40580 0.74899
# Poissons Ratio (z) = 0.03285 0.19330
#
# Static dielectric constant tensor:
#      x y z
#    x 1.969530 0.054800 0.022410 
#    y 0.054800 2.082070 0.080100 
#    z 0.022410 0.080100 2.034870 
# 
# From -- ./inp_files/194219.got.cif
#   From: 2010.05.17/outbox.cif.g08.bks.cpg/sg2_98_cif.got.tgz:194219.got - 2010.06.03 11:33:40.
