data_PCOD9094446
_publ_section_title
;
Structure prediction by ZEFSAII (Michael W. Deem and Ramdas Pophale) SiO2 
 PCOD9094446
Probable space group: P -1
;
_chemical_formula_sum "Si O2"
_cell_formula_units_Z 16
_cell_length_a 5.216242
_cell_length_b 14.803588
_cell_length_c 17.311087
_cell_angle_alpha 142.662435
_cell_angle_beta 93.713582
_cell_angle_gamma 93.874851
_cell_volume 793.235441
_symmetry_space_group_name_H-M "P -1"
_symmetry_group_IT_number 2
_symmetry_cell_setting 'triclinic'
loop_
_space_group_symop_operation_xyz
x,y,z
-x,-y,-z
loop_
_atom_site_type_symbol
_atom_site_label
_atom_site_fract_x
_atom_site_fract_y
_atom_site_fract_z
Si Si1 0.104009 0.691665 0.364192
Si Si2 0.694393 0.944278 0.784084
Si Si3 0.682561 0.818933 0.530763
Si Si4 0.342785 0.633832 0.095733
Si Si5 0.711666 0.895539 0.919125
Si Si6 0.047769 0.424085 0.073705
Si Si7 0.298747 0.895837 0.369934
Si Si8 0.272073 0.156534 0.948409
O O1 0.400415 0.742810 0.436765
O O2 0.036957 0.517291 0.215128
O O3 0.095534 0.798532 0.360295
O O4 0.894985 0.722344 0.443176
O O5 0.487610 0.058002 0.862866
O O6 0.987652 0.045774 0.859038
O O7 0.653152 0.845521 0.638898
O O8 0.669617 0.844629 0.794959
O O9 0.792599 0.986916 0.610646
O O10 0.135026 0.557248 0.104108
O O11 0.449673 0.790826 0.248336
O O12 0.500000 0.500000 0.000000
O O13 0.215351 0.662579 0.031379
O O14 0.688150 0.794478 0.926987
O O15 0.500000 0.000000 0.000000
O O16 0.000000 0.000000 0.000000
O O17 0.242720 0.307437 0.004513
O O18 0.500000 0.000000 0.500000
#
# Coordination Sequence:
#
# PCOD9094446 Si02
#       8
#     2   2   2   2   2   2   2   2
#     4  10  23  37  53  76 107 149 185 228 272 322
#     4  10  20  34  57  86 114 137 178 236 283 327
#     4  11  21  36  55  79 105 143 190 227 273 328
#     4  10  22  37  55  78 113 146 185 238 280 320
#     4   8  16  32  52  81 113 139 170 222 285 333
#     4  10  23  36  54  78 110 149 187 227 275 336
#     4   9  20  36  54  78 104 146 186 231 271 327
#     4  10  20  34  58  85 110 144 181 223 282 343
#
# _framework density 20.170555
#
# number of rings (size 3 to 8) (size 9 to 14) (size 15 to 20)
#    0.000    2.250    0.000    1.875    8.750    0.000 
#    4.500    0.000    0.000    1.500    0.000    0.000 
#    0.000    0.000    0.000    0.000    0.000    0.000 
#
# Total GULP energy -89079.588975 kJ/mol
# GULP energy per Si atom -5567.474311 kJ/mol
# Density = 2.012465 g / cm^3
# Si number density = 20.170555 Si / 1000 Ang^3
#
#
#
# Elastic Constant Matrix: (Units=GPa)
#
#
# Indices 1 2 3 4 5 6 
#
# 1 116.8958 18.5202 45.1501 -7.2533 -15.0482 -9.8653
# 2 18.5202 41.0902 28.2330 -17.7564 8.5392 -10.9578
# 3 45.1501 28.2330 158.2797 -18.5649 -18.2820 -7.5823
# 4 -7.2533 -17.7564 -18.5649 27.7976 -1.7839 -2.4754
# 5 -15.0482 8.5392 -18.2820 -1.7839 24.3835 -3.2111
# 6 -9.8653 -10.9578 -7.5823 -2.4754 -3.2111 21.9753
#
#
#
# Elastic Compliance Matrix: (Units=1/GPa)
#
#
# Indices 1 2 3 4 5 6 
#
# 1 0.011142 -0.005275 -0.001195 -0.000457 0.008203 0.003107
# 2 -0.005275 0.054494 -0.006107 0.030002 -0.021707 0.022906
# 3 -0.001195 -0.006107 0.009078 0.002494 0.008532 0.001078
# 4 -0.000457 0.030002 0.002494 0.058528 -0.001746 0.021953
# 5 0.008203 -0.021707 0.008532 -0.001746 0.060531 0.004451
# 6 0.003107 0.022906 0.001078 0.021953 0.004451 0.061818
#
#
# Mechanical properties :
#
#
# Convention : Reuss Voigt Hill
#
# Bulk Modulus (GPa) = 20.17702 55.56361 37.87032
# Shear Modulus (GPa) = 16.82019 29.78875 23.30447
#
# Velocity S-wave (km/s) = 2.89086 3.84714 3.40276
# Velocity P-wave (km/s) = 4.60084 6.88046 5.85271
#
# Compressibility (1/GPa) = 0.04956133
#
# Stress axis : x y z
#
# Youngs Moduli (GPa) = 89.75404 18.35061 110.16149
#
# Poissons Ratio (x) = 0.09679 0.13160
# Poissons Ratio (y) = 0.47342 0.67272
# Poissons Ratio (z) = 0.10722 0.11206
#
# Static dielectric constant tensor:
#      x y z
#    x 1.749670 0.043480 0.014690 
#    y 0.043480 1.769990 -0.008080 
#    z 0.014690 -0.008080 1.518340 
# 
# From -- ./inp_files/82016.got.cif
#   From: 2010.05.17/outbox.cif.g08.bks.cpg/sg2_42_cif.got.tgz:82016.got - 2010.06.03 11:33:40.
