data_PCOD9094403
_publ_section_title
;
Structure prediction by ZEFSAII (Michael W. Deem and Ramdas Pophale) SiO2 
 PCOD9094403
Probable space group: P -1
;
_chemical_formula_sum "Si O2"
_cell_formula_units_Z 12
_cell_length_a 5.296736
_cell_length_b 7.533345
_cell_length_c 14.269893
_cell_angle_alpha 111.800728
_cell_angle_beta 86.796543
_cell_angle_gamma 116.785631
_cell_volume 467.660479
_symmetry_space_group_name_H-M "P -1"
_symmetry_group_IT_number 2
_symmetry_cell_setting 'triclinic'
loop_
_space_group_symop_operation_xyz
x,y,z
-x,-y,-z
loop_
_atom_site_type_symbol
_atom_site_label
_atom_site_fract_x
_atom_site_fract_y
_atom_site_fract_z
Si Si1 0.244243 0.393276 0.860484
Si Si2 0.618968 0.737494 0.648740
Si Si3 0.414241 0.858974 0.190103
Si Si4 0.399770 0.683973 0.427296
Si Si5 0.301294 0.193669 0.001721
Si Si6 0.875433 0.106165 0.450285
O O1 0.393410 0.248648 0.796615
O O2 0.215842 0.341527 0.963501
O O3 0.920866 0.305345 0.815950
O O4 0.477330 0.642535 0.895508
O O5 0.497359 0.703945 0.538559
O O6 0.555746 0.510358 0.651116
O O7 0.546178 0.908363 0.733380
O O8 0.955624 0.836436 0.637740
O O9 0.511942 0.880306 0.083065
O O10 0.560694 0.905792 0.410002
O O11 0.100043 0.682864 0.454244
O O12 0.000000 0.000000 0.000000
O O13 0.000000 0.000000 0.500000
#
# Coordination Sequence:
#
# PCOD9094403 Si02
#       6
#     2   2   2   2   2   2
#     4   9  21  40  57  87 121 151 193 243 296 356
#     4  10  20  34  57  81 113 155 198 244 298 343
#     4  10  21  39  59  89 121 154 195 248 294 354
#     4   9  19  36  55  80 111 154 196 246 290 355
#     4   9  20  39  65  86 117 158 193 237 298 359
#     4   9  18  34  54  78 106 151 193 238 299 348
#
# _framework density 25.659641000000001
#
# number of rings (size 3 to 8) (size 9 to 14) (size 15 to 20)
#    1.000    1.667    0.000    1.000    2.333    0.667 
#    3.000    0.000    0.000    0.000    0.000    0.000 
#    0.000    0.000    0.000    0.000    0.000    0.000 
#
# Total GULP energy -66864.535701 kJ/mol
# GULP energy per Si atom -5572.044642 kJ/mol
# Density = 2.560124 g / cm^3
# Si number density = 25.659641 Si / 1000 Ang^3
#
#
#
# Elastic Constant Matrix: (Units=GPa)
#
#
# Indices 1 2 3 4 5 6 
#
# 1 131.4653 37.8556 31.1198 20.4796 -33.6827 16.2750
# 2 37.8556 124.7351 21.1292 22.1480 -13.5000 4.0307
# 3 31.1198 21.1292 118.2142 32.8447 -43.6745 -5.5470
# 4 20.4796 22.1480 32.8447 33.1282 -13.8973 -4.9304
# 5 -33.6827 -13.5000 -43.6745 -13.8973 41.3485 11.5563
# 6 16.2750 4.0307 -5.5470 -4.9304 11.5563 41.7277
#
#
#
# Elastic Compliance Matrix: (Units=1/GPa)
#
#
# Indices 1 2 3 4 5 6 
#
# 1 0.012868 -0.001675 0.003154 -0.005447 0.013935 -0.008941
# 2 -0.001675 0.009567 0.000536 -0.005763 0.000687 -0.001071
# 3 0.003154 0.000536 0.017792 -0.012912 0.018774 -0.005642
# 4 -0.005447 -0.005763 -0.012912 0.049009 -0.005823 0.008368
# 5 0.013935 0.000687 0.018774 -0.005823 0.059252 -0.020103
# 6 -0.008941 -0.001071 -0.005642 0.008368 -0.020103 0.033362
#
#
# Mechanical properties :
#
#
# Convention : Reuss Voigt Hill
#
# Bulk Modulus (GPa) = 22.59591 61.62488 42.11040
# Shear Modulus (GPa) = 25.96416 42.19486 34.07951
#
# Velocity S-wave (km/s) = 3.18444 4.05953 3.64831
# Velocity P-wave (km/s) = 4.72715 6.78538 5.84754
#
# Compressibility (1/GPa) = 0.04425579
#
# Stress axis : x y z
#
# Youngs Moduli (GPa) = 77.71254 104.52770 56.20499
#
# Poissons Ratio (x) = 0.17512 -0.17727
# Poissons Ratio (y) = 0.13019 -0.03011
# Poissons Ratio (z) = -0.24511 -0.05600
#
# Static dielectric constant tensor:
#      x y z
#    x 2.322770 0.122930 0.072150 
#    y 0.122930 2.085630 0.038520 
#    z 0.072150 0.038520 2.167640 
# 
# From -- ./inp_files/547463.got.cif
#   From: 2010.05.17/outbox.cif.g08.bks.cpg/sg2_274_cif.got.tgz:547463.got - 2010.06.03 11:33:40.
