data_PCOD9094784
_publ_section_title
;
Structure prediction by ZEFSAII (Michael W. Deem and Ramdas Pophale) SiO2 
 PCOD9094784
Probable space group: P -1
;
_chemical_formula_sum "Si O2"
_cell_formula_units_Z 15
_cell_length_a 15.782404
_cell_length_b 9.628820
_cell_length_c 8.769702
_cell_angle_alpha 77.529581
_cell_angle_beta 85.339943
_cell_angle_gamma 37.202696
_cell_volume 777.435215
_symmetry_space_group_name_H-M "P -1"
_symmetry_group_IT_number 2
_symmetry_cell_setting 'triclinic'
loop_
_space_group_symop_operation_xyz
x,y,z
-x,-y,-z
loop_
_atom_site_type_symbol
_atom_site_label
_atom_site_fract_x
_atom_site_fract_y
_atom_site_fract_z
Si Si1 0.619580 0.933098 0.192547
Si Si2 0.504650 0.492279 0.752810
Si Si3 0.388008 0.863586 0.434209
Si Si4 0.704004 0.637934 0.977539
Si Si5 0.868262 0.678588 0.789570
Si Si6 0.278036 0.699827 0.985926
Si Si7 0.850442 0.837855 0.082774
Si Si8 0.500000 0.000000 0.500000
O O1 0.702732 0.964372 0.125558
O O2 0.456602 0.163102 0.107330
O O3 0.611767 0.917298 0.376388
O O4 0.692868 0.711473 0.133574
O O5 0.427085 0.710057 0.605105
O O6 0.567325 0.283776 0.688212
O O7 0.632020 0.396866 0.849137
O O8 0.392154 0.577259 0.865614
O O9 0.223525 0.123803 0.373602
O O10 0.478356 0.886576 0.425019
O O11 0.780841 0.656801 0.864183
O O12 0.774142 0.390865 0.004366
O O13 0.023641 0.413672 0.790923
O O14 0.875521 0.770002 0.916178
O O15 0.160750 0.980027 0.931276
#
# Coordination Sequence:
#
# PCOD9094784 Si02
#       8
#     2   2   2   2   2   2   2   1
#     4  10  20  35  55  87 112 151 194 241 282 342
#     4  10  22  34  56  85 119 146 191 248 295 330
#     4  11  21  37  55  87 118 151 189 245 293 342
#     4  10  20  34  61  83 116 148 199 242 288 324
#     4  10  21  39  57  87 118 158 191 239 286 358
#     4  11  19  35  56  87 112 154 194 242 283 352
#     4  10  21  37  60  83 120 157 195 230 294 351
#     4  12  20  32  58  84 116 144 190 244 284 328
#
# _framework density 19.294211000000001
#
# number of rings (size 3 to 8) (size 9 to 14) (size 15 to 20)
#    0.000    1.600    2.667    4.000    1.867    0.533 
#    0.000    2.667    0.000    0.000    0.000    6.533 
#    0.000    0.000    0.000    0.000    0.000    0.000 
#
# Total GULP energy -83530.473564 kJ/mol
# GULP energy per Si atom -5568.698238 kJ/mol
# Density = 1.925030 g / cm^3
# Si number density = 19.294211 Si / 1000 Ang^3
#
#
#
# Elastic Constant Matrix: (Units=GPa)
#
#
# Indices 1 2 3 4 5 6 
#
# 1 43.5482 26.1702 -2.1889 5.2481 4.6433 24.9098
# 2 26.1702 75.9482 22.0497 -12.1380 7.2970 25.1117
# 3 -2.1889 22.0497 66.2356 0.0559 3.8900 7.5760
# 4 5.2481 -12.1380 0.0559 30.2115 -3.2638 3.4646
# 5 4.6433 7.2970 3.8900 -3.2638 13.4743 4.2986
# 6 24.9098 25.1117 7.5760 3.4646 4.2986 41.9982
#
#
#
# Elastic Compliance Matrix: (Units=1/GPa)
#
#
# Indices 1 2 3 4 5 6 
#
# 1 0.043263 -0.012361 0.008057 -0.011241 -0.007513 -0.018026
# 2 -0.012361 0.023853 -0.007538 0.012327 -0.001441 -0.006440
# 3 0.008057 -0.007538 0.018445 -0.004602 -0.004246 -0.002785
# 4 -0.011241 0.012327 -0.004602 0.041588 0.009980 -0.004326
# 5 -0.007513 -0.001441 -0.004246 0.009980 0.082235 -0.003157
# 6 -0.018026 -0.006440 -0.002785 -0.004326 -0.003157 0.039535
#
#
# Mechanical properties :
#
#
# Convention : Reuss Voigt Hill
#
# Bulk Modulus (GPa) = 16.16120 30.86603 23.51362
# Shear Modulus (GPa) = 17.05149 26.45021 21.75085
#
# Velocity S-wave (km/s) = 2.97604 3.70657 3.36121
# Velocity P-wave (km/s) = 4.49482 5.86093 5.22274
#
# Compressibility (1/GPa) = 0.06187658
#
# Stress axis : x y z
#
# Youngs Moduli (GPa) = 23.11423 41.92367 54.21495
#
# Poissons Ratio (x) = 0.51824 -0.43683
# Poissons Ratio (y) = 0.28573 0.40869
# Poissons Ratio (z) = -0.18624 0.31603
#
# Static dielectric constant tensor:
#      x y z
#    x 1.664780 0.020860 0.017190 
#    y 0.020860 1.693870 -0.009520 
#    z 0.017190 -0.009520 1.694960 
# 
# From -- ./inp_files/195627.got.cif
#   From: 2010.05.17/outbox.cif.g08.bks.cpg/sg2_98_cif.got.tgz:195627.got - 2010.06.03 11:33:40.
