data_PCOD9094537
_publ_section_title
;
Structure prediction by ZEFSAII (Michael W. Deem and Ramdas Pophale) SiO2 
 PCOD9094537
Probable space group: P -1
;
_chemical_formula_sum "Si O2"
_cell_formula_units_Z 12
_cell_length_a 15.153024
_cell_length_b 5.845391
_cell_length_c 7.307598
_cell_angle_alpha 42.080090
_cell_angle_beta 81.857196
_cell_angle_gamma 93.003382
_cell_volume 417.128467
_symmetry_space_group_name_H-M "P -1"
_symmetry_group_IT_number 2
_symmetry_cell_setting 'triclinic'
loop_
_space_group_symop_operation_xyz
x,y,z
-x,-y,-z
loop_
_atom_site_type_symbol
_atom_site_label
_atom_site_fract_x
_atom_site_fract_y
_atom_site_fract_z
Si Si1 0.229052 0.810321 0.299357
Si Si2 0.276288 0.837149 0.692547
Si Si3 0.937553 0.777305 0.402057
Si Si4 0.393898 0.604930 0.293470
Si Si5 0.897235 0.688448 0.893492
Si Si6 0.559134 0.388096 0.295643
O O1 0.261800 0.850286 0.473114
O O2 0.159190 0.426871 0.531892
O O3 0.321496 0.842476 0.134523
O O4 0.168236 0.089320 0.122651
O O5 0.345768 0.580959 0.858332
O O6 0.330949 0.216822 0.511252
O O7 0.172574 0.691299 0.876848
O O8 0.916379 0.790433 0.616487
O O9 0.000000 0.500000 0.500000
O O10 0.005673 0.166088 0.115275
O O11 0.489418 0.640493 0.135094
O O12 0.419258 0.613838 0.494350
O O13 0.500000 0.000000 0.500000
#
# Coordination Sequence:
#
# PCOD9094537 Si02
#       6
#     2   2   2   2   2   2
#     4  10  20  36  57  82 111 147 185 224 270 322
#     4  10  20  34  58  85 109 144 186 225 269 324
#     4   9  20  38  56  76 111 149 180 227 278 321
#     4   9  17  32  56  82 111 145 179 221 272 322
#     4  10  21  38  56  80 112 144 184 230 274 321
#     4   8  16  32  54  81 112 144 178 220 270 321
#
# _framework density 28.768115999999999
#
# number of rings (size 3 to 8) (size 9 to 14) (size 15 to 20)
#    0.000    2.667    0.000    1.000    0.000    6.000 
#    0.000   12.500    0.000   41.000    0.000    0.000 
#    0.000    0.000    0.000    0.000    0.000    0.000 
#
# Total GULP energy -67170.983930 kJ/mol
# GULP energy per Si atom -5597.581994 kJ/mol
# Density = 2.870264 g / cm^3
# Si number density = 28.768116 Si / 1000 Ang^3
#
#
#
# Elastic Constant Matrix: (Units=GPa)
#
#
# Indices 1 2 3 4 5 6 
#
# 1 198.0005 40.9658 26.3872 12.4211 -42.1940 -6.8793
# 2 40.9658 156.2313 28.9197 -28.7111 -9.5013 41.8661
# 3 26.3872 28.9197 95.6572 -7.9598 -18.4603 17.8311
# 4 12.4211 -28.7111 -7.9598 38.4203 2.5377 -19.0433
# 5 -42.1940 -9.5013 -18.4603 2.5377 40.1171 -10.0812
# 6 -6.8793 41.8661 17.8311 -19.0433 -10.0812 71.2435
#
#
#
# Elastic Compliance Matrix: (Units=1/GPa)
#
#
# Indices 1 2 3 4 5 6 
#
# 1 0.007822 -0.002913 -0.000525 -0.004027 0.008225 0.002686
# 2 -0.002913 0.009466 -0.001321 0.005761 -0.002896 -0.004384
# 3 -0.000525 -0.001321 0.012170 0.000659 0.004308 -0.001535
# 4 -0.004027 0.005761 0.000659 0.034356 -0.003549 0.004742
# 5 0.008225 -0.002896 0.004308 -0.003549 0.036515 0.005636
# 6 0.002686 -0.004384 -0.001535 0.004742 0.005636 0.019321
#
#
# Mechanical properties :
#
#
# Convention : Reuss Voigt Hill
#
# Bulk Modulus (GPa) = 50.15076 71.38161 60.76618
# Shear Modulus (GPa) = 36.81435 53.53061 45.17248
#
# Velocity S-wave (km/s) = 3.58116 4.31833 3.96691
# Velocity P-wave (km/s) = 5.87964 7.05199 6.49234
#
# Compressibility (1/GPa) = 0.01993988
#
# Stress axis : x y z
#
# Youngs Moduli (GPa) = 127.84529 105.63623 82.16611
#
# Poissons Ratio (x) = 0.30776 0.04317
# Poissons Ratio (y) = 0.37247 0.10851
# Poissons Ratio (z) = 0.06718 0.13951
#
# Static dielectric constant tensor:
#      x y z
#    x 2.349780 -0.101780 0.029860 
#    y -0.101780 2.234060 -0.102880 
#    z 0.029860 -0.102880 2.219520 
# 
# From -- ./inp_files/3603.got.cif
#   From: 2010.05.17/outbox.cif.g08.bks.cpg/sg2_2_cif.got.tgz:3603.got - 2010.06.03 11:33:40.
