data_PCOD9094730
_publ_section_title
;
Structure prediction by ZEFSAII (Michael W. Deem and Ramdas Pophale) SiO2 
 PCOD9094730
Probable space group: P -1
;
_chemical_formula_sum "Si O2"
_cell_formula_units_Z 14
_cell_length_a 11.991504
_cell_length_b 12.154481
_cell_length_c 9.079307
_cell_angle_alpha 84.195116
_cell_angle_beta 115.068922
_cell_angle_gamma 144.896242
_cell_volume 607.938208
_symmetry_space_group_name_H-M "P -1"
_symmetry_group_IT_number 2
_symmetry_cell_setting 'triclinic'
loop_
_space_group_symop_operation_xyz
x,y,z
-x,-y,-z
loop_
_atom_site_type_symbol
_atom_site_label
_atom_site_fract_x
_atom_site_fract_y
_atom_site_fract_z
Si Si1 0.427355 0.608485 0.698066
Si Si2 0.021298 0.166275 0.643568
Si Si3 0.105714 0.655083 0.905554
Si Si4 0.822863 0.761231 0.972851
Si Si5 0.768056 0.593110 0.669486
Si Si6 0.785846 0.927385 0.276605
Si Si7 0.489868 0.847190 0.899709
O O1 0.152317 0.372771 0.619754
O O2 0.581176 0.644391 0.881468
O O3 0.450629 0.586745 0.544882
O O4 0.489908 0.779607 0.757138
O O5 0.782515 0.960134 0.441825
O O6 0.180846 0.177979 0.701710
O O7 0.038316 0.190664 0.823866
O O8 0.231466 0.685647 0.838492
O O9 0.893739 0.571125 0.743672
O O10 0.000000 0.500000 0.000000
O O11 0.323469 0.906824 0.041304
O O12 0.749044 0.619156 0.822746
O O13 0.000000 0.000000 0.000000
O O14 0.960458 0.829316 0.678648
O O15 0.589711 0.838870 0.081703
#
# Coordination Sequence:
#
# PCOD9094730 Si02
#       7
#     2   2   2   2   2   2   2
#     4  11  23  38  59  92 121 165 197 241 313 372
#     4  10  20  34  60  89 121 160 202 229 302 378
#     4  10  23  43  66  88 115 164 211 260 310 359
#     4  12  21  37  58  90 127 159 194 253 300 362
#     4  10  22  39  59  87 128 155 203 257 305 353
#     4   9  18  38  58  88 122 163 199 242 296 370
#     4  10  21  42  67  86 126 161 204 259 308 359
#
# _framework density 23.028656999999999
#
# number of rings (size 3 to 8) (size 9 to 14) (size 15 to 20)
#    0.000    1.714    2.857    1.714    2.000    0.571 
#    2.571    0.714    0.000    0.000    0.000    0.000 
#    0.000    0.000    0.000    0.000    0.000    0.000 
#
# Total GULP energy -78127.601202 kJ/mol
# GULP energy per Si atom -5580.542943 kJ/mol
# Density = 2.297624 g / cm^3
# Si number density = 23.028657 Si / 1000 Ang^3
#
#
#
# Elastic Constant Matrix: (Units=GPa)
#
#
# Indices 1 2 3 4 5 6 
#
# 1 82.3172 3.5039 35.4289 6.8791 -11.4777 -10.0272
# 2 3.5039 73.7701 8.9366 -13.8052 -0.4702 -10.9471
# 3 35.4289 8.9366 123.0552 -1.7655 -32.9076 -9.9648
# 4 6.8791 -13.8052 -1.7655 27.7070 -5.3176 -3.0842
# 5 -11.4777 -0.4702 -32.9076 -5.3176 41.9373 1.2081
# 6 -10.0272 -10.9471 -9.9648 -3.0842 1.2081 22.0978
#
#
#
# Elastic Compliance Matrix: (Units=1/GPa)
#
#
# Indices 1 2 3 4 5 6 
#
# 1 0.014664 -0.000234 -0.003771 -0.003420 0.000493 0.004333
# 2 -0.000234 0.016799 0.000061 0.009710 0.001129 0.009537
# 3 -0.003771 0.000061 0.011883 0.003803 0.008667 0.003734
# 4 -0.003420 0.009710 0.003803 0.044665 0.007509 0.010797
# 5 0.000493 0.001129 0.008667 0.007509 0.031630 0.004010
# 6 0.004333 0.009537 0.003734 0.010797 0.004010 0.054916
#
#
# Mechanical properties :
#
#
# Convention : Reuss Voigt Hill
#
# Bulk Modulus (GPa) = 28.20329 41.65349 34.92839
# Shear Modulus (GPa) = 25.73828 33.76661 29.75245
#
# Velocity S-wave (km/s) = 3.34677 3.83337 3.59830
# Velocity P-wave (km/s) = 5.21614 6.14165 5.69772
#
# Compressibility (1/GPa) = 0.03545686
#
# Stress axis : x y z
#
# Youngs Moduli (GPa) = 68.19617 59.52739 84.15707
#
# Poissons Ratio (x) = 0.01390 0.31737
# Poissons Ratio (y) = 0.01593 -0.00510
# Poissons Ratio (z) = 0.25718 -0.00361
#
# Static dielectric constant tensor:
#      x y z
#    x 1.877010 0.064470 -0.046790 
#    y 0.064470 1.931980 0.007670 
#    z -0.046790 0.007670 1.986500 
# 
# From -- ./inp_files/201960.got.cif
#   From: 2010.05.17/outbox.cif.g08.bks.cpg/sg2_101_cif.got.tgz:201960.got - 2010.06.03 11:33:40.
