data_PCOD9094076
_publ_section_title
;
Structure prediction by ZEFSAII (Michael W. Deem and Ramdas Pophale) SiO2 
 PCOD9094076
Probable space group: P -1
;
_chemical_formula_sum "Si O2"
_cell_formula_units_Z 16
_cell_length_a 11.610068
_cell_length_b 19.855153
_cell_length_c 8.109140
_cell_angle_alpha 127.251949
_cell_angle_beta 61.501117
_cell_angle_gamma 153.154525
_cell_volume 661.551442
_symmetry_space_group_name_H-M "P -1"
_symmetry_group_IT_number 2
_symmetry_cell_setting 'triclinic'
loop_
_space_group_symop_operation_xyz
x,y,z
-x,-y,-z
loop_
_atom_site_type_symbol
_atom_site_label
_atom_site_fract_x
_atom_site_fract_y
_atom_site_fract_z
Si Si1 0.601904 0.550519 0.691439
Si Si2 0.547430 0.040463 0.798953
Si Si3 0.245701 0.532275 0.355704
Si Si4 0.671439 0.253894 0.251012
Si Si5 0.354799 0.650372 0.898592
Si Si6 0.129605 0.156502 0.208359
Si Si7 0.384449 0.065857 0.639889
Si Si8 0.152817 0.403820 0.892987
O O1 0.500000 0.500000 0.500000
O O2 0.707600 0.522283 0.642638
O O3 0.815730 0.744147 0.825933
O O4 0.343199 0.431050 0.787082
O O5 0.512078 0.923308 0.580855
O O6 0.859250 0.217541 0.849249
O O7 0.421819 0.022328 0.705268
O O8 0.498423 0.076930 0.047342
O O9 0.415126 0.709667 0.541010
O O10 0.935398 0.374722 0.340212
O O11 0.282187 0.525548 0.134346
O O12 0.751730 0.344006 0.154980
O O13 0.590319 0.727883 0.771522
O O14 0.163002 0.471775 0.829793
O O15 0.461026 0.766186 0.149575
O O16 0.923287 0.081915 0.366472
O O17 0.000000 0.000000 0.000000
#
# Coordination Sequence:
#
# PCOD9094076 Si02
#       8
#     2   2   2   2   2   2   2   2
#     4  11  21  35  59  87 109 140 187 232 280 335
#     4   9  18  31  50  76 110 145 181 225 273 319
#     4  10  20  34  53  81 117 148 179 230 284 328
#     4   9  19  34  51  75 114 152 184 222 271 325
#     4   9  18  34  58  85 109 144 190 229 275 332
#     4   9  18  33  55  81 109 139 178 228 275 326
#     4   9  17  31  52  80 111 142 184 231 271 320
#     4  10  20  34  56  85 114 143 182 233 282 328
#
# _framework density 24.185569999999998
#
# number of rings (size 3 to 8) (size 9 to 14) (size 15 to 20)
#    0.000    2.500    0.000    2.625    0.000    4.500 
#    0.000    6.250    0.000   24.750    0.000   43.750 
#    0.000    0.000    0.000    0.000    0.000    0.000 
#
# Total GULP energy -89114.373285 kJ/mol
# GULP energy per Si atom -5569.648330 kJ/mol
# Density = 2.413052 g / cm^3
# Si number density = 24.185570 Si / 1000 Ang^3
#
#
#
# Elastic Constant Matrix: (Units=GPa)
#
#
# Indices 1 2 3 4 5 6 
#
# 1 150.1643 30.1020 39.5327 11.4541 -34.7292 -12.1905
# 2 30.1020 46.2048 14.6147 9.0136 -3.3717 7.7288
# 3 39.5327 14.6147 145.1882 1.6267 -14.7917 8.3217
# 4 11.4541 9.0136 1.6267 30.1092 -1.8455 -21.9951
# 5 -34.7292 -3.3717 -14.7917 -1.8455 25.3522 0.2528
# 6 -12.1905 7.7288 8.3217 -21.9951 0.2528 27.0751
#
#
#
# Elastic Compliance Matrix: (Units=1/GPa)
#
#
# Indices 1 2 3 4 5 6 
#
# 1 0.017262 -0.020563 -0.002963 0.028329 0.020872 0.037371
# 2 -0.020563 0.064803 0.003219 -0.083612 -0.022797 -0.096458
# 3 -0.002963 0.003219 0.008241 -0.009208 0.000629 -0.012272
# 4 0.028329 -0.083612 -0.009208 0.193483 0.034441 0.196312
# 5 0.020872 -0.022797 0.000629 0.034441 0.067449 0.043061
# 6 0.037371 -0.096458 -0.012272 0.196312 0.043061 0.244145
#
#
# Mechanical properties :
#
#
# Convention : Reuss Voigt Hill
#
# Bulk Modulus (GPa) = 20.12418 56.67293 38.39856
# Shear Modulus (GPa) = 7.66211 33.66114 20.66162
#
# Velocity S-wave (km/s) = 1.78183 3.73471 2.92600
# Velocity P-wave (km/s) = 3.54571 6.48697 5.22747
#
# Compressibility (1/GPa) = 0.04969146
#
# Stress axis : x y z
#
# Youngs Moduli (GPa) = 57.93148 15.43128 121.34269
#
# Poissons Ratio (x) = 0.31731 0.35956
# Poissons Ratio (y) = 1.19125 -0.39058
# Poissons Ratio (z) = 0.17166 -0.04967
#
# Static dielectric constant tensor:
#      x y z
#    x 1.926070 -0.039990 -0.034640 
#    y -0.039990 1.941450 0.012810 
#    z -0.034640 0.012810 2.093600 
# 
# From -- ./inp_files/283226.got.cif
#   From: 2010.05.17/outbox.cif.g08.bks.cpg/sg2_142_cif.got.tgz:283226.got - 2010.06.03 11:33:40.
