data_PCOD9094440
_publ_section_title
;
Structure prediction by ZEFSAII (Michael W. Deem and Ramdas Pophale) SiO2 
 PCOD9094440
Probable space group: P -1
;
_chemical_formula_sum "Si O2"
_cell_formula_units_Z 14
_cell_length_a 10.760114
_cell_length_b 5.292570
_cell_length_c 16.856774
_cell_angle_alpha 55.864066
_cell_angle_beta 67.471794
_cell_angle_gamma 66.586814
_cell_volume 712.759707
_symmetry_space_group_name_H-M "P -1"
_symmetry_group_IT_number 2
_symmetry_cell_setting 'triclinic'
loop_
_space_group_symop_operation_xyz
x,y,z
-x,-y,-z
loop_
_atom_site_type_symbol
_atom_site_label
_atom_site_fract_x
_atom_site_fract_y
_atom_site_fract_z
Si Si1 0.671480 0.623214 0.724574
Si Si2 0.594216 0.974151 0.903015
Si Si3 0.938201 0.690865 0.726310
Si Si4 0.872710 0.776687 0.120568
Si Si5 0.063433 0.589193 0.388129
Si Si6 0.412223 0.914672 0.806722
Si Si7 0.789000 0.481558 0.038600
O O1 0.775337 0.712135 0.748779
O O2 0.770501 0.561329 0.634405
O O3 0.526374 0.881198 0.715967
O O4 0.638533 0.294023 0.815182
O O5 0.501690 0.889008 0.869851
O O6 0.730670 0.709874 0.940584
O O7 0.500000 0.000000 0.000000
O O8 0.996106 0.551013 0.650405
O O9 0.009237 0.445980 0.818252
O O10 0.959663 0.035173 0.677668
O O11 0.857934 0.643533 0.060927
O O12 0.723598 0.803160 0.198290
O O13 0.877867 0.140653 0.051693
O O14 0.000000 0.500000 0.500000
O O15 0.342948 0.618570 0.871642
#
# Coordination Sequence:
#
# PCOD9094440 Si02
#       7
#     2   2   2   2   2   2   2
#     4  10  23  34  62  90 119 155 197 260 288 344
#     4  12  18  35  54  90 121 166 206 247 276 334
#     4  10  22  40  64  88 122 147 197 246 305 358
#     4  10  20  37  55  86 117 168 189 238 300 351
#     4  10  22  43  68  89 112 152 197 249 304 363
#     4  10  20  34  57  85 119 159 208 242 286 335
#     4  10  21  31  58  78 120 164 208 226 282 341
#
# _framework density 19.641961999999999
#
# number of rings (size 3 to 8) (size 9 to 14) (size 15 to 20)
#    1.714    0.000    2.857    2.571    2.000    0.000 
#    0.000    1.429    0.000    1.714    0.000    0.000 
#    0.000    0.000    0.000    0.000    0.000    0.000 
#
# Total GULP energy -78020.115185 kJ/mol
# GULP energy per Si atom -5572.865370 kJ/mol
# Density = 1.959726 g / cm^3
# Si number density = 19.641962 Si / 1000 Ang^3
#
#
#
# Elastic Constant Matrix: (Units=GPa)
#
#
# Indices 1 2 3 4 5 6 
#
# 1 60.6289 25.6887 9.3374 4.7995 -7.1069 -5.4263
# 2 25.6887 114.9818 17.6194 7.7939 -10.5838 -2.9841
# 3 9.3374 17.6194 46.4554 20.7132 -17.0463 -9.8761
# 4 4.7995 7.7939 20.7132 31.1979 -6.8361 -3.4044
# 5 -7.1069 -10.5838 -17.0463 -6.8361 19.0128 4.9793
# 6 -5.4263 -2.9841 -9.8761 -3.4044 4.9793 37.6930
#
#
#
# Elastic Compliance Matrix: (Units=1/GPa)
#
#
# Indices 1 2 3 4 5 6 
#
# 1 0.018782 -0.003699 -0.000153 -0.000777 0.004084 0.001761
# 2 -0.003699 0.010080 -0.002433 0.000087 0.002252 -0.000662
# 3 -0.000153 -0.002433 0.043771 -0.021552 0.028637 0.005525
# 4 -0.000777 0.000087 -0.021552 0.045710 -0.002801 -0.001253
# 5 0.004084 0.002252 0.028637 -0.002801 0.080738 -0.002649
# 6 0.001761 -0.000662 0.005525 -0.001253 -0.002649 0.028416
#
#
# Mechanical properties :
#
#
# Convention : Reuss Voigt Hill
#
# Bulk Modulus (GPa) = 16.64862 36.37300 26.51081
# Shear Modulus (GPa) = 19.22430 28.87545 24.04987
#
# Velocity S-wave (km/s) = 3.13187 3.83833 3.50296
# Velocity P-wave (km/s) = 4.64463 6.18077 5.46693
#
# Compressibility (1/GPa) = 0.06006505
#
# Stress axis : x y z
#
# Youngs Moduli (GPa) = 53.24162 99.20260 22.84599
#
# Poissons Ratio (x) = 0.36690 0.00350
# Poissons Ratio (y) = 0.19691 0.05558
# Poissons Ratio (z) = 0.00815 0.24136
#
# Static dielectric constant tensor:
#      x y z
#    x 1.702090 -0.039390 -0.048650 
#    y -0.039390 1.773770 0.061000 
#    z -0.048650 0.061000 1.667570 
# 
# From -- ./inp_files/321797.got.cif
#   From: 2010.05.17/outbox.cif.g08.bks.cpg/sg2_161_cif.got.tgz:321797.got - 2010.06.03 11:33:40.
