data_PCOD9094693
_publ_section_title
;
Structure prediction by ZEFSAII (Michael W. Deem and Ramdas Pophale) SiO2 
 PCOD9094693
Probable space group: P -1
;
_chemical_formula_sum "Si O2"
_cell_formula_units_Z 14
_cell_length_a 8.868664
_cell_length_b 8.709103
_cell_length_c 11.560419
_cell_angle_alpha 83.712961
_cell_angle_beta 107.664346
_cell_angle_gamma 130.316622
_cell_volume 644.073713
_symmetry_space_group_name_H-M "P -1"
_symmetry_group_IT_number 2
_symmetry_cell_setting 'triclinic'
loop_
_space_group_symop_operation_xyz
x,y,z
-x,-y,-z
loop_
_atom_site_type_symbol
_atom_site_label
_atom_site_fract_x
_atom_site_fract_y
_atom_site_fract_z
Si Si1 0.990066 0.757084 0.551516
Si Si2 0.245520 0.583903 0.314479
Si Si3 0.463074 0.258203 0.089871
Si Si4 0.577858 0.433460 0.864652
Si Si5 0.764626 0.059103 0.749037
Si Si6 0.806114 0.629315 0.272120
Si Si7 0.672598 0.835690 0.513493
O O1 0.956094 0.604324 0.650275
O O2 0.901758 0.648114 0.415728
O O3 0.840845 0.804158 0.553293
O O4 0.218565 0.965546 0.559190
O O5 0.262472 0.527167 0.194448
O O6 0.262534 0.777975 0.296220
O O7 0.445910 0.653630 0.428771
O O8 0.359491 0.363491 0.078054
O O9 0.680093 0.415704 0.196200
O O10 0.324785 0.046742 0.140032
O O11 0.515805 0.279451 0.965914
O O12 0.366950 0.347122 0.755103
O O13 0.010398 0.189371 0.779610
O O14 0.658566 0.891778 0.636066
#
# Coordination Sequence:
#
# PCOD9094693 Si02
#       7
#     2   2   2   2   2   2   2
#     4  10  20  34  60  79 110 139 186 214 262 314
#     4  12  22  35  53  87 111 143 169 226 268 323
#     4   9  19  40  59  76 103 145 182 229 254 318
#     4   9  20  39  60  75 105 141 192 216 265 305
#     4  11  23  33  57  82 113 139 178 212 286 312
#     4   9  19  38  57  80 104 142 179 227 255 320
#     4  10  20  36  54  83 108 145 178 218 257 329
#
# _framework density 21.736640999999999
#
# number of rings (size 3 to 8) (size 9 to 14) (size 15 to 20)
#    0.857    1.143    1.429    2.571    0.000    4.571 
#    0.000    0.714    0.000    0.000    0.000    0.000 
#    0.000    0.000    0.000    0.000    0.000    0.000 
#
# Total GULP energy -78154.317538 kJ/mol
# GULP energy per Si atom -5582.451253 kJ/mol
# Density = 2.168717 g / cm^3
# Si number density = 21.736641 Si / 1000 Ang^3
#
#
#
# Elastic Constant Matrix: (Units=GPa)
#
#
# Indices 1 2 3 4 5 6 
#
# 1 2.4174 19.8683 26.5519 1.2552 2.1485 -4.3404
# 2 19.8683 40.4408 22.4931 -32.0661 -6.8304 8.7321
# 3 26.5519 22.4931 88.2485 -35.6965 -22.8994 0.8776
# 4 1.2552 -32.0661 -35.6965 40.8770 -0.9649 -4.6778
# 5 2.1485 -6.8304 -22.8994 -0.9649 10.2995 -5.9278
# 6 -4.3404 8.7321 0.8776 -4.6778 -5.9278 19.9175
#
#
#
# Elastic Compliance Matrix: (Units=1/GPa)
#
#
# Indices 1 2 3 4 5 6 
#
# 1 0.021387 0.009453 0.025648 0.034638 0.080132 0.031370
# 2 0.009453 0.029008 -0.022623 -0.001130 -0.046883 -0.023879
# 3 0.025648 -0.022623 0.016100 -0.001164 0.028591 0.023034
# 4 0.034638 -0.001130 -0.001164 0.022997 -0.000772 0.013266
# 5 0.080132 -0.046883 0.028591 -0.000772 0.161493 0.084638
# 6 0.031370 -0.023879 0.023034 0.013266 0.084638 0.094803
#
#
# Mechanical properties :
#
#
# Convention : Reuss Voigt Hill
#
# Bulk Modulus (GPa) = 10.93486 29.88148 20.40817
# Shear Modulus (GPa) = 14.23227 18.36503 16.29865
#
# Velocity S-wave (km/s) = 2.56160 2.90985 2.74126
# Velocity P-wave (km/s) = 3.71357 5.00665 4.40779
#
# Compressibility (1/GPa) = 0.09145061
#
# Stress axis : x y z
#
# Youngs Moduli (GPa) = 46.75789 34.47383 62.11104
#
# Poissons Ratio (x) = -0.32588 -1.59304
# Poissons Ratio (y) = -0.44199 1.40514
# Poissons Ratio (z) = -1.19926 0.77990
#
# Static dielectric constant tensor:
#      x y z
#    x 1.806530 -0.025550 0.011260 
#    y -0.025550 1.801220 -0.005210 
#    z 0.011260 -0.005210 1.790570 
# 
# From -- ./inp_files/203945.got.cif
#   From: 2010.05.17/outbox.cif.g08.bks.cpg/sg2_102_cif.got.tgz:203945.got - 2010.06.03 11:33:40.
