data_PCOD9094964
_publ_section_title
;
Structure prediction by ZEFSAII (Michael W. Deem and Ramdas Pophale) SiO2 
 PCOD9094964
Probable space group: P -1
;
_chemical_formula_sum "Si O2"
_cell_formula_units_Z 15
_cell_length_a 9.687281
_cell_length_b 8.167909
_cell_length_c 11.604564
_cell_angle_alpha 116.392631
_cell_angle_beta 135.006791
_cell_angle_gamma 64.110270
_cell_volume 570.586606
_symmetry_space_group_name_H-M "P -1"
_symmetry_group_IT_number 2
_symmetry_cell_setting 'triclinic'
loop_
_space_group_symop_operation_xyz
x,y,z
-x,-y,-z
loop_
_atom_site_type_symbol
_atom_site_label
_atom_site_fract_x
_atom_site_fract_y
_atom_site_fract_z
Si Si1 0.000000 0.500000 0.000000
Si Si2 0.061674 0.929585 0.327356
Si Si3 0.823410 0.075412 0.010573
Si Si4 0.062025 0.265192 0.575885
Si Si5 0.723104 0.515777 0.065223
Si Si6 0.368564 0.573656 0.721589
Si Si7 0.378593 0.241674 0.246658
Si Si8 0.463192 0.790646 0.423438
O O1 0.836046 0.637893 0.869136
O O2 0.144536 0.441010 0.951754
O O3 0.998105 0.828000 0.369820
O O4 0.227184 0.798229 0.306207
O O5 0.894365 0.016973 0.164372
O O6 0.150346 0.098630 0.488786
O O7 0.774148 0.293869 0.034394
O O8 0.642929 0.972263 0.843721
O O9 0.000000 0.000000 0.000000
O O10 0.865264 0.372342 0.427328
O O11 0.205887 0.394764 0.749374
O O12 0.495913 0.597069 0.918569
O O13 0.457904 0.704281 0.723747
O O14 0.452259 0.359888 0.667983
O O15 0.433843 0.285021 0.421342
O O16 0.500000 0.000000 0.500000
#
# Coordination Sequence:
#
# PCOD9094964 Si02
#       8
#     1   2   2   2   2   2   2   2
#     4  10  20  34  66  98 130 182 230 288 346 410
#     4  11  26  47  71 103 149 190 239 295 365 439
#     4  12  24  42  69 107 142 184 238 304 366 417
#     4  11  26  50  72 105 146 198 240 287 367 443
#     4  11  24  42  70 101 143 192 239 297 359 429
#     4  11  24  44  73 105 139 187 249 296 352 429
#     4  11  22  39  64 101 137 178 233 297 354 420
#     4  12  25  41  68 109 142 179 239 307 356 414
#
# _framework density 26.288736
#
# number of rings (size 3 to 8) (size 9 to 14) (size 15 to 20)
#    0.000    0.800    2.667    5.200    7.467    0.533 
#    2.400    2.667    0.000    0.000    0.000    0.000 
#    0.000    0.000    0.000    0.000    0.000    0.000 
#
# Total GULP energy -83928.407781 kJ/mol
# GULP energy per Si atom -5595.227185 kJ/mol
# Density = 2.622890 g / cm^3
# Si number density = 26.288736 Si / 1000 Ang^3
#
#
#
# Elastic Constant Matrix: (Units=GPa)
#
#
# Indices 1 2 3 4 5 6 
#
# 1 109.4486 23.7382 29.9544 3.3282 -4.7073 -4.7969
# 2 23.7382 90.0596 49.4251 -0.2532 -4.1423 3.6903
# 3 29.9544 49.4251 192.1445 -22.1935 -13.4361 1.6494
# 4 3.3282 -0.2532 -22.1935 67.4590 9.7621 -4.9132
# 5 -4.7073 -4.1423 -13.4361 9.7621 43.0662 8.7168
# 6 -4.7969 3.6903 1.6494 -4.9132 8.7168 35.0535
#
#
#
# Elastic Compliance Matrix: (Units=1/GPa)
#
#
# Indices 1 2 3 4 5 6 
#
# 1 0.009993 -0.002069 -0.001102 -0.000826 0.000452 0.001409
# 2 -0.002069 0.013525 -0.003223 -0.001149 0.000713 -0.001894
# 3 -0.001102 -0.003223 0.006520 0.002008 0.001175 -0.000129
# 4 -0.000826 -0.001149 0.002008 0.016319 -0.003916 0.003174
# 5 0.000452 0.000713 0.001175 -0.003916 0.026027 -0.007090
# 6 0.001409 -0.001894 -0.000129 0.003174 -0.007090 0.031134
#
#
# Mechanical properties :
#
#
# Convention : Reuss Voigt Hill
#
# Bulk Modulus (GPa) = 57.96537 66.43201 62.19869
# Shear Modulus (GPa) = 40.96476 48.35139 44.65807
#
# Velocity S-wave (km/s) = 3.95177 4.29329 4.12606
# Velocity P-wave (km/s) = 6.55128 7.06410 6.81252
#
# Compressibility (1/GPa) = 0.01725168
#
# Stress axis : x y z
#
# Youngs Moduli (GPa) = 100.06802 73.93695 153.36417
#
# Poissons Ratio (x) = 0.15296 0.16896
# Poissons Ratio (y) = 0.20701 0.49431
# Poissons Ratio (z) = 0.11024 0.23831
#
# Static dielectric constant tensor:
#      x y z
#    x 2.134760 0.065140 0.070590 
#    y 0.065140 2.020160 0.046870 
#    z 0.070590 0.046870 2.064220 
# 
# From -- ./inp_files/418328.got.cif
#   From: 2010.05.17/outbox.cif.g08.bks.cpg/sg2_210_cif.got.tgz:418328.got - 2010.06.03 11:33:40.
