data_PCOD9094054
_publ_section_title
;
Structure prediction by ZEFSAII (Michael W. Deem and Ramdas Pophale) SiO2 
 PCOD9094054
Probable space group: P -1
;
_chemical_formula_sum "Si O2"
_cell_formula_units_Z 10
_cell_length_a 7.646782
_cell_length_b 10.049655
_cell_length_c 7.276890
_cell_angle_alpha 129.567061
_cell_angle_beta 106.265683
_cell_angle_gamma 102.445461
_cell_volume 350.326611
_symmetry_space_group_name_H-M "P -1"
_symmetry_group_IT_number 2
_symmetry_cell_setting 'triclinic'
loop_
_space_group_symop_operation_xyz
x,y,z
-x,-y,-z
loop_
_atom_site_type_symbol
_atom_site_label
_atom_site_fract_x
_atom_site_fract_y
_atom_site_fract_z
Si Si1 0.264510 0.678818 0.436878
Si Si2 0.712142 0.966537 0.720344
Si Si3 0.798402 0.514724 0.144973
Si Si4 0.178384 0.267972 0.191954
Si Si5 0.348539 0.202211 0.834060
O O1 0.487113 0.896062 0.692601
O O2 0.961712 0.360588 0.596094
O O3 0.293033 0.504131 0.382510
O O4 0.221808 0.621174 0.157386
O O5 0.759454 0.795280 0.658394
O O6 0.694747 0.951364 0.480726
O O7 0.923836 0.176036 0.022118
O O8 0.735968 0.663850 0.166393
O O9 0.603433 0.352079 0.070597
O O10 0.228520 0.148141 0.944604
#
# Coordination Sequence:
#
# PCOD9094054 Si02
#       5
#     2   2   2   2   2
#     4   9  17  33  53  75 104 133 163 210 252 289
#     4  10  20  34  53  76 101 133 170 204 247 300
#     4   8  16  31  54  78  99 131 173 202 246 307
#     4  10  20  34  53  76 101 133 170 204 247 300
#     4   9  17  34  54  73 101 134 165 207 250 293
#
# _framework density 28.544789999999999
#
# number of rings (size 3 to 8) (size 9 to 14) (size 15 to 20)
#    0.000    2.800    0.000    2.400    0.000    0.000 
#    0.000   22.000    0.000    4.800    0.000    0.000 
#    0.000    0.000    0.000    0.000    0.000    0.000 
#
# Total GULP energy -56036.491982 kJ/mol
# GULP energy per Si atom -5603.649198 kJ/mol
# Density = 2.847982 g / cm^3
# Si number density = 28.544790 Si / 1000 Ang^3
#
#
#
# Elastic Constant Matrix: (Units=GPa)
#
#
# Indices 1 2 3 4 5 6 
#
# 1 120.4408 46.1382 34.9221 3.8893 29.3055 14.1296
# 2 46.1382 124.1402 52.8719 1.2348 4.2472 11.5273
# 3 34.9221 52.8719 126.0236 -27.9523 -1.9711 25.7159
# 4 3.8893 1.2348 -27.9523 38.0200 3.9748 12.6863
# 5 29.3055 4.2472 -1.9711 3.9748 40.9776 13.5683
# 6 14.1296 11.5273 25.7159 12.6863 13.5683 56.7346
#
#
#
# Elastic Compliance Matrix: (Units=1/GPa)
#
#
# Indices 1 2 3 4 5 6 
#
# 1 0.012611 -0.002994 -0.003610 -0.003587 -0.009235 0.002114
# 2 -0.002994 0.011269 -0.005246 -0.004549 0.000597 0.001709
# 3 -0.003610 -0.005246 0.016953 0.015956 0.005939 -0.010707
# 4 -0.003587 -0.004549 0.015956 0.043474 0.004994 -0.016330
# 5 -0.009235 0.000597 0.005939 0.004994 0.033977 -0.009756
# 6 0.002114 0.001709 -0.010707 -0.016330 -0.009756 0.027590
#
#
# Mechanical properties :
#
#
# Convention : Reuss Voigt Hill
#
# Bulk Modulus (GPa) = 58.37010 70.94101 64.65555
# Shear Modulus (GPa) = 28.52464 42.92459 35.72462
#
# Velocity S-wave (km/s) = 3.16459 3.88204 3.54153
# Velocity P-wave (km/s) = 5.81772 6.70822 6.27877
#
# Compressibility (1/GPa) = 0.01713206
#
# Stress axis : x y z
#
# Youngs Moduli (GPa) = 79.29368 88.73936 58.98596
#
# Poissons Ratio (x) = 0.26572 0.21293
# Poissons Ratio (y) = 0.23744 0.30946
# Poissons Ratio (z) = 0.28624 0.46556
#
# Static dielectric constant tensor:
#      x y z
#    x 2.303340 0.009900 -0.027580 
#    y 0.009900 2.150760 0.033560 
#    z -0.027580 0.033560 2.143170 
# 
# From -- ./inp_files/61913.got.cif
#   From: 2010.05.17/outbox.cif.g08.bks.cpg/sg2_31_cif.got.tgz:61913.got - 2010.06.03 11:33:40.
