data_PCOD9094402
_publ_section_title
;
Structure prediction by ZEFSAII (Michael W. Deem and Ramdas Pophale) SiO2 
 PCOD9094402
Probable space group: P -1
;
_chemical_formula_sum "Si O2"
_cell_formula_units_Z 16
_cell_length_a 11.320805
_cell_length_b 21.307219
_cell_length_c 12.300061
_cell_angle_alpha 25.979580
_cell_angle_beta 119.300326
_cell_angle_gamma 136.340349
_cell_volume 759.613065
_symmetry_space_group_name_H-M "P -1"
_symmetry_group_IT_number 2
_symmetry_cell_setting 'triclinic'
loop_
_space_group_symop_operation_xyz
x,y,z
-x,-y,-z
loop_
_atom_site_type_symbol
_atom_site_label
_atom_site_fract_x
_atom_site_fract_y
_atom_site_fract_z
Si Si1 0.646828 0.385983 0.856267
Si Si2 0.407542 0.101229 0.989604
Si Si3 0.709055 0.015652 0.530728
Si Si4 0.524932 0.142619 0.543191
Si Si5 0.107325 0.708267 0.612186
Si Si6 0.721721 0.793143 0.588742
Si Si7 0.841958 0.801772 0.863324
Si Si8 0.555693 0.604577 0.588425
O O1 0.572519 0.299686 0.835443
O O2 0.618221 0.530197 0.649317
O O3 0.874910 0.519057 0.773455
O O4 0.492406 0.179439 0.187002
O O5 0.377536 0.187452 0.745297
O O6 0.477652 0.994167 0.163266
O O7 0.208857 0.917093 0.261150
O O8 0.630041 0.011557 0.386132
O O9 0.814050 0.946076 0.661449
O O10 0.848091 0.218747 0.355986
O O11 0.749631 0.311438 0.329647
O O12 0.457150 0.237591 0.415309
O O13 0.776475 0.747023 0.792713
O O14 0.660631 0.653720 0.674442
O O15 0.922023 0.043343 0.263425
O O16 0.684071 0.590103 0.193481
#
# Coordination Sequence:
#
# PCOD9094402 Si02
#       8
#     2   2   2   2   2   2   2   2
#     4  10  20  34  57  81 104 136 179 223 261 304
#     4   9  22  37  50  78 113 138 175 216 257 316
#     4   9  17  35  56  79 110 131 176 225 260 308
#     4   9  20  38  51  77 114 142 168 218 260 311
#     4   9  19  34  53  81 104 142 173 210 269 310
#     4  10  20  38  58  78 107 136 176 219 263 313
#     4   9  20  36  58  83 101 135 176 224 266 300
#     4  11  21  36  57  80 105 139 177 219 261 309
#
# _framework density 21.063355999999999
#
# number of rings (size 3 to 8) (size 9 to 14) (size 15 to 20)
#    0.750    1.750    0.000    1.875    0.000    2.500 
#    2.250    0.625    0.000    0.000    0.000    0.000 
#    0.000    0.000    0.000    0.000    0.000    0.000 
#
# Total GULP energy -89297.177632 kJ/mol
# GULP energy per Si atom -5581.073602 kJ/mol
# Density = 2.101542 g / cm^3
# Si number density = 21.063356 Si / 1000 Ang^3
#
#
#
# Elastic Constant Matrix: (Units=GPa)
#
#
# Indices 1 2 3 4 5 6 
#
# 1 50.7016 18.3957 10.0080 -12.1784 -11.6975 8.9452
# 2 18.3957 53.2303 6.8681 -19.1392 -12.8885 10.2627
# 3 10.0080 6.8681 56.6404 3.4314 -9.8265 10.8344
# 4 -12.1784 -19.1392 3.4314 28.6988 6.0649 -3.1269
# 5 -11.6975 -12.8885 -9.8265 6.0649 23.9055 -6.0025
# 6 8.9452 10.2627 10.8344 -3.1269 -6.0025 15.8952
#
#
#
# Elastic Compliance Matrix: (Units=1/GPa)
#
#
# Indices 1 2 3 4 5 6 
#
# 1 0.025701 -0.003191 -0.002075 0.006879 0.006450 -0.007200
# 2 -0.003191 0.029485 -0.000576 0.015622 0.007375 -0.010990
# 3 -0.002075 -0.000576 0.021934 -0.006553 0.006255 -0.012338
# 4 0.006879 0.015622 -0.006553 0.049641 -0.003790 -0.001157
# 5 0.006450 0.007375 0.006255 -0.003790 0.054278 0.007096
# 6 -0.007200 -0.010990 -0.012338 -0.001157 0.007096 0.084922
#
#
# Mechanical properties :
#
#
# Convention : Reuss Voigt Hill
#
# Bulk Modulus (GPa) = 15.28199 25.67953 20.48076
# Shear Modulus (GPa) = 16.69686 22.05326 19.37506
#
# Velocity S-wave (km/s) = 2.81854 3.23924 3.03619
# Velocity P-wave (km/s) = 4.22649 5.11940 4.69423
#
# Compressibility (1/GPa) = 0.06543650
#
# Stress axis : x y z
#
# Youngs Moduli (GPa) = 38.90862 33.91531 45.59139
#
# Poissons Ratio (x) = 0.10823 0.09459
# Poissons Ratio (y) = 0.12416 0.02627
# Poissons Ratio (z) = 0.08072 0.01954
#
# Static dielectric constant tensor:
#      x y z
#    x 1.777810 -0.003960 0.006070 
#    y -0.003960 1.739540 0.002290 
#    z 0.006070 0.002290 1.804030 
# 
# From -- ./inp_files/431792.got.cif
#   From: 2010.05.17/outbox.cif.g08.bks.cpg/sg2_216_cif.got.tgz:431792.got - 2010.06.03 11:33:40.
