data_PCOD9094183
_publ_section_title
;
Structure prediction by ZEFSAII (Michael W. Deem and Ramdas Pophale) SiO2 
 PCOD9094183
Probable space group: P -1
;
_chemical_formula_sum "Si O2"
_cell_formula_units_Z 16
_cell_length_a 5.649102
_cell_length_b 6.215118
_cell_length_c 19.198521
_cell_angle_alpha 95.167322
_cell_angle_beta 88.077834
_cell_angle_gamma 73.381773
_cell_volume 642.034617
_symmetry_space_group_name_H-M "P -1"
_symmetry_group_IT_number 2
_symmetry_cell_setting 'triclinic'
loop_
_space_group_symop_operation_xyz
x,y,z
-x,-y,-z
loop_
_atom_site_type_symbol
_atom_site_label
_atom_site_fract_x
_atom_site_fract_y
_atom_site_fract_z
Si Si1 0.570782 0.515693 0.168423
Si Si2 0.156138 0.079155 0.060998
Si Si3 0.885919 0.654390 0.286889
Si Si4 0.361407 0.333272 0.966811
Si Si5 0.127951 0.928898 0.205476
Si Si6 0.592525 0.483923 0.389021
Si Si7 0.709721 0.141158 0.506850
Si Si8 0.605001 0.742021 0.739734
O O1 0.692544 0.593373 0.235830
O O2 0.728783 0.555182 0.103153
O O3 0.526346 0.282866 0.186347
O O4 0.297371 0.689877 0.167648
O O5 0.050073 0.077279 0.140022
O O6 0.433314 0.905143 0.057283
O O7 0.190640 0.298179 0.029564
O O8 0.000000 0.000000 0.000000
O O9 0.784083 0.614522 0.362365
O O10 0.143105 0.462232 0.271604
O O11 0.930722 0.878999 0.259480
O O12 0.500000 0.500000 0.000000
O O13 0.304873 0.038021 0.251747
O O14 0.677063 0.317514 0.448369
O O15 0.359560 0.693180 0.420364
O O16 0.539594 0.317452 0.325856
O O17 0.500000 0.000000 0.500000
O O18 0.000000 0.000000 0.500000
#
# Coordination Sequence:
#
# PCOD9094183 Si02
#       8
#     2   2   2   2   2   2   2   2
#     4   9  20  38  53  84 126 164 221 283 341 414
#     4  10  21  35  54  87 121 167 224 287 340 424
#     4  10  22  39  63  92 128 174 217 284 340 413
#     4  10  20  34  55  80 117 166 217 279 345 408
#     4  10  21  38  60  88 129 170 227 280 358 412
#     4  10  26  48  71 108 149 175 249 286 343 442
#     4  11  28  50  83 114 151 202 234 296 362 425
#     4  10  22  39  63  94 129 176 223 289 345 414
#
# _framework density 24.920776
#
# number of rings (size 3 to 8) (size 9 to 14) (size 15 to 20)
#    0.000    2.000    0.000    1.500    3.500    8.500 
#    0.000    0.000    0.000    0.000    0.000    0.000 
#    0.000    0.000    0.000    0.000    0.000    0.000 
#
# Total GULP energy -89308.839071 kJ/mol
# GULP energy per Si atom -5581.802442 kJ/mol
# Density = 2.486406 g / cm^3
# Si number density = 24.920776 Si / 1000 Ang^3
#
#
#
# Elastic Constant Matrix: (Units=GPa)
#
#
# Indices 1 2 3 4 5 6 
#
# 1 98.6299 44.1079 46.3764 -14.4260 -33.5966 10.7066
# 2 44.1079 89.6474 59.3358 -19.7161 -24.5832 26.2975
# 3 46.3764 59.3358 121.7357 -26.0495 -36.6847 12.4116
# 4 -14.4260 -19.7161 -26.0495 48.0565 12.4552 -13.7904
# 5 -33.5966 -24.5832 -36.6847 12.4552 44.6623 1.1695
# 6 10.7066 26.2975 12.4116 -13.7904 1.1695 63.6110
#
#
#
# Elastic Compliance Matrix: (Units=1/GPa)
#
#
# Indices 1 2 3 4 5 6 
#
# 1 0.015583 -0.004359 -0.001251 -0.000177 0.008365 -0.000769
# 2 -0.004359 0.020460 -0.006761 0.001038 0.002302 -0.006223
# 3 -0.001251 -0.006761 0.014520 0.003304 0.006322 0.000773
# 4 -0.000177 0.001038 0.003304 0.025312 -0.004025 0.004517
# 5 0.008365 0.002302 0.006322 -0.004025 0.036400 -0.005135
# 6 -0.000769 -0.006223 0.000773 0.004517 -0.005135 0.019345
#
#
# Mechanical properties :
#
#
# Convention : Reuss Voigt Hill
#
# Bulk Modulus (GPa) = 38.72766 67.73925 53.23345
# Shear Modulus (GPa) = 30.30846 41.94547 36.12697
#
# Velocity S-wave (km/s) = 3.49118 4.10708 3.81159
# Velocity P-wave (km/s) = 5.64138 7.05206 6.38579
#
# Compressibility (1/GPa) = 0.02582134
#
# Stress axis : x y z
#
# Youngs Moduli (GPa) = 64.17075 48.87651 68.86990
#
# Poissons Ratio (x) = 0.21305 0.08613
# Poissons Ratio (y) = 0.27971 0.46566
# Poissons Ratio (z) = 0.08026 0.33048
#
# Static dielectric constant tensor:
#      x y z
#    x 2.061560 -0.046500 -0.014000 
#    y -0.046500 2.017020 -0.024230 
#    z -0.014000 -0.024230 2.034950 
# 
# From -- ./inp_files/121538.got.cif
#   From: 2010.05.17/outbox.cif.g08.bks.cpg/sg2_61_cif.got.tgz:121538.got - 2010.06.03 11:33:40.
