data_PCOD9094947
_publ_section_title
;
Structure prediction by ZEFSAII (Michael W. Deem and Ramdas Pophale) SiO2 
 PCOD9094947
Probable space group: P -1
;
_chemical_formula_sum "Si O2"
_cell_formula_units_Z 16
_cell_length_a 20.524016
_cell_length_b 11.388918
_cell_length_c 6.516976
_cell_angle_alpha 76.669954
_cell_angle_beta 103.093012
_cell_angle_gamma 149.844965
_cell_volume 743.458322
_symmetry_space_group_name_H-M "P -1"
_symmetry_group_IT_number 2
_symmetry_cell_setting 'triclinic'
loop_
_space_group_symop_operation_xyz
x,y,z
-x,-y,-z
loop_
_atom_site_type_symbol
_atom_site_label
_atom_site_fract_x
_atom_site_fract_y
_atom_site_fract_z
Si Si1 0.862313 0.229773 0.969443
Si Si2 0.344737 0.995848 0.368841
Si Si3 0.572906 0.516869 0.192140
Si Si4 0.803920 0.710982 0.147161
Si Si5 0.917867 0.771518 0.837445
Si Si6 0.744210 0.931336 0.412699
Si Si7 0.032995 0.788272 0.280023
Si Si8 0.785775 0.441996 0.488350
O O1 0.895510 0.196860 0.816240
O O2 0.752149 0.146723 0.838282
O O3 0.000000 0.500000 0.000000
O O4 0.810197 0.082285 0.191095
O O5 0.479558 0.261804 0.285400
O O6 0.295785 0.013497 0.503456
O O7 0.330745 0.834433 0.484358
O O8 0.702917 0.662181 0.126453
O O9 0.620313 0.662927 0.365820
O O10 0.500000 0.500000 0.000000
O O11 0.756307 0.515487 0.303432
O O12 0.826311 0.722502 0.915803
O O13 0.946410 0.959533 0.247819
O O14 0.841023 0.577517 0.690610
O O15 0.971501 0.777919 0.066846
O O16 0.849998 0.005873 0.562329
O O17 0.908820 0.563548 0.421121
#
# Coordination Sequence:
#
# PCOD9094947 Si02
#       8
#     2   2   2   2   2   2   2   2
#     4  11  20  35  60  96 133 174 210 269 333 386
#     4  11  25  41  64  96 135 178 222 272 334 396
#     4  12  25  48  68  92 132 180 231 277 325 395
#     4  10  24  42  69  99 131 175 224 272 333 394
#     4  10  21  42  71 102 135 169 219 278 336 393
#     4  11  23  41  65  97 132 177 225 277 328 393
#     4  10  20  34  65  98 132 165 215 273 333 390
#     4  11  22  42  65 101 136 172 219 273 337 400
#
# _framework density 21.521046999999999
#
# number of rings (size 3 to 8) (size 9 to 14) (size 15 to 20)
#    0.000    1.250    1.250    5.250    1.750    5.500 
#    2.250    0.625    0.000    0.000    0.000    0.000 
#    0.000    0.000    0.000    0.000    0.000    0.000 
#
# Total GULP energy -89261.955119 kJ/mol
# GULP energy per Si atom -5578.872195 kJ/mol
# Density = 2.147206 g / cm^3
# Si number density = 21.521047 Si / 1000 Ang^3
#
#
#
# Elastic Constant Matrix: (Units=GPa)
#
#
# Indices 1 2 3 4 5 6 
#
# 1 93.9101 27.7208 32.9079 -12.3612 -8.3274 2.9116
# 2 27.7208 134.9717 36.7061 -13.3054 -0.7925 -17.9871
# 3 32.9079 36.7061 77.4718 -1.2452 -5.9377 -2.6900
# 4 -12.3612 -13.3054 -1.2452 20.7188 3.7714 5.4717
# 5 -8.3274 -0.7925 -5.9377 3.7714 34.1947 -5.1929
# 6 2.9116 -17.9871 -2.6900 5.4717 -5.1929 29.6081
#
#
#
# Elastic Compliance Matrix: (Units=1/GPa)
#
#
# Indices 1 2 3 4 5 6 
#
# 1 0.014178 -0.001146 -0.005409 0.008259 0.000978 -0.003936
# 2 -0.001146 0.009769 -0.003942 0.004159 -0.000461 0.004840
# 3 -0.005409 -0.003942 0.017204 -0.005448 0.002350 0.001119
# 4 0.008259 0.004159 -0.005448 0.059754 -0.007110 -0.011071
# 5 0.000978 -0.000461 0.002350 -0.007110 0.031683 0.006708
# 6 -0.003936 0.004840 0.001119 -0.011071 0.006708 0.040426
#
#
# Mechanical properties :
#
#
# Convention : Reuss Voigt Hill
#
# Bulk Modulus (GPa) = 49.60736 55.66925 52.63830
# Shear Modulus (GPa) = 24.90964 30.83891 27.87428
#
# Velocity S-wave (km/s) = 3.40583 3.78956 3.60281
# Velocity P-wave (km/s) = 6.21023 6.71351 6.46676
#
# Compressibility (1/GPa) = 0.02015830
#
# Stress axis : x y z
#
# Youngs Moduli (GPa) = 70.53239 102.36952 58.12438
#
# Poissons Ratio (x) = 0.11728 0.31437
# Poissons Ratio (y) = 0.08080 0.22913
# Poissons Ratio (z) = 0.38148 0.40355
#
# Static dielectric constant tensor:
#      x y z
#    x 1.864210 -0.009080 0.011900 
#    y -0.009080 1.813460 -0.038160 
#    z 0.011900 -0.038160 1.741100 
# 
# From -- ./inp_files/71344.got.cif
#   From: 2010.05.17/outbox.cif.g08.bks.cpg/sg2_36_cif.got.tgz:71344.got - 2010.06.03 11:33:40.
