data_PCOD9094800
_publ_section_title
;
Structure prediction by ZEFSAII (Michael W. Deem and Ramdas Pophale) SiO2 
 PCOD9094800
Probable space group: P -1
;
_chemical_formula_sum "Si O2"
_cell_formula_units_Z 16
_cell_length_a 6.345834
_cell_length_b 20.355989
_cell_length_c 5.099725
_cell_angle_alpha 62.255477
_cell_angle_beta 89.625925
_cell_angle_gamma 92.239737
_cell_volume 582.351300
_symmetry_space_group_name_H-M "P -1"
_symmetry_group_IT_number 2
_symmetry_cell_setting 'triclinic'
loop_
_space_group_symop_operation_xyz
x,y,z
-x,-y,-z
loop_
_atom_site_type_symbol
_atom_site_label
_atom_site_fract_x
_atom_site_fract_y
_atom_site_fract_z
Si Si1 0.791213 0.341292 0.555851
Si Si2 0.119065 0.745267 0.787095
Si Si3 0.845292 0.500128 0.253580
Si Si4 0.772639 0.650443 0.194872
Si Si5 0.581868 0.136922 0.540328
Si Si6 0.946315 0.906329 0.968115
Si Si7 0.265682 0.021359 0.665251
Si Si8 0.376552 0.210147 0.905274
O O1 0.775477 0.302704 0.349640
O O2 0.702293 0.423616 0.404237
O O3 0.042324 0.362912 0.572715
O O4 0.386396 0.299624 0.739376
O O5 0.548545 0.822827 0.760501
O O6 0.227863 0.719301 0.100962
O O7 0.868063 0.821016 0.086670
O O8 0.723226 0.575939 0.168146
O O9 0.000000 0.500000 0.500000
O O10 0.118736 0.288084 0.121564
O O11 0.000000 0.500000 0.000000
O O12 0.820838 0.169088 0.434526
O O13 0.506929 0.051130 0.654277
O O14 0.499853 0.170216 0.748888
O O15 0.822988 0.949886 0.661332
O O16 0.188854 0.935731 0.873319
O O17 0.859198 0.935577 0.187965
#
# Coordination Sequence:
#
# PCOD9094800 Si02
#       8
#     2   2   2   2   2   2   2   2
#     4   9  18  31  51  73  87 124 164 201 222 274
#     4  10  19  32  50  69  97 126 161 191 230 285
#     4  10  16  30  49  75  88 116 163 207 221 266
#     4   9  21  30  54  73  95 120 158 204 237 277
#     4  10  20  32  48  72  99 131 152 194 234 291
#     4   8  14  26  43  66  90 119 151 198 222 270
#     4   8  14  26  44  64  89 120 162 183 223 267
#     4  10  20  31  49  74 101 120 155 197 251 270
#
# _framework density 27.474826
#
# number of rings (size 3 to 8) (size 9 to 14) (size 15 to 20)
#    0.750    2.000    1.250    0.750    1.750    0.000 
#    0.000    0.000    0.000    5.250    0.000    0.875 
#    0.000    0.000    0.000    0.000    0.000    0.000 
#
# Total GULP energy -89409.496420 kJ/mol
# GULP energy per Si atom -5588.093526 kJ/mol
# Density = 2.741229 g / cm^3
# Si number density = 27.474826 Si / 1000 Ang^3
#
#
#
# Elastic Constant Matrix: (Units=GPa)
#
#
# Indices 1 2 3 4 5 6 
#
# 1 53.4344 28.3502 22.1096 6.0747 1.8805 -6.2495
# 2 28.3502 179.2013 36.7191 -4.1664 -12.2781 -13.7112
# 3 22.1096 36.7191 157.3333 19.6323 14.1761 -14.5724
# 4 6.0747 -4.1664 19.6323 52.0607 13.8043 -11.2084
# 5 1.8805 -12.2781 14.1761 13.8043 19.3584 -7.0364
# 6 -6.2495 -13.7112 -14.5724 -11.2084 -7.0364 19.8593
#
#
#
# Elastic Compliance Matrix: (Units=1/GPa)
#
#
# Indices 1 2 3 4 5 6 
#
# 1 0.021495 -0.002916 -0.001889 -0.001322 -0.000757 0.002350
# 2 -0.002916 0.007390 -0.001536 0.000790 0.007811 0.006270
# 3 -0.001889 -0.001536 0.007724 -0.001132 -0.005066 0.001578
# 4 -0.001322 0.000790 -0.001132 0.025301 -0.013370 0.008841
# 5 -0.000757 0.007811 -0.005066 -0.013370 0.077718 0.021428
# 6 0.002350 0.006270 0.001578 0.008841 0.021428 0.069163
#
#
# Mechanical properties :
#
#
# Convention : Reuss Voigt Hill
#
# Bulk Modulus (GPa) = 41.79695 62.70298 52.24997
# Shear Modulus (GPa) = 21.79116 38.44168 30.11642
#
# Velocity S-wave (km/s) = 2.81932 3.74459 3.31440
# Velocity P-wave (km/s) = 5.08369 6.44729 5.80566
#
# Compressibility (1/GPa) = 0.02392519
#
# Stress axis : x y z
#
# Youngs Moduli (GPa) = 46.52171 135.32066 129.46773
#
# Poissons Ratio (x) = 0.39464 0.24458
# Poissons Ratio (y) = 0.13567 0.19892
# Poissons Ratio (z) = 0.08789 0.20792
#
# Static dielectric constant tensor:
#      x y z
#    x 2.194160 0.078880 -0.118620 
#    y 0.078880 2.209670 -0.070370 
#    z -0.118620 -0.070370 2.161120 
# 
# From -- ./inp_files/13391.got.cif
#   From: 2010.05.17/outbox.cif.g08.bks.cpg/sg2_7_cif.got.tgz:13391.got - 2010.06.03 11:33:40.
