data_PCOD9094258
_publ_section_title
;
Structure prediction by ZEFSAII (Michael W. Deem and Ramdas Pophale) SiO2 
 PCOD9094258
Probable space group: P -1
;
_chemical_formula_sum "Si O2"
_cell_formula_units_Z 16
_cell_length_a 6.810440
_cell_length_b 11.160294
_cell_length_c 11.535918
_cell_angle_alpha 102.237633
_cell_angle_beta 108.183570
_cell_angle_gamma 111.129003
_cell_volume 723.064480
_symmetry_space_group_name_H-M "P -1"
_symmetry_group_IT_number 2
_symmetry_cell_setting 'triclinic'
loop_
_space_group_symop_operation_xyz
x,y,z
-x,-y,-z
loop_
_atom_site_type_symbol
_atom_site_label
_atom_site_fract_x
_atom_site_fract_y
_atom_site_fract_z
Si Si1 0.663006 0.793048 0.348904
Si Si2 0.922431 0.092196 0.388202
Si Si3 0.917219 0.041093 0.801898
Si Si4 0.394350 0.516800 0.362776
Si Si5 0.568927 0.408612 0.156989
Si Si6 0.886232 0.273729 0.216370
Si Si7 0.741081 0.020325 0.000257
Si Si8 0.213817 0.324507 0.868658
O O1 0.472034 0.675695 0.371251
O O2 0.648040 0.725964 0.206572
O O3 0.910715 0.822545 0.459282
O O4 0.707693 0.950128 0.365166
O O5 0.863168 0.185865 0.310429
O O6 0.083377 0.045175 0.327609
O O7 0.964757 0.193646 0.808384
O O8 0.145928 0.056504 0.918786
O O9 0.729269 0.983577 0.856110
O O10 0.500000 0.500000 0.500000
O O11 0.504716 0.457003 0.274111
O O12 0.119375 0.417378 0.295216
O O13 0.662851 0.298307 0.166116
O O14 0.775014 0.540460 0.158956
O O15 0.351899 0.364230 0.021980
O O16 0.904988 0.182241 0.094401
O O17 0.500000 0.000000 0.000000
#
# Coordination Sequence:
#
# PCOD9094258 Si02
#       8
#     2   2   2   2   2   2   2   2
#     4   9  18  37  62  88 122 161 208 246 305 364
#     4   9  18  35  62  90 117 162 206 252 302 363
#     4   9  18  34  57  80 117 156 204 242 301 360
#     4  11  22  40  63  91 124 162 203 253 311 364
#     4  10  22  38  60  89 125 155 205 251 307 367
#     4  11  22  37  62  96 118 158 208 250 307 364
#     4  10  20  34  55  89 122 155 198 252 301 356
#     4   9  18  38  60  86 119 169 197 252 308 360
#
# _framework density 22.128039000000001
#
# number of rings (size 3 to 8) (size 9 to 14) (size 15 to 20)
#    0.000    2.250    1.250    1.500    0.000    2.500 
#    0.000   15.000    0.000    2.250    0.000    0.000 
#    0.000    0.000    0.000    0.000    0.000    0.000 
#
# Total GULP energy -89271.937435 kJ/mol
# GULP energy per Si atom -5579.496090 kJ/mol
# Density = 2.207767 g / cm^3
# Si number density = 22.128039 Si / 1000 Ang^3
#
#
#
# Elastic Constant Matrix: (Units=GPa)
#
#
# Indices 1 2 3 4 5 6 
#
# 1 45.3866 28.2281 13.6130 -11.3925 -4.8309 3.3597
# 2 28.2281 152.5621 19.1943 -10.8764 2.9607 8.2035
# 3 13.6130 19.1943 116.0883 -16.1913 -8.8513 2.3757
# 4 -11.3925 -10.8764 -16.1913 33.0795 7.3076 2.5615
# 5 -4.8309 2.9607 -8.8513 7.3076 14.2060 1.1009
# 6 3.3597 8.2035 2.3757 2.5615 1.1009 34.0198
#
#
#
# Elastic Compliance Matrix: (Units=1/GPa)
#
#
# Indices 1 2 3 4 5 6 
#
# 1 0.027607 -0.004541 -0.001069 0.006194 0.006655 -0.002238
# 2 -0.004541 0.007777 -0.000831 0.001672 -0.004438 -0.001351
# 3 -0.001069 -0.000831 0.009663 0.003210 0.004237 -0.000748
# 4 0.006194 0.001672 0.003210 0.038215 -0.015620 -0.003611
# 5 0.006655 -0.004438 0.004237 -0.015620 0.084367 -0.001437
# 6 -0.002238 -0.001351 -0.000748 -0.003611 -0.001437 0.030312
#
#
# Mechanical properties :
#
#
# Convention : Reuss Voigt Hill
#
# Bulk Modulus (GPa) = 31.08966 48.45642 39.77304
# Shear Modulus (GPa) = 22.56888 33.12785 27.84836
#
# Velocity S-wave (km/s) = 3.19709 3.87343 3.55140
# Velocity P-wave (km/s) = 5.26392 6.47691 5.90166
#
# Compressibility (1/GPa) = 0.03216504
#
# Stress axis : x y z
#
# Youngs Moduli (GPa) = 36.22325 128.57848 103.48744
#
# Poissons Ratio (x) = 0.58382 0.11066
# Poissons Ratio (y) = 0.16447 0.08600
# Poissons Ratio (z) = 0.03873 0.10685
#
# Static dielectric constant tensor:
#      x y z
#    x 1.780330 0.042480 0.000790 
#    y 0.042480 1.886880 0.025550 
#    z 0.000790 0.025550 1.811100 
# 
# From -- ./inp_files/365043.got.cif
#   From: 2010.05.17/outbox.cif.g08.bks.cpg/sg2_183_cif.got.tgz:365043.got - 2010.06.03 11:33:40.
