data_PCOD9094917
_publ_section_title
;
Structure prediction by ZEFSAII (Michael W. Deem and Ramdas Pophale) SiO2 
 PCOD9094917
Probable space group: P -1
;
_chemical_formula_sum "Si O2"
_cell_formula_units_Z 15
_cell_length_a 16.945086
_cell_length_b 11.709164
_cell_length_c 17.727425
_cell_angle_alpha 47.695125
_cell_angle_beta 17.079627
_cell_angle_gamma 55.422987
_cell_volume 715.883015
_symmetry_space_group_name_H-M "P -1"
_symmetry_group_IT_number 2
_symmetry_cell_setting 'triclinic'
loop_
_space_group_symop_operation_xyz
x,y,z
-x,-y,-z
loop_
_atom_site_type_symbol
_atom_site_label
_atom_site_fract_x
_atom_site_fract_y
_atom_site_fract_z
Si Si1 0.327161 0.841390 0.658705
Si Si2 0.434849 0.139827 0.860262
Si Si3 0.149466 0.837913 0.661928
Si Si4 0.000000 0.000000 0.000000
Si Si5 0.680272 0.409118 0.090808
Si Si6 0.592560 0.765131 0.734985
Si Si7 0.282743 0.624551 0.375357
Si Si8 0.177661 0.743982 0.256067
O O1 0.195055 0.768365 0.731615
O O2 0.668989 0.942025 0.292064
O O3 0.309274 0.701601 0.798585
O O4 0.136919 0.942048 0.824065
O O5 0.675098 0.201159 0.549182
O O6 0.565208 0.208947 0.791042
O O7 0.175411 0.201072 0.048959
O O8 0.312966 0.941421 0.058560
O O9 0.283745 0.036556 0.463256
O O10 0.532858 0.294371 0.205736
O O11 0.491670 0.520508 0.230722
O O12 0.994217 0.520439 0.728131
O O13 0.852550 0.704754 0.545219
O O14 0.351947 0.704701 0.045724
O O15 0.210757 0.658845 0.340978
#
# Coordination Sequence:
#
# PCOD9094917 Si02
#       8
#     2   2   2   1   2   2   2   2
#     4  11  22  39  59  94 124 164 200 240 303 351
#     4  10  22  42  64  90 113 153 214 264 293 342
#     4  10  21  39  66  88 118 152 204 263 299 338
#     4  10  20  34  64  86 120 158 200 246 286 350
#     4  12  26  39  59  90 134 163 193 237 299 388
#     4  10  21  38  60  94 118 150 197 250 312 359
#     4  12  25  42  60  86 123 168 201 242 305 363
#     4  10  22  40  66  87 115 154 206 263 300 345
#
# _framework density 20.953144000000002
#
# number of rings (size 3 to 8) (size 9 to 14) (size 15 to 20)
#    0.000    1.333    0.000    6.000    0.000    7.467 
#    0.000    9.333    0.000    0.000    0.000    0.000 
#    0.000    0.000    0.000    0.000    0.000    0.000 
#
# Total GULP energy -83670.290429 kJ/mol
# GULP energy per Si atom -5578.019362 kJ/mol
# Density = 2.090545 g / cm^3
# Si number density = 20.953144 Si / 1000 Ang^3
#
#
#
# Elastic Constant Matrix: (Units=GPa)
#
#
# Indices 1 2 3 4 5 6 
#
# 1 117.4763 37.6759 39.8659 2.0388 11.4127 -11.3247
# 2 37.6759 22.3187 81.3319 4.6743 -3.9112 -7.5233
# 3 39.8659 81.3319 114.2234 69.5033 5.6359 -17.5454
# 4 2.0388 4.6743 69.5033 28.0659 -5.6643 -7.0241
# 5 11.4127 -3.9112 5.6359 -5.6643 18.2792 -0.5434
# 6 -11.3247 -7.5233 -17.5454 -7.0241 -0.5434 20.3539
#
#
#
# Elastic Compliance Matrix: (Units=1/GPa)
#
#
# Indices 1 2 3 4 5 6 
#
# 1 0.013582 -0.008874 -0.004371 0.011291 -0.005405 0.004261
# 2 -0.008874 0.017384 0.013470 -0.036822 -0.006296 0.000224
# 3 -0.004371 0.013470 -0.001262 0.003337 0.007117 0.002800
# 4 0.011291 -0.036822 0.003337 0.033311 -0.005430 0.006899
# 5 -0.005405 -0.006296 0.007117 -0.005430 0.052867 0.000338
# 6 0.004261 0.000224 0.002800 0.006899 0.000338 0.056388
#
#
# Mechanical properties :
#
#
# Convention : Reuss Voigt Hill
#
# Bulk Modulus (GPa) = 33.16386 63.52953 48.34670
# Shear Modulus (GPa) = 27.49195 19.68278 23.58736
#
# Velocity S-wave (km/s) = 3.62618 3.06824 3.35881
# Velocity P-wave (km/s) = 5.77877 6.55269 6.17786
#
# Compressibility (1/GPa) = 0.03015331
#
# Stress axis : x y z
#
# Youngs Moduli (GPa) = 73.62931 57.52346 -792.45772
#
# Poissons Ratio (x) = 0.51046 -3.46387
# Poissons Ratio (y) = 0.65338 10.67417
# Poissons Ratio (z) = 0.32184 -0.77482
#
# Static dielectric constant tensor:
#      x y z
#    x 1.717380 0.000950 0.000040 
#    y 0.000950 1.758490 -0.026480 
#    z 0.000040 -0.026480 1.727390 
# 
# From -- ./inp_files/531770.got.cif
#   From: 2010.05.17/outbox.cif.g08.bks.cpg/sg2_266_cif.got.tgz:531770.got - 2010.06.03 11:33:40.
