data_PCOD9094351
_publ_section_title
;
Structure prediction by ZEFSAII (Michael W. Deem and Ramdas Pophale) SiO2 
 PCOD9094351
Probable space group: P -1
;
_chemical_formula_sum "Si O2"
_cell_formula_units_Z 14
_cell_length_a 13.291795
_cell_length_b 7.755277
_cell_length_c 7.545722
_cell_angle_alpha 56.689601
_cell_angle_beta 65.300244
_cell_angle_gamma 65.016652
_cell_volume 571.189236
_symmetry_space_group_name_H-M "P -1"
_symmetry_group_IT_number 2
_symmetry_cell_setting 'triclinic'
loop_
_space_group_symop_operation_xyz
x,y,z
-x,-y,-z
loop_
_atom_site_type_symbol
_atom_site_label
_atom_site_fract_x
_atom_site_fract_y
_atom_site_fract_z
Si Si1 0.633037 0.990438 0.378733
Si Si2 0.348149 0.451693 0.492588
Si Si3 0.529583 0.636784 0.192313
Si Si4 0.330720 0.061039 0.214917
Si Si5 0.990709 0.264713 0.682677
Si Si6 0.852813 0.162682 0.541209
Si Si7 0.828351 0.151456 0.147340
O O1 0.668954 0.782956 0.349062
O O2 0.683001 0.942908 0.563585
O O3 0.500000 0.000000 0.500000
O O4 0.696641 0.169545 0.174974
O O5 0.451059 0.483552 0.270801
O O6 0.396644 0.487878 0.629183
O O7 0.233688 0.622822 0.439043
O O8 0.431018 0.851598 0.201484
O O9 0.621334 0.734327 0.970517
O O10 0.210487 0.023884 0.257998
O O11 0.964573 0.155262 0.578824
O O12 0.000000 0.500000 0.500000
O O13 0.891619 0.270575 0.896763
O O14 0.102613 0.099528 0.773614
O O15 0.845694 0.206747 0.309536
#
# Coordination Sequence:
#
# PCOD9094351 Si02
#       7
#     2   2   2   2   2   2   2
#     4  11  21  37  61  93 129 167 208 263 320 384
#     4  10  20  34  56  86 127 166 211 258 313 380
#     4   9  18  33  52  81 122 171 205 252 308 379
#     4   9  19  35  55  84 122 166 212 251 319 382
#     4  11  24  47  72  96 126 169 224 271 323 385
#     4  10  22  42  63  93 127 164 213 269 327 385
#     4  10  25  45  68  98 132 170 214 273 324 378
#
# _framework density 24.510268
#
# number of rings (size 3 to 8) (size 9 to 14) (size 15 to 20)
#    0.000    2.000    1.429    1.286    4.000    2.286 
#    7.714    0.000    0.000    0.000    0.000    0.000 
#    0.000    0.000    0.000    0.000    0.000    0.000 
#
# Total GULP energy -78061.504088 kJ/mol
# GULP energy per Si atom -5575.821721 kJ/mol
# Density = 2.445448 g / cm^3
# Si number density = 24.510268 Si / 1000 Ang^3
#
#
#
# Elastic Constant Matrix: (Units=GPa)
#
#
# Indices 1 2 3 4 5 6 
#
# 1 90.0564 19.3732 30.0692 -6.9651 -18.9114 9.3608
# 2 19.3732 34.8123 18.7535 -2.4289 -12.5591 10.5976
# 3 30.0692 18.7535 158.3425 -6.5341 -36.0458 10.3447
# 4 -6.9651 -2.4289 -6.5341 32.3854 0.4975 -0.5592
# 5 -18.9114 -12.5591 -36.0458 0.4975 30.5584 -2.6376
# 6 9.3608 10.5976 10.3447 -0.5592 -2.6376 33.4039
#
#
#
# Elastic Compliance Matrix: (Units=1/GPa)
#
#
# Indices 1 2 3 4 5 6 
#
# 1 0.013877 -0.004614 -0.000540 0.002409 0.005864 -0.001754
# 2 -0.004614 0.038890 -0.000312 0.001507 0.011873 -0.009985
# 3 -0.000540 -0.000312 0.008862 0.001468 0.009820 -0.001694
# 4 0.002409 0.001507 0.001468 0.031741 0.003255 -0.000819
# 5 0.005864 0.011873 0.009820 0.003255 0.052396 -0.004260
# 6 -0.001754 -0.009985 -0.001694 -0.000819 -0.004260 0.033771
#
#
# Mechanical properties :
#
#
# Convention : Reuss Voigt Hill
#
# Bulk Modulus (GPa) = 19.72539 46.62255 33.17397
# Shear Modulus (GPa) = 24.11168 33.60389 28.85779
#
# Velocity S-wave (km/s) = 3.13986 3.70674 3.43501
# Velocity P-wave (km/s) = 4.60546 6.11415 5.41263
#
# Compressibility (1/GPa) = 0.05069608
#
# Stress axis : x y z
#
# Youngs Moduli (GPa) = 72.06093 25.71371 112.84430
#
# Poissons Ratio (x) = 0.11864 0.06091
# Poissons Ratio (y) = 0.33249 0.03526
# Poissons Ratio (z) = 0.03890 0.00803
#
# Static dielectric constant tensor:
#      x y z
#    x 1.949640 -0.063690 -0.048510 
#    y -0.063690 2.032120 0.058490 
#    z -0.048510 0.058490 2.015880 
# 
# From -- ./inp_files/214331.got.cif
#   From: 2010.05.17/outbox.cif.g08.bks.cpg/sg2_108_cif.got.tgz:214331.got - 2010.06.03 11:33:40.
