data_PCOD9094773
_publ_section_title
;
Structure prediction by ZEFSAII (Michael W. Deem and Ramdas Pophale) SiO2 
 PCOD9094773
Probable space group: P -1
;
_chemical_formula_sum "Si O2"
_cell_formula_units_Z 16
_cell_length_a 7.851545
_cell_length_b 14.111305
_cell_length_c 11.968529
_cell_angle_alpha 28.647177
_cell_angle_beta 111.703547
_cell_angle_gamma 108.671670
_cell_volume 590.636433
_symmetry_space_group_name_H-M "P -1"
_symmetry_group_IT_number 2
_symmetry_cell_setting 'triclinic'
loop_
_space_group_symop_operation_xyz
x,y,z
-x,-y,-z
loop_
_atom_site_type_symbol
_atom_site_label
_atom_site_fract_x
_atom_site_fract_y
_atom_site_fract_z
Si Si1 0.250322 0.984514 0.263785
Si Si2 0.037647 0.703943 0.031613
Si Si3 0.023137 0.648449 0.456952
Si Si4 0.291971 0.882706 0.621269
Si Si5 0.116774 0.250205 0.298333
Si Si6 0.368653 0.582380 0.118519
Si Si7 0.707248 0.954077 0.031505
Si Si8 0.542148 0.328445 0.601441
O O1 0.186196 0.770059 0.428980
O O2 0.349817 0.949648 0.442568
O O3 0.077041 0.128563 0.102579
O O4 0.354188 0.067610 0.092299
O O5 0.930191 0.693332 0.898892
O O6 0.037497 0.498338 0.308212
O O7 0.250197 0.725013 0.024868
O O8 0.000000 0.500000 0.500000
O O9 0.891413 0.830519 0.206855
O O10 0.079440 0.802257 0.640245
O O11 0.249291 0.061242 0.511480
O O12 0.411936 0.712318 0.886146
O O13 0.225019 0.418535 0.212148
O O14 0.518515 0.452411 0.354350
O O15 0.598573 0.845909 0.218040
O O16 0.721769 0.191735 0.804024
O O17 0.500000 0.500000 0.500000
#
# Coordination Sequence:
#
# PCOD9094773 Si02
#       8
#     2   2   2   2   2   2   2   2
#     4  11  23  38  63  94 133 153 199 260 327 378
#     4  10  20  34  60  96 127 161 195 259 320 371
#     4  12  23  36  63  98 126 164 198 253 328 376
#     4   9  19  34  59  96 122 162 189 255 317 371
#     4   9  18  34  56  93 132 153 198 250 314 370
#     4  11  20  37  63  88 124 162 212 248 304 364
#     4  11  26  44  60  89 124 163 214 255 305 365
#     4  11  28  46  65  84 120 175 219 258 292 359
#
# _framework density 27.089423
#
# number of rings (size 3 to 8) (size 9 to 14) (size 15 to 20)
#    0.000    1.500    2.500    4.125    3.500    2.000 
#    0.000    0.625    0.000    3.750    0.000    0.000 
#    0.000    0.000    0.000    0.000    0.000    0.000 
#
# Total GULP energy -89412.958368 kJ/mol
# GULP energy per Si atom -5588.309898 kJ/mol
# Density = 2.702777 g / cm^3
# Si number density = 27.089423 Si / 1000 Ang^3
#
#
#
# Elastic Constant Matrix: (Units=GPa)
#
#
# Indices 1 2 3 4 5 6 
#
# 1 61.2204 27.6541 45.4924 -6.1234 -2.7528 -13.1949
# 2 27.6541 116.1131 59.8788 -7.3668 6.3207 -10.6926
# 3 45.4924 59.8788 262.4311 6.5166 13.6785 -15.2072
# 4 -6.1234 -7.3668 6.5166 61.3875 -13.8034 -6.4361
# 5 -2.7528 6.3207 13.6785 -13.8034 54.9119 -4.4735
# 6 -13.1949 -10.6926 -15.2072 -6.4361 -4.4735 26.1007
#
#
#
# Elastic Compliance Matrix: (Units=1/GPa)
#
#
# Indices 1 2 3 4 5 6 
#
# 1 0.022689 -0.002861 -0.003004 0.004245 0.004121 0.010301
# 2 -0.002861 0.010513 -0.001794 0.001290 -0.000415 0.002062
# 3 -0.003004 -0.001794 0.004851 -0.001369 -0.001498 -0.000021
# 4 0.004245 0.001290 -0.001369 0.019120 0.005830 0.007591
# 5 0.004121 -0.000415 -0.001498 0.005830 0.020796 0.006043
# 6 0.010301 0.002062 -0.000021 0.007591 0.006043 0.047261
#
#
# Mechanical properties :
#
#
# Convention : Reuss Voigt Hill
#
# Bulk Modulus (GPa) = 43.98222 78.42392 61.20307
# Shear Modulus (GPa) = 33.75485 48.92930 41.34208
#
# Velocity S-wave (km/s) = 3.53378 4.25457 3.91081
# Velocity P-wave (km/s) = 5.73771 7.29027 6.56008
#
# Compressibility (1/GPa) = 0.02273646
#
# Stress axis : x y z
#
# Youngs Moduli (GPa) = 44.07417 95.12030 206.12875
#
# Poissons Ratio (x) = 0.27215 0.61913
# Poissons Ratio (y) = 0.12610 0.36973
# Poissons Ratio (z) = 0.13238 0.17062
#
# Static dielectric constant tensor:
#      x y z
#    x 2.396910 -0.059820 -0.014120 
#    y -0.059820 2.182190 0.075690 
#    z -0.014120 0.075690 2.339980 
# 
# From -- ./inp_files/398199.got.cif
#   From: 2010.05.17/outbox.cif.g08.bks.cpg/sg2_200_cif.got.tgz:398199.got - 2010.06.03 11:33:40.
