data_PCOD9094541
_publ_section_title
;
Structure prediction by ZEFSAII (Michael W. Deem and Ramdas Pophale) SiO2 
 PCOD9094541
Probable space group: P -1
;
_chemical_formula_sum "Si O2"
_cell_formula_units_Z 14
_cell_length_a 10.952839
_cell_length_b 13.603846
_cell_length_c 11.835742
_cell_angle_alpha 33.088948
_cell_angle_beta 141.395869
_cell_angle_gamma 140.231359
_cell_volume 566.141211
_symmetry_space_group_name_H-M "P -1"
_symmetry_group_IT_number 2
_symmetry_cell_setting 'triclinic'
loop_
_space_group_symop_operation_xyz
x,y,z
-x,-y,-z
loop_
_atom_site_type_symbol
_atom_site_label
_atom_site_fract_x
_atom_site_fract_y
_atom_site_fract_z
Si Si1 0.465275 0.288407 0.632369
Si Si2 0.222460 0.789829 0.570956
Si Si3 0.813142 0.660188 0.806391
Si Si4 0.250329 0.400823 0.924575
Si Si5 0.717525 0.928718 0.857429
Si Si6 0.813170 0.227180 0.195353
Si Si7 0.654572 0.010764 0.978175
O O1 0.500000 0.500000 0.500000
O O2 0.366868 0.291020 0.436229
O O3 0.666990 0.221708 0.825510
O O4 0.328011 0.135934 0.771827
O O5 0.466883 0.852893 0.725293
O O6 0.116516 0.810091 0.592753
O O7 0.201748 0.918810 0.329736
O O8 0.157898 0.571769 0.692650
O O9 0.805566 0.695955 0.899197
O O10 0.018121 0.768868 0.779662
O O11 0.786639 0.436166 0.985851
O O12 0.201820 0.246697 0.939510
O O13 0.500000 0.500000 0.000000
O O14 0.762051 0.004955 0.943051
O O15 0.590969 0.081627 0.141945
#
# Coordination Sequence:
#
# PCOD9094541 Si02
#       7
#     2   2   2   2   2   2   2
#     4  11  23  37  55  80 112 152 184 221 272 326
#     4   8  16  28  47  76 108 136 164 221 275 311
#     4  10  20  34  58  85 114 144 177 229 280 320
#     4   9  18  29  49  81 108 135 175 223 273 321
#     4   9  17  30  51  77 107 135 177 226 267 314
#     4   9  18  36  55  85 115 137 183 230 276 328
#     4  10  22  37  56  84 111 143 188 226 268 328
#
# _framework density 24.728814
#
# number of rings (size 3 to 8) (size 9 to 14) (size 15 to 20)
#    0.000    2.571    1.429    0.857    8.000    0.571 
#    0.000    0.000    0.000    0.857    0.000    5.000 
#    0.000    0.000    0.000    0.000    0.000    0.000 
#
# Total GULP energy -78286.524141 kJ/mol
# GULP energy per Si atom -5591.894581 kJ/mol
# Density = 2.467253 g / cm^3
# Si number density = 24.728814 Si / 1000 Ang^3
#
#
#
# Elastic Constant Matrix: (Units=GPa)
#
#
# Indices 1 2 3 4 5 6 
#
# 1 143.5832 36.4379 40.1561 -3.1447 -21.0564 -21.7974
# 2 36.4379 59.0758 36.2731 -11.7972 8.9674 -23.8572
# 3 40.1561 36.2731 100.0020 -21.8135 -21.8923 -20.5486
# 4 -3.1447 -11.7972 -21.8135 26.3058 -3.0998 3.7908
# 5 -21.0564 8.9674 -21.8923 -3.0998 36.2837 1.7370
# 6 -21.7974 -23.8572 -20.5486 3.7908 1.7370 37.1415
#
#
#
# Elastic Compliance Matrix: (Units=1/GPa)
#
#
# Indices 1 2 3 4 5 6 
#
# 1 0.009990 -0.007257 0.000277 -0.001094 0.007611 0.001110
# 2 -0.007257 0.038580 -0.012642 0.001286 -0.021955 0.014424
# 3 0.000277 -0.012642 0.021806 0.014253 0.017572 0.001830
# 4 -0.001094 0.001286 0.014253 0.051357 0.011926 0.002270
# 5 0.007611 -0.021955 0.017572 0.011926 0.049189 -0.003431
# 6 0.001110 0.014424 0.001830 0.002270 -0.003431 0.037781
#
#
# Mechanical properties :
#
#
# Convention : Reuss Voigt Hill
#
# Bulk Modulus (GPa) = 32.12227 58.71057 45.41642
# Shear Modulus (GPa) = 19.35552 32.59913 25.97733
#
# Velocity S-wave (km/s) = 2.80073 3.63473 3.24464
# Velocity P-wave (km/s) = 4.84529 6.43493 5.69584
#
# Compressibility (1/GPa) = 0.03113105
#
# Stress axis : x y z
#
# Youngs Moduli (GPa) = 100.10447 25.92030 45.85886
#
# Poissons Ratio (x) = 0.18810 -0.01268
# Poissons Ratio (y) = 0.72644 0.57974
# Poissons Ratio (z) = -0.02768 0.32768
#
# Static dielectric constant tensor:
#      x y z
#    x 1.987690 0.012030 0.017330 
#    y 0.012030 2.040610 -0.024470 
#    z 0.017330 -0.024470 1.925810 
# 
# From -- ./inp_files/430848.got.cif
#   From: 2010.05.17/outbox.cif.g08.bks.cpg/sg2_216_cif.got.tgz:430848.got - 2010.06.03 11:33:40.
