data_PCOD9094529
_publ_section_title
;
Structure prediction by ZEFSAII (Michael W. Deem and Ramdas Pophale) SiO2 
 PCOD9094529
Probable space group: P -1
;
_chemical_formula_sum "Si O2"
_cell_formula_units_Z 16
_cell_length_a 22.664420
_cell_length_b 15.863606
_cell_length_c 9.043238
_cell_angle_alpha 63.725964
_cell_angle_beta 117.385521
_cell_angle_gamma 163.843667
_cell_volume 803.335350
_symmetry_space_group_name_H-M "P -1"
_symmetry_group_IT_number 2
_symmetry_cell_setting 'triclinic'
loop_
_space_group_symop_operation_xyz
x,y,z
-x,-y,-z
loop_
_atom_site_type_symbol
_atom_site_label
_atom_site_fract_x
_atom_site_fract_y
_atom_site_fract_z
Si Si1 0.242306 0.338127 0.172881
Si Si2 0.256695 0.139937 0.382369
Si Si3 0.790408 0.774472 0.207916
Si Si4 0.845360 0.027351 0.276391
Si Si5 0.829250 0.488035 0.490838
Si Si6 0.381063 0.987927 0.389330
Si Si7 0.439245 0.624268 0.499217
Si Si8 0.442179 0.223350 0.040722
O O1 0.274546 0.269003 0.242883
O O2 0.347785 0.506555 0.321210
O O3 0.370117 0.561956 0.017103
O O4 0.991668 0.020655 0.147048
O O5 0.279972 0.173261 0.563057
O O6 0.413991 0.271893 0.400497
O O7 0.012039 0.773906 0.371293
O O8 0.839636 0.937070 0.221478
O O9 0.754529 0.649433 0.394225
O O10 0.570596 0.471120 0.098425
O O11 0.730144 0.960035 0.120638
O O12 0.074194 0.361277 0.351063
O O13 0.605413 0.239550 0.410549
O O14 0.791131 0.326038 0.553200
O O15 0.423638 0.103156 0.498946
O O16 0.342506 0.012295 0.197748
#
# Coordination Sequence:
#
# PCOD9094529 Si02
#       8
#     2   2   2   2   2   2   2   2
#     4  12  20  36  58  85 119 152 184 231 285 342
#     4  10  20  34  58  84 111 152 188 225 275 339
#     4  11  22  33  56  85 117 150 190 230 276 343
#     4  10  20  38  56  84 113 155 183 227 284 340
#     4   9  20  41  61  81 110 154 191 233 274 341
#     4  10  22  39  62  86 109 147 196 238 275 328
#     4  11  19  34  57  86 114 150 192 226 275 346
#     4  11  23  36  54  88 120 147 179 241 291 322
#
# _framework density 19.916961000000001
#
# number of rings (size 3 to 8) (size 9 to 14) (size 15 to 20)
#    0.750    0.750    2.500    4.500    0.000    2.000 
#    0.000    0.000    0.000    8.250    0.000    0.000 
#    0.000    0.000    0.000    0.000    0.000    0.000 
#
# Total GULP energy -89314.243075 kJ/mol
# GULP energy per Si atom -5582.140192 kJ/mol
# Density = 1.987163 g / cm^3
# Si number density = 19.916961 Si / 1000 Ang^3
#
#
#
# Elastic Constant Matrix: (Units=GPa)
#
#
# Indices 1 2 3 4 5 6 
#
# 1 54.8699 -2.5709 0.0709 -11.5045 4.1875 -13.5611
# 2 -2.5709 36.9552 3.5110 -5.6065 3.6039 -12.9975
# 3 0.0709 3.5110 58.8066 2.2951 -3.5533 -12.0133
# 4 -11.5045 -5.6065 2.2951 22.0289 2.6928 4.9880
# 5 4.1875 3.6039 -3.5533 2.6928 27.2512 -1.6453
# 6 -13.5611 -12.9975 -12.0133 4.9880 -1.6453 33.7583
#
#
#
# Elastic Compliance Matrix: (Units=1/GPa)
#
#
# Indices 1 2 3 4 5 6 
#
# 1 0.024421 0.007959 0.000934 0.012825 -0.005283 0.011054
# 2 0.007959 0.034998 0.000181 0.010397 -0.005955 0.014910
# 3 0.000934 0.000181 0.018930 -0.003602 0.003132 0.007866
# 4 0.012825 0.010397 -0.003602 0.056481 -0.009453 -0.000933
# 5 -0.005283 -0.005955 0.003132 -0.009453 0.039639 0.000028
# 6 0.011054 0.014910 0.007866 -0.000933 0.000028 0.042742
#
#
# Mechanical properties :
#
#
# Convention : Reuss Voigt Hill
#
# Bulk Modulus (GPa) = 10.36299 16.96153 13.66226
# Shear Modulus (GPa) = 21.62360 26.58239 24.10299
#
# Velocity S-wave (km/s) = 3.29855 3.65726 3.48253
# Velocity P-wave (km/s) = 4.44091 5.13505 4.80054
#
# Compressibility (1/GPa) = 0.09649726
#
# Stress axis : x y z
#
# Youngs Moduli (GPa) = 40.94850 28.57271 52.82699
#
# Poissons Ratio (x) = -0.22741 -0.04933
# Poissons Ratio (y) = -0.32591 -0.00957
# Poissons Ratio (z) = -0.03824 -0.00518
#
# Static dielectric constant tensor:
#      x y z
#    x 1.717430 0.008620 -0.008060 
#    y 0.008620 1.736850 0.017690 
#    z -0.008060 0.017690 1.695990 
# 
# From -- ./inp_files/240509.got.cif
#   From: 2010.05.17/outbox.cif.g08.bks.cpg/sg2_121_cif.got.tgz:240509.got - 2010.06.03 11:33:40.
