data_PCOD9094167
_publ_section_title
;
Structure prediction by ZEFSAII (Michael W. Deem and Ramdas Pophale) SiO2 
 PCOD9094167
Probable space group: P -1
;
_chemical_formula_sum "Si O2"
_cell_formula_units_Z 15
_cell_length_a 12.172359
_cell_length_b 17.671566
_cell_length_c 11.022247
_cell_angle_alpha 118.201157
_cell_angle_beta 116.328648
_cell_angle_gamma 19.502021
_cell_volume 697.541082
_symmetry_space_group_name_H-M "P -1"
_symmetry_group_IT_number 2
_symmetry_cell_setting 'triclinic'
loop_
_space_group_symop_operation_xyz
x,y,z
-x,-y,-z
loop_
_atom_site_type_symbol
_atom_site_label
_atom_site_fract_x
_atom_site_fract_y
_atom_site_fract_z
Si Si1 0.545333 0.967943 0.641026
Si Si2 0.733032 0.708070 0.694844
Si Si3 0.192263 0.594276 0.330948
Si Si4 0.844398 0.507912 0.956902
Si Si5 0.500000 0.000000 0.000000
Si Si6 0.452198 0.216469 0.766260
Si Si7 0.307711 0.866758 0.430094
Si Si8 0.386043 0.649378 0.419955
O O1 0.588614 0.038705 0.752623
O O2 0.200029 0.155554 0.662152
O O3 0.500000 0.000000 0.500000
O O4 0.810336 0.731770 0.648985
O O5 0.519480 0.776893 0.570614
O O6 0.074211 0.447234 0.712290
O O7 0.561592 0.873829 0.844207
O O8 0.299853 0.438831 0.195976
O O9 0.335820 0.582070 0.318685
O O10 0.313410 0.528539 0.477532
O O11 0.138206 0.255393 0.955188
O O12 0.581012 0.693123 0.074564
O O13 0.000000 0.500000 0.000000
O O14 0.635651 0.128118 0.668905
O O15 0.394413 0.709781 0.359521
O O16 0.931748 0.121156 0.479545
#
# Coordination Sequence:
#
# PCOD9094167 Si02
#       8
#     2   2   2   2   1   2   2   2
#     4  12  21  35  60  89 122 146 186 254 303 347
#     4  11  21  35  60  88 121 152 187 252 306 350
#     4  11  21  41  57  90 116 156 205 238 293 358
#     4  11  21  38  62  89 121 153 189 248 306 360
#     4  10  20  34  54  88 120 150 184 228 312 358
#     4  11  23  36  60  93 120 149 195 250 310 351
#     4  11  21  40  55  88 116 159 207 239 290 353
#     4  10  23  37  63  77 118 168 198 243 279 350
#
# _framework density 21.504110000000001
#
# number of rings (size 3 to 8) (size 9 to 14) (size 15 to 20)
#    0.000    1.067    5.333    1.200    3.733    0.000 
#    0.000    1.333    0.000    0.000    0.000    0.000 
#    0.000    0.000    0.000    0.000    0.000    0.000 
#
# Total GULP energy -83529.865421 kJ/mol
# GULP energy per Si atom -5568.657695 kJ/mol
# Density = 2.145517 g / cm^3
# Si number density = 21.504110 Si / 1000 Ang^3
#
#
#
# Elastic Constant Matrix: (Units=GPa)
#
#
# Indices 1 2 3 4 5 6 
#
# 1 94.9573 6.6044 15.4338 -2.1580 18.2917 8.7365
# 2 6.6044 23.4785 -12.3020 1.9994 -1.3883 3.6741
# 3 15.4338 -12.3020 87.4386 8.5914 7.2906 -13.2014
# 4 -2.1580 1.9994 8.5914 22.6492 6.8039 1.4824
# 5 18.2917 -1.3883 7.2906 6.8039 24.6504 7.3764
# 6 8.7365 3.6741 -13.2014 1.4824 7.3764 28.6859
#
#
#
# Elastic Compliance Matrix: (Units=1/GPa)
#
#
# Indices 1 2 3 4 5 6 
#
# 1 0.014045 -0.006614 -0.003566 0.006691 -0.010797 -0.002641
# 2 -0.006614 0.050594 0.008221 -0.010768 0.009030 -0.002448
# 3 -0.003566 0.008221 0.015237 -0.006796 -0.001880 0.007880
# 4 0.006691 -0.010768 -0.006796 0.053800 -0.017817 -0.001985
# 5 -0.010797 0.009030 -0.001880 -0.017817 0.058400 -0.012830
# 6 -0.002641 -0.002448 0.007880 -0.001985 -0.012830 0.043006
#
#
# Mechanical properties :
#
#
# Convention : Reuss Voigt Hill
#
# Bulk Modulus (GPa) = 13.16493 25.03852 19.10173
# Shear Modulus (GPa) = 18.91647 28.27298 23.59472
#
# Velocity S-wave (km/s) = 2.96914 3.62991 3.31602
# Velocity P-wave (km/s) = 4.22962 5.40714 4.85422
#
# Compressibility (1/GPa) = 0.07595936
#
# Stress axis : x y z
#
# Youngs Moduli (GPa) = 71.19753 19.76506 65.63069
#
# Poissons Ratio (x) = 0.13073 0.23401
# Poissons Ratio (y) = 0.47091 -0.53956
# Poissons Ratio (z) = 0.25386 -0.16249
#
# Static dielectric constant tensor:
#      x y z
#    x 1.841760 0.044080 -0.005180 
#    y 0.044080 1.825660 0.016590 
#    z -0.005180 0.016590 1.832630 
# 
# From -- ./inp_files/176506.got.cif
#   From: 2010.05.17/outbox.cif.g08.bks.cpg/sg2_89_cif.got.tgz:176506.got - 2010.06.03 11:33:40.
