data_PCOD9094368
_publ_section_title
;
Structure prediction by ZEFSAII (Michael W. Deem and Ramdas Pophale) SiO2 
 PCOD9094368
Probable space group: P -1
;
_chemical_formula_sum "Si O2"
_cell_formula_units_Z 12
_cell_length_a 13.937420
_cell_length_b 5.514296
_cell_length_c 14.114997
_cell_angle_alpha 114.599651
_cell_angle_beta 144.915983
_cell_angle_gamma 80.394671
_cell_volume 534.669452
_symmetry_space_group_name_H-M "P -1"
_symmetry_group_IT_number 2
_symmetry_cell_setting 'triclinic'
loop_
_space_group_symop_operation_xyz
x,y,z
-x,-y,-z
loop_
_atom_site_type_symbol
_atom_site_label
_atom_site_fract_x
_atom_site_fract_y
_atom_site_fract_z
Si Si1 0.743168 0.870459 0.018480
Si Si2 0.320722 0.765492 0.130846
Si Si3 0.154632 0.019140 0.364085
Si Si4 0.062925 0.433592 0.141776
Si Si5 0.354875 0.219326 0.374298
Si Si6 0.986778 0.175018 0.424352
O O1 0.645710 0.533085 0.892890
O O2 0.639789 0.025902 0.893815
O O3 0.945082 0.927106 0.150761
O O4 0.803620 0.014080 0.193361
O O5 0.107938 0.665188 0.947638
O O6 0.384291 0.942928 0.308043
O O7 0.292367 0.203286 0.429676
O O8 0.187178 0.720189 0.339068
O O9 0.144473 0.157568 0.478802
O O10 0.173933 0.229188 0.182232
O O11 0.000000 0.500000 0.000000
O O12 0.500000 0.500000 0.500000
O O13 0.000000 0.500000 0.500000
O O14 0.000000 0.000000 0.500000
#
# Coordination Sequence:
#
# PCOD9094368 Si02
#       6
#     2   2   2   2   2   2
#     4   9  20  33  59  80 114 144 195 235 296 339
#     4  11  19  36  55  84 112 160 188 235 283 354
#     4   9  21  33  54  81 119 150 189 239 295 347
#     4  11  19  36  58  79 118 158 196 236 291 349
#     4  12  24  35  54  88 128 162 193 232 291 362
#     4  10  20  34  56  89 115 139 192 264 310 327
#
# _framework density 22.443773
#
# number of rings (size 3 to 8) (size 9 to 14) (size 15 to 20)
#    1.000    0.667    3.333    3.500    2.333    0.667 
#    0.000    0.000    0.000    0.000    0.000    7.000 
#    0.000    0.000    0.000    0.000    0.000    0.000 
#
# Total GULP energy -66852.791951 kJ/mol
# GULP energy per Si atom -5571.065996 kJ/mol
# Density = 2.239269 g / cm^3
# Si number density = 22.443773 Si / 1000 Ang^3
#
#
#
# Elastic Constant Matrix: (Units=GPa)
#
#
# Indices 1 2 3 4 5 6 
#
# 1 91.7408 64.4588 47.2706 11.0409 -34.9646 15.1558
# 2 64.4588 158.9557 41.2501 25.6635 -33.2708 13.7875
# 3 47.2706 41.2501 77.2584 24.8340 -23.1949 5.1096
# 4 11.0409 25.6635 24.8340 43.4727 -7.7795 -3.3745
# 5 -34.9646 -33.2708 -23.1949 -7.7795 46.6679 -1.7657
# 6 15.1558 13.7875 5.1096 -3.3745 -1.7657 33.1722
#
#
#
# Elastic Compliance Matrix: (Units=1/GPa)
#
#
# Indices 1 2 3 4 5 6 
#
# 1 0.023835 -0.005172 -0.009696 0.003789 0.009744 -0.006343
# 2 -0.005172 0.009689 0.000195 -0.004253 0.002345 -0.002002
# 3 -0.009696 0.000195 0.022824 -0.010248 0.002507 -0.000076
# 4 0.003789 -0.004253 -0.010248 0.030778 0.000024 0.004747
# 5 0.009744 0.002345 0.002507 0.000024 0.031493 -0.004134
# 6 -0.006343 -0.002002 -0.000076 0.004747 -0.004134 0.034150
#
#
# Mechanical properties :
#
#
# Convention : Reuss Voigt Hill
#
# Bulk Modulus (GPa) = 37.03351 70.43486 53.73419
# Shear Modulus (GPa) = 26.16219 36.32757 31.24488
#
# Velocity S-wave (km/s) = 3.41791 4.02755 3.73519
# Velocity P-wave (km/s) = 5.66679 7.28555 6.52655
#
# Compressibility (1/GPa) = 0.02700257
#
# Stress axis : x y z
#
# Youngs Moduli (GPa) = 41.95512 103.21178 43.81404
#
# Poissons Ratio (x) = 0.53377 0.42480
# Poissons Ratio (y) = 0.21698 -0.00853
# Poissons Ratio (z) = 0.40678 -0.02009
#
# Static dielectric constant tensor:
#      x y z
#    x 1.847760 0.014800 0.000470 
#    y 0.014800 1.994110 -0.014660 
#    z 0.000470 -0.014660 1.911050 
# 
# From -- ./inp_files/525129.got.cif
#   From: 2010.05.17/outbox.cif.g08.bks.cpg/sg2_263_cif.got.tgz:525129.got - 2010.06.03 11:33:40.
