data_PCOD9094783
_publ_section_title
;
Structure prediction by ZEFSAII (Michael W. Deem and Ramdas Pophale) SiO2 
 PCOD9094783
Probable space group: P -1
;
_chemical_formula_sum "Si O2"
_cell_formula_units_Z 16
_cell_length_a 8.048117
_cell_length_b 17.940335
_cell_length_c 12.823334
_cell_angle_alpha 143.992536
_cell_angle_beta 139.033613
_cell_angle_gamma 62.354378
_cell_volume 659.821296
_symmetry_space_group_name_H-M "P -1"
_symmetry_group_IT_number 2
_symmetry_cell_setting 'triclinic'
loop_
_space_group_symop_operation_xyz
x,y,z
-x,-y,-z
loop_
_atom_site_type_symbol
_atom_site_label
_atom_site_fract_x
_atom_site_fract_y
_atom_site_fract_z
Si Si1 0.538655 0.687646 0.510852
Si Si2 0.144718 0.829279 0.026870
Si Si3 0.578679 0.689725 0.857191
Si Si4 0.532225 0.351886 0.798774
Si Si5 0.981753 0.040847 0.677927
Si Si6 0.513561 0.085617 0.385429
Si Si7 0.349538 0.266617 0.823992
Si Si8 0.162912 0.513454 0.319263
O O1 0.494404 0.829395 0.624898
O O2 0.312374 0.602899 0.390701
O O3 0.844558 0.724735 0.737916
O O4 0.522764 0.616461 0.310027
O O5 0.117637 0.911160 0.208679
O O6 0.370129 0.763837 0.076663
O O7 0.266464 0.940921 0.118792
O O8 0.270583 0.609529 0.580545
O O9 0.736544 0.613435 0.778638
O O10 0.641569 0.672181 0.987489
O O11 0.711326 0.850613 0.074718
O O12 0.842924 0.441041 0.073751
O O13 0.490411 0.191986 0.582003
O O14 0.357339 0.349661 0.816105
O O15 0.790136 0.064053 0.522202
O O16 0.903400 0.879526 0.466796
#
# Coordination Sequence:
#
# PCOD9094783 Si02
#       8
#     2   2   2   2   2   2   2   2
#     4  10  20  34  61  83 108 149 192 225 271 334
#     4  11  17  34  62  86 111 144 187 230 276 332
#     4  11  23  36  58  86 110 148 191 234 270 327
#     4  10  20  37  57  83 111 145 185 229 276 329
#     4  11  17  38  60  86 110 146 187 229 279 333
#     4   9  18  31  59  86 106 140 185 230 271 324
#     4  11  22  36  59  87 116 140 182 241 285 317
#     4  11  22  39  58  79 112 152 196 223 268 336
#
# _framework density 24.248989000000002
#
# number of rings (size 3 to 8) (size 9 to 14) (size 15 to 20)
#    0.750    0.750    5.000    1.875    1.750    0.500 
#    0.000    0.625    5.500    1.500    0.000    0.000 
#    0.000    0.000    0.000    0.000    0.000    0.000 
#
# Total GULP energy -89433.182010 kJ/mol
# GULP energy per Si atom -5589.573876 kJ/mol
# Density = 2.419380 g / cm^3
# Si number density = 24.248989 Si / 1000 Ang^3
#
#
#
# Elastic Constant Matrix: (Units=GPa)
#
#
# Indices 1 2 3 4 5 6 
#
# 1 54.2841 17.6018 33.5912 14.5656 -2.2943 24.9133
# 2 17.6018 78.6496 13.5333 8.2504 8.3104 33.7912
# 3 33.5912 13.5333 125.3140 4.6988 -5.1272 24.0083
# 4 14.5656 8.2504 4.6988 17.0081 10.0830 3.4189
# 5 -2.2943 8.3104 -5.1272 10.0830 32.0920 4.9464
# 6 24.9133 33.7912 24.0083 3.4189 4.9464 44.1175
#
#
#
# Elastic Compliance Matrix: (Units=1/GPa)
#
#
# Indices 1 2 3 4 5 6 
#
# 1 0.044057 0.003894 -0.005243 -0.044667 0.018987 -0.023676
# 2 0.003894 0.020127 0.000514 -0.010417 0.001074 -0.017208
# 3 -0.005243 0.000514 0.009905 0.001478 0.001082 -0.003059
# 4 -0.044667 -0.010417 0.001478 0.121418 -0.042689 0.027776
# 5 0.018987 0.001074 0.001082 -0.042689 0.048015 -0.014208
# 6 -0.023676 -0.017208 -0.003059 0.027776 -0.014208 0.050322
#
#
# Mechanical properties :
#
#
# Convention : Reuss Voigt Hill
#
# Bulk Modulus (GPa) = 13.80863 43.07783 28.44323
# Shear Modulus (GPa) = 15.64200 31.54495 23.59347
#
# Velocity S-wave (km/s) = 2.54255 3.61068 3.12263
# Velocity P-wave (km/s) = 3.78501 5.93178 4.97556
#
# Compressibility (1/GPa) = 0.07241848
#
# Stress axis : x y z
#
# Youngs Moduli (GPa) = 22.69808 49.68380 100.96257
#
# Poissons Ratio (x) = -0.19345 0.52930
# Poissons Ratio (y) = -0.08838 -0.05189
# Poissons Ratio (z) = 0.11900 -0.02553
#
# Static dielectric constant tensor:
#      x y z
#    x 1.943070 0.015130 -0.026360 
#    y 0.015130 1.977920 0.008190 
#    z -0.026360 0.008190 1.922800 
# 
# From -- ./inp_files/405617.got.cif
#   From: 2010.05.17/outbox.cif.g08.bks.cpg/sg2_203_cif.got.tgz:405617.got - 2010.06.03 11:33:40.
