data_PCOD9094355
_publ_section_title
;
Structure prediction by ZEFSAII (Michael W. Deem and Ramdas Pophale) SiO2 
 PCOD9094355
Probable space group: P -1
;
_chemical_formula_sum "Si O2"
_cell_formula_units_Z 12
_cell_length_a 12.337969
_cell_length_b 10.035935
_cell_length_c 6.706836
_cell_angle_alpha 79.666412
_cell_angle_beta 48.230748
_cell_angle_gamma 61.204133
_cell_volume 529.922401
_symmetry_space_group_name_H-M "P -1"
_symmetry_group_IT_number 2
_symmetry_cell_setting 'triclinic'
loop_
_space_group_symop_operation_xyz
x,y,z
-x,-y,-z
loop_
_atom_site_type_symbol
_atom_site_label
_atom_site_fract_x
_atom_site_fract_y
_atom_site_fract_z
Si Si1 0.484261 0.800802 0.509142
Si Si2 0.390779 0.093727 0.298100
Si Si3 0.036952 0.067804 0.241389
Si Si4 0.157555 0.299966 0.039600
Si Si5 0.196203 0.759734 0.865879
Si Si6 0.039632 0.366484 0.704423
O O1 0.522497 0.838436 0.675177
O O2 0.657313 0.724313 0.194785
O O3 0.392719 0.699157 0.645002
O O4 0.127077 0.922434 0.023506
O O5 0.209253 0.237096 0.427205
O O6 0.373407 0.966442 0.488457
O O7 0.500000 0.000000 0.000000
O O8 0.876531 0.197742 0.281176
O O9 0.148708 0.145619 0.136576
O O10 0.000000 0.000000 0.500000
O O11 0.097160 0.334849 0.874436
O O12 0.030064 0.449796 0.282027
O O13 0.114172 0.668931 0.101105
#
# Coordination Sequence:
#
# PCOD9094355 Si02
#       6
#     2   2   2   2   2   2
#     4  10  20  34  56  87 115 146 196 244 282 336
#     4  10  20  36  57  83 114 155 197 234 284 348
#     4  10  20  36  57  83 114 155 197 234 284 348
#     4   9  19  37  59  83 117 156 190 234 294 350
#     4  10  20  34  56  87 115 146 196 244 282 336
#     4   9  19  37  59  83 117 156 190 234 294 350
#
# _framework density 22.644824
#
# number of rings (size 3 to 8) (size 9 to 14) (size 15 to 20)
#    0.000    2.333    0.000    5.000    0.000    6.000 
#    0.000    3.333    0.000    2.000    0.000   21.000 
#    0.000    0.000    0.000    0.000    0.000    0.000 
#
# Total GULP energy -67033.527040 kJ/mol
# GULP energy per Si atom -5586.127253 kJ/mol
# Density = 2.259328 g / cm^3
# Si number density = 22.644824 Si / 1000 Ang^3
#
#
#
# Elastic Constant Matrix: (Units=GPa)
#
#
# Indices 1 2 3 4 5 6 
#
# 1 73.5021 15.5436 40.0953 3.6202 0.1529 5.1808
# 2 15.5436 93.2612 35.8544 10.3031 -13.1659 6.4469
# 3 40.0953 35.8544 130.7092 7.4836 -10.7284 18.4722
# 4 3.6202 10.3031 7.4836 33.9644 13.4265 3.0695
# 5 0.1529 -13.1659 -10.7284 13.4265 46.4442 -5.6054
# 6 5.1808 6.4469 18.4722 3.0695 -5.6054 27.7917
#
#
#
# Elastic Compliance Matrix: (Units=1/GPa)
#
#
# Indices 1 2 3 4 5 6 
#
# 1 0.016506 -0.001121 -0.004915 0.000278 -0.001576 0.000102
# 2 -0.001121 0.013122 -0.002638 -0.005159 0.004657 0.000428
# 3 -0.004915 -0.002638 0.010809 -0.001166 0.001471 -0.005230
# 4 0.000278 -0.005159 -0.001166 0.036779 -0.012939 -0.004752
# 5 -0.001576 0.004657 0.001471 -0.012939 0.027567 0.005225
# 6 0.000102 0.000428 -0.005230 -0.004752 0.005225 0.040919
#
#
# Mechanical properties :
#
#
# Convention : Reuss Voigt Hill
#
# Bulk Modulus (GPa) = 43.31532 53.38436 48.34984
# Shear Modulus (GPa) = 29.28315 35.37202 32.32759
#
# Velocity S-wave (km/s) = 3.59994 3.95655 3.78245
# Velocity P-wave (km/s) = 6.03731 6.67070 6.36189
#
# Compressibility (1/GPa) = 0.02308652
#
# Stress axis : x y z
#
# Youngs Moduli (GPa) = 60.58452 76.21037 92.51858
#
# Poissons Ratio (x) = 0.08547 0.45474
# Poissons Ratio (y) = 0.06794 0.24408
# Poissons Ratio (z) = 0.29778 0.20105
#
# Static dielectric constant tensor:
#      x y z
#    x 1.914350 -0.042240 -0.001080 
#    y -0.042240 1.836720 0.008390 
#    z -0.001080 0.008390 1.928650 
# 
# From -- ./inp_files/295911.got.cif
#   From: 2010.05.17/outbox.cif.g08.bks.cpg/sg2_148_cif.got.tgz:295911.got - 2010.06.03 11:33:40.
