data_PCOD9094017
_publ_section_title
;
Structure prediction by ZEFSAII (Michael W. Deem and Ramdas Pophale) SiO2 
 PCOD9094017
Probable space group: P -1
;
_chemical_formula_sum "Si O2"
_cell_formula_units_Z 14
_cell_length_a 12.690640
_cell_length_b 11.696377
_cell_length_c 10.269218
_cell_angle_alpha 77.147839
_cell_angle_beta 97.144661
_cell_angle_gamma 155.235522
_cell_volume 611.176093
_symmetry_space_group_name_H-M "P -1"
_symmetry_group_IT_number 2
_symmetry_cell_setting 'triclinic'
loop_
_space_group_symop_operation_xyz
x,y,z
-x,-y,-z
loop_
_atom_site_type_symbol
_atom_site_label
_atom_site_fract_x
_atom_site_fract_y
_atom_site_fract_z
Si Si1 0.008267 0.573261 0.668218
Si Si2 0.982548 0.010623 0.648153
Si Si3 0.788247 0.000084 0.289141
Si Si4 0.501785 0.333294 0.394304
Si Si5 0.294042 0.946927 0.980147
Si Si6 0.752632 0.344900 0.104635
Si Si7 0.648123 0.063927 0.602535
O O1 0.199385 0.675858 0.746785
O O2 0.094836 0.701377 0.505255
O O3 0.748307 0.240083 0.694729
O O4 0.012765 0.696329 0.719451
O O5 0.060811 0.965337 0.733616
O O6 0.211968 0.330164 0.637221
O O7 0.000000 0.000000 0.500000
O O8 0.700165 0.781205 0.676116
O O9 0.608102 0.798198 0.440498
O O10 0.636196 0.901257 0.169598
O O11 0.487397 0.196767 0.349559
O O12 0.262413 0.780482 0.966668
O O13 0.002314 0.677086 0.045827
O O14 0.503247 0.165642 0.069163
O O15 0.500000 0.000000 0.500000
#
# Coordination Sequence:
#
# PCOD9094017 Si02
#       7
#     2   2   2   2   2   2   2
#     4   9  20  35  50  79 107 140 168 218 260 311
#     4  10  20  34  52  76 106 142 171 209 260 312
#     4   9  18  34  53  79 108 139 170 213 261 312
#     4  10  22  35  52  76 110 140 172 211 256 309
#     4   9  18  30  48  74 102 137 166 206 254 316
#     4   9  18  32  47  72 106 133 168 205 260 307
#     4  10  22  34  54  77 105 141 178 211 256 312
#
# _framework density 22.906656000000002
#
# number of rings (size 3 to 8) (size 9 to 14) (size 15 to 20)
#    0.000    2.571    0.000    1.714   10.000    3.429 
#    5.143    0.000    0.000    0.000    0.000    6.000 
#    0.000    0.000    0.000    0.000    0.000    0.000 
#
# Total GULP energy -78108.720041 kJ/mol
# GULP energy per Si atom -5579.194289 kJ/mol
# Density = 2.285452 g / cm^3
# Si number density = 22.906656 Si / 1000 Ang^3
#
#
#
# Elastic Constant Matrix: (Units=GPa)
#
#
# Indices 1 2 3 4 5 6 
#
# 1 55.8339 30.7907 7.2506 5.3843 17.9072 -9.2925
# 2 30.7907 130.9364 45.3529 33.3460 18.4623 7.0113
# 3 7.2506 45.3529 77.6722 4.4493 12.0270 8.5586
# 4 5.3843 33.3460 4.4493 25.3574 3.8855 4.2530
# 5 17.9072 18.4623 12.0270 3.8855 25.0720 2.8703
# 6 -9.2925 7.0113 8.5586 4.2530 2.8703 40.9717
#
#
#
# Elastic Compliance Matrix: (Units=1/GPa)
#
#
# Indices 1 2 3 4 5 6 
#
# 1 0.027667 -0.006162 0.002761 0.003203 -0.017923 0.007676
# 2 -0.006162 0.016976 -0.007982 -0.019338 -0.001211 -0.000543
# 3 0.002761 -0.007982 0.017941 0.008001 -0.005691 -0.002187
# 4 0.003203 -0.019338 0.008001 0.063676 -0.001278 -0.004156
# 5 -0.017923 -0.001211 -0.005691 -0.001278 0.057255 -0.006547
# 6 0.007676 -0.000543 -0.002187 -0.004156 -0.006547 0.027588
#
#
# Mechanical properties :
#
#
# Convention : Reuss Voigt Hill
#
# Bulk Modulus (GPa) = 25.11385 47.91454 36.51419
# Shear Modulus (GPa) = 20.23136 30.35011 25.29073
#
# Velocity S-wave (km/s) = 2.97511 3.64393 3.32637
# Velocity P-wave (km/s) = 4.77379 6.21828 5.54329
#
# Compressibility (1/GPa) = 0.03981867
#
# Stress axis : x y z
#
# Youngs Moduli (GPa) = 36.14461 58.90692 55.73726
#
# Poissons Ratio (x) = 0.36299 -0.15391
# Poissons Ratio (y) = 0.22273 0.44489
# Poissons Ratio (z) = -0.09981 0.47019
#
# Static dielectric constant tensor:
#      x y z
#    x 1.970360 0.093250 -0.078570 
#    y 0.093250 1.898940 -0.057130 
#    z -0.078570 -0.057130 1.922320 
# 
# From -- ./inp_files/72687.got.cif
#   From: 2010.05.17/outbox.cif.g08.bks.cpg/sg2_37_cif.got.tgz:72687.got - 2010.06.03 11:33:40.
