data_PCOD9094471
_publ_section_title
;
Structure prediction by ZEFSAII (Michael W. Deem and Ramdas Pophale) SiO2 
 PCOD9094471
Probable space group: P -1
;
_chemical_formula_sum "Si O2"
_cell_formula_units_Z 16
_cell_length_a 15.832007
_cell_length_b 21.127520
_cell_length_c 9.590026
_cell_angle_alpha 34.468731
_cell_angle_beta 35.190029
_cell_angle_gamma 26.454980
_cell_volume 767.902504
_symmetry_space_group_name_H-M "P -1"
_symmetry_group_IT_number 2
_symmetry_cell_setting 'triclinic'
loop_
_space_group_symop_operation_xyz
x,y,z
-x,-y,-z
loop_
_atom_site_type_symbol
_atom_site_label
_atom_site_fract_x
_atom_site_fract_y
_atom_site_fract_z
Si Si1 0.015783 0.591544 0.474805
Si Si2 0.537933 0.347930 0.739299
Si Si3 0.966440 0.646365 0.748718
Si Si4 0.049094 0.790086 0.592412
Si Si5 0.601959 0.922098 0.351889
Si Si6 0.415805 0.930376 0.313162
Si Si7 0.817928 0.464813 0.926455
Si Si8 0.470020 0.195336 0.891151
O O1 0.044236 0.624945 0.528240
O O2 0.810570 0.752996 0.404249
O O3 0.974531 0.479440 0.738264
O O4 0.182075 0.530489 0.247846
O O5 0.500000 0.500000 0.500000
O O6 0.776607 0.212903 0.672901
O O7 0.469594 0.309502 0.770423
O O8 0.393291 0.392062 0.981411
O O9 0.062316 0.682681 0.658226
O O10 0.727743 0.773771 0.858891
O O11 0.000000 0.500000 0.000000
O O12 0.105783 0.694821 0.831082
O O13 0.823510 0.950195 0.596403
O O14 0.486204 0.903738 0.426875
O O15 0.500000 0.000000 0.500000
O O16 0.633555 0.025757 0.043905
O O17 0.507583 0.796540 0.319014
O O18 0.500000 0.000000 0.000000
#
# Coordination Sequence:
#
# PCOD9094471 Si02
#       8
#     2   2   2   2   2   2   2   2
#     4  11  21  33  59  89 119 151 198 250 304 347
#     4  10  21  39  58  85 123 164 199 243 302 361
#     4  12  20  35  59  91 115 150 202 251 297 347
#     4  11  20  37  61  85 121 157 201 246 296 352
#     4  11  19  34  58  88 123 154 192 242 303 352
#     4  10  20  34  57  88 118 150 199 252 284 343
#     4  10  20  36  56  87 117 156 199 246 296 354
#     4  11  21  37  58  86 123 152 203 245 296 352
#
# _framework density 20.835978999999998
#
# number of rings (size 3 to 8) (size 9 to 14) (size 15 to 20)
#    0.000    1.250    6.250    2.250    0.000    0.500 
#    0.000    0.625    0.000   11.250    0.000    0.000 
#    0.000    0.000    0.000    0.000    0.000    0.000 
#
# Total GULP energy -89235.276523 kJ/mol
# GULP energy per Si atom -5577.204783 kJ/mol
# Density = 2.078856 g / cm^3
# Si number density = 20.835979 Si / 1000 Ang^3
#
#
#
# Elastic Constant Matrix: (Units=GPa)
#
#
# Indices 1 2 3 4 5 6 
#
# 1 105.6342 32.1459 45.8079 31.5327 16.4308 21.8380
# 2 32.1459 62.8909 19.9282 23.7334 11.2768 16.3461
# 3 45.8079 19.9282 59.3116 25.9935 18.7023 9.3949
# 4 31.5327 23.7334 25.9935 43.4832 7.1403 4.0910
# 5 16.4308 11.2768 18.7023 7.1403 34.9356 8.9801
# 6 21.8380 16.3461 9.3949 4.0910 8.9801 35.5658
#
#
#
# Elastic Compliance Matrix: (Units=1/GPa)
#
#
# Indices 1 2 3 4 5 6 
#
# 1 0.016905 -0.002232 -0.009221 -0.004985 0.000381 -0.006441
# 2 -0.002232 0.023171 0.000404 -0.010126 -0.002634 -0.007556
# 3 -0.009221 0.000404 0.031902 -0.010911 -0.010914 0.001060
# 4 -0.004985 -0.010126 -0.010911 0.037753 0.002278 0.005679
# 5 0.000381 -0.002634 -0.010914 0.002278 0.036090 -0.005515
# 6 -0.006441 -0.007556 0.001060 0.005679 -0.005515 0.036004
#
#
# Mechanical properties :
#
#
# Convention : Reuss Voigt Hill
#
# Bulk Modulus (GPa) = 20.04867 47.06674 33.55771
# Shear Modulus (GPa) = 22.67061 31.46058 27.06559
#
# Velocity S-wave (km/s) = 3.30214 3.88998 3.60805
# Velocity P-wave (km/s) = 4.91751 6.54325 5.78775
#
# Compressibility (1/GPa) = 0.04987862
#
# Stress axis : x y z
#
# Youngs Moduli (GPa) = 59.15374 43.15755 31.34625
#
# Poissons Ratio (x) = 0.09632 0.28906
# Poissons Ratio (y) = 0.13201 -0.01265
# Poissons Ratio (z) = 0.54549 -0.01742
#
# Static dielectric constant tensor:
#      x y z
#    x 1.777140 -0.004670 0.035470 
#    y -0.004670 1.983120 0.004780 
#    z 0.035470 0.004780 1.763900 
# 
# From -- ./inp_files/270294.got.cif
#   From: 2010.05.17/outbox.cif.g08.bks.cpg/sg2_136_cif.got.tgz:270294.got - 2010.06.03 11:33:40.
