data_PCOD9094176
_publ_section_title
;
Structure prediction by ZEFSAII (Michael W. Deem and Ramdas Pophale) SiO2 
 PCOD9094176
Probable space group: P -1
;
_chemical_formula_sum "Si O2"
_cell_formula_units_Z 16
_cell_length_a 15.034128
_cell_length_b 14.484752
_cell_length_c 8.349456
_cell_angle_alpha 94.915276
_cell_angle_beta 100.944558
_cell_angle_gamma 153.220709
_cell_volume 656.995672
_symmetry_space_group_name_H-M "P -1"
_symmetry_group_IT_number 2
_symmetry_cell_setting 'triclinic'
loop_
_space_group_symop_operation_xyz
x,y,z
-x,-y,-z
loop_
_atom_site_type_symbol
_atom_site_label
_atom_site_fract_x
_atom_site_fract_y
_atom_site_fract_z
Si Si1 0.768455 0.272087 0.267528
Si Si2 0.697615 0.820681 0.857300
Si Si3 0.160784 0.301643 0.595944
Si Si4 0.453179 0.070835 0.640173
Si Si5 0.793474 0.719468 0.060982
Si Si6 0.342864 0.149970 0.817065
Si Si7 0.016977 0.421751 0.098464
Si Si8 0.955415 0.625792 0.228643
O O1 0.555888 0.030429 0.269806
O O2 0.768368 0.368952 0.189301
O O3 0.000000 0.500000 0.500000
O O4 0.824242 0.247737 0.148007
O O5 0.428965 0.563828 0.644591
O O6 0.737203 0.760657 0.954921
O O7 0.682959 0.880989 0.004632
O O8 0.936590 0.057869 0.866568
O O9 0.115837 0.350314 0.696893
O O10 0.188122 0.250648 0.736291
O O11 0.922848 0.068914 0.370193
O O12 0.227573 0.855197 0.410400
O O13 0.405493 0.114364 0.743291
O O14 0.717062 0.329088 0.689916
O O15 0.569847 0.436205 0.907918
O O16 0.028459 0.355854 0.954596
O O17 0.000000 0.500000 0.000000
#
# Coordination Sequence:
#
# PCOD9094176 Si02
#       8
#     2   2   2   2   2   2   2   2
#     4   9  20  37  55  79 110 146 188 228 271 327
#     4  10  22  39  60  84 115 151 189 231 285 348
#     4  10  20  38  60  85 115 151 191 236 284 339
#     4  10  21  38  56  79 114 148 184 237 282 327
#     4  10  22  39  58  86 118 149 186 235 286 343
#     4  10  21  37  60  86 117 151 189 236 289 336
#     4  10  20  34  55  78 104 144 188 230 279 331
#     4   9  20  37  55  81 112 145 190 234 279 331
#
# _framework density 24.353280000000002
#
# number of rings (size 3 to 8) (size 9 to 14) (size 15 to 20)
#    0.000    2.250    0.000    3.000    0.000   11.500 
#    0.000   13.750    0.000    0.000    0.000    0.000 
#    0.000    0.000    0.000    0.000    0.000    0.000 
#
# Total GULP energy -89437.938867 kJ/mol
# GULP energy per Si atom -5589.871179 kJ/mol
# Density = 2.429785 g / cm^3
# Si number density = 24.353280 Si / 1000 Ang^3
#
#
#
# Elastic Constant Matrix: (Units=GPa)
#
#
# Indices 1 2 3 4 5 6 
#
# 1 63.0427 10.5069 5.6694 11.0619 0.3709 4.0753
# 2 10.5069 87.2529 33.8085 18.2763 5.9817 19.5462
# 3 5.6694 33.8085 121.6268 35.8763 18.2299 11.6682
# 4 11.0619 18.2763 35.8763 31.7067 13.3556 8.0695
# 5 0.3709 5.9817 18.2299 13.3556 36.1503 7.7602
# 6 4.0753 19.5462 11.6682 8.0695 7.7602 36.4564
#
#
#
# Elastic Compliance Matrix: (Units=1/GPa)
#
#
# Indices 1 2 3 4 5 6 
#
# 1 0.017329 -0.001033 0.001562 -0.008036 0.002302 -0.000594
# 2 -0.001033 0.014781 -0.002352 -0.004640 0.001844 -0.006422
# 3 0.001562 -0.002352 0.012897 -0.013296 -0.001254 0.000169
# 4 -0.008036 -0.004640 -0.013296 0.058355 -0.013488 -0.002404
# 5 0.002302 0.001844 -0.001254 -0.013488 0.034045 -0.005106
# 6 -0.000594 -0.006422 0.000169 -0.002404 -0.005106 0.032504
#
#
# Mechanical properties :
#
#
# Convention : Reuss Voigt Hill
#
# Bulk Modulus (GPa) = 24.17837 41.32134 32.74985
# Shear Modulus (GPa) = 26.68870 35.65852 31.17361
#
# Velocity S-wave (km/s) = 3.31403 3.83066 3.58167
# Velocity P-wave (km/s) = 4.95918 6.04728 5.53005
#
# Compressibility (1/GPa) = 0.04135929
#
# Stress axis : x y z
#
# Youngs Moduli (GPa) = 57.70708 67.65469 77.53919
#
# Poissons Ratio (x) = 0.06991 -0.12110
# Poissons Ratio (y) = 0.05963 0.18237
# Poissons Ratio (z) = -0.09012 0.15912
#
# Static dielectric constant tensor:
#      x y z
#    x 1.991470 -0.024910 0.011730 
#    y -0.024910 1.915580 0.024530 
#    z 0.011730 0.024530 1.950100 
# 
# From -- ./inp_files/315474.got.cif
#   From: 2010.05.17/outbox.cif.g08.bks.cpg/sg2_158_cif.got.tgz:315474.got - 2010.06.03 11:33:40.
