data_PCOD9094150
_publ_section_title
;
Structure prediction by ZEFSAII (Michael W. Deem and Ramdas Pophale) SiO2 
 PCOD9094150
Probable space group: P -1
;
_chemical_formula_sum "Si O2"
_cell_formula_units_Z 16
_cell_length_a 15.063455
_cell_length_b 23.355899
_cell_length_c 21.004146
_cell_angle_alpha 160.739935
_cell_angle_beta 31.179394
_cell_angle_gamma 158.625339
_cell_volume 871.189081
_symmetry_space_group_name_H-M "P -1"
_symmetry_group_IT_number 2
_symmetry_cell_setting 'triclinic'
loop_
_space_group_symop_operation_xyz
x,y,z
-x,-y,-z
loop_
_atom_site_type_symbol
_atom_site_label
_atom_site_fract_x
_atom_site_fract_y
_atom_site_fract_z
Si Si1 0.303499 0.592277 0.352975
Si Si2 0.090544 0.136214 0.289031
Si Si3 0.624244 0.301239 0.307730
Si Si4 0.131033 0.849073 0.060444
Si Si5 0.196886 0.622519 0.583384
Si Si6 0.091087 0.952036 0.834287
Si Si7 0.559123 0.865428 0.356619
Si Si8 0.571550 0.427089 0.992516
O O1 0.344269 0.714527 0.523768
O O2 0.420164 0.768555 0.405984
O O3 0.439426 0.507865 0.178856
O O4 0.006298 0.373961 0.294068
O O5 0.296409 0.440132 0.480851
O O6 0.137643 0.994347 0.150638
O O7 0.010642 0.051131 0.174846
O O8 0.849719 0.045689 0.374839
O O9 0.645732 0.268937 0.335222
O O10 0.355086 0.066509 0.197657
O O11 0.812351 0.302513 0.159922
O O12 0.867440 0.654500 0.054514
O O13 0.028741 0.324784 0.376147
O O14 0.390670 0.163237 0.864762
O O15 0.000000 0.000000 0.000000
O O16 0.500000 0.000000 0.500000
O O17 0.464361 0.645960 0.136679
#
# Coordination Sequence:
#
# PCOD9094150 Si02
#       8
#     2   2   2   2   2   2   2   2
#     4  11  20  33  56  84 115 146 182 236 293 351
#     4  10  21  35  59  83 112 150 193 239 291 342
#     4  10  23  40  58  83 114 153 203 239 284 346
#     4  11  22  39  61  81 113 157 197 246 285 341
#     4  10  22  36  55  83 116 152 188 233 294 350
#     4  10  20  34  54  84 119 147 179 237 293 348
#     4  11  21  34  55  89 118 142 183 246 294 341
#     4  11  21  33  57  86 111 144 192 229 292 344
#
# _framework density 18.365704000000001
#
# number of rings (size 3 to 8) (size 9 to 14) (size 15 to 20)
#    0.000    1.500    2.500    4.500    5.250    0.000 
#    0.000    0.625    0.000    0.000    0.000   11.375 
#    0.000    0.000    0.000    0.000    0.000    0.000 
#
# Total GULP energy -89238.676486 kJ/mol
# GULP energy per Si atom -5577.417280 kJ/mol
# Density = 1.832390 g / cm^3
# Si number density = 18.365704 Si / 1000 Ang^3
#
#
#
# Elastic Constant Matrix: (Units=GPa)
#
#
# Indices 1 2 3 4 5 6 
#
# 1 74.3356 43.3296 15.4342 -10.8648 17.2474 -6.5498
# 2 43.3296 112.7821 41.2903 -16.0914 16.5732 -11.5366
# 3 15.4342 41.2903 69.4357 -12.8056 7.3622 1.0224
# 4 -10.8648 -16.0914 -12.8056 23.0976 -0.1469 5.5325
# 5 17.2474 16.5732 7.3622 -0.1469 26.1948 -8.3363
# 6 -6.5498 -11.5366 1.0224 5.5325 -8.3363 30.0825
#
#
#
# Elastic Compliance Matrix: (Units=1/GPa)
#
#
# Indices 1 2 3 4 5 6 
#
# 1 0.019726 -0.005882 0.001409 0.006383 -0.010273 -0.002029
# 2 -0.005882 0.014697 -0.006676 0.002951 -0.002465 0.003357
# 3 0.001409 -0.006676 0.020147 0.008507 -0.004114 -0.005643
# 4 0.006383 0.002951 0.008507 0.055693 -0.011733 -0.011261
# 5 -0.010273 -0.002465 -0.004114 -0.011733 0.051884 0.013493
# 6 -0.002029 0.003357 -0.005643 -0.011261 0.013493 0.040089
#
#
# Mechanical properties :
#
#
# Convention : Reuss Voigt Hill
#
# Bulk Modulus (GPa) = 30.98585 50.74018 40.86301
# Shear Modulus (GPa) = 21.25032 26.30825 23.77928
#
# Velocity S-wave (km/s) = 3.40526 3.78890 3.60219
# Velocity P-wave (km/s) = 5.68940 6.84315 6.29277
#
# Compressibility (1/GPa) = 0.03227280
#
# Stress axis : x y z
#
# Youngs Moduli (GPa) = 50.69448 68.04024 49.63572
#
# Poissons Ratio (x) = 0.40019 -0.06995
# Poissons Ratio (y) = 0.29817 0.33137
# Poissons Ratio (z) = -0.07144 0.45425
#
# Static dielectric constant tensor:
#      x y z
#    x 1.654650 -0.015230 -0.044760 
#    y -0.015230 1.638020 0.021700 
#    z -0.044760 0.021700 1.698430 
# 
# From -- ./inp_files/347330.got.cif
#   From: 2010.05.17/outbox.cif.g08.bks.cpg/sg2_174_cif.got.tgz:347330.got - 2010.06.03 11:33:40.
