data_PCOD9094875
_publ_section_title
;
Structure prediction by ZEFSAII (Michael W. Deem and Ramdas Pophale) SiO2 
 PCOD9094875
Probable space group: P -1
;
_chemical_formula_sum "Si O2"
_cell_formula_units_Z 15
_cell_length_a 12.257079
_cell_length_b 11.398209
_cell_length_c 9.815977
_cell_angle_alpha 74.153310
_cell_angle_beta 54.367457
_cell_angle_gamma 33.740796
_cell_volume 547.031454
_symmetry_space_group_name_H-M "P -1"
_symmetry_group_IT_number 2
_symmetry_cell_setting 'triclinic'
loop_
_space_group_symop_operation_xyz
x,y,z
-x,-y,-z
loop_
_atom_site_type_symbol
_atom_site_label
_atom_site_fract_x
_atom_site_fract_y
_atom_site_fract_z
Si Si1 0.107712 0.633757 0.153778
Si Si2 0.478200 0.542065 0.823646
Si Si3 0.000000 0.000000 0.500000
Si Si4 0.156208 0.755404 0.714815
Si Si5 0.771578 0.567773 0.291581
Si Si6 0.666490 0.074968 0.122303
Si Si7 0.717976 0.775684 0.513269
Si Si8 0.333490 0.223563 0.957574
O O1 0.954586 0.687426 0.372658
O O2 0.308854 0.588185 0.036184
O O3 0.260448 0.405202 0.035669
O O4 0.873269 0.866743 0.152548
O O5 0.758074 0.266572 0.669085
O O6 0.291937 0.677356 0.781594
O O7 0.536689 0.303753 0.183342
O O8 0.845470 0.136749 0.425500
O O9 0.279368 0.534883 0.637302
O O10 0.847568 0.963239 0.897034
O O11 0.799158 0.599099 0.413022
O O12 0.586950 0.784210 0.247909
O O13 0.063407 0.361247 0.084639
O O14 0.433431 0.157529 0.267310
O O15 0.500000 0.000000 0.500000
O O16 0.500000 0.000000 0.000000
#
# Coordination Sequence:
#
# PCOD9094875 Si02
#       8
#     2   2   1   2   2   2   2   2
#     4   9  18  38  63  95 132 172 223 275 332 411
#     4  11  23  44  69  96 139 181 226 287 350 411
#     4  12  28  40  66 104 128 178 238 286 342 406
#     4  11  23  43  70  95 137 180 234 285 345 412
#     4  10  20  37  63  94 130 178 222 274 342 395
#     4  10  20  41  70  96 135 189 223 280 352 411
#     4   9  19  35  63  96 131 171 226 269 334 411
#     4  10  20  34  62  98 129 170 222 273 331 398
#
# _framework density 27.420725000000001
#
# number of rings (size 3 to 8) (size 9 to 14) (size 15 to 20)
#    0.000    1.867    2.667    2.800    3.733    0.533 
#    0.000    0.000    0.000   17.600    0.000    0.000 
#    0.000    0.000    0.000    0.000    0.000    0.000 
#
# Total GULP energy -83667.138856 kJ/mol
# GULP energy per Si atom -5577.809257 kJ/mol
# Density = 2.735831 g / cm^3
# Si number density = 27.420725 Si / 1000 Ang^3
#
#
#
# Elastic Constant Matrix: (Units=GPa)
#
#
# Indices 1 2 3 4 5 6 
#
# 1 73.6493 37.6767 35.5790 -5.9827 -25.5961 16.5044
# 2 37.6767 212.6761 34.9689 -7.2103 -5.6927 -7.4370
# 3 35.5790 34.9689 122.1405 18.4183 -14.1028 4.3409
# 4 -5.9827 -7.2103 18.4183 35.5647 -2.8205 9.4467
# 5 -25.5961 -5.6927 -14.1028 -2.8205 39.2306 -1.2027
# 6 16.5044 -7.4370 4.3409 9.4467 -1.2027 36.4652
#
#
#
# Elastic Compliance Matrix: (Units=1/GPa)
#
#
# Indices 1 2 3 4 5 6 
#
# 1 0.029307 -0.003705 -0.007016 0.013403 0.016531 -0.016112
# 2 -0.003705 0.005545 -0.000824 0.000029 -0.001820 0.002838
# 3 -0.007016 -0.000824 0.011474 -0.008376 -0.001059 0.003777
# 4 0.013403 0.000029 -0.008376 0.039340 0.008107 -0.014987
# 5 0.016531 -0.001820 -0.001059 0.008107 0.035949 -0.008642
# 6 -0.016112 0.002838 0.003777 -0.014987 -0.008642 0.038443
#
#
# Mechanical properties :
#
#
# Convention : Reuss Voigt Hill
#
# Bulk Modulus (GPa) = 43.03573 69.43500 56.23536
# Shear Modulus (GPa) = 26.19260 42.26819 34.23040
#
# Velocity S-wave (km/s) = 3.09400 3.93041 3.53702
# Velocity P-wave (km/s) = 5.33783 6.78046 6.10193
#
# Compressibility (1/GPa) = 0.02323651
#
# Stress axis : x y z
#
# Youngs Moduli (GPa) = 34.12123 180.33231 87.15701
#
# Poissons Ratio (x) = 0.66810 0.61151
# Poissons Ratio (y) = 0.12641 0.07180
# Poissons Ratio (z) = 0.23940 0.14856
#
# Static dielectric constant tensor:
#      x y z
#    x 1.479460 0.349160 -0.383690 
#    y 0.349160 2.013700 0.213660 
#    z -0.383690 0.213660 1.996100 
# 
# From -- ./inp_files/472207.got.cif
#   From: 2010.05.17/outbox.cif.g08.bks.cpg/sg2_237_cif.got.tgz:472207.got - 2010.06.03 11:33:40.
