data_PCOD9094196
_publ_section_title
;
Structure prediction by ZEFSAII (Michael W. Deem and Ramdas Pophale) SiO2 
 PCOD9094196
Probable space group: P -1
;
_chemical_formula_sum "Si O2"
_cell_formula_units_Z 16
_cell_length_a 14.511536
_cell_length_b 14.511389
_cell_length_c 9.158352
_cell_angle_alpha 130.222364
_cell_angle_beta 32.583561
_cell_angle_gamma 129.792140
_cell_volume 771.155010
_symmetry_space_group_name_H-M "P -1"
_symmetry_group_IT_number 2
_symmetry_cell_setting 'triclinic'
loop_
_space_group_symop_operation_xyz
x,y,z
-x,-y,-z
loop_
_atom_site_type_symbol
_atom_site_label
_atom_site_fract_x
_atom_site_fract_y
_atom_site_fract_z
Si Si1 0.843875 0.074627 0.283822
Si Si2 0.049608 0.227264 0.395999
Si Si3 0.015836 0.274765 0.805425
Si Si4 0.338370 0.689803 0.604662
Si Si5 0.846089 0.023093 0.903993
Si Si6 0.484144 0.958251 0.810664
Si Si7 0.606351 0.554326 0.555019
Si Si8 0.452281 0.361846 0.985494
O O1 0.800315 0.079777 0.177224
O O2 0.926421 0.199703 0.391306
O O3 0.671041 0.004812 0.529485
O O4 0.000000 0.000000 0.000000
O O5 0.974518 0.281208 0.693973
O O6 0.244594 0.306287 0.182540
O O7 0.080125 0.095454 0.277573
O O8 0.211589 0.354297 0.642720
O O9 0.869727 0.322844 0.139027
O O10 0.987184 0.132036 0.747741
O O11 0.418947 0.810245 0.719436
O O12 0.362274 0.564757 0.520960
O O13 0.435710 0.708651 0.337626
O O14 0.669672 0.989685 0.009267
O O15 0.500000 0.000000 0.000000
O O16 0.500000 0.500000 0.500000
O O17 0.518967 0.628926 0.869007
O O18 0.500000 0.500000 0.000000
#
# Coordination Sequence:
#
# PCOD9094196 Si02
#       8
#     2   2   2   2   2   2   2   2
#     4  10  20  34  55  82 112 148 190 238 287 339
#     4  10  20  37  58  83 113 153 196 239 291 345
#     4  10  21  37  57  82 114 152 191 236 288 345
#     4  10  20  39  59  80 113 153 191 236 287 343
#     4  10  21  35  56  84 118 153 193 242 289 344
#     4  11  23  38  58  87 119 157 195 236 292 348
#     4  10  22  38  60  87 112 147 195 241 287 342
#     4   9  20  38  60  81 111 151 190 232 287 344
#
# _framework density 20.748097999999999
#
# number of rings (size 3 to 8) (size 9 to 14) (size 15 to 20)
#    0.000    2.000    0.000    4.125    0.000    8.000 
#    0.000    3.125    0.000    0.000    0.000    0.000 
#    0.000    0.000    0.000    0.000    0.000    0.000 
#
# Total GULP energy -89310.387102 kJ/mol
# GULP energy per Si atom -5581.899194 kJ/mol
# Density = 2.070087 g / cm^3
# Si number density = 20.748098 Si / 1000 Ang^3
#
#
#
# Elastic Constant Matrix: (Units=GPa)
#
#
# Indices 1 2 3 4 5 6 
#
# 1 118.1491 18.9444 46.6594 -14.4481 26.8503 28.7598
# 2 18.9444 64.6832 35.3020 -21.5869 13.1841 15.0226
# 3 46.6594 35.3020 131.2407 -30.8292 27.0872 14.4554
# 4 -14.4481 -21.5869 -30.8292 37.2990 -7.2419 -4.9055
# 5 26.8503 13.1841 27.0872 -7.2419 26.4574 7.7258
# 6 28.7598 15.0226 14.4554 -4.9055 7.7258 32.4345
#
#
#
# Elastic Compliance Matrix: (Units=1/GPa)
#
#
# Indices 1 2 3 4 5 6 
#
# 1 0.013616 0.001742 -0.001926 0.001594 -0.009498 -0.009518
# 2 0.001742 0.022452 -0.002375 0.009563 -0.005535 -0.008120
# 3 -0.001926 -0.002375 0.011938 0.006335 -0.007411 0.000211
# 4 0.001594 0.009563 0.006335 0.037502 -0.001859 -0.002552
# 5 -0.009498 -0.005535 -0.007411 -0.001859 0.057158 0.000393
# 6 -0.009518 -0.008120 0.000211 -0.002552 0.000393 0.042458
#
#
# Mechanical properties :
#
#
# Convention : Reuss Voigt Hill
#
# Bulk Modulus (GPa) = 23.31740 57.32051 40.31896
# Shear Modulus (GPa) = 24.44535 33.44933 28.94734
#
# Velocity S-wave (km/s) = 3.43621 4.01953 3.73926
# Velocity P-wave (km/s) = 5.19674 7.01634 6.17394
#
# Compressibility (1/GPa) = 0.04288643
#
# Stress axis : x y z
#
# Youngs Moduli (GPa) = 73.44563 44.54010 83.76732
#
# Poissons Ratio (x) = -0.07759 0.16134
# Poissons Ratio (y) = -0.12795 0.19898
# Poissons Ratio (z) = 0.14146 0.10580
#
# Static dielectric constant tensor:
#      x y z
#    x 1.765850 0.020580 -0.010070 
#    y 0.020580 1.766160 -0.009510 
#    z -0.010070 -0.009510 1.924220 
# 
# From -- ./inp_files/178071.got.cif
#   From: 2010.05.17/outbox.cif.g08.bks.cpg/sg2_90_cif.got.tgz:178071.got - 2010.06.03 11:33:40.
