data_PCOD9094136
_publ_section_title
;
Structure prediction by ZEFSAII (Michael W. Deem and Ramdas Pophale) SiO2 
 PCOD9094136
Probable space group: P -1
;
_chemical_formula_sum "Si O2"
_cell_formula_units_Z 16
_cell_length_a 5.078673
_cell_length_b 27.600350
_cell_length_c 5.918625
_cell_angle_alpha 113.113031
_cell_angle_beta 90.733260
_cell_angle_gamma 52.700642
_cell_volume 577.546189
_symmetry_space_group_name_H-M "P -1"
_symmetry_group_IT_number 2
_symmetry_cell_setting 'triclinic'
loop_
_space_group_symop_operation_xyz
x,y,z
-x,-y,-z
loop_
_atom_site_type_symbol
_atom_site_label
_atom_site_fract_x
_atom_site_fract_y
_atom_site_fract_z
Si Si1 0.877151 0.385656 0.175324
Si Si2 0.510896 0.361313 0.752596
Si Si3 0.230075 0.014108 0.335082
Si Si4 0.667960 0.138445 0.795287
Si Si5 0.207989 0.107122 0.124054
Si Si6 0.126564 0.263554 0.249414
Si Si7 0.248340 0.484281 0.674693
Si Si8 0.645070 0.229874 0.582087
O O1 0.630980 0.435497 0.476867
O O2 0.890179 0.439049 0.134375
O O3 0.142251 0.313242 0.179584
O O4 0.700420 0.369746 0.964808
O O5 0.257843 0.436907 0.772227
O O6 0.475804 0.308611 0.770508
O O7 0.747928 0.313329 0.448858
O O8 0.223208 0.060115 0.228498
O O9 0.840980 0.066394 0.532331
O O10 0.500000 0.000000 0.500000
O O11 0.410358 0.941010 0.075585
O O12 0.671573 0.186151 0.705703
O O13 0.272393 0.194125 0.985625
O O14 0.939650 0.120606 0.958334
O O15 0.031359 0.179446 0.381468
O O16 0.389003 0.239069 0.411148
O O17 0.000000 0.500000 0.500000
#
# Coordination Sequence:
#
# PCOD9094136 Si02
#       8
#     2   2   2   2   2   2   2   2
#     4  10  22  38  57  83 110 141 184 228 277 334
#     4  11  23  37  58  84 113 147 183 228 280 333
#     4   8  13  25  47  78 110 145 187 231 275 321
#     4   9  17  30  52  79 110 147 189 231 275 327
#     4   8  15  27  47  78 112 144 187 232 273 327
#     4  10  21  37  55  80 113 147 186 233 277 331
#     4  10  22  40  60  82 109 142 181 229 278 330
#     4  10  20  34  54  82 112 149 189 229 280 333
#
# _framework density 27.703413999999999
#
# number of rings (size 3 to 8) (size 9 to 14) (size 15 to 20)
#    0.000    2.500    0.000    1.875    0.000    6.500 
#    0.000    0.000    0.000    0.750    0.000   86.625 
#    0.000    0.000    0.000    0.000    0.000    0.250 
#
# Total GULP energy -89466.280077 kJ/mol
# GULP energy per Si atom -5591.642505 kJ/mol
# Density = 2.764036 g / cm^3
# Si number density = 27.703414 Si / 1000 Ang^3
#
#
#
# Elastic Constant Matrix: (Units=GPa)
#
#
# Indices 1 2 3 4 5 6 
#
# 1 36.9614 11.6386 -4.9628 -14.5299 16.7495 9.5266
# 2 11.6386 226.3172 63.3497 -0.0344 8.5586 4.8212
# 3 -4.9628 63.3497 95.6813 18.6157 -6.2111 -4.0011
# 4 -14.5299 -0.0344 18.6157 104.7821 0.8147 -2.1602
# 5 16.7495 8.5586 -6.2111 0.8147 49.9187 3.2499
# 6 9.5266 4.8212 -4.0011 -2.1602 3.2499 33.4604
#
#
#
# Elastic Compliance Matrix: (Units=1/GPa)
#
#
# Indices 1 2 3 4 5 6 
#
# 1 0.037093 -0.001521 0.000858 0.004899 -0.011586 -0.008798
# 2 -0.001521 0.005674 -0.004023 0.000498 -0.000923 -0.000744
# 3 0.000858 -0.004023 0.013812 -0.002318 0.002052 0.001638
# 4 0.004899 0.000498 -0.002318 0.010634 -0.002136 -0.000850
# 5 -0.011586 -0.000923 0.002052 -0.002136 0.024291 0.001180
# 6 -0.008798 -0.000744 0.001638 -0.000850 0.001180 0.032524
#
#
# Mechanical properties :
#
#
# Convention : Reuss Voigt Hill
#
# Bulk Modulus (GPa) = 21.18366 55.44567 38.31467
# Shear Modulus (GPa) = 33.52596 56.89454 45.21025
#
# Velocity S-wave (km/s) = 3.48253 4.53669 4.04411
# Velocity P-wave (km/s) = 4.88199 6.89200 5.97216
#
# Compressibility (1/GPa) = 0.04720620
#
# Stress axis : x y z
#
# Youngs Moduli (GPa) = 26.95909 176.24862 72.39873
#
# Poissons Ratio (x) = 0.26816 -0.06213
# Poissons Ratio (y) = 0.04102 0.29128
# Poissons Ratio (z) = -0.02313 0.70910
#
# Static dielectric constant tensor:
#      x y z
#    x 2.298000 0.115850 -0.226610 
#    y 0.115850 2.247320 0.056840 
#    z -0.226610 0.056840 2.235890 
# 
# From -- ./inp_files/10608.got.cif
#   From: 2010.05.17/outbox.cif.g08.bks.cpg/sg2_6_cif.got.tgz:10608.got - 2010.06.03 11:33:40.
