data_PCOD9094035
_publ_section_title
;
Structure prediction by ZEFSAII (Michael W. Deem and Ramdas Pophale) SiO2 
 PCOD9094035
Probable space group: P -1
;
_chemical_formula_sum "Si O2"
_cell_formula_units_Z 16
_cell_length_a 12.945297
_cell_length_b 6.302740
_cell_length_c 12.050667
_cell_angle_alpha 69.489494
_cell_angle_beta 99.186499
_cell_angle_gamma 123.634758
_cell_volume 765.976623
_symmetry_space_group_name_H-M "P -1"
_symmetry_group_IT_number 2
_symmetry_cell_setting 'triclinic'
loop_
_space_group_symop_operation_xyz
x,y,z
-x,-y,-z
loop_
_atom_site_type_symbol
_atom_site_label
_atom_site_fract_x
_atom_site_fract_y
_atom_site_fract_z
Si Si1 0.278012 0.000958 0.707067
Si Si2 0.155236 0.283281 0.542057
Si Si3 0.518005 0.548385 0.627916
Si Si4 0.318825 0.872606 0.496461
Si Si5 0.099451 0.960463 0.375734
Si Si6 0.284236 0.306315 0.185787
Si Si7 0.673371 0.226796 0.056066
Si Si8 0.435237 0.190046 0.078455
O O1 0.175899 0.063709 0.642081
O O2 0.395031 0.298301 0.706237
O O3 0.319167 0.910494 0.621680
O O4 0.238887 0.784566 0.836254
O O5 0.281037 0.575163 0.514297
O O6 0.119596 0.184308 0.428246
O O7 0.042792 0.273282 0.588895
O O8 0.500000 0.500000 0.500000
O O9 0.629947 0.553972 0.714527
O O10 0.561651 0.862807 0.584104
O O11 0.199261 0.881788 0.434450
O O12 0.144783 0.102825 0.239396
O O13 0.344395 0.152636 0.168550
O O14 0.290595 0.515098 0.059200
O O15 0.549426 0.150005 0.119050
O O16 0.638983 0.996071 0.003417
O O17 0.500000 0.500000 0.000000
#
# Coordination Sequence:
#
# PCOD9094035 Si02
#       8
#     2   2   2   2   2   2   2   2
#     4  10  20  34  52  81 115 144 179 220 269 333
#     4  10  20  36  59  80 108 148 182 225 278 322
#     4   9  18  33  51  80 114 136 171 224 271 323
#     4   9  19  34  56  79 104 143 183 225 280 326
#     4   9  20  38  56  82 110 136 187 238 268 318
#     4  10  20  35  56  81 108 143 184 224 269 322
#     4  10  20  35  53  76 111 146 179 220 270 326
#     4   9  18  32  52  75 102 143 183 217 261 316
#
# _framework density 20.888366999999999
#
# number of rings (size 3 to 8) (size 9 to 14) (size 15 to 20)
#    0.000    2.500    0.000    3.375    0.000    5.500 
#    0.000    6.875    0.000    3.750    0.000    0.000 
#    0.000    0.000    0.000    0.000    0.000    0.000 
#
# Total GULP energy -89140.708914 kJ/mol
# GULP energy per Si atom -5571.294307 kJ/mol
# Density = 2.084082 g / cm^3
# Si number density = 20.888367 Si / 1000 Ang^3
#
#
#
# Elastic Constant Matrix: (Units=GPa)
#
#
# Indices 1 2 3 4 5 6 
#
# 1 58.6486 9.7791 26.3020 2.1685 -23.4083 -0.1891
# 2 9.7791 76.4980 26.9111 -6.9771 -7.1318 -4.6967
# 3 26.3020 26.9111 112.0220 -21.3069 1.7283 -8.9965
# 4 2.1685 -6.9771 -21.3069 16.1869 1.2260 -3.2941
# 5 -23.4083 -7.1318 1.7283 1.2260 28.8903 -1.7534
# 6 -0.1891 -4.6967 -8.9965 -3.2941 -1.7534 25.2586
#
#
#
# Elastic Compliance Matrix: (Units=1/GPa)
#
#
# Indices 1 2 3 4 5 6 
#
# 1 0.038244 0.000629 -0.015799 -0.029524 0.032928 -0.006788
# 2 0.000629 0.014864 -0.003176 0.002263 0.004409 0.002238
# 3 -0.015799 -0.003176 0.020167 0.030373 -0.015513 0.009358
# 4 -0.029524 0.002263 0.030373 0.113709 -0.028557 0.023865
# 5 0.032928 0.004409 -0.015513 -0.028557 0.064296 -0.003720
# 6 -0.006788 0.002238 0.009358 0.023865 -0.003720 0.046143
#
#
# Mechanical properties :
#
#
# Convention : Reuss Voigt Hill
#
# Bulk Modulus (GPa) = 27.33545 41.46145 34.39845
# Shear Modulus (GPa) = 14.43790 26.34560 20.39175
#
# Velocity S-wave (km/s) = 2.63191 3.55527 3.12785
# Velocity P-wave (km/s) = 4.72766 6.06180 5.43582
#
# Compressibility (1/GPa) = 0.03658254
#
# Stress axis : x y z
#
# Youngs Moduli (GPa) = 26.14820 67.27624 49.58475
#
# Poissons Ratio (x) = -0.04235 0.78341
# Poissons Ratio (y) = -0.01646 0.15750
# Poissons Ratio (z) = 0.41312 0.21370
#
# Static dielectric constant tensor:
#      x y z
#    x 1.814200 0.000240 0.019410 
#    y 0.000240 1.777640 -0.012400 
#    z 0.019410 -0.012400 1.778920 
# 
# From -- ./inp_files/70468.got.cif
#   From: 2010.05.17/outbox.cif.g08.bks.cpg/sg2_36_cif.got.tgz:70468.got - 2010.06.03 11:33:40.
