data_PCOD9094320
_publ_section_title
;
Structure prediction by ZEFSAII (Michael W. Deem and Ramdas Pophale) SiO2 
 PCOD9094320
Probable space group: P -1
;
_chemical_formula_sum "Si O2"
_cell_formula_units_Z 12
_cell_length_a 11.862516
_cell_length_b 5.909026
_cell_length_c 11.389169
_cell_angle_alpha 91.202979
_cell_angle_beta 142.537819
_cell_angle_gamma 102.878594
_cell_volume 446.214982
_symmetry_space_group_name_H-M "P -1"
_symmetry_group_IT_number 2
_symmetry_cell_setting 'triclinic'
loop_
_space_group_symop_operation_xyz
x,y,z
-x,-y,-z
loop_
_atom_site_type_symbol
_atom_site_label
_atom_site_fract_x
_atom_site_fract_y
_atom_site_fract_z
Si Si1 0.025067 0.070559 0.383506
Si Si2 0.689253 0.437435 0.359876
Si Si3 0.956132 0.605820 0.198934
Si Si4 0.668948 0.250822 0.095157
Si Si5 0.366195 0.176589 0.266846
Si Si6 0.751867 0.376873 0.763013
O O1 0.246780 0.279813 0.546505
O O2 0.861856 0.186717 0.241756
O O3 0.968866 0.878392 0.229806
O O4 0.000000 0.000000 0.500000
O O5 0.873599 0.368878 0.557211
O O6 0.687146 0.435781 0.218480
O O7 0.488889 0.242739 0.247008
O O8 0.059758 0.549714 0.170806
O O9 0.722332 0.423155 0.026405
O O10 0.500000 0.000000 0.000000
O O11 0.545692 0.271492 0.513322
O O12 0.252862 0.365196 0.187942
O O13 0.259818 0.880548 0.188637
#
# Coordination Sequence:
#
# PCOD9094320 Si02
#       6
#     2   2   2   2   2   2
#     4  11  19  35  59  81 113 150 193 232 290 353
#     4  10  20  34  56  84 113 149 187 238 289 343
#     4  10  20  35  57  83 111 151 188 235 290 344
#     4  11  23  37  54  85 117 146 191 242 293 345
#     4   9  19  31  52  84 118 145 189 241 290 338
#     4   9  19  31  52  85 116 146 189 242 288 340
#
# _framework density 26.892866999999999
#
# number of rings (size 3 to 8) (size 9 to 14) (size 15 to 20)
#    0.000    2.000    3.333    1.000   14.000    0.667 
#    0.000    0.000    0.000    2.000    0.000    0.000 
#    0.000    0.000    0.000    0.000    0.000    0.000 
#
# Total GULP energy -66943.290299 kJ/mol
# GULP energy per Si atom -5578.607525 kJ/mol
# Density = 2.683166 g / cm^3
# Si number density = 26.892867 Si / 1000 Ang^3
#
#
#
# Elastic Constant Matrix: (Units=GPa)
#
#
# Indices 1 2 3 4 5 6 
#
# 1 166.6497 66.0497 35.1290 38.1489 15.9106 -3.6643
# 2 66.0497 145.5688 52.1515 32.3924 13.2067 0.8609
# 3 35.1290 52.1515 89.1532 30.3139 25.0586 -0.5297
# 4 38.1489 32.3924 30.3139 60.8005 7.8886 3.8549
# 5 15.9106 13.2067 25.0586 7.8886 47.9437 12.8738
# 6 -3.6643 0.8609 -0.5297 3.8549 12.8738 46.2433
#
#
#
# Elastic Compliance Matrix: (Units=1/GPa)
#
#
# Indices 1 2 3 4 5 6 
#
# 1 0.008085 -0.002786 0.000165 -0.003529 -0.001823 0.001496
# 2 -0.002786 0.009988 -0.004538 -0.001394 0.000936 -0.000603
# 3 0.000165 -0.004538 0.018095 -0.005848 -0.008120 0.003053
# 4 -0.003529 -0.001394 -0.005848 0.022273 0.001656 -0.002638
# 5 -0.001823 0.000936 -0.008120 0.001656 0.027325 -0.008000
# 6 0.001496 -0.000603 0.003053 -0.002638 -0.008000 0.024237
#
#
# Mechanical properties :
#
#
# Convention : Reuss Voigt Hill
#
# Bulk Modulus (GPa) = 45.76360 78.67025 62.21693
# Shear Modulus (GPa) = 37.99351 47.53361 42.76356
#
# Velocity S-wave (km/s) = 3.76276 4.20875 3.99199
# Velocity P-wave (km/s) = 5.99431 7.27563 6.66583
#
# Compressibility (1/GPa) = 0.02185143
#
# Stress axis : x y z
#
# Youngs Moduli (GPa) = 123.69066 100.11908 55.26453
#
# Poissons Ratio (x) = 0.27889 -0.00913
# Poissons Ratio (y) = 0.34455 0.25077
# Poissons Ratio (z) = -0.02043 0.45431
#
# Static dielectric constant tensor:
#      x y z
#    x 1.771060 -0.102180 -0.032430 
#    y -0.102180 2.511430 0.168830 
#    z -0.032430 0.168830 2.261460 
# 
# From -- ./inp_files/18766.got.cif
#   From: 2010.05.17/outbox.cif.g08.bks.cpg/sg2_10_cif.got.tgz:18766.got - 2010.06.03 11:33:40.
