data_PCOD9094069
_publ_section_title
;
Structure prediction by ZEFSAII (Michael W. Deem and Ramdas Pophale) SiO2 
 PCOD9094069
Probable space group: P -1
;
_chemical_formula_sum "Si O2"
_cell_formula_units_Z 12
_cell_length_a 25.123963
_cell_length_b 5.186423
_cell_length_c 14.456383
_cell_angle_alpha 125.150806
_cell_angle_beta 22.472671
_cell_angle_gamma 113.577260
_cell_volume 533.622656
_symmetry_space_group_name_H-M "P -1"
_symmetry_group_IT_number 2
_symmetry_cell_setting 'triclinic'
loop_
_space_group_symop_operation_xyz
x,y,z
-x,-y,-z
loop_
_atom_site_type_symbol
_atom_site_label
_atom_site_fract_x
_atom_site_fract_y
_atom_site_fract_z
Si Si1 0.819570 0.167463 0.346172
Si Si2 0.250008 0.970949 0.843947
Si Si3 0.845499 0.489145 0.205661
Si Si4 0.389398 0.411151 0.089786
Si Si5 0.320119 0.624037 0.843725
Si Si6 0.428197 0.635306 0.868822
O O1 0.749411 0.466487 0.444005
O O2 0.776395 0.337982 0.550162
O O3 0.768894 0.853929 0.350854
O O4 0.000000 0.000000 0.000000
O O5 0.130388 0.846051 0.962344
O O6 0.238225 0.933072 0.965646
O O7 0.687042 0.307802 0.021098
O O8 0.411103 0.660502 0.487525
O O9 0.000000 0.500000 0.000000
O O10 0.500000 0.500000 0.000000
O O11 0.396111 0.501370 0.990607
O O12 0.426126 0.011200 0.961655
O O13 0.500000 0.500000 0.500000
O O14 0.260049 0.321955 0.867870
#
# Coordination Sequence:
#
# PCOD9094069 Si02
#       6
#     2   2   2   2   2   2
#     4  10  21  37  54  79 111 148 188 224 277 344
#     4  11  19  34  56  82 117 151 185 233 280 333
#     4  10  20  35  56  83 108 140 190 237 275 327
#     4  12  22  34  54  83 116 147 179 232 290 337
#     4  10  20  34  53  80 114 156 189 223 278 342
#     4  11  21  34  52  81 117 148 182 227 281 341
#
# _framework density 22.487801999999999
#
# number of rings (size 3 to 8) (size 9 to 14) (size 15 to 20)
#    0.000    1.333    0.000    9.500    0.000    0.000 
#    0.000    0.000    0.000    0.000    0.000   93.333 
#    0.000    0.000    0.000    0.000    0.000    0.000 
#
# Total GULP energy -66940.911769 kJ/mol
# GULP energy per Si atom -5578.409314 kJ/mol
# Density = 2.243662 g / cm^3
# Si number density = 22.487802 Si / 1000 Ang^3
#
#
#
# Elastic Constant Matrix: (Units=GPa)
#
#
# Indices 1 2 3 4 5 6 
#
# 1 87.7143 7.6350 6.2578 -18.4419 13.3555 -13.1314
# 2 7.6350 175.6091 2.5680 -10.3572 9.7729 -10.1003
# 3 6.2578 2.5680 64.3031 -4.9651 10.0789 -11.5977
# 4 -18.4419 -10.3572 -4.9651 18.3150 -0.1505 15.6181
# 5 13.3555 9.7729 10.0789 -0.1505 25.7504 -10.9369
# 6 -13.1314 -10.1003 -11.5977 15.6181 -10.9369 50.3007
#
#
#
# Elastic Compliance Matrix: (Units=1/GPa)
#
#
# Indices 1 2 3 4 5 6 
#
# 1 0.016746 0.000876 0.000939 0.021089 -0.011039 -0.004184
# 2 0.000876 0.006083 0.000434 0.005012 -0.003202 -0.000702
# 3 0.000939 0.000434 0.017102 0.004589 -0.006730 0.001387
# 4 0.021089 0.005012 0.004589 0.106509 -0.027372 -0.031452
# 5 -0.011039 -0.003202 -0.006730 -0.027372 0.054760 0.015329
# 6 -0.004184 -0.000702 0.001387 -0.031452 0.015329 0.032066
#
#
# Mechanical properties :
#
#
# Convention : Reuss Voigt Hill
#
# Bulk Modulus (GPa) = 22.50761 40.06091 31.28426
# Shear Modulus (GPa) = 20.52733 39.61759 30.07246
#
# Velocity S-wave (km/s) = 3.02457 4.20186 3.66085
# Velocity P-wave (km/s) = 4.71465 6.43382 5.64012
#
# Compressibility (1/GPa) = 0.04442942
#
# Stress axis : x y z
#
# Youngs Moduli (GPa) = 59.71642 164.38033 58.47276
#
# Poissons Ratio (x) = -0.14395 -0.05493
# Poissons Ratio (y) = -0.05229 -0.02538
# Poissons Ratio (z) = -0.05609 -0.07135
#
# Static dielectric constant tensor:
#      x y z
#    x 2.121360 -0.129770 -0.158380 
#    y -0.129770 1.969780 0.048060 
#    z -0.158380 0.048060 1.961520 
# 
# From -- ./inp_files/473450.got.cif
#   From: 2010.05.17/outbox.cif.g08.bks.cpg/sg2_237_cif.got.tgz:473450.got - 2010.06.03 11:33:40.
