data_PCOD9094263
_publ_section_title
;
Structure prediction by ZEFSAII (Michael W. Deem and Ramdas Pophale) SiO2 
 PCOD9094263
Probable space group: P -1
;
_chemical_formula_sum "Si O2"
_cell_formula_units_Z 16
_cell_length_a 9.412913
_cell_length_b 11.764279
_cell_length_c 15.521261
_cell_angle_alpha 120.671587
_cell_angle_beta 142.257940
_cell_angle_gamma 76.272765
_cell_volume 858.682776
_symmetry_space_group_name_H-M "P -1"
_symmetry_group_IT_number 2
_symmetry_cell_setting 'triclinic'
loop_
_space_group_symop_operation_xyz
x,y,z
-x,-y,-z
loop_
_atom_site_type_symbol
_atom_site_label
_atom_site_fract_x
_atom_site_fract_y
_atom_site_fract_z
Si Si1 0.517491 0.619612 0.432922
Si Si2 0.263481 0.675235 0.816422
Si Si3 0.223724 0.635371 0.135317
Si Si4 0.901430 0.416138 0.650398
Si Si5 0.370344 0.658651 0.671120
Si Si6 0.665033 0.562567 0.022644
Si Si7 0.062234 0.167092 0.998516
Si Si8 0.016952 0.149293 0.175353
O O1 0.398381 0.674600 0.316520
O O2 0.309183 0.556964 0.381184
O O3 0.606900 0.494761 0.392298
O O4 0.739084 0.740861 0.626630
O O5 0.224687 0.660792 0.689733
O O6 0.078818 0.550389 0.736504
O O7 0.210434 0.811653 0.878118
O O8 0.534716 0.663315 0.954688
O O9 0.344695 0.569584 0.092544
O O10 0.000000 0.500000 0.000000
O O11 0.104295 0.750400 0.092732
O O12 0.766806 0.313583 0.469532
O O13 0.067718 0.369487 0.781815
O O14 0.648877 0.758399 0.849052
O O15 0.500000 0.500000 0.000000
O O16 0.018573 0.168384 0.080683
O O17 0.994133 0.008321 0.873904
#
# Coordination Sequence:
#
# PCOD9094263 Si02
#       8
#     2   2   2   2   2   2   2   2
#     4  12  22  37  64  92 121 158 206 259 302 348
#     4  11  22  37  60  93 126 157 197 254 313 364
#     4  12  21  36  62  94 119 154 206 258 300 353
#     4  11  21  34  60  92 122 155 204 256 303 351
#     4  12  21  36  63  93 121 155 206 259 302 357
#     4  10  20  34  55  91 124 151 189 252 311 354
#     4  11  24  43  62  89 124 166 208 245 304 365
#     4  11  25  42  62  89 126 167 203 245 303 375
#
# _framework density 18.633189999999999
#
# number of rings (size 3 to 8) (size 9 to 14) (size 15 to 20)
#    0.000    0.750    6.250    3.000    0.000    1.000 
#    0.000    0.000    0.000    0.750    0.000    0.000 
#    0.000    0.000    0.000    0.000    0.000    0.000 
#
# Total GULP energy -89309.809526 kJ/mol
# GULP energy per Si atom -5581.863095 kJ/mol
# Density = 1.859078 g / cm^3
# Si number density = 18.633190 Si / 1000 Ang^3
#
#
#
# Elastic Constant Matrix: (Units=GPa)
#
#
# Indices 1 2 3 4 5 6 
#
# 1 101.7876 30.2693 18.1398 10.9687 -18.1921 -11.6137
# 2 30.2693 100.5552 40.1642 0.3404 4.7470 -6.5772
# 3 18.1398 40.1642 86.4378 -5.9873 2.0863 -3.2560
# 4 10.9687 0.3404 -5.9873 37.0703 -2.0795 -4.6842
# 5 -18.1921 4.7470 2.0863 -2.0795 23.3357 -7.3679
# 6 -11.6137 -6.5772 -3.2560 -4.6842 -7.3679 21.1201
#
#
#
# Elastic Compliance Matrix: (Units=1/GPa)
#
#
# Indices 1 2 3 4 5 6 
#
# 1 0.016228 -0.004244 -0.001534 -0.002391 0.017527 0.012949
# 2 -0.004244 0.013560 -0.005319 -0.000193 -0.005939 -0.001046
# 3 -0.001534 -0.005319 0.014582 0.002786 -0.001184 -0.000047
# 4 -0.002391 -0.000193 0.002786 0.029085 0.002535 0.006390
# 5 0.017527 -0.005939 -0.001184 0.002535 0.068141 0.031940
# 6 0.012949 -0.001046 -0.000047 0.006390 0.031940 0.066695
#
#
# Mechanical properties :
#
#
# Convention : Reuss Voigt Hill
#
# Bulk Modulus (GPa) = 45.09818 51.76970 48.43394
# Shear Modulus (GPa) = 21.01918 29.65236 25.33577
#
# Velocity S-wave (km/s) = 3.36229 3.99353 3.69143
# Velocity P-wave (km/s) = 6.27128 7.00773 6.64971
#
# Compressibility (1/GPa) = 0.02217385
#
# Stress axis : x y z
#
# Youngs Moduli (GPa) = 61.62336 73.74776 68.57563
#
# Poissons Ratio (x) = 0.31301 0.10521
# Poissons Ratio (y) = 0.26155 0.36478
# Poissons Ratio (z) = 0.09454 0.39229
#
# Static dielectric constant tensor:
#      x y z
#    x 1.668560 -0.006730 0.021080 
#    y -0.006730 1.663410 -0.066680 
#    z 0.021080 -0.066680 1.677290 
# 
# From -- ./inp_files/238920.got.cif
#   From: 2010.05.17/outbox.cif.g08.bks.cpg/sg2_120_cif.got.tgz:238920.got - 2010.06.03 11:33:40.
