data_PCOD9094467
_publ_section_title
;
Structure prediction by ZEFSAII (Michael W. Deem and Ramdas Pophale) SiO2 
 PCOD9094467
Probable space group: P -1
;
_chemical_formula_sum "Si O2"
_cell_formula_units_Z 14
_cell_length_a 6.923712
_cell_length_b 6.877908
_cell_length_c 15.523536
_cell_angle_alpha 115.276169
_cell_angle_beta 100.648197
_cell_angle_gamma 116.954116
_cell_volume 526.139883
_symmetry_space_group_name_H-M "P -1"
_symmetry_group_IT_number 2
_symmetry_cell_setting 'triclinic'
loop_
_space_group_symop_operation_xyz
x,y,z
-x,-y,-z
loop_
_atom_site_type_symbol
_atom_site_label
_atom_site_fract_x
_atom_site_fract_y
_atom_site_fract_z
Si Si1 0.209738 0.853138 0.511081
Si Si2 0.663825 0.596397 0.446520
Si Si3 0.772483 0.555072 0.944250
Si Si4 0.017350 0.418434 0.269639
Si Si5 0.261670 0.698970 0.941380
Si Si6 0.540108 0.555908 0.773536
Si Si7 0.381174 0.036781 0.727488
O O1 0.382748 0.900346 0.614100
O O2 0.941660 0.702971 0.504299
O O3 0.163387 0.662486 0.393464
O O4 0.302481 0.134301 0.530220
O O5 0.500000 0.500000 0.500000
O O6 0.561989 0.404233 0.315059
O O7 0.648931 0.668501 0.900591
O O8 0.056699 0.713682 0.975436
O O9 0.636710 0.250865 0.836646
O O10 0.724287 0.496253 0.030216
O O11 0.858016 0.433779 0.186220
O O12 0.823565 0.155564 0.258214
O O13 0.216831 0.400499 0.236770
O O14 0.500000 0.000000 0.000000
O O15 0.335397 0.245190 0.723608
#
# Coordination Sequence:
#
# PCOD9094467 Si02
#       7
#     2   2   2   2   2   2   2
#     4  10  22  33  50  78 108 130 170 209 246 306
#     4  10  20  37  51  69 101 146 170 200 248 304
#     4   8  17  29  46  74  97 133 164 200 245 301
#     4  11  19  30  52  82 103 132 164 211 258 289
#     4  10  16  30  48  71 107 131 163 203 254 299
#     4   8  18  32  49  73  99 131 171 201 248 300
#     4   9  17  31  47  75 107 130 159 208 251 301
#
# _framework density 26.608895
#
# number of rings (size 3 to 8) (size 9 to 14) (size 15 to 20)
#    0.857    1.714    1.429    1.286    0.000    3.429 
#    0.000    0.000    0.000    0.857    0.000    5.000 
#    0.000    0.000    0.000    0.000    0.000    0.000 
#
# Total GULP energy -78170.730367 kJ/mol
# GULP energy per Si atom -5583.623598 kJ/mol
# Density = 2.654833 g / cm^3
# Si number density = 26.608895 Si / 1000 Ang^3
#
#
#
# Elastic Constant Matrix: (Units=GPa)
#
#
# Indices 1 2 3 4 5 6 
#
# 1 68.2961 54.0000 43.5366 -8.4104 2.5563 18.2623
# 2 54.0000 159.7974 59.2282 -31.6668 -9.4203 30.1445
# 3 43.5366 59.2282 167.9207 -39.8112 18.7500 1.9580
# 4 -8.4104 -31.6668 -39.8112 56.6473 2.2900 3.9131
# 5 2.5563 -9.4203 18.7500 2.2900 45.2914 -14.4927
# 6 18.2623 30.1445 1.9580 3.9131 -14.4927 41.6837
#
#
#
# Elastic Compliance Matrix: (Units=1/GPa)
#
#
# Indices 1 2 3 4 5 6 
#
# 1 0.023450 -0.005674 -0.004164 -0.002034 -0.002844 -0.006773
# 2 -0.005674 0.010565 -0.001266 0.004479 0.001182 -0.005104
# 3 -0.004164 -0.001266 0.009158 0.005239 -0.003941 0.000448
# 4 -0.002034 0.004479 0.005239 0.024155 -0.004387 -0.006387
# 5 -0.002844 0.001182 -0.003941 -0.004387 0.027742 0.010634
# 6 -0.006773 -0.005104 0.000448 -0.006387 0.010634 0.034924
#
#
# Mechanical properties :
#
#
# Convention : Reuss Voigt Hill
#
# Bulk Modulus (GPa) = 47.69957 78.83821 63.26889
# Shear Modulus (GPa) = 31.40894 44.67446 38.04170
#
# Velocity S-wave (km/s) = 3.43941 4.10192 3.78519
# Velocity P-wave (km/s) = 5.80843 7.21991 6.55229
#
# Compressibility (1/GPa) = 0.02096455
#
# Stress axis : x y z
#
# Youngs Moduli (GPa) = 42.64385 94.65601 109.19122
#
# Poissons Ratio (x) = 0.53709 0.45470
# Poissons Ratio (y) = 0.24196 0.13822
# Poissons Ratio (z) = 0.17758 0.11982
#
# Static dielectric constant tensor:
#      x y z
#    x 2.172400 -0.076720 -0.017640 
#    y -0.076720 2.055120 -0.001860 
#    z -0.017640 -0.001860 2.163080 
# 
# From -- ./inp_files/493197.got.cif
#   From: 2010.05.17/outbox.cif.g08.bks.cpg/sg2_247_cif.got.tgz:493197.got - 2010.06.03 11:33:40.
