data_PCOD9094829
_publ_section_title
;
Structure prediction by ZEFSAII (Michael W. Deem and Ramdas Pophale) SiO2 
 PCOD9094829
Probable space group: P -1
;
_chemical_formula_sum "Si O2"
_cell_formula_units_Z 16
_cell_length_a 5.359187
_cell_length_b 18.552954
_cell_length_c 7.138297
_cell_angle_alpha 93.086079
_cell_angle_beta 79.578682
_cell_angle_gamma 111.378762
_cell_volume 649.955581
_symmetry_space_group_name_H-M "P -1"
_symmetry_group_IT_number 2
_symmetry_cell_setting 'triclinic'
loop_
_space_group_symop_operation_xyz
x,y,z
-x,-y,-z
loop_
_atom_site_type_symbol
_atom_site_label
_atom_site_fract_x
_atom_site_fract_y
_atom_site_fract_z
Si Si1 0.863653 0.596524 0.600013
Si Si2 0.461378 0.659688 0.520496
Si Si3 0.833525 0.834837 0.440834
Si Si4 0.577019 0.090935 0.537807
Si Si5 0.593779 0.678084 0.912472
Si Si6 0.520482 0.916607 0.009721
Si Si7 0.740295 0.472033 0.891504
Si Si8 0.943256 0.851229 0.993979
O O1 0.628049 0.600944 0.492134
O O2 0.817275 0.646629 0.788834
O O3 0.829934 0.515086 0.688084
O O4 0.160313 0.634784 0.477316
O O5 0.670885 0.743181 0.445215
O O6 0.410628 0.668694 0.751336
O O7 0.628206 0.876682 0.533369
O O8 0.931322 0.861439 0.221106
O O9 0.104833 0.860654 0.531712
O O10 0.527221 0.102543 0.766071
O O11 0.500000 0.000000 0.500000
O O12 0.412383 0.620581 0.085751
O O13 0.738862 0.765569 0.963460
O O14 0.809410 0.908776 0.928421
O O15 0.257384 0.863138 0.922086
O O16 0.500000 0.000000 0.000000
O O17 0.500000 0.500000 0.000000
O O18 0.000000 0.500000 0.000000
#
# Coordination Sequence:
#
# PCOD9094829 Si02
#       8
#     2   2   2   2   2   2   2   2
#     4   9  18  31  50  79 104 135 173 217 257 293
#     4  10  19  31  52  74 105 131 177 208 254 295
#     4  10  21  37  52  76 104 140 162 211 266 302
#     4  10  21  37  56  75  99 132 175 208 254 319
#     4   9  21  30  55  80 104 132 180 214 255 302
#     4  10  22  38  55  76 104 137 165 213 265 306
#     4  10  16  30  49  76 107 138 166 217 263 297
#     4  10  22  36  55  76 109 135 171 207 262 317
#
# _framework density 24.617066999999999
#
# number of rings (size 3 to 8) (size 9 to 14) (size 15 to 20)
#    0.750    1.500    1.250    1.500    1.750    2.000 
#    0.000    0.000    0.000    1.500    0.000    0.000 
#    0.000    0.000    0.000    0.000    0.000    0.000 
#
# Total GULP energy -89353.503799 kJ/mol
# GULP energy per Si atom -5584.593987 kJ/mol
# Density = 2.456104 g / cm^3
# Si number density = 24.617067 Si / 1000 Ang^3
#
#
#
# Elastic Constant Matrix: (Units=GPa)
#
#
# Indices 1 2 3 4 5 6 
#
# 1 137.7587 6.8395 35.8276 6.0373 5.5880 19.1398
# 2 6.8395 73.3525 -18.0089 4.6191 6.0272 8.6037
# 3 35.8276 -18.0089 60.6623 -0.1160 -2.5861 -2.0493
# 4 6.0373 4.6191 -0.1160 35.1860 0.6294 0.8258
# 5 5.5880 6.0272 -2.5861 0.6294 28.7547 -6.6382
# 6 19.1398 8.6037 -2.0493 0.8258 -6.6382 30.2426
#
#
#
# Elastic Compliance Matrix: (Units=1/GPa)
#
#
# Indices 1 2 3 4 5 6 
#
# 1 0.010419 -0.001384 -0.006995 -0.001379 -0.004072 -0.007530
# 2 -0.001384 0.015915 0.005255 -0.001678 -0.003484 -0.004015
# 3 -0.006995 0.005255 0.022501 0.000400 0.003475 0.005209
# 4 -0.001379 -0.001678 0.000400 0.028861 0.000169 0.000626
# 5 -0.004072 -0.003484 0.003475 0.000169 0.039485 0.012466
# 6 -0.007530 -0.004015 0.005209 0.000626 0.012466 0.042046
#
#
# Mechanical properties :
#
#
# Convention : Reuss Voigt Hill
#
# Bulk Modulus (GPa) = 23.48201 35.67666 29.57933
# Shear Modulus (GPa) = 27.82875 35.31103 31.56989
#
# Velocity S-wave (km/s) = 3.36589 3.79147 3.58500
# Velocity P-wave (km/s) = 4.96641 5.80441 5.40168
#
# Compressibility (1/GPa) = 0.04258580
#
# Stress axis : x y z
#
# Youngs Moduli (GPa) = 95.97994 62.83462 44.44279
#
# Poissons Ratio (x) = 0.08697 0.31088
# Poissons Ratio (y) = 0.13285 -0.23354
# Poissons Ratio (z) = 0.67138 -0.33018
#
# Static dielectric constant tensor:
#      x y z
#    x 32.444060 -1.516410 -14.296090 
#    y -1.516410 2.048110 0.766150 
#    z -14.296090 0.766150 8.857270 
# 
# From -- ./inp_files/117440.got.cif
#   From: 2010.05.17/outbox.cif.g08.bks.cpg/sg2_59_cif.got.tgz:117440.got - 2010.06.03 11:33:40.
