data_PCOD9094613
_publ_section_title
;
Structure prediction by ZEFSAII (Michael W. Deem and Ramdas Pophale) SiO2 
 PCOD9094613
Probable space group: P -1
;
_chemical_formula_sum "Si O2"
_cell_formula_units_Z 16
_cell_length_a 11.600978
_cell_length_b 19.875552
_cell_length_c 17.309659
_cell_angle_alpha 158.903649
_cell_angle_beta 34.340774
_cell_angle_gamma 138.539619
_cell_volume 806.071611
_symmetry_space_group_name_H-M "P -1"
_symmetry_group_IT_number 2
_symmetry_cell_setting 'triclinic'
loop_
_space_group_symop_operation_xyz
x,y,z
-x,-y,-z
loop_
_atom_site_type_symbol
_atom_site_label
_atom_site_fract_x
_atom_site_fract_y
_atom_site_fract_z
Si Si1 0.862460 0.962337 0.815536
Si Si2 0.155001 0.996158 0.836679
Si Si3 0.448717 0.329015 0.290224
Si Si4 0.138083 0.408846 0.255079
Si Si5 0.890802 0.693171 0.229289
Si Si6 0.723871 0.349762 0.368018
Si Si7 0.149347 0.952397 0.257305
Si Si8 0.446596 0.679052 0.397802
O O1 0.740529 0.778904 0.691659
O O2 0.027214 0.950839 0.782146
O O3 0.942891 0.990869 0.715197
O O4 0.710508 0.155422 0.121714
O O5 0.359487 0.862139 0.595869
O O6 0.218173 0.202713 0.015138
O O7 0.000000 0.000000 0.000000
O O8 0.500000 0.500000 0.500000
O O9 0.398660 0.452070 0.372909
O O10 0.630985 0.166280 0.003139
O O11 0.329624 0.519705 0.250518
O O12 0.000000 0.500000 0.500000
O O13 0.962527 0.388121 0.266882
O O14 0.686378 0.648656 0.249106
O O15 0.025516 0.806548 0.217485
O O16 0.833659 0.853458 0.497932
O O17 0.000000 0.500000 0.000000
O O18 0.660070 0.302741 0.439209
#
# Coordination Sequence:
#
# PCOD9094613 Si02
#       8
#     2   2   2   2   2   2   2   2
#     4  11  23  39  61  95 138 163 204 263 331 391
#     4  11  20  36  61  96 132 166 197 262 327 390
#     4  12  24  35  65 100 131 168 205 263 338 392
#     4   9  18  30  54  88 126 156 199 250 313 372
#     4  11  27  47  68  87 125 178 229 272 301 375
#     4  10  20  34  58  97 135 160 198 263 323 390
#     4  11  26  44  63  94 129 173 222 263 322 380
#     4  11  21  37  64  91 125 164 217 257 318 378
#
# _framework density 19.849352
#
# number of rings (size 3 to 8) (size 9 to 14) (size 15 to 20)
#    0.000    1.250    5.000    2.625    5.250    2.000 
#    0.000    0.625    0.000    3.750    0.000    0.000 
#    0.000    0.000    0.000    0.000    0.000    0.000 
#
# Total GULP energy -89162.755986 kJ/mol
# GULP energy per Si atom -5572.672249 kJ/mol
# Density = 1.980417 g / cm^3
# Si number density = 19.849352 Si / 1000 Ang^3
#
#
#
# Elastic Constant Matrix: (Units=GPa)
#
#
# Indices 1 2 3 4 5 6 
#
# 1 89.0657 38.6838 45.8978 13.2430 -21.3100 -9.1537
# 2 38.6838 70.7752 44.8606 27.3801 -7.6630 10.8302
# 3 45.8978 44.8606 94.7528 33.0696 -23.4464 4.0801
# 4 13.2430 27.3801 33.0696 34.3444 -3.0912 1.9084
# 5 -21.3100 -7.6630 -23.4464 -3.0912 39.4450 0.4971
# 6 -9.1537 10.8302 4.0801 1.9084 0.4971 36.9929
#
#
#
# Elastic Compliance Matrix: (Units=1/GPa)
#
#
# Indices 1 2 3 4 5 6 
#
# 1 0.020014 -0.010192 -0.006002 0.006240 0.005651 0.008200
# 2 -0.010192 0.029304 -0.003951 -0.015374 -0.003242 -0.009829
# 3 -0.006002 -0.003951 0.023056 -0.015852 0.008479 -0.002168
# 4 0.006240 -0.015374 -0.015852 0.053506 -0.004909 0.005099
# 5 0.005651 -0.003242 0.008479 -0.004909 0.032415 0.001230
# 6 0.008200 -0.009829 -0.002168 0.005099 0.001230 0.031898
#
#
# Mechanical properties :
#
#
# Convention : Reuss Voigt Hill
#
# Bulk Modulus (GPa) = 31.16731 57.05312 44.11021
# Shear Modulus (GPa) = 20.73153 30.49988 25.61570
#
# Velocity S-wave (km/s) = 3.23529 3.92416 3.59626
# Velocity P-wave (km/s) = 5.44905 7.02407 6.28608
#
# Compressibility (1/GPa) = 0.03208490
#
# Stress axis : x y z
#
# Youngs Moduli (GPa) = 49.96413 34.12446 43.37275
#
# Poissons Ratio (x) = 0.34779 0.26034
# Poissons Ratio (y) = 0.50923 0.17136
# Poissons Ratio (z) = 0.29990 0.13482
#
# Static dielectric constant tensor:
#      x y z
#    x 1.827330 -0.050730 -0.020470 
#    y -0.050730 1.985100 0.080100 
#    z -0.020470 0.080100 1.727570 
# 
# From -- ./inp_files/570770.got.cif
#   From: 2010.05.17/outbox.cif.g08.bks.cpg/sg2_286_cif.got.tgz:570770.got - 2010.06.03 11:33:40.
