data_PCOD9094314
_publ_section_title
;
Structure prediction by ZEFSAII (Michael W. Deem and Ramdas Pophale) SiO2 
 PCOD9094314
Probable space group: P -1
;
_chemical_formula_sum "Si O2"
_cell_formula_units_Z 16
_cell_length_a 8.868551
_cell_length_b 8.752404
_cell_length_c 15.406668
_cell_angle_alpha 51.457546
_cell_angle_beta 108.211869
_cell_angle_gamma 78.758179
_cell_volume 756.478826
_symmetry_space_group_name_H-M "P -1"
_symmetry_group_IT_number 2
_symmetry_cell_setting 'triclinic'
loop_
_space_group_symop_operation_xyz
x,y,z
-x,-y,-z
loop_
_atom_site_type_symbol
_atom_site_label
_atom_site_fract_x
_atom_site_fract_y
_atom_site_fract_z
Si Si1 0.635128 0.140685 0.158412
Si Si2 0.421825 0.914197 0.627904
Si Si3 0.847043 0.197839 0.462892
Si Si4 0.773969 0.489240 0.049212
Si Si5 0.834088 0.699991 0.815944
Si Si6 0.783231 0.163958 0.653917
Si Si7 0.809968 0.627325 0.364641
Si Si8 0.646403 0.625525 0.512583
O O1 0.612024 0.124123 0.264078
O O2 0.734975 0.283332 0.111608
O O3 0.748799 0.881804 0.235050
O O4 0.421880 0.292883 0.031690
O O5 0.339209 0.797957 0.596321
O O6 0.641368 0.807858 0.690837
O O7 0.317687 0.189626 0.502261
O O8 0.893604 0.131963 0.595961
O O9 0.825545 0.444205 0.362849
O O10 0.000000 0.000000 0.500000
O O11 0.967813 0.424028 0.153492
O O12 0.814312 0.547499 0.939402
O O13 0.829037 0.919333 0.782132
O O14 0.782561 0.354122 0.648047
O O15 0.567024 0.291640 0.540118
O O16 0.660129 0.658695 0.399583
O O17 0.000000 0.500000 0.500000
#
# Coordination Sequence:
#
# PCOD9094314 Si02
#       8
#     2   2   2   2   2   2   2   2
#     4   9  18  34  58  81 107 144 183 241 268 317
#     4   9  18  33  51  79 117 141 179 222 281 339
#     4  11  22  33  51  86 116 151 176 216 288 356
#     4   9  18  32  55  83 104 138 197 233 274 307
#     4   9  18  31  51  81 104 140 184 241 266 316
#     4   9  18  31  52  76 114 145 179 223 275 327
#     4  10  20  34  56  83 113 142 183 230 278 331
#     4   8  16  31  49  77 105 144 175 219 268 326
#
# _framework density 21.150625999999999
#
# number of rings (size 3 to 8) (size 9 to 14) (size 15 to 20)
#    0.000    2.750    0.000    2.250    5.250    2.000 
#    0.000    0.000    0.000    7.500    0.000    0.000 
#    0.000    0.000    0.000    0.000    0.000    0.000 
#
# Total GULP energy -89161.890047 kJ/mol
# GULP energy per Si atom -5572.618128 kJ/mol
# Density = 2.110249 g / cm^3
# Si number density = 21.150626 Si / 1000 Ang^3
#
#
#
# Elastic Constant Matrix: (Units=GPa)
#
#
# Indices 1 2 3 4 5 6 
#
# 1 125.8530 44.3129 48.6113 -23.2815 10.1168 10.1323
# 2 44.3129 106.5756 56.4059 -34.5163 3.6683 17.1973
# 3 48.6113 56.4059 86.1272 -44.8453 0.7082 16.2999
# 4 -23.2815 -34.5163 -44.8453 33.2216 4.9327 -9.4832
# 5 10.1168 3.6683 0.7082 4.9327 44.4270 -0.9629
# 6 10.1323 17.1973 16.2999 -9.4832 -0.9629 38.4117
#
#
#
# Elastic Compliance Matrix: (Units=1/GPa)
#
#
# Indices 1 2 3 4 5 6 
#
# 1 0.010647 -0.001977 -0.005832 -0.002190 -0.001926 -0.000038
# 2 -0.001977 0.015742 -0.003803 0.009359 -0.001885 -0.002649
# 3 -0.005832 -0.003803 0.046378 0.054447 -0.005210 -0.003128
# 4 -0.002190 0.009359 0.054447 0.114155 -0.013792 0.001120
# 5 -0.001926 -0.001885 -0.005210 -0.013792 0.024734 0.000778
# 6 -0.000038 -0.002649 -0.003128 0.001120 0.000778 0.028853
#
#
# Mechanical properties :
#
#
# Convention : Reuss Voigt Hill
#
# Bulk Modulus (GPa) = 20.18501 68.57955 44.38228
# Shear Modulus (GPa) = 17.84135 34.49376 26.16755
#
# Velocity S-wave (km/s) = 2.90752 4.04277 3.52120
# Velocity P-wave (km/s) = 4.56462 7.36796 6.12873
#
# Compressibility (1/GPa) = 0.04954171
#
# Stress axis : x y z
#
# Youngs Moduli (GPa) = 93.92052 63.52635 21.56201
#
# Poissons Ratio (x) = 0.12562 0.12574
# Poissons Ratio (y) = 0.18572 0.08201
# Poissons Ratio (z) = 0.54771 0.24162
#
# Static dielectric constant tensor:
#      x y z
#    x 1.859620 0.000410 0.027920 
#    y 0.000410 1.791650 -0.040590 
#    z 0.027920 -0.040590 1.845720 
# 
# From -- ./inp_files/395502.got.cif
#   From: 2010.05.17/outbox.cif.g08.bks.cpg/sg2_198_cif.got.tgz:395502.got - 2010.06.03 11:33:40.
