data_PCOD9094931
_publ_section_title
;
Structure prediction by ZEFSAII (Michael W. Deem and Ramdas Pophale) SiO2 
 PCOD9094931
Probable space group: P -1
;
_chemical_formula_sum "Si O2"
_cell_formula_units_Z 16
_cell_length_a 15.808884
_cell_length_b 13.363533
_cell_length_c 11.457727
_cell_angle_alpha 54.939804
_cell_angle_beta 151.325009
_cell_angle_gamma 143.768852
_cell_volume 605.976049
_symmetry_space_group_name_H-M "P -1"
_symmetry_group_IT_number 2
_symmetry_cell_setting 'triclinic'
loop_
_space_group_symop_operation_xyz
x,y,z
-x,-y,-z
loop_
_atom_site_type_symbol
_atom_site_label
_atom_site_fract_x
_atom_site_fract_y
_atom_site_fract_z
Si Si1 0.544345 0.943835 0.980435
Si Si2 0.334520 0.283309 0.944236
Si Si3 0.826735 0.743486 0.490078
Si Si4 0.505052 0.725105 0.262292
Si Si5 0.005350 0.283143 0.949991
Si Si6 0.328415 0.278088 0.197579
Si Si7 0.299415 0.726793 0.237170
Si Si8 0.220134 0.690536 0.561823
O O1 0.469439 0.770135 0.062070
O O2 0.346889 0.855964 0.692550
O O3 0.861822 0.133254 0.206660
O O4 0.500000 0.000000 0.000000
O O5 0.185374 0.204194 0.690532
O O6 0.500000 0.500000 0.000000
O O7 0.194741 0.206486 0.954360
O O8 0.544202 0.281640 0.202126
O O9 0.780009 0.798205 0.514060
O O10 0.580721 0.512848 0.345977
O O11 0.458594 0.798415 0.258019
O O12 0.286742 0.503487 0.177619
O O13 0.785942 0.197790 0.842893
O O14 0.900380 0.306202 0.697067
O O15 0.105447 0.206687 0.070685
O O16 0.494741 0.244153 0.452467
O O17 0.000000 0.500000 0.000000
O O18 0.000000 0.500000 0.500000
#
# Coordination Sequence:
#
# PCOD9094931 Si02
#       8
#     2   2   2   2   2   2   2   2
#     4  12  27  37  61  95 134 169 202 265 333 380
#     4  10  20  34  64  93 124 163 209 267 320 376
#     4  10  22  39  59  91 131 162 208 257 330 391
#     4  10  21  41  59  89 123 170 207 263 312 376
#     4  10  21  38  64  95 125 157 217 268 309 376
#     4  10  21  39  64  98 123 166 211 266 325 368
#     4  10  22  37  65  94 125 165 217 272 308 367
#     4  12  21  38  64  91 131 165 213 267 321 379
#
# _framework density 26.403684999999999
#
# number of rings (size 3 to 8) (size 9 to 14) (size 15 to 20)
#    0.000    1.500    3.750    1.875    8.750    4.500 
#    0.000    0.000    0.000    3.750    0.000    0.000 
#    0.000    0.000    0.000    0.000    0.000    0.000 
#
# Total GULP energy -89419.772315 kJ/mol
# GULP energy per Si atom -5588.735770 kJ/mol
# Density = 2.634359 g / cm^3
# Si number density = 26.403685 Si / 1000 Ang^3
#
#
#
# Elastic Constant Matrix: (Units=GPa)
#
#
# Indices 1 2 3 4 5 6 
#
# 1 264.3352 32.9474 80.5861 -1.5089 20.2868 0.3801
# 2 32.9474 64.9745 10.1016 8.0575 4.2798 5.5340
# 3 80.5861 10.1016 115.6060 -7.2863 11.0173 2.4207
# 4 -1.5089 8.0575 -7.2863 33.8155 0.3775 -3.7136
# 5 20.2868 4.2798 11.0173 0.3775 45.9899 -19.3333
# 6 0.3801 5.5340 2.4207 -3.7136 -19.3333 34.3251
#
#
#
# Elastic Compliance Matrix: (Units=1/GPa)
#
#
# Indices 1 2 3 4 5 6 
#
# 1 0.005135 -0.001972 -0.003265 -0.000024 -0.001433 -0.000318
# 2 -0.001972 0.017600 -0.000102 -0.004809 -0.002756 -0.004881
# 3 -0.003265 -0.000102 0.011290 0.002156 -0.001949 -0.001608
# 4 -0.000024 -0.004809 0.002156 0.031719 0.001816 0.005078
# 5 -0.001433 -0.002756 -0.001949 0.001816 0.030683 0.018076
# 6 -0.000318 -0.004881 -0.001608 0.005078 0.018076 0.040768
#
#
# Mechanical properties :
#
#
# Convention : Reuss Voigt Hill
#
# Bulk Modulus (GPa) = 42.83064 76.90956 59.87010
# Shear Modulus (GPa) = 32.12248 44.24480 38.18364
#
# Velocity S-wave (km/s) = 3.49175 4.09798 3.80695
# Velocity P-wave (km/s) = 5.70203 7.18212 6.48444
#
# Compressibility (1/GPa) = 0.02334777
#
# Stress axis : x y z
#
# Youngs Moduli (GPa) = 194.75979 56.81862 88.57168
#
# Poissons Ratio (x) = 0.11202 0.28920
# Poissons Ratio (y) = 0.38398 0.00901
# Poissons Ratio (z) = 0.63592 0.00578
#
# Static dielectric constant tensor:
#      x y z
#    x 2.040560 -0.011860 -0.001060 
#    y -0.011860 2.149050 -0.102440 
#    z -0.001060 -0.102440 2.055510 
# 
# From -- ./inp_files/260052.got.cif
#   From: 2010.05.17/outbox.cif.g08.bks.cpg/sg2_131_cif.got.tgz:260052.got - 2010.06.03 11:33:40.
