data_PCOD9094267
_publ_section_title
;
Structure prediction by ZEFSAII (Michael W. Deem and Ramdas Pophale) SiO2 
 PCOD9094267
Probable space group: P -1
;
_chemical_formula_sum "Si O2"
_cell_formula_units_Z 14
_cell_length_a 14.689498
_cell_length_b 7.730525
_cell_length_c 12.119535
_cell_angle_alpha 84.413428
_cell_angle_beta 128.805015
_cell_angle_gamma 134.528021
_cell_volume 602.427848
_symmetry_space_group_name_H-M "P -1"
_symmetry_group_IT_number 2
_symmetry_cell_setting 'triclinic'
loop_
_space_group_symop_operation_xyz
x,y,z
-x,-y,-z
loop_
_atom_site_type_symbol
_atom_site_label
_atom_site_fract_x
_atom_site_fract_y
_atom_site_fract_z
Si Si1 0.993830 0.236554 0.044016
Si Si2 0.693985 0.097709 0.727026
Si Si3 0.609037 0.019153 0.415018
Si Si4 0.169598 0.379977 0.507595
Si Si5 0.287435 0.346164 0.825138
Si Si6 0.649214 0.706882 0.494751
Si Si7 0.916610 0.782948 0.118133
O O1 0.768301 0.011476 0.843278
O O2 0.116746 0.331084 0.021822
O O3 0.100850 0.533473 0.160328
O O4 0.979825 0.059739 0.124689
O O5 0.595616 0.966341 0.540451
O O6 0.566989 0.050690 0.722626
O O7 0.800829 0.377322 0.505571
O O8 0.583089 0.791834 0.364052
O O9 0.266185 0.442090 0.695166
O O10 0.298853 0.410641 0.520093
O O11 0.925558 0.030512 0.330240
O O12 0.252820 0.419809 0.904015
O O13 0.500000 0.500000 0.000000
O O14 0.500000 0.500000 0.500000
O O15 0.876759 0.049081 0.686871
#
# Coordination Sequence:
#
# PCOD9094267 Si02
#       7
#     2   2   2   2   2   2   2
#     4  10  20  35  60  89 126 154 199 264 317 379
#     4  10  20  34  55  92 127 159 192 249 325 387
#     4  11  21  38  61  94 130 165 205 254 322 393
#     4  10  24  43  66  93 128 173 217 265 322 378
#     4  10  23  44  66  88 125 174 224 269 315 374
#     4  11  21  38  66  97 132 165 203 260 324 391
#     4  10  21  37  59  91 120 161 212 258 315 382
#
# _framework density 23.2393
#
# number of rings (size 3 to 8) (size 9 to 14) (size 15 to 20)
#    0.000    1.714    1.429    4.286    2.000    2.286 
#    0.000    6.429    0.000    5.143    0.000    0.000 
#    0.000    0.000    0.000    0.000    0.000    0.000 
#
# Total GULP energy -78012.010531 kJ/mol
# GULP energy per Si atom -5572.286466 kJ/mol
# Density = 2.318641 g / cm^3
# Si number density = 23.239300 Si / 1000 Ang^3
#
#
#
# Elastic Constant Matrix: (Units=GPa)
#
#
# Indices 1 2 3 4 5 6 
#
# 1 87.8566 42.9445 23.2434 -16.8936 15.7048 7.6634
# 2 42.9445 106.7437 18.8412 -6.2495 -0.7859 -12.1621
# 3 23.2434 18.8412 79.6312 -11.8011 21.7580 9.1381
# 4 -16.8936 -6.2495 -11.8011 30.3820 2.9430 -1.9663
# 5 15.7048 -0.7859 21.7580 2.9430 43.0606 -3.7214
# 6 7.6634 -12.1621 9.1381 -1.9663 -3.7214 44.8651
#
#
#
# Elastic Compliance Matrix: (Units=1/GPa)
#
#
# Indices 1 2 3 4 5 6 
#
# 1 0.018962 -0.007934 0.000808 0.009684 -0.008636 -0.005846
# 2 -0.007934 0.013774 -0.003698 -0.003173 0.005765 0.006181
# 3 0.000808 -0.003698 0.017666 0.007201 -0.010236 -0.005272
# 4 0.009684 -0.003173 0.007201 0.041246 -0.010309 -0.003028
# 5 -0.008636 0.005765 -0.010236 -0.010309 0.032995 0.007408
# 6 -0.005846 0.006181 -0.005272 -0.003028 0.007408 0.026519
#
#
# Mechanical properties :
#
#
# Convention : Reuss Voigt Hill
#
# Bulk Modulus (GPa) = 34.77710 49.36553 42.07132
# Shear Modulus (GPa) = 27.41306 36.27504 31.84405
#
# Velocity S-wave (km/s) = 3.43826 3.95515 3.70573
# Velocity P-wave (km/s) = 5.54612 6.49200 6.03761
#
# Compressibility (1/GPa) = 0.02875455
#
# Stress axis : x y z
#
# Youngs Moduli (GPa) = 52.73591 72.60103 56.60570
#
# Poissons Ratio (x) = 0.57603 -0.04574
# Poissons Ratio (y) = 0.41842 0.20931
# Poissons Ratio (z) = -0.04261 0.26846
#
# Static dielectric constant tensor:
#      x y z
#    x 1.972440 -0.059510 -0.008300 
#    y -0.059510 1.922920 0.072900 
#    z -0.008300 0.072900 1.978760 
# 
# From -- ./inp_files/527571.got.cif
#   From: 2010.05.17/outbox.cif.g08.bks.cpg/sg2_264_cif.got.tgz:527571.got - 2010.06.03 11:33:40.
