data_PCOD9094825
_publ_section_title
;
Structure prediction by ZEFSAII (Michael W. Deem and Ramdas Pophale) SiO2 
 PCOD9094825
Probable space group: P -1
;
_chemical_formula_sum "Si O2"
_cell_formula_units_Z 16
_cell_length_a 12.287617
_cell_length_b 5.353311
_cell_length_c 21.368821
_cell_angle_alpha 97.147539
_cell_angle_beta 152.060041
_cell_angle_gamma 84.832770
_cell_volume 652.887486
_symmetry_space_group_name_H-M "P -1"
_symmetry_group_IT_number 2
_symmetry_cell_setting 'triclinic'
loop_
_space_group_symop_operation_xyz
x,y,z
-x,-y,-z
loop_
_atom_site_type_symbol
_atom_site_label
_atom_site_fract_x
_atom_site_fract_y
_atom_site_fract_z
Si Si1 0.214350 0.859021 0.137458
Si Si2 0.370472 0.405375 0.282519
Si Si3 0.657406 0.219128 0.934134
Si Si4 0.744530 0.843363 0.056963
Si Si5 0.749369 0.300026 0.169547
Si Si6 0.064447 0.499086 0.232309
Si Si7 0.812270 0.989581 0.312344
Si Si8 0.179128 0.678491 0.557012
O O1 0.210309 0.613857 0.173475
O O2 0.334317 0.741792 0.133701
O O3 0.331820 0.107432 0.237642
O O4 0.000000 0.000000 0.000000
O O5 0.626921 0.464065 0.386884
O O6 0.307977 0.429967 0.325273
O O7 0.386197 0.217868 0.815550
O O8 0.868028 0.370907 0.080602
O O9 0.709497 0.931171 0.971304
O O10 0.010852 0.785932 0.200910
O O11 0.718710 0.077953 0.096177
O O12 0.526336 0.653794 0.957564
O O13 0.953934 0.464234 0.244217
O O14 0.839741 0.187198 0.276537
O O15 0.724137 0.133162 0.333666
O O16 0.037638 0.848007 0.442711
O O17 0.000000 0.500000 0.500000
#
# Coordination Sequence:
#
# PCOD9094825 Si02
#       8
#     2   2   2   2   2   2   2   2
#     4  12  23  40  61 100 136 179 206 262 338 406
#     4  12  27  41  67  96 140 173 221 270 334 398
#     4  10  20  34  61  93 131 164 210 263 327 394
#     4   9  19  35  57  93 132 168 209 256 330 391
#     4   9  20  37  60  90 125 170 212 268 317 395
#     4  11  22  36  61  96 133 173 202 268 330 404
#     4  10  22  42  65  91 125 166 227 274 326 383
#     4  11  25  44  66  93 122 175 222 283 326 383
#
# _framework density 24.506518
#
# number of rings (size 3 to 8) (size 9 to 14) (size 15 to 20)
#    0.000    1.500    2.500    3.000    5.250    3.000 
#    0.000    0.625    0.000    1.500    0.000    0.000 
#    0.000    0.000    0.000    0.000    0.000    0.000 
#
# Total GULP energy -89068.999917 kJ/mol
# GULP energy per Si atom -5566.812495 kJ/mol
# Density = 2.445074 g / cm^3
# Si number density = 24.506518 Si / 1000 Ang^3
#
#
#
# Elastic Constant Matrix: (Units=GPa)
#
#
# Indices 1 2 3 4 5 6 
#
# 1 141.2577 6.9212 19.9515 -27.5263 20.4091 24.7590
# 2 6.9212 46.8665 8.3355 -3.8390 -1.0103 0.0789
# 3 19.9515 8.3355 46.1741 -14.9700 6.1816 11.1994
# 4 -27.5263 -3.8390 -14.9700 35.8955 -0.0810 -6.1171
# 5 20.4091 -1.0103 6.1816 -0.0810 37.2070 -10.9284
# 6 24.7590 0.0789 11.1994 -6.1171 -10.9284 24.4210
#
#
#
# Elastic Compliance Matrix: (Units=1/GPa)
#
#
# Indices 1 2 3 4 5 6 
#
# 1 0.013891 -0.002330 0.003997 0.008608 -0.014239 -0.020124
# 2 -0.002330 0.022725 -0.005576 -0.000497 0.004844 0.006890
# 3 0.003997 -0.005576 0.032085 0.012060 -0.014124 -0.022048
# 4 0.008608 -0.000497 0.012060 0.037896 -0.009275 -0.008915
# 5 -0.014239 0.004844 -0.014124 -0.009275 0.049048 0.040523
# 6 -0.020124 0.006890 -0.022048 -0.008915 0.040523 0.087341
#
#
# Mechanical properties :
#
#
# Convention : Reuss Voigt Hill
#
# Bulk Modulus (GPa) = 16.42522 33.85720 25.14121
# Shear Modulus (GPa) = 18.44336 32.77736 25.61036
#
# Velocity S-wave (km/s) = 2.74631 3.66115 3.23622
# Velocity P-wave (km/s) = 4.09552 5.63184 4.92396
#
# Compressibility (1/GPa) = 0.06088198
#
# Stress axis : x y z
#
# Youngs Moduli (GPa) = 71.98935 44.00401 31.16680
#
# Poissons Ratio (x) = 0.10254 -0.12456
# Poissons Ratio (y) = 0.16775 0.17379
# Poissons Ratio (z) = -0.28772 0.24538
#
# Static dielectric constant tensor:
#      x y z
#    x 2.041000 0.006820 0.048900 
#    y 0.006820 2.138870 0.008990 
#    z 0.048900 0.008990 1.996180 
# 
# From -- ./inp_files/70553.got.cif
#   From: 2010.05.17/outbox.cif.g08.bks.cpg/sg2_36_cif.got.tgz:70553.got - 2010.06.03 11:33:40.
