data_PCOD9094048
_publ_section_title
;
Structure prediction by ZEFSAII (Michael W. Deem and Ramdas Pophale) SiO2 
 PCOD9094048
Probable space group: P -1
;
_chemical_formula_sum "Si O2"
_cell_formula_units_Z 16
_cell_length_a 6.954186
_cell_length_b 14.810566
_cell_length_c 7.885977
_cell_angle_alpha 84.178681
_cell_angle_beta 123.577645
_cell_angle_gamma 109.255146
_cell_volume 635.442400
_symmetry_space_group_name_H-M "P -1"
_symmetry_group_IT_number 2
_symmetry_cell_setting 'triclinic'
loop_
_space_group_symop_operation_xyz
x,y,z
-x,-y,-z
loop_
_atom_site_type_symbol
_atom_site_label
_atom_site_fract_x
_atom_site_fract_y
_atom_site_fract_z
Si Si1 0.273541 0.477085 0.025750
Si Si2 0.184578 0.969756 0.720191
Si Si3 0.673874 0.833261 0.122293
Si Si4 0.957780 0.825308 0.932677
Si Si5 0.233582 0.651671 0.814086
Si Si6 0.474168 0.362293 0.365663
Si Si7 0.072265 0.786986 0.524197
Si Si8 0.188844 0.701710 0.256437
O O1 0.181913 0.568474 0.943629
O O2 0.065665 0.384472 0.868159
O O3 0.500000 0.500000 0.000000
O O4 0.359699 0.446053 0.252932
O O5 0.043987 0.909203 0.823138
O O6 0.252422 0.888015 0.664633
O O7 0.372245 0.070350 0.856365
O O8 0.000000 0.000000 0.500000
O O9 0.818713 0.799908 0.347973
O O10 0.866411 0.860154 0.054657
O O11 0.460006 0.740821 0.972352
O O12 0.727560 0.738449 0.766555
O O13 0.166020 0.777168 0.089378
O O14 0.314666 0.616458 0.682517
O O15 0.035218 0.700553 0.655288
O O16 0.598992 0.344608 0.602915
O O17 0.187325 0.758947 0.418407
#
# Coordination Sequence:
#
# PCOD9094048 Si02
#       8
#     2   2   2   2   2   2   2   2
#     4   9  16  26  48  82 107 127 162 209 250 287
#     4  10  20  34  53  74 100 133 165 207 258 301
#     4   9  18  33  51  72  99 134 170 205 246 290
#     4   9  17  33  52  72 100 131 169 208 245 296
#     4   9  17  29  48  77 105 129 164 209 247 289
#     4   8  16  29  48  74 101 129 164 204 244 291
#     4   9  18  31  47  73 104 129 161 203 248 297
#     4   9  17  31  52  77 103 132 165 203 250 296
#
# _framework density 25.179307000000001
#
# number of rings (size 3 to 8) (size 9 to 14) (size 15 to 20)
#    0.000    3.000    0.000    2.625    0.000    6.000 
#    0.000    5.000    0.000   15.750    0.000   61.250 
#    0.000    0.000    0.000    0.000    0.000    0.000 
#
# Total GULP energy -89436.320324 kJ/mol
# GULP energy per Si atom -5589.770020 kJ/mol
# Density = 2.512200 g / cm^3
# Si number density = 25.179307 Si / 1000 Ang^3
#
#
#
# Elastic Constant Matrix: (Units=GPa)
#
#
# Indices 1 2 3 4 5 6 
#
# 1 66.4463 32.3618 24.9591 -6.2437 -11.3524 -0.9570
# 2 32.3618 167.1512 58.6085 -39.1183 -2.4617 4.1995
# 3 24.9591 58.6085 139.6341 -41.2251 5.0093 4.9452
# 4 -6.2437 -39.1183 -41.2251 51.6131 -9.0237 -2.9075
# 5 -11.3524 -2.4617 5.0093 -9.0237 28.4550 -7.2077
# 6 -0.9570 4.1995 4.9452 -2.9075 -7.2077 37.3895
#
#
#
# Elastic Compliance Matrix: (Units=1/GPa)
#
#
# Indices 1 2 3 4 5 6 
#
# 1 0.018827 -0.002717 -0.002722 -0.000345 0.008337 0.002727
# 2 -0.002717 0.008229 -0.001569 0.004896 0.001424 -0.000131
# 3 -0.002722 -0.001569 0.010282 0.006420 -0.001248 -0.000995
# 4 -0.000345 0.004896 0.006420 0.029960 0.009346 0.002724
# 5 0.008337 0.001424 -0.001248 0.009346 0.044172 0.009461
# 6 0.002727 -0.000131 -0.000995 0.002724 0.009461 0.028997
#
#
# Mechanical properties :
#
#
# Convention : Reuss Voigt Hill
#
# Bulk Modulus (GPa) = 42.87962 67.23226 55.05594
# Shear Modulus (GPa) = 30.81519 40.64500 35.73010
#
# Velocity S-wave (km/s) = 3.50212 4.02210 3.77108
# Velocity P-wave (km/s) = 5.78099 6.95191 6.39331
#
# Compressibility (1/GPa) = 0.02332110
#
# Stress axis : x y z
#
# Youngs Moduli (GPa) = 53.11582 121.52172 97.25557
#
# Poissons Ratio (x) = 0.33017 0.26476
# Poissons Ratio (y) = 0.14431 0.15261
# Poissons Ratio (z) = 0.14460 0.19069
#
# Static dielectric constant tensor:
#      x y z
#    x 2.044030 -0.055120 0.002940 
#    y -0.055120 1.979400 -0.042500 
#    z 0.002940 -0.042500 2.021550 
# 
# From -- ./inp_files/207228.got.cif
#   From: 2010.05.17/outbox.cif.g08.bks.cpg/sg2_104_cif.got.tgz:207228.got - 2010.06.03 11:33:40.
