data_PCOD9094832
_publ_section_title
;
Structure prediction by ZEFSAII (Michael W. Deem and Ramdas Pophale) SiO2 
 PCOD9094832
Probable space group: P -1
;
_chemical_formula_sum "Si O2"
_cell_formula_units_Z 16
_cell_length_a 15.652474
_cell_length_b 15.421606
_cell_length_c 14.907781
_cell_angle_alpha 18.983919
_cell_angle_beta 137.366090
_cell_angle_gamma 142.157499
_cell_volume 717.060843
_symmetry_space_group_name_H-M "P -1"
_symmetry_group_IT_number 2
_symmetry_cell_setting 'triclinic'
loop_
_space_group_symop_operation_xyz
x,y,z
-x,-y,-z
loop_
_atom_site_type_symbol
_atom_site_label
_atom_site_fract_x
_atom_site_fract_y
_atom_site_fract_z
Si Si1 0.972464 0.736233 0.303176
Si Si2 0.662328 0.520373 0.350041
Si Si3 0.525355 0.758979 0.695768
Si Si4 0.047793 0.553672 0.712257
Si Si5 0.276678 0.889513 0.083039
Si Si6 0.199536 0.162272 0.267834
Si Si7 0.836179 0.588078 0.832726
Si Si8 0.166889 0.928522 0.769662
O O1 0.066873 0.761679 0.437032
O O2 0.000000 0.500000 0.500000
O O3 0.818732 0.630082 0.325986
O O4 0.000000 0.000000 0.000000
O O5 0.571094 0.359997 0.350466
O O6 0.646892 0.307754 0.630930
O O7 0.658734 0.816247 0.095337
O O8 0.677213 0.861938 0.668568
O O9 0.500000 0.000000 0.500000
O O10 0.500000 0.500000 0.000000
O O11 0.887860 0.316726 0.822057
O O12 0.096596 0.829664 0.548395
O O13 0.133402 0.357581 0.973391
O O14 0.262065 0.964822 0.894742
O O15 0.249611 0.358310 0.205348
O O16 0.999768 0.732422 0.850159
O O17 0.824263 0.770410 0.559350
O O18 0.794986 0.259084 0.090873
#
# Coordination Sequence:
#
# PCOD9094832 Si02
#       8
#     2   2   2   2   2   2   2   2
#     4  11  23  36  59  87 123 154 199 276 318 389
#     4  11  25  43  62  90 124 168 220 257 323 385
#     4  12  29  49  69  89 121 179 228 275 313 373
#     4  11  23  37  62  99 122 172 206 257 342 375
#     4  11  21  41  65  93 135 165 202 257 324 393
#     4  12  24  42  66  90 135 169 217 272 315 386
#     4  10  21  34  59  97 136 165 203 255 316 392
#     4  10  20  34  61  98 135 164 201 250 323 397
#
# _framework density 22.313307999999999
#
# number of rings (size 3 to 8) (size 9 to 14) (size 15 to 20)
#    0.000    1.000    1.250    6.750    8.750    0.000 
#    0.000    0.000    0.000    4.500    0.000    0.000 
#    0.000    0.000    0.000    0.000    0.000    0.000 
#
# Total GULP energy -89314.417266 kJ/mol
# GULP energy per Si atom -5582.151079 kJ/mol
# Density = 2.226252 g / cm^3
# Si number density = 22.313308 Si / 1000 Ang^3
#
#
#
# Elastic Constant Matrix: (Units=GPa)
#
#
# Indices 1 2 3 4 5 6 
#
# 1 45.1318 24.7792 13.2789 -3.5173 13.5028 -5.0852
# 2 24.7792 113.9809 45.2347 7.7150 -5.6167 -22.3083
# 3 13.2789 45.2347 166.9741 -2.9261 2.6010 -10.3949
# 4 -3.5173 7.7150 -2.9261 43.6530 -22.7896 1.9660
# 5 13.5028 -5.6167 2.6010 -22.7896 31.0541 -3.0456
# 6 -5.0852 -22.3083 -10.3949 1.9660 -3.0456 19.4920
#
#
#
# Elastic Compliance Matrix: (Units=1/GPa)
#
#
# Indices 1 2 3 4 5 6 
#
# 1 0.031894 -0.008063 -0.000375 -0.006545 -0.020456 -0.003643
# 2 -0.008063 0.014814 -0.002579 -0.000013 0.007833 0.014701
# 3 -0.000375 -0.002579 0.006762 0.000693 -0.000318 0.000437
# 4 -0.006545 -0.000013 0.000693 0.038713 0.031158 -0.000390
# 5 -0.020456 0.007833 -0.000318 0.031158 0.066455 0.010700
# 6 -0.003643 0.014701 0.000437 -0.000390 0.010700 0.069121
#
#
# Mechanical properties :
#
#
# Convention : Reuss Voigt Hill
#
# Bulk Modulus (GPa) = 31.81087 54.74137 43.27612
# Shear Modulus (GPa) = 19.21072 35.02608 27.11840
#
# Velocity S-wave (km/s) = 2.93738 3.96629 3.48996
# Velocity P-wave (km/s) = 5.07855 6.74993 5.97299
#
# Compressibility (1/GPa) = 0.03143579
#
# Stress axis : x y z
#
# Youngs Moduli (GPa) = 31.35398 67.50427 147.89045
#
# Poissons Ratio (x) = 0.54427 0.05546
# Poissons Ratio (y) = 0.25280 0.38142
# Poissons Ratio (z) = 0.01176 0.17410
#
# Static dielectric constant tensor:
#      x y z
#    x 1.847910 -0.034870 -0.027350 
#    y -0.034870 2.080360 -0.086990 
#    z -0.027350 -0.086990 1.861990 
# 
# From -- ./inp_files/538861.got.cif
#   From: 2010.05.17/outbox.cif.g08.bks.cpg/sg2_270_cif.got.tgz:538861.got - 2010.06.03 11:33:40.
