data_PCOD9094936
_publ_section_title
;
Structure prediction by ZEFSAII (Michael W. Deem and Ramdas Pophale) SiO2 
 PCOD9094936
Probable space group: P -1
;
_chemical_formula_sum "Si O2"
_cell_formula_units_Z 16
_cell_length_a 11.065629
_cell_length_b 9.126664
_cell_length_c 9.621372
_cell_angle_alpha 116.230160
_cell_angle_beta 54.560875
_cell_angle_gamma 111.679155
_cell_volume 701.581412
_symmetry_space_group_name_H-M "P -1"
_symmetry_group_IT_number 2
_symmetry_cell_setting 'triclinic'
loop_
_space_group_symop_operation_xyz
x,y,z
-x,-y,-z
loop_
_atom_site_type_symbol
_atom_site_label
_atom_site_fract_x
_atom_site_fract_y
_atom_site_fract_z
Si Si1 0.776685 0.330438 0.736412
Si Si2 0.280711 0.506245 0.901768
Si Si3 0.416239 0.269206 0.930967
Si Si4 0.353924 0.947017 0.670873
Si Si5 0.177623 0.351012 0.331588
Si Si6 0.909949 0.069813 0.376843
Si Si7 0.520784 0.315286 0.366923
Si Si8 0.187286 0.274856 0.610569
O O1 0.595557 0.304528 0.837108
O O2 0.839013 0.470205 0.641705
O O3 0.832880 0.163026 0.588952
O O4 0.821510 0.409544 0.889109
O O5 0.360411 0.378908 0.888513
O O6 0.400298 0.654265 0.820780
O O7 0.201186 0.403851 0.782468
O O8 0.366279 0.079234 0.842069
O O9 0.333591 0.316787 0.144617
O O10 0.205010 0.949565 0.683062
O O11 0.370063 0.766978 0.641368
O O12 0.500000 0.000000 0.500000
O O13 0.166056 0.349137 0.504781
O O14 0.058008 0.196511 0.295038
O O15 0.926572 0.888197 0.342160
O O16 0.500000 0.500000 0.500000
O O17 0.353224 0.218176 0.456906
#
# Coordination Sequence:
#
# PCOD9094936 Si02
#       8
#     2   2   2   2   2   2   2   2
#     4  11  23  42  67  97 130 168 220 275 320 380
#     4  10  21  38  62  97 125 165 216 272 317 376
#     4  11  21  43  69  96 130 169 223 269 319 387
#     4  12  21  40  66 100 129 174 217 270 323 386
#     4  11  26  42  66  98 130 177 215 264 330 388
#     4  12  25  42  66  93 141 171 214 267 330 389
#     4  10  20  34  64  96 126 160 218 267 318 375
#     4  11  21  41  64  90 132 175 215 258 326 393
#
# _framework density 22.805623000000001
#
# number of rings (size 3 to 8) (size 9 to 14) (size 15 to 20)
#    0.000    1.000    3.750    4.500    3.500    1.500 
#    0.000    3.125    0.000    0.000    0.000    0.000 
#    0.000    0.000    0.000    0.000    0.000    0.000 
#
# Total GULP energy -89484.419929 kJ/mol
# GULP energy per Si atom -5592.776246 kJ/mol
# Density = 2.275372 g / cm^3
# Si number density = 22.805623 Si / 1000 Ang^3
#
#
#
# Elastic Constant Matrix: (Units=GPa)
#
#
# Indices 1 2 3 4 5 6 
#
# 1 69.1428 33.5932 27.4562 -10.4099 20.3843 15.0867
# 2 33.5932 111.5030 33.7682 -0.6513 18.2337 4.3487
# 3 27.4562 33.7682 83.7016 11.1544 22.6779 -0.5330
# 4 -10.4099 -0.6513 11.1544 38.7350 1.5498 1.8260
# 5 20.3843 18.2337 22.6779 1.5498 37.9899 -6.1881
# 6 15.0867 4.3487 -0.5330 1.8260 -6.1881 37.5984
#
#
#
# Elastic Compliance Matrix: (Units=1/GPa)
#
#
# Indices 1 2 3 4 5 6 
#
# 1 0.025816 -0.003821 -0.005195 0.009402 -0.011306 -0.012308
# 2 -0.003821 0.011258 -0.002843 0.000052 -0.001672 -0.000087
# 3 -0.005195 -0.002843 0.017131 -0.006255 -0.005484 0.002058
# 4 0.009402 0.000052 -0.006255 0.030567 -0.003550 -0.005936
# 5 -0.011306 -0.001672 -0.005484 -0.003550 0.038426 0.011149
# 6 -0.012308 -0.000087 0.002058 -0.005936 0.011149 0.033698
#
#
# Mechanical properties :
#
#
# Convention : Reuss Voigt Hill
#
# Bulk Modulus (GPa) = 32.80083 50.44252 41.62167
# Shear Modulus (GPa) = 26.20871 34.16664 30.18768
#
# Velocity S-wave (km/s) = 3.39369 3.87482 3.64221
# Velocity P-wave (km/s) = 5.45621 6.49503 5.99815
#
# Compressibility (1/GPa) = 0.03048704
#
# Stress axis : x y z
#
# Youngs Moduli (GPa) = 38.73494 88.82903 58.37498
#
# Poissons Ratio (x) = 0.33940 0.30327
# Poissons Ratio (y) = 0.14800 0.16595
# Poissons Ratio (z) = 0.20124 0.25252
#
# Static dielectric constant tensor:
#      x y z
#    x 1.909650 0.028040 -0.018150 
#    y 0.028040 1.837810 -0.016060 
#    z -0.018150 -0.016060 1.879520 
# 
# From -- ./inp_files/244906.got.cif
#   From: 2010.05.17/outbox.cif.g08.bks.cpg/sg2_123_cif.got.tgz:244906.got - 2010.06.03 11:33:40.
