data_PCOD9094943
_publ_section_title
;
Structure prediction by ZEFSAII (Michael W. Deem and Ramdas Pophale) SiO2 
 PCOD9094943
Probable space group: P -1
;
_chemical_formula_sum "Si O2"
_cell_formula_units_Z 16
_cell_length_a 14.991334
_cell_length_b 9.255385
_cell_length_c 7.275239
_cell_angle_alpha 76.080112
_cell_angle_beta 93.575015
_cell_angle_gamma 141.009935
_cell_volume 603.503142
_symmetry_space_group_name_H-M "P -1"
_symmetry_group_IT_number 2
_symmetry_cell_setting 'triclinic'
loop_
_space_group_symop_operation_xyz
x,y,z
-x,-y,-z
loop_
_atom_site_type_symbol
_atom_site_label
_atom_site_fract_x
_atom_site_fract_y
_atom_site_fract_z
Si Si1 0.543339 0.456323 0.845960
Si Si2 0.235240 0.351203 0.910560
Si Si3 0.273877 0.917133 0.056250
Si Si4 0.728413 0.959943 0.588021
Si Si5 0.674082 0.376602 0.478186
Si Si6 0.375016 0.940102 0.733813
Si Si7 0.969142 0.194508 0.006135
Si Si8 0.017294 0.201213 0.436878
O O1 0.390679 0.175303 0.883402
O O2 0.623932 0.677776 0.654356
O O3 0.500000 0.500000 0.000000
O O4 0.664098 0.509165 0.940682
O O5 0.316509 0.460645 0.691587
O O6 0.148198 0.082993 0.987516
O O7 0.116067 0.326104 0.896089
O O8 0.310762 0.823811 0.963875
O O9 0.108706 0.752860 0.065620
O O10 0.308435 0.986759 0.253353
O O11 0.714388 0.049714 0.387145
O O12 0.891111 0.110664 0.568803
O O13 0.638424 0.216113 0.358620
O O14 0.825382 0.549050 0.545197
O O15 0.544231 0.205341 0.657744
O O16 0.992855 0.215739 0.219881
O O17 0.000000 0.000000 0.500000
#
# Coordination Sequence:
#
# PCOD9094943 Si02
#       8
#     2   2   2   2   2   2   2   2
#     4  10  20  34  65 101 128 166 214 281 331 382
#     4  11  21  41  66  98 137 168 221 279 340 393
#     4  11  23  43  66  98 133 176 224 273 339 393
#     4  11  23  43  68 101 136 170 225 278 331 399
#     4  11  26  47  66  94 139 178 224 280 320 406
#     4  11  27  48  66  96 135 187 227 263 331 403
#     4  11  22  38  64 103 132 168 218 278 346 395
#     4  12  24  40  68 102 135 172 221 282 341 390
#
# _framework density 26.511873999999999
#
# number of rings (size 3 to 8) (size 9 to 14) (size 15 to 20)
#    0.000    1.000    5.000    3.000    3.500    1.000 
#    2.250    3.125    0.000    0.000    0.000    0.000 
#    0.000    0.000    0.000    0.000    0.000    0.000 
#
# Total GULP energy -89564.493872 kJ/mol
# GULP energy per Si atom -5597.780867 kJ/mol
# Density = 2.645153 g / cm^3
# Si number density = 26.511874 Si / 1000 Ang^3
#
#
#
# Elastic Constant Matrix: (Units=GPa)
#
#
# Indices 1 2 3 4 5 6 
#
# 1 91.1620 24.0735 22.0119 -10.2835 -28.7740 24.9882
# 2 24.0735 71.9423 18.8504 -1.9091 -14.6166 19.9173
# 3 22.0119 18.8504 125.1106 22.6664 -26.3990 0.2458
# 4 -10.2835 -1.9091 22.6664 39.2875 1.1003 -3.6919
# 5 -28.7740 -14.6166 -26.3990 1.1003 46.0994 -4.2564
# 6 24.9882 19.9173 0.2458 -3.6919 -4.2564 26.3814
#
#
#
# Elastic Compliance Matrix: (Units=1/GPa)
#
#
# Indices 1 2 3 4 5 6 
#
# 1 0.019415 0.000803 -0.002373 0.004648 0.009351 -0.016815
# 2 0.000803 0.019026 -0.002359 0.001041 0.003834 -0.014339
# 3 -0.002373 -0.002359 0.010958 -0.006837 0.004551 0.003704
# 4 0.004648 0.001041 -0.006837 0.030605 -0.001515 -0.001086
# 5 0.009351 0.003834 0.004551 -0.001515 0.030736 -0.007047
# 6 -0.016815 -0.014339 0.003704 -0.001086 -0.007047 0.063335
#
#
# Mechanical properties :
#
#
# Convention : Reuss Voigt Hill
#
# Bulk Modulus (GPa) = 24.07281 46.45405 35.26343
# Shear Modulus (GPa) = 25.53896 37.23892 31.38894
#
# Velocity S-wave (km/s) = 3.10708 3.75188 3.44460
# Velocity P-wave (km/s) = 4.68739 6.02734 5.39910
#
# Compressibility (1/GPa) = 0.04154065
#
# Stress axis : x y z
#
# Youngs Moduli (GPa) = 51.50586 52.56063 91.26122
#
# Poissons Ratio (x) = -0.04223 0.21656
# Poissons Ratio (y) = -0.04138 0.21533
# Poissons Ratio (z) = 0.12222 0.12401
#
# Static dielectric constant tensor:
#      x y z
#    x 2.106580 -0.088910 -0.023800 
#    y -0.088910 2.253730 0.042110 
#    z -0.023800 0.042110 2.097600 
# 
# From -- ./inp_files/298537.got.cif
#   From: 2010.05.17/outbox.cif.g08.bks.cpg/sg2_150_cif.got.tgz:298537.got - 2010.06.03 11:33:40.
