data_PCOD9094642
_publ_section_title
;
Structure prediction by ZEFSAII (Michael W. Deem and Ramdas Pophale) SiO2 
 PCOD9094642
Probable space group: P -1
;
_chemical_formula_sum "Si O2"
_cell_formula_units_Z 16
_cell_length_a 11.225980
_cell_length_b 14.904419
_cell_length_c 8.211610
_cell_angle_alpha 61.213238
_cell_angle_beta 44.503101
_cell_angle_gamma 88.264122
_cell_volume 726.145353
_symmetry_space_group_name_H-M "P -1"
_symmetry_group_IT_number 2
_symmetry_cell_setting 'triclinic'
loop_
_space_group_symop_operation_xyz
x,y,z
-x,-y,-z
loop_
_atom_site_type_symbol
_atom_site_label
_atom_site_fract_x
_atom_site_fract_y
_atom_site_fract_z
Si Si1 0.791470 0.662734 0.601264
Si Si2 0.825810 0.260925 0.276472
Si Si3 0.559084 0.356558 0.524628
Si Si4 0.534192 0.963551 0.320786
Si Si5 0.203538 0.769694 0.284873
Si Si6 0.789646 0.884692 0.313510
Si Si7 0.267531 0.426891 0.585013
Si Si8 0.567331 0.749131 0.942230
O O1 0.807785 0.769017 0.379184
O O2 0.722781 0.556369 0.634797
O O3 0.645724 0.661561 0.884552
O O4 0.003334 0.707178 0.432986
O O5 0.711388 0.333589 0.297975
O O6 0.847143 0.257016 0.453115
O O7 0.673954 0.128230 0.477107
O O8 0.040580 0.328197 0.930425
O O9 0.424438 0.389354 0.521917
O O10 0.680167 0.461495 0.446939
O O11 0.426344 0.245411 0.873274
O O12 0.500000 0.000000 0.500000
O O13 0.651042 0.894770 0.307363
O O14 0.673151 0.087288 0.984854
O O15 0.349528 0.722331 0.133074
O O16 0.703982 0.865828 0.598307
O O17 0.000000 0.000000 0.000000
#
# Coordination Sequence:
#
# PCOD9094642 Si02
#       8
#     2   2   2   2   2   2   2   2
#     4  10  21  37  61  93 119 153 210 242 300 350
#     4  11  25  39  61  91 125 158 200 248 304 357
#     4  10  23  45  60  86 122 158 205 252 309 351
#     4  12  20  37  62  87 122 160 201 238 293 365
#     4  11  21  39  60  89 127 163 191 244 300 361
#     4  10  20  34  59  87 123 155 191 248 291 348
#     4  11  23  39  67  87 115 164 203 254 302 359
#     4   9  21  38  59  83 123 154 193 255 290 351
#
# _framework density 22.034157
#
# number of rings (size 3 to 8) (size 9 to 14) (size 15 to 20)
#    0.750    0.750    2.500    3.000    0.000    0.500 
#    0.000    2.500    0.000    8.250    0.000    0.000 
#    0.000    0.000    0.000    0.000    0.000    0.000 
#
# Total GULP energy -89295.014668 kJ/mol
# GULP energy per Si atom -5580.938417 kJ/mol
# Density = 2.198401 g / cm^3
# Si number density = 22.034157 Si / 1000 Ang^3
#
#
#
# Elastic Constant Matrix: (Units=GPa)
#
#
# Indices 1 2 3 4 5 6 
#
# 1 94.9120 31.6472 19.9977 -0.9444 -28.0325 -1.1287
# 2 31.6472 61.8987 3.9553 11.1759 -22.8616 5.7410
# 3 19.9977 3.9553 69.1671 14.7268 -14.6734 -0.3148
# 4 -0.9444 11.1759 14.7268 36.0557 0.7500 -3.1605
# 5 -28.0325 -22.8616 -14.6734 0.7500 31.9799 -4.9193
# 6 -1.1287 5.7410 -0.3148 -3.1605 -4.9193 38.3746
#
#
#
# Elastic Compliance Matrix: (Units=1/GPa)
#
#
# Indices 1 2 3 4 5 6 
#
# 1 0.015642 -0.005427 -0.003066 0.003394 0.008752 0.002648
# 2 -0.005427 0.027401 0.006214 -0.011795 0.017507 -0.002935
# 3 -0.003066 0.006214 0.019470 -0.010212 0.010881 -0.000306
# 4 0.003394 -0.011795 -0.010212 0.036168 -0.010465 0.003418
# 5 0.008752 0.017507 0.010881 -0.010465 0.057344 0.004217
# 6 0.002648 -0.002935 -0.000306 0.003418 0.004217 0.027395
#
#
# Mechanical properties :
#
#
# Convention : Reuss Voigt Hill
#
# Bulk Modulus (GPa) = 17.25465 37.46424 27.35945
# Shear Modulus (GPa) = 24.11997 32.64056 28.38027
#
# Velocity S-wave (km/s) = 3.31216 3.85302 3.59278
# Velocity P-wave (km/s) = 4.74079 6.06911 5.44560
#
# Compressibility (1/GPa) = 0.05795540
#
# Stress axis : x y z
#
# Youngs Moduli (GPa) = 63.93020 36.49472 51.36095
#
# Poissons Ratio (x) = 0.19807 0.15747
# Poissons Ratio (y) = 0.34697 -0.31917
# Poissons Ratio (z) = 0.19601 -0.22679
#
# Static dielectric constant tensor:
#      x y z
#    x 1.787820 -0.024210 0.026180 
#    y -0.024210 1.893010 0.006310 
#    z 0.026180 0.006310 1.820500 
# 
# From -- ./inp_files/272346.got.cif
#   From: 2010.05.17/outbox.cif.g08.bks.cpg/sg2_137_cif.got.tgz:272346.got - 2010.06.03 11:33:40.
