data_PCOD9094251
_publ_section_title
;
Structure prediction by ZEFSAII (Michael W. Deem and Ramdas Pophale) SiO2 
 PCOD9094251
Probable space group: P -1
;
_chemical_formula_sum "Si O2"
_cell_formula_units_Z 14
_cell_length_a 10.376565
_cell_length_b 5.450369
_cell_length_c 11.034772
_cell_angle_alpha 70.930214
_cell_angle_beta 106.358535
_cell_angle_gamma 112.012493
_cell_volume 537.736856
_symmetry_space_group_name_H-M "P -1"
_symmetry_group_IT_number 2
_symmetry_cell_setting 'triclinic'
loop_
_space_group_symop_operation_xyz
x,y,z
-x,-y,-z
loop_
_atom_site_type_symbol
_atom_site_label
_atom_site_fract_x
_atom_site_fract_y
_atom_site_fract_z
Si Si1 0.294549 0.419964 0.536023
Si Si2 0.573421 0.861514 0.847542
Si Si3 0.398075 0.518058 0.287942
Si Si4 0.983798 0.456485 0.186930
Si Si5 0.991042 0.073803 0.758253
Si Si6 0.721782 0.579973 0.116202
Si Si7 0.866108 0.193617 0.453147
O O1 0.298405 0.479505 0.384045
O O2 0.450654 0.476803 0.619517
O O3 0.222984 0.619165 0.550583
O O4 0.224445 0.096526 0.574801
O O5 0.638040 0.741099 0.769442
O O6 0.407177 0.676234 0.830961
O O7 0.587471 0.180266 0.806887
O O8 0.646089 0.764082 0.995575
O O9 0.070429 0.770631 0.180530
O O10 0.831336 0.454653 0.096226
O O11 0.955655 0.344254 0.337238
O O12 0.042479 0.243203 0.171981
O O13 0.161424 0.218649 0.796362
O O14 0.946466 0.131608 0.602468
#
# Coordination Sequence:
#
# PCOD9094251 Si02
#       7
#     2   2   2   2   2   2   2
#     4  11  24  39  62  86 112 152 198 239 289 337
#     4  11  23  38  63  85 118 155 190 236 287 343
#     4  11  24  42  59  86 115 150 197 246 283 330
#     4  10  20  34  55  88 123 153 179 232 283 355
#     4  10  22  35  56  89 127 147 187 231 286 353
#     4   9  24  35  61  90 120 151 192 224 293 350
#     4  12  21  37  62  87 120 154 186 236 293 341
#
# _framework density 26.035035000000001
#
# number of rings (size 3 to 8) (size 9 to 14) (size 15 to 20)
#    0.857    0.571    0.000    6.000    6.000    3.429 
#    0.000    0.000    0.000    5.143    0.000    0.000 
#    0.000    0.000    0.000    0.000    0.000    0.000 
#
# Total GULP energy -78336.873715 kJ/mol
# GULP energy per Si atom -5595.490980 kJ/mol
# Density = 2.597578 g / cm^3
# Si number density = 26.035035 Si / 1000 Ang^3
#
#
#
# Elastic Constant Matrix: (Units=GPa)
#
#
# Indices 1 2 3 4 5 6 
#
# 1 107.5880 49.7732 23.9282 1.0148 18.1348 -24.6644
# 2 49.7732 160.3118 12.8781 1.1715 0.1084 -42.9205
# 3 23.9282 12.8781 67.0147 0.8595 18.6509 1.2438
# 4 1.0148 1.1715 0.8595 38.0596 1.3863 11.4497
# 5 18.1348 0.1084 18.6509 1.3863 32.2096 2.0826
# 6 -24.6644 -42.9205 1.2438 11.4497 2.0826 45.9427
#
#
#
# Elastic Compliance Matrix: (Units=1/GPa)
#
#
# Indices 1 2 3 4 5 6 
#
# 1 0.013381 -0.002388 -0.002654 -0.001721 -0.006286 0.005738
# 2 -0.002388 0.009261 -0.001544 -0.002657 0.001805 0.007992
# 3 -0.002654 -0.001544 0.018776 0.000994 -0.009208 -0.003205
# 4 -0.001721 -0.002657 0.000994 0.029638 -0.000174 -0.010811
# 5 -0.006286 0.001805 -0.009208 -0.000174 0.040127 -0.003215
# 6 0.005738 0.007992 -0.003205 -0.010811 -0.003215 0.035240
#
#
# Mechanical properties :
#
#
# Convention : Reuss Voigt Hill
#
# Bulk Modulus (GPa) = 35.40219 56.45263 45.92741
# Shear Modulus (GPa) = 29.58401 39.79805 34.69103
#
# Velocity S-wave (km/s) = 3.37458 3.91402 3.65427
# Velocity P-wave (km/s) = 5.36761 6.49280 5.95683
#
# Compressibility (1/GPa) = 0.02824684
#
# Stress axis : x y z
#
# Youngs Moduli (GPa) = 74.73247 107.97739 53.26004
#
# Poissons Ratio (x) = 0.25788 0.14134
# Poissons Ratio (y) = 0.17848 0.08221
# Poissons Ratio (z) = 0.19833 0.16667
#
# Static dielectric constant tensor:
#      x y z
#    x 2.088690 -0.006530 -0.033410 
#    y -0.006530 2.065640 0.025840 
#    z -0.033410 0.025840 2.047340 
# 
# From -- ./inp_files/410312.got.cif
#   From: 2010.05.17/outbox.cif.g08.bks.cpg/sg2_206_cif.got.tgz:410312.got - 2010.06.03 11:33:40.
