data_PCOD9094967
_publ_section_title
;
Structure prediction by ZEFSAII (Michael W. Deem and Ramdas Pophale) SiO2 
 PCOD9094967
Probable space group: P -1
;
_chemical_formula_sum "Si O2"
_cell_formula_units_Z 14
_cell_length_a 19.801000
_cell_length_b 9.127661
_cell_length_c 14.726131
_cell_angle_alpha 40.613829
_cell_angle_beta 28.640147
_cell_angle_gamma 32.146905
_cell_volume 677.449526
_symmetry_space_group_name_H-M "P -1"
_symmetry_group_IT_number 2
_symmetry_cell_setting 'triclinic'
loop_
_space_group_symop_operation_xyz
x,y,z
-x,-y,-z
loop_
_atom_site_type_symbol
_atom_site_label
_atom_site_fract_x
_atom_site_fract_y
_atom_site_fract_z
Si Si1 0.908665 0.845238 0.657850
Si Si2 0.558936 0.196233 0.819395
Si Si3 0.517513 0.373737 0.137449
Si Si4 0.762056 0.752098 0.420991
Si Si5 0.553852 0.382767 0.391392
Si Si6 0.211286 0.448152 0.715737
Si Si7 0.844036 0.854607 0.931201
O O1 0.807408 0.883691 0.853755
O O2 0.059898 0.519038 0.622490
O O3 0.769355 0.993102 0.672036
O O4 0.000000 0.000000 0.500000
O O5 0.514801 0.413067 0.848686
O O6 0.450472 0.388118 0.771250
O O7 0.500000 0.000000 0.000000
O O8 0.390168 0.278673 0.350908
O O9 0.500000 0.500000 0.000000
O O10 0.714399 0.114245 0.023266
O O11 0.779346 0.716135 0.307896
O O12 0.709151 0.057779 0.361573
O O13 0.500000 0.500000 0.500000
O O14 0.392630 0.400538 0.528656
O O15 0.040849 0.752035 0.756631
O O16 0.174664 0.369214 0.893366
#
# Coordination Sequence:
#
# PCOD9094967 Si02
#       7
#     2   2   2   2   2   2   2
#     4  11  21  44  70  99 132 176 226 278 337 400
#     4  12  27  44  64 101 144 176 214 289 348 394
#     4  12  21  38  71  98 126 169 229 272 334 397
#     4  11  22  43  73  95 126 178 235 276 325 401
#     4  12  26  43  66  93 139 183 222 272 343 401
#     4  10  20  39  66  94 126 162 221 277 329 382
#     4  10  20  34  68 100 119 157 225 285 313 386
#
# _framework density 20.665745999999999
#
# number of rings (size 3 to 8) (size 9 to 14) (size 15 to 20)
#    0.000    0.857    5.714    2.143    4.000    0.000 
#    2.571    1.429    0.000    0.000    0.000    0.000 
#    0.000    0.000    0.000    0.000    0.000    0.000 
#
# Total GULP energy -78054.766714 kJ/mol
# GULP energy per Si atom -5575.340480 kJ/mol
# Density = 2.061871 g / cm^3
# Si number density = 20.665746 Si / 1000 Ang^3
#
#
#
# Elastic Constant Matrix: (Units=GPa)
#
#
# Indices 1 2 3 4 5 6 
#
# 1 50.8293 41.5552 7.9997 -4.6370 21.8901 -1.1275
# 2 41.5552 180.1793 35.5975 10.4428 3.8467 -11.1864
# 3 7.9997 35.5975 89.4489 -16.8623 22.6886 -1.6351
# 4 -4.6370 10.4428 -16.8623 42.3526 -6.4265 2.8697
# 5 21.8901 3.8467 22.6886 -6.4265 39.8107 0.2279
# 6 -1.1275 -11.1864 -1.6351 2.8697 0.2279 21.7236
#
#
#
# Elastic Compliance Matrix: (Units=1/GPa)
#
#
# Indices 1 2 3 4 5 6 
#
# 1 0.037037 -0.010138 0.007615 0.006371 -0.022678 -0.003329
# 2 -0.010138 0.009365 -0.005410 -0.004820 0.006949 0.004453
# 3 0.007615 -0.005410 0.017081 0.007245 -0.012218 -0.001934
# 4 0.006371 -0.004820 0.007245 0.028355 -0.002559 -0.005325
# 5 -0.022678 0.006949 -0.012218 -0.002559 0.043459 0.001364
# 6 -0.003329 0.004453 -0.001934 -0.005325 0.001364 0.048697
#
#
# Mechanical properties :
#
#
# Convention : Reuss Voigt Hill
#
# Bulk Modulus (GPa) = 21.00131 54.52916 37.76524
# Shear Modulus (GPa) = 23.17680 36.46439 29.82059
#
# Velocity S-wave (km/s) = 3.35253 4.20513 3.80280
# Velocity P-wave (km/s) = 5.01701 7.07256 6.13153
#
# Compressibility (1/GPa) = 0.04761607
#
# Stress axis : x y z
#
# Youngs Moduli (GPa) = 26.99967 106.78614 58.54376
#
# Poissons Ratio (x) = 1.08262 -0.44579
# Poissons Ratio (y) = 0.27373 0.31672
# Poissons Ratio (z) = -0.20559 0.57772
#
# Static dielectric constant tensor:
#      x y z
#    x 1.743830 -0.101200 0.020290 
#    y -0.101200 1.890200 -0.057840 
#    z 0.020290 -0.057840 1.794710 
# 
# From -- ./inp_files/256436.got.cif
#   From: 2010.05.17/outbox.cif.g08.bks.cpg/sg2_129_cif.got.tgz:256436.got - 2010.06.03 11:33:40.
