data_PCOD9094635
_publ_section_title
;
Structure prediction by ZEFSAII (Michael W. Deem and Ramdas Pophale) SiO2 
 PCOD9094635
Probable space group: P -1
;
_chemical_formula_sum "Si O2"
_cell_formula_units_Z 16
_cell_length_a 16.887708
_cell_length_b 6.004395
_cell_length_c 7.891569
_cell_angle_alpha 83.645778
_cell_angle_beta 56.657863
_cell_angle_gamma 79.188328
_cell_volume 656.602709
_symmetry_space_group_name_H-M "P -1"
_symmetry_group_IT_number 2
_symmetry_cell_setting 'triclinic'
loop_
_space_group_symop_operation_xyz
x,y,z
-x,-y,-z
loop_
_atom_site_type_symbol
_atom_site_label
_atom_site_fract_x
_atom_site_fract_y
_atom_site_fract_z
Si Si1 0.737089 0.590559 0.533823
Si Si2 0.534845 0.538248 0.713387
Si Si3 0.837216 0.198720 0.641800
Si Si4 0.804830 0.337209 0.127580
Si Si5 0.555211 0.797942 0.338842
Si Si6 0.868343 0.925049 0.298501
Si Si7 0.335006 0.856475 0.947680
Si Si8 0.963525 0.376483 0.718840
O O1 0.627436 0.571905 0.708982
O O2 0.802285 0.462392 0.615731
O O3 0.767084 0.449170 0.338871
O O4 0.766360 0.834305 0.442385
O O5 0.570145 0.605371 0.479190
O O6 0.504280 0.292783 0.736393
O O7 0.439576 0.707501 0.866230
O O8 0.912551 0.181214 0.705426
O O9 0.880699 0.072015 0.437472
O O10 0.738999 0.111961 0.814684
O O11 0.718576 0.278664 0.116919
O O12 0.865724 0.093278 0.130335
O O13 0.873727 0.484493 0.932912
O O14 0.500000 0.000000 0.500000
O O15 0.646484 0.898088 0.157261
O O16 0.951048 0.711413 0.244690
O O17 0.000000 0.500000 0.500000
#
# Coordination Sequence:
#
# PCOD9094635 Si02
#       8
#     2   2   2   2   2   2   2   2
#     4  11  22  40  60  93 127 163 204 252 304 362
#     4  10  20  34  59  86 124 165 205 252 299 355
#     4  10  24  42  61  90 126 158 208 257 303 374
#     4  10  23  40  64  95 125 154 212 254 296 375
#     4   9  17  32  54  83 115 157 205 248 297 350
#     4  11  23  43  65  89 124 168 199 252 317 364
#     4  10  21  39  60  90 123 163 209 254 299 358
#     4  11  22  46  67  91 122 162 199 258 317 370
#
# _framework density 24.367856
#
# number of rings (size 3 to 8) (size 9 to 14) (size 15 to 20)
#    0.000    1.750    1.250    3.750    0.000    5.000 
#    9.000    1.250    0.000    0.000    0.000    0.000 
#    0.000    0.000    0.000    0.000    0.000    0.000 
#
# Total GULP energy -89310.423234 kJ/mol
# GULP energy per Si atom -5581.901452 kJ/mol
# Density = 2.431239 g / cm^3
# Si number density = 24.367856 Si / 1000 Ang^3
#
#
#
# Elastic Constant Matrix: (Units=GPa)
#
#
# Indices 1 2 3 4 5 6 
#
# 1 112.6041 9.7275 26.6727 7.1206 -22.1168 -8.9038
# 2 9.7275 31.9273 15.5190 -10.6688 -7.1868 0.3611
# 3 26.6727 15.5190 115.0898 -28.9037 -19.5776 -11.8514
# 4 7.1206 -10.6688 -28.9037 29.9333 5.2703 -5.7133
# 5 -22.1168 -7.1868 -19.5776 5.2703 37.3404 -0.0624
# 6 -8.9038 0.3611 -11.8514 -5.7133 -0.0624 23.7870
#
#
#
# Elastic Compliance Matrix: (Units=1/GPa)
#
#
# Indices 1 2 3 4 5 6 
#
# 1 0.011596 -0.003346 -0.003121 -0.007778 0.005687 0.000983
# 2 -0.003346 0.037742 -0.000145 0.013807 0.003260 0.001427
# 3 -0.003121 -0.000145 0.015430 0.016937 0.003841 0.010600
# 4 -0.007778 0.013807 0.016937 0.060606 -0.001591 0.019870
# 5 0.005687 0.003260 0.003841 -0.001591 0.033021 0.003697
# 6 0.000983 0.001427 0.010600 0.019870 0.003697 0.052450
#
#
# Mechanical properties :
#
#
# Convention : Reuss Voigt Hill
#
# Bulk Modulus (GPa) = 19.40078 40.38441 29.89260
# Shear Modulus (GPa) = 20.72538 32.05894 26.39216
#
# Velocity S-wave (km/s) = 2.91953 3.63109 3.29458
# Velocity P-wave (km/s) = 4.39816 5.84710 5.17360
#
# Compressibility (1/GPa) = 0.05154431
#
# Stress axis : x y z
#
# Youngs Moduli (GPa) = 86.23940 26.49546 64.80795
#
# Poissons Ratio (x) = 0.08865 0.20226
# Poissons Ratio (y) = 0.28856 0.00939
# Poissons Ratio (z) = 0.26915 0.00384
#
# Static dielectric constant tensor:
#      x y z
#    x 2.009160 -0.056830 -0.011860 
#    y -0.056830 1.988430 -0.028770 
#    z -0.011860 -0.028770 1.969280 
# 
# From -- ./inp_files/323521.got.cif
#   From: 2010.05.17/outbox.cif.g08.bks.cpg/sg2_162_cif.got.tgz:323521.got - 2010.06.03 11:33:40.
