data_PCOD9094690
_publ_section_title
;
Structure prediction by ZEFSAII (Michael W. Deem and Ramdas Pophale) SiO2 
 PCOD9094690
Probable space group: P -1
;
_chemical_formula_sum "Si O2"
_cell_formula_units_Z 16
_cell_length_a 15.158310
_cell_length_b 12.777841
_cell_length_c 17.839454
_cell_angle_alpha 132.960669
_cell_angle_beta 151.004871
_cell_angle_gamma 28.742939
_cell_volume 749.443558
_symmetry_space_group_name_H-M "P -1"
_symmetry_group_IT_number 2
_symmetry_cell_setting 'triclinic'
loop_
_space_group_symop_operation_xyz
x,y,z
-x,-y,-z
loop_
_atom_site_type_symbol
_atom_site_label
_atom_site_fract_x
_atom_site_fract_y
_atom_site_fract_z
Si Si1 0.663814 0.348282 0.621715
Si Si2 0.296112 0.864139 0.226548
Si Si3 0.329881 0.345902 0.839207
Si Si4 0.740478 0.406111 0.858767
Si Si5 0.852267 0.437670 0.337637
Si Si6 0.669204 0.696018 0.562257
Si Si7 0.256364 0.091766 0.180496
Si Si8 0.222796 0.807891 0.777362
O O1 0.500000 0.500000 0.500000
O O2 0.732127 0.424478 0.773028
O O3 0.452170 0.369535 0.519694
O O4 0.976658 0.077282 0.705729
O O5 0.159779 0.819882 0.152862
O O6 0.528460 0.646610 0.236693
O O7 0.501904 0.816386 0.417006
O O8 0.129652 0.069498 0.143853
O O9 0.192500 0.545859 0.776312
O O10 0.027287 0.464512 0.704399
O O11 0.518441 0.124968 0.815702
O O12 0.550553 0.274205 0.030067
O O13 0.426056 0.637720 0.774876
O O14 0.998280 0.327211 0.055518
O O15 0.953767 0.222053 0.338803
O O16 0.000000 0.500000 0.500000
O O17 0.592759 0.879018 0.645233
#
# Coordination Sequence:
#
# PCOD9094690 Si02
#       8
#     2   2   2   2   2   2   2   2
#     4  11  27  48  67  91 118 162 225 277 324 373
#     4   9  20  33  55  93 136 170 204 243 299 382
#     4  11  22  38  60  97 137 168 202 250 311 386
#     4  10  21  41  64  92 127 163 216 257 314 382
#     4  10  20  34  59  99 135 171 209 238 301 386
#     4  11  23  39  63  90 127 167 212 262 315 367
#     4  11  21  35  62  96 135 169 204 248 307 385
#     4  11  23  42  68  89 133 173 203 262 318 368
#
# _framework density 21.349171999999999
#
# number of rings (size 3 to 8) (size 9 to 14) (size 15 to 20)
#    0.000    1.500    3.750    1.125    3.500    2.500 
#    0.000    1.250    0.000    0.000    0.000    0.000 
#    0.000    0.000    0.000    0.000    0.000    0.000 
#
# Total GULP energy -89246.504833 kJ/mol
# GULP energy per Si atom -5577.906552 kJ/mol
# Density = 2.130058 g / cm^3
# Si number density = 21.349172 Si / 1000 Ang^3
#
#
#
# Elastic Constant Matrix: (Units=GPa)
#
#
# Indices 1 2 3 4 5 6 
#
# 1 81.1501 33.7470 41.0487 -17.4513 -28.6943 -10.9320
# 2 33.7470 71.6679 34.4422 -10.3645 -17.4174 -22.4282
# 3 41.0487 34.4422 114.1234 -15.5108 -27.7690 -4.8995
# 4 -17.4513 -10.3645 -15.5108 32.1251 -0.7846 -1.2675
# 5 -28.6943 -17.4174 -27.7690 -0.7846 49.0310 -8.5864
# 6 -10.9320 -22.4282 -4.8995 -1.2675 -8.5864 26.3928
#
#
#
# Elastic Compliance Matrix: (Units=1/GPa)
#
#
# Indices 1 2 3 4 5 6 
#
# 1 0.023722 0.000512 -0.002488 0.012842 0.015572 0.015482
# 2 0.000512 0.029396 -0.002908 0.009889 0.014479 0.029838
# 3 -0.002488 -0.002908 0.012158 0.003707 0.004527 0.000406
# 4 0.012842 0.009889 0.003707 0.044398 0.017746 0.022316
# 5 0.015572 0.014479 0.004527 0.017746 0.043562 0.034619
# 6 0.015482 0.029838 0.000406 0.022316 0.034619 0.082067
#
#
# Mechanical properties :
#
#
# Convention : Reuss Voigt Hill
#
# Bulk Modulus (GPa) = 18.01526 53.93526 35.97526
# Shear Modulus (GPa) = 18.97002 32.02336 25.49669
#
# Velocity S-wave (km/s) = 2.98411 3.87716 3.45957
# Velocity P-wave (km/s) = 4.50887 6.73509 5.73111
#
# Compressibility (1/GPa) = 0.05550851
#
# Stress axis : x y z
#
# Youngs Moduli (GPa) = 42.15529 34.01807 82.25239
#
# Poissons Ratio (x) = -0.01742 0.20463
# Poissons Ratio (y) = -0.02159 0.23917
# Poissons Ratio (z) = 0.10488 0.09892
#
# Static dielectric constant tensor:
#      x y z
#    x 1.771070 0.007840 0.025630 
#    y 0.007840 1.840460 0.036600 
#    z 0.025630 0.036600 1.885420 
# 
# From -- ./inp_files/499777.got.cif
#   From: 2010.05.17/outbox.cif.g08.bks.cpg/sg2_250_cif.got.tgz:499777.got - 2010.06.03 11:33:40.
