data_PCOD9094423
_publ_section_title
;
Structure prediction by ZEFSAII (Michael W. Deem and Ramdas Pophale) SiO2 
 PCOD9094423
Probable space group: P -1
;
_chemical_formula_sum "Si O2"
_cell_formula_units_Z 16
_cell_length_a 7.803785
_cell_length_b 20.505366
_cell_length_c 5.813050
_cell_angle_alpha 103.336657
_cell_angle_beta 139.835842
_cell_angle_gamma 71.173157
_cell_volume 567.668263
_symmetry_space_group_name_H-M "P -1"
_symmetry_group_IT_number 2
_symmetry_cell_setting 'triclinic'
loop_
_space_group_symop_operation_xyz
x,y,z
-x,-y,-z
loop_
_atom_site_type_symbol
_atom_site_label
_atom_site_fract_x
_atom_site_fract_y
_atom_site_fract_z
Si Si1 0.712197 0.984033 0.409545
Si Si2 0.050767 0.765602 0.491816
Si Si3 0.015882 0.641519 0.652581
Si Si4 0.374404 0.262440 0.342052
Si Si5 0.734302 0.482684 0.419166
Si Si6 0.678336 0.861862 0.576471
Si Si7 0.531531 0.392523 0.519189
Si Si8 0.110138 0.888205 0.411817
O O1 0.600134 0.935987 0.433443
O O2 0.987216 0.936404 0.543521
O O3 0.760087 0.059888 0.566623
O O4 0.500000 0.000000 0.000000
O O5 0.133963 0.694264 0.656531
O O6 0.236163 0.814867 0.609853
O O7 0.859253 0.814801 0.524668
O O8 0.867062 0.749639 0.078770
O O9 0.998754 0.570914 0.448604
O O10 0.745184 0.687604 0.524668
O O11 0.232495 0.619492 0.058723
O O12 0.500571 0.189172 0.538739
O O13 0.505231 0.315666 0.377303
O O14 0.623569 0.434454 0.444591
O O15 0.736028 0.553723 0.608188
O O16 0.500000 0.500000 0.000000
O O17 0.868284 0.874737 0.992990
#
# Coordination Sequence:
#
# PCOD9094423 Si02
#       8
#     2   2   2   2   2   2   2   2
#     4  10  20  34  57  84 110 144 187 228 272 328
#     4   9  19  36  56  81 113 148 188 231 278 329
#     4  10  20  37  59  83 112 147 189 235 282 338
#     4  10  21  37  59  84 112 148 190 235 282 334
#     4   9  20  38  57  82 115 147 185 232 283 340
#     4   9  19  37  55  79 115 148 184 230 278 329
#     4  10  21  38  58  82 114 149 186 234 285 335
#     4   9  19  37  55  77 114 150 180 227 278 324
#
# _framework density 28.185475
#
# number of rings (size 3 to 8) (size 9 to 14) (size 15 to 20)
#    0.000    2.500    0.000    1.125    0.000    6.000 
#    0.000   22.500    0.000    0.000    0.000    0.000 
#    0.000    0.000    0.000    0.000    0.000    0.000 
#
# Total GULP energy -89469.969190 kJ/mol
# GULP energy per Si atom -5591.873074 kJ/mol
# Density = 2.812132 g / cm^3
# Si number density = 28.185475 Si / 1000 Ang^3
#
#
#
# Elastic Constant Matrix: (Units=GPa)
#
#
# Indices 1 2 3 4 5 6 
#
# 1 89.5922 37.1785 6.1446 -9.1828 -23.7936 42.7536
# 2 37.1785 296.7617 53.1522 -11.1026 -18.5723 23.4063
# 3 6.1446 53.1522 64.3934 -14.4028 -2.8468 15.5896
# 4 -9.1828 -11.1026 -14.4028 53.9201 14.0381 -25.7423
# 5 -23.7936 -18.5723 -2.8468 14.0381 33.4565 -1.3552
# 6 42.7536 23.4063 15.5896 -25.7423 -1.3552 78.6355
#
#
#
# Elastic Compliance Matrix: (Units=1/GPa)
#
#
# Indices 1 2 3 4 5 6 
#
# 1 0.022302 -0.001062 0.001300 -0.007544 0.017971 -0.014227
# 2 -0.001062 0.004202 -0.003412 -0.000742 0.001590 -0.000213
# 3 0.001300 -0.003412 0.019613 0.003925 -0.001041 -0.002313
# 4 -0.007544 -0.000742 0.003925 0.028584 -0.016926 0.012610
# 5 0.017971 0.001590 -0.001041 -0.016926 0.049970 -0.014717
# 6 -0.014227 -0.000213 -0.002313 0.012610 -0.014717 0.024848
#
#
# Mechanical properties :
#
#
# Convention : Reuss Voigt Hill
#
# Bulk Modulus (GPa) = 25.14475 71.52199 48.33337
# Shear Modulus (GPa) = 29.56428 56.82057 43.19242
#
# Velocity S-wave (km/s) = 3.24222 4.49481 3.91888
# Velocity P-wave (km/s) = 4.79129 7.23659 6.13697
#
# Compressibility (1/GPa) = 0.03976973
#
# Stress axis : x y z
#
# Youngs Moduli (GPa) = 44.83954 237.96296 50.98580
#
# Poissons Ratio (x) = 0.25279 -0.06629
# Poissons Ratio (y) = 0.04763 0.17395
# Poissons Ratio (z) = -0.05830 0.81185
#
# Static dielectric constant tensor:
#      x y z
#    x 2.509220 -0.011020 0.006740 
#    y -0.011020 2.245080 0.019490 
#    z 0.006740 0.019490 2.057550 
# 
# From -- ./inp_files/10858.got.cif
#   From: 2010.05.17/outbox.cif.g08.bks.cpg/sg2_6_cif.got.tgz:10858.got - 2010.06.03 11:33:40.
