data_PCOD9094481
_publ_section_title
;
Structure prediction by ZEFSAII (Michael W. Deem and Ramdas Pophale) SiO2 
 PCOD9094481
Probable space group: P -1
;
_chemical_formula_sum "Si O2"
_cell_formula_units_Z 16
_cell_length_a 8.618189
_cell_length_b 7.884033
_cell_length_c 21.537757
_cell_angle_alpha 77.032037
_cell_angle_beta 30.290267
_cell_angle_gamma 86.199443
_cell_volume 694.672824
_symmetry_space_group_name_H-M "P -1"
_symmetry_group_IT_number 2
_symmetry_cell_setting 'triclinic'
loop_
_space_group_symop_operation_xyz
x,y,z
-x,-y,-z
loop_
_atom_site_type_symbol
_atom_site_label
_atom_site_fract_x
_atom_site_fract_y
_atom_site_fract_z
Si Si1 0.272023 0.773976 0.370776
Si Si2 0.469963 0.735939 0.493917
Si Si3 0.180059 0.803232 0.800848
Si Si4 0.686207 0.336621 0.113071
Si Si5 0.256978 0.077662 0.498405
Si Si6 0.921349 0.849718 0.214148
Si Si7 0.230812 0.586421 0.059878
Si Si8 0.908860 0.549241 0.631940
O O1 0.629106 0.813544 0.268642
O O2 0.230379 0.640354 0.337688
O O3 0.097053 0.923690 0.397690
O O4 0.062022 0.677410 0.510399
O O5 0.596494 0.759865 0.517789
O O6 0.760955 0.790041 0.340856
O O7 0.201944 0.562557 0.577498
O O8 0.283476 0.893800 0.536003
O O9 0.241327 0.808645 0.852754
O O10 0.506975 0.884999 0.644412
O O11 0.052539 0.594473 0.841904
O O12 0.955396 0.932795 0.848676
O O13 0.375892 0.391180 0.241093
O O14 0.663349 0.307274 0.049873
O O15 0.000000 0.500000 0.000000
O O16 0.136988 0.722535 0.129065
O O17 0.500000 0.500000 0.000000
#
# Coordination Sequence:
#
# PCOD9094481 Si02
#       8
#     2   2   2   2   2   2   2   2
#     4  10  20  34  62  93 121 154 202 253 304 381
#     4   9  22  36  59  92 133 154 197 255 310 391
#     4  10  22  41  67  89 128 165 203 266 306 364
#     4  10  21  39  61  88 123 165 215 258 300 361
#     4  10  20  37  58  95 127 162 196 244 326 375
#     4  10  23  43  63  96 125 160 211 259 313 373
#     4  11  26  44  64  89 125 168 216 260 306 372
#     4  10  20  34  57  89 119 162 200 255 309 358
#
# _framework density 23.032425
#
# number of rings (size 3 to 8) (size 9 to 14) (size 15 to 20)
#    0.000    2.000    1.250    1.500    7.000    4.000 
#    0.000    0.000    0.000    0.000    0.000    0.000 
#    0.000    0.000    0.000    0.000    0.000    0.000 
#
# Total GULP energy -89431.896569 kJ/mol
# GULP energy per Si atom -5589.493536 kJ/mol
# Density = 2.298000 g / cm^3
# Si number density = 23.032425 Si / 1000 Ang^3
#
#
#
# Elastic Constant Matrix: (Units=GPa)
#
#
# Indices 1 2 3 4 5 6 
#
# 1 92.4027 1.0593 15.5674 1.8094 9.1639 2.1766
# 2 1.0593 83.9959 23.3657 16.9670 9.0075 -4.8903
# 3 15.5674 23.3657 79.3445 17.9143 -2.1275 -3.8550
# 4 1.8094 16.9670 17.9143 39.6621 1.7830 -0.1555
# 5 9.1639 9.0075 -2.1275 1.7830 24.4102 3.2616
# 6 2.1766 -4.8903 -3.8550 -0.1555 3.2616 39.7124
#
#
#
# Elastic Compliance Matrix: (Units=1/GPa)
#
#
# Indices 1 2 3 4 5 6 
#
# 1 0.011801 0.001072 -0.002908 0.000543 -0.005068 -0.000379
# 2 0.001072 0.014519 -0.003570 -0.004371 -0.006000 0.001858
# 3 -0.002908 -0.003570 0.015637 -0.005582 0.004062 0.000882
# 4 0.000543 -0.004371 -0.005582 0.029626 -0.001121 -0.000902
# 5 -0.005068 -0.006000 0.004062 -0.001121 0.046034 -0.003852
# 6 -0.000379 0.001858 0.000882 -0.000902 -0.003852 0.025829
#
#
# Mechanical properties :
#
#
# Convention : Reuss Voigt Hill
#
# Bulk Modulus (GPa) = 32.10711 37.30310 34.70510
# Shear Modulus (GPa) = 30.36932 35.14031 32.75481
#
# Velocity S-wave (km/s) = 3.63512 3.91024 3.77519
# Velocity P-wave (km/s) = 5.62041 6.05126 5.83981
#
# Compressibility (1/GPa) = 0.03114575
#
# Stress axis : x y z
#
# Youngs Moduli (GPa) = 84.74066 68.87341 63.95024
#
# Poissons Ratio (x) = -0.07382 0.18595
# Poissons Ratio (y) = -0.09083 0.22829
# Poissons Ratio (z) = 0.24641 0.24586
#
# Static dielectric constant tensor:
#      x y z
#    x 1.898530 0.041010 -0.020070 
#    y 0.041010 2.021910 -0.023980 
#    z -0.020070 -0.023980 1.813840 
# 
# From -- ./inp_files/587956.got.cif
#   From: 2010.05.17/outbox.cif.g08.bks.cpg/sg2_294_cif.got.tgz:587956.got - 2010.06.03 11:33:40.
