data_PCOD9094317
_publ_section_title
;
Structure prediction by ZEFSAII (Michael W. Deem and Ramdas Pophale) SiO2 
 PCOD9094317
Probable space group: P -1
;
_chemical_formula_sum "Si O2"
_cell_formula_units_Z 16
_cell_length_a 9.763399
_cell_length_b 14.211515
_cell_length_c 23.491113
_cell_angle_alpha 16.949810
_cell_angle_beta 131.804196
_cell_angle_gamma 130.637305
_cell_volume 706.939823
_symmetry_space_group_name_H-M "P -1"
_symmetry_group_IT_number 2
_symmetry_cell_setting 'triclinic'
loop_
_space_group_symop_operation_xyz
x,y,z
-x,-y,-z
loop_
_atom_site_type_symbol
_atom_site_label
_atom_site_fract_x
_atom_site_fract_y
_atom_site_fract_z
Si Si1 0.184839 0.099379 0.289703
Si Si2 0.879154 0.040641 0.520932
Si Si3 0.433642 0.972427 0.062958
Si Si4 0.526243 0.155053 0.279453
Si Si5 0.798399 0.900798 0.974997
Si Si6 0.783640 0.122735 0.143854
Si Si7 0.070415 0.514007 0.218800
Si Si8 0.471792 0.926318 0.802075
O O1 0.168122 0.927664 0.445252
O O2 0.352047 0.004171 0.352903
O O3 0.990758 0.039511 0.239162
O O4 0.216253 0.486122 0.086973
O O5 0.932772 0.683551 0.726088
O O6 0.702865 0.098044 0.399472
O O7 0.036852 0.280864 0.399018
O O8 0.268814 0.695698 0.175509
O O9 0.627669 0.953952 0.158965
O O10 0.500000 0.000000 0.000000
O O11 0.325149 0.215827 0.935698
O O12 0.535222 0.009742 0.303207
O O13 0.501767 0.540475 0.042659
O O14 0.887043 0.709373 0.057821
O O15 0.645499 0.097537 0.785613
O O16 0.000000 0.000000 0.000000
O O17 0.717749 0.027509 0.244510
#
# Coordination Sequence:
#
# PCOD9094317 Si02
#       8
#     2   2   2   2   2   2   2   2
#     4  10  21  36  57  88 116 152 192 242 294 340
#     4  11  22  36  59  85 124 152 194 234 293 357
#     4  10  20  38  61  89 116 148 194 248 286 336
#     4  10  20  34  56  83 115 153 188 243 287 336
#     4   9  18  35  59  83 111 149 194 234 280 336
#     4   9  20  36  59  85 113 147 195 244 289 333
#     4  10  22  36  58  86 115 156 197 225 294 347
#     4   9  18  33  55  82 114 142 197 239 278 337
#
# _framework density 22.632760000000001
#
# number of rings (size 3 to 8) (size 9 to 14) (size 15 to 20)
#    0.000    2.250    1.250    1.125    3.500    4.000 
#    2.250    0.625    2.750    0.750    0.000    0.000 
#    0.000    0.000    0.000    0.000    0.000    0.000 
#
# Total GULP energy -89077.262230 kJ/mol
# GULP energy per Si atom -5567.328889 kJ/mol
# Density = 2.258125 g / cm^3
# Si number density = 22.632760 Si / 1000 Ang^3
#
#
#
# Elastic Constant Matrix: (Units=GPa)
#
#
# Indices 1 2 3 4 5 6 
#
# 1 194.6911 74.7147 30.1766 15.8249 -29.9031 14.9220
# 2 74.7147 98.5856 15.3354 10.0377 -24.9698 27.0358
# 3 30.1766 15.3354 15.9196 10.2046 -6.7922 5.0191
# 4 15.8249 10.0377 10.2046 23.0402 -2.4164 -5.4299
# 5 -29.9031 -24.9698 -6.7922 -2.4164 25.6791 5.7062
# 6 14.9220 27.0358 5.0191 -5.4299 5.7062 47.2178
#
#
#
# Elastic Compliance Matrix: (Units=1/GPa)
#
#
# Indices 1 2 3 4 5 6 
#
# 1 0.009178 -0.004876 -0.013765 0.002474 0.002234 0.001369
# 2 -0.004876 0.024574 0.009997 -0.013553 0.023586 -0.018001
# 3 -0.013765 0.009997 0.138997 -0.059530 0.030792 -0.026716
# 4 0.002474 -0.013553 -0.059530 0.077346 -0.024353 0.025144
# 5 0.002234 0.023586 0.030792 -0.024353 0.076904 -0.029579
# 6 0.001369 -0.018001 -0.026716 0.025144 -0.029579 0.040359
#
#
# Mechanical properties :
#
#
# Convention : Reuss Voigt Hill
#
# Bulk Modulus (GPa) = 6.43245 61.07217 33.75231
# Shear Modulus (GPa) = 11.45561 31.78540 21.62050
#
# Velocity S-wave (km/s) = 2.25222 3.75160 3.09410
# Velocity P-wave (km/s) = 3.10026 6.76820 5.26403
#
# Compressibility (1/GPa) = 0.15546181
#
# Stress axis : x y z
#
# Youngs Moduli (GPa) = 108.95266 40.69274 7.19439
#
# Poissons Ratio (x) = 0.19842 0.09903
# Poissons Ratio (y) = 0.53127 -0.07192
# Poissons Ratio (z) = 1.49972 -0.40680
#
# Static dielectric constant tensor:
#      x y z
#    x 1.834680 -0.055650 0.045130 
#    y -0.055650 1.915010 -0.102140 
#    z 0.045130 -0.102140 1.947470 
# 
# From -- ./inp_files/397128.got.cif
#   From: 2010.05.17/outbox.cif.g08.bks.cpg/sg2_199_cif.got.tgz:397128.got - 2010.06.03 11:33:40.
