data_PCOD9094559
_publ_section_title
;
Structure prediction by ZEFSAII (Michael W. Deem and Ramdas Pophale) SiO2 
 PCOD9094559
Probable space group: P -1
;
_chemical_formula_sum "Si O2"
_cell_formula_units_Z 16
_cell_length_a 7.974459
_cell_length_b 25.183801
_cell_length_c 7.968423
_cell_angle_alpha 144.077065
_cell_angle_beta 50.852056
_cell_angle_gamma 131.060825
_cell_volume 689.824139
_symmetry_space_group_name_H-M "P -1"
_symmetry_group_IT_number 2
_symmetry_cell_setting 'triclinic'
loop_
_space_group_symop_operation_xyz
x,y,z
-x,-y,-z
loop_
_atom_site_type_symbol
_atom_site_label
_atom_site_fract_x
_atom_site_fract_y
_atom_site_fract_z
Si Si1 0.288310 0.360369 0.255292
Si Si2 0.650018 0.114396 0.918244
Si Si3 0.805409 0.299592 0.506224
Si Si4 0.427289 0.184158 0.670480
Si Si5 0.264198 0.053626 0.764483
Si Si6 0.717638 0.462838 0.789827
Si Si7 0.227083 0.541945 0.628061
Si Si8 0.171463 0.997982 0.231773
O O1 0.237657 0.432945 0.340477
O O2 0.543681 0.404806 0.279635
O O3 0.076060 0.346408 0.479686
O O4 0.280153 0.255265 0.942929
O O5 0.397482 0.090196 0.943131
O O6 0.741153 0.054107 0.562596
O O7 0.761026 0.224487 0.184717
O O8 0.681363 0.060424 0.929157
O O9 0.679546 0.243040 0.603069
O O10 0.695047 0.381565 0.735400
O O11 0.397105 0.127290 0.720214
O O12 0.316058 0.106649 0.400915
O O13 0.003529 0.052364 0.929295
O O14 0.743634 0.419847 0.480827
O O15 0.977143 0.536448 0.839971
O O16 0.500000 0.500000 0.000000
O O17 0.000000 0.000000 0.500000
#
# Coordination Sequence:
#
# PCOD9094559 Si02
#       8
#     2   2   2   2   2   2   2   2
#     4  10  20  38  61  83 117 150 205 240 291 364
#     4   9  18  34  55  86 116 154 202 241 290 353
#     4  11  22  35  61  90 119 153 196 253 296 351
#     4  10  20  34  58  87 118 156 195 244 303 346
#     4   9  18  34  60  81 117 165 198 242 296 353
#     4  10  21  39  59  85 123 149 193 246 296 352
#     4   9  21  38  61  84 108 166 191 234 305 356
#     4   8  16  33  56  78 114 160 193 238 295 344
#
# _framework density 23.194317999999999
#
# number of rings (size 3 to 8) (size 9 to 14) (size 15 to 20)
#    0.000    2.750    0.000    3.000    1.750    3.000 
#    0.000    4.375   16.500    0.000    0.000    1.750 
#    0.000    0.000    0.000    0.000    0.000    0.000 
#
# Total GULP energy -89115.347512 kJ/mol
# GULP energy per Si atom -5569.709219 kJ/mol
# Density = 2.314153 g / cm^3
# Si number density = 23.194318 Si / 1000 Ang^3
#
#
#
# Elastic Constant Matrix: (Units=GPa)
#
#
# Indices 1 2 3 4 5 6 
#
# 1 168.6130 39.5361 34.0061 3.6859 -24.2745 21.9475
# 2 39.5361 91.7339 30.9568 -5.9004 -25.7367 -1.1912
# 3 34.0061 30.9568 90.6252 4.1964 -22.4724 1.7600
# 4 3.6859 -5.9004 4.1964 26.3045 -3.7631 -2.8679
# 5 -24.2745 -25.7367 -22.4724 -3.7631 24.3374 -6.6794
# 6 21.9475 -1.1912 1.7600 -2.8679 -6.6794 25.7326
#
#
#
# Elastic Compliance Matrix: (Units=1/GPa)
#
#
# Indices 1 2 3 4 5 6 
#
# 1 0.008005 -0.002714 -0.001447 -0.001989 0.001645 -0.006649
# 2 -0.002714 0.018722 -0.000971 0.008642 0.020119 0.009434
# 3 -0.001447 -0.000971 0.014861 -0.000296 0.012107 0.003283
# 4 -0.001989 0.008642 -0.000296 0.043923 0.016794 0.011371
# 5 0.001645 0.020119 0.012107 0.016794 0.083918 0.022354
# 6 -0.006649 0.009434 0.003283 0.011371 0.022354 0.051814
#
#
# Mechanical properties :
#
#
# Convention : Reuss Voigt Hill
#
# Bulk Modulus (GPa) = 31.92583 62.21892 47.07238
# Shear Modulus (GPa) = 20.66555 31.70643 26.18599
#
# Velocity S-wave (km/s) = 2.98816 3.70130 3.36368
# Velocity P-wave (km/s) = 5.06950 6.71933 5.95186
#
# Compressibility (1/GPa) = 0.03132260
#
# Stress axis : x y z
#
# Youngs Moduli (GPa) = 124.92443 53.41423 67.28802
#
# Poissons Ratio (x) = 0.14498 0.09739
# Poissons Ratio (y) = 0.33908 0.06533
# Poissons Ratio (z) = 0.18082 0.05186
#
# Static dielectric constant tensor:
#      x y z
#    x 1.945730 0.055860 -0.000860 
#    y 0.055860 1.936780 -0.026210 
#    z -0.000860 -0.026210 1.944550 
# 
# From -- ./inp_files/227551.got.cif
#   From: 2010.05.17/outbox.cif.g08.bks.cpg/sg2_114_cif.got.tgz:227551.got - 2010.06.03 11:33:40.
