data_PCOD9094377
_publ_section_title
;
Structure prediction by ZEFSAII (Michael W. Deem and Ramdas Pophale) SiO2 
 PCOD9094377
Probable space group: P -1
;
_chemical_formula_sum "Si O2"
_cell_formula_units_Z 14
_cell_length_a 17.551163
_cell_length_b 16.893059
_cell_length_c 11.077417
_cell_angle_alpha 146.350772
_cell_angle_beta 146.676930
_cell_angle_gamma 21.493363
_cell_volume 635.957530
_symmetry_space_group_name_H-M "P -1"
_symmetry_group_IT_number 2
_symmetry_cell_setting 'triclinic'
loop_
_space_group_symop_operation_xyz
x,y,z
-x,-y,-z
loop_
_atom_site_type_symbol
_atom_site_label
_atom_site_fract_x
_atom_site_fract_y
_atom_site_fract_z
Si Si1 0.837913 0.842152 0.971387
Si Si2 0.244217 0.202305 0.931568
Si Si3 0.336981 0.721691 0.794847
Si Si4 0.202363 0.533490 0.883323
Si Si5 0.850914 0.003783 0.873862
Si Si6 0.599865 0.767065 0.471689
Si Si7 0.843142 0.436908 0.602251
O O1 0.651918 0.890562 0.725950
O O2 0.059108 0.605065 0.901592
O O3 0.822693 0.827858 0.074157
O O4 0.788997 0.047537 0.143243
O O5 0.105482 0.239311 0.688457
O O6 0.197707 0.404386 0.155170
O O7 0.500000 0.000000 0.000000
O O8 0.243572 0.638870 0.549757
O O9 0.595146 0.535161 0.885492
O O10 0.288371 0.789694 0.956665
O O11 0.305488 0.345547 0.680027
O O12 0.022128 0.766524 0.867042
O O13 0.655529 0.065647 0.638161
O O14 0.000000 0.000000 0.000000
O O15 0.727773 0.571603 0.494813
#
# Coordination Sequence:
#
# PCOD9094377 Si02
#       7
#     2   2   2   2   2   2   2
#     4  10  23  39  58  88 120 154 197 244 294 347
#     4  10  24  44  64  85 113 152 203 249 293 347
#     4  10  22  37  58  89 123 154 192 241 296 348
#     4  10  21  36  58  88 124 158 192 236 291 353
#     4  10  20  34  56  90 125 159 196 235 286 350
#     4  10  21  37  61  89 122 159 196 237 288 349
#     4  10  22  41  63  88 115 155 200 241 292 349
#
# _framework density 22.014049
#
# number of rings (size 3 to 8) (size 9 to 14) (size 15 to 20)
#    0.000    2.000    0.000    2.143    0.000   19.429 
#    0.000    1.429    0.000    0.000    0.000    0.000 
#    0.000    0.000    0.000    0.000    0.000    0.000 
#
# Total GULP energy -78075.063863 kJ/mol
# GULP energy per Si atom -5576.790276 kJ/mol
# Density = 2.196394 g / cm^3
# Si number density = 22.014049 Si / 1000 Ang^3
#
#
#
# Elastic Constant Matrix: (Units=GPa)
#
#
# Indices 1 2 3 4 5 6 
#
# 1 100.9606 34.0014 21.4628 1.2176 12.4666 -6.9648
# 2 34.0014 98.5906 28.0463 -23.3307 5.2946 -8.4941
# 3 21.4628 28.0463 92.9280 -0.3768 29.2125 8.3985
# 4 1.2176 -23.3307 -0.3768 26.4755 1.9809 10.7446
# 5 12.4666 5.2946 29.2125 1.9809 30.6605 3.2227
# 6 -6.9648 -8.4941 8.3985 10.7446 3.2227 31.1639
#
#
#
# Elastic Compliance Matrix: (Units=1/GPa)
#
#
# Indices 1 2 3 4 5 6 
#
# 1 0.012598 -0.005170 -0.000602 -0.006580 -0.003674 0.004217
# 2 -0.005170 0.016503 -0.004484 0.014862 0.002653 -0.000847
# 3 -0.000602 -0.004484 0.017348 -0.000855 -0.015014 -0.004184
# 4 -0.006580 0.014862 -0.000855 0.058194 -0.001034 -0.017146
# 5 -0.003674 0.002653 -0.015014 -0.001034 0.048093 -0.000669
# 6 0.004217 -0.000847 -0.004184 -0.017146 -0.000669 0.039909
#
#
# Mechanical properties :
#
#
# Convention : Reuss Voigt Hill
#
# Bulk Modulus (GPa) = 38.55527 51.05556 44.80541
# Shear Modulus (GPa) = 22.54259 31.59122 27.06691
#
# Velocity S-wave (km/s) = 3.20349 3.79231 3.51027
# Velocity P-wave (km/s) = 5.58883 6.51292 6.06849
#
# Compressibility (1/GPa) = 0.02593679
#
# Stress axis : x y z
#
# Youngs Moduli (GPa) = 79.37791 60.59514 57.64360
#
# Poissons Ratio (x) = 0.31327 0.03471
# Poissons Ratio (y) = 0.41038 0.25847
# Poissons Ratio (z) = 0.04780 0.27170
#
# Static dielectric constant tensor:
#      x y z
#    x 1.858280 -0.026620 0.004910 
#    y -0.026620 1.971780 -0.070400 
#    z 0.004910 -0.070400 1.884680 
# 
# From -- ./inp_files/84303.got.cif
#   From: 2010.05.17/outbox.cif.g08.bks.cpg/sg2_43_cif.got.tgz:84303.got - 2010.06.03 11:33:40.
