data_PCOD9094370
_publ_section_title
;
Structure prediction by ZEFSAII (Michael W. Deem and Ramdas Pophale) SiO2 
 PCOD9094370
Probable space group: P -1
;
_chemical_formula_sum "Si O2"
_cell_formula_units_Z 14
_cell_length_a 13.359410
_cell_length_b 6.951448
_cell_length_c 8.249148
_cell_angle_alpha 104.102265
_cell_angle_beta 80.906267
_cell_angle_gamma 133.675518
_cell_volume 537.318231
_symmetry_space_group_name_H-M "P -1"
_symmetry_group_IT_number 2
_symmetry_cell_setting 'triclinic'
loop_
_space_group_symop_operation_xyz
x,y,z
-x,-y,-z
loop_
_atom_site_type_symbol
_atom_site_label
_atom_site_fract_x
_atom_site_fract_y
_atom_site_fract_z
Si Si1 0.598104 0.904983 0.801091
Si Si2 0.824381 0.770047 0.922692
Si Si3 0.903752 0.561851 0.439886
Si Si4 0.475920 0.723566 0.131317
Si Si5 0.923451 0.916168 0.271362
Si Si6 0.614263 0.977598 0.463683
Si Si7 0.091002 0.581546 0.149119
O O1 0.550303 0.072942 0.834484
O O2 0.588670 0.817344 0.600470
O O3 0.759904 0.119224 0.844891
O O4 0.517182 0.714956 0.937596
O O5 0.672511 0.565806 0.848383
O O6 0.870531 0.599756 0.886003
O O7 0.939873 0.007944 0.822708
O O8 0.838379 0.865832 0.123157
O O9 0.768207 0.277993 0.492030
O O10 0.010207 0.828837 0.578798
O O11 0.998728 0.535212 0.312111
O O12 0.846423 0.650740 0.345014
O O13 0.586523 0.839324 0.269192
O O14 0.500000 0.000000 0.500000
O O15 0.000000 0.500000 0.000000
#
# Coordination Sequence:
#
# PCOD9094370 Si02
#       7
#     2   2   2   2   2   2   2
#     4   9  19  31  53  87 115 146 187 252 297 332
#     4  10  21  39  60  90 115 160 198 241 296 356
#     4  11  22  37  58  91 119 155 190 249 302 347
#     4   9  18  34  58  86 113 150 202 253 283 336
#     4  10  22  37  56  86 124 157 193 232 301 372
#     4  10  20  34  56  89 116 146 201 253 287 339
#     4  11  20  35  60  89 121 151 201 250 297 340
#
# _framework density 26.055322
#
# number of rings (size 3 to 8) (size 9 to 14) (size 15 to 20)
#    0.000    2.000    1.429    3.429    6.000    2.286 
#    0.000    0.000    0.000    1.714   14.857    0.000 
#    0.000    0.000    0.000    0.000    0.000    0.000 
#
# Total GULP energy -78378.755814 kJ/mol
# GULP energy per Si atom -5598.482558 kJ/mol
# Density = 2.599602 g / cm^3
# Si number density = 26.055322 Si / 1000 Ang^3
#
#
#
# Elastic Constant Matrix: (Units=GPa)
#
#
# Indices 1 2 3 4 5 6 
#
# 1 89.6152 9.9940 34.7174 13.9725 -11.8586 11.5608
# 2 9.9940 101.0217 46.5437 -3.7513 -3.4510 10.3864
# 3 34.7174 46.5437 165.2211 4.3141 12.1820 4.6905
# 4 13.9725 -3.7513 4.3141 46.2871 -0.7803 1.9442
# 5 -11.8586 -3.4510 12.1820 -0.7803 40.9135 1.0765
# 6 11.5608 10.3864 4.6905 1.9442 1.0765 33.1801
#
#
#
# Elastic Compliance Matrix: (Units=1/GPa)
#
#
# Indices 1 2 3 4 5 6 
#
# 1 0.014238 0.000648 -0.003332 -0.003652 0.005226 -0.004648
# 2 0.000648 0.012010 -0.003627 0.001309 0.002401 -0.003627
# 3 -0.003332 -0.003627 0.008014 -0.000152 -0.003695 0.001292
# 4 -0.003652 0.001309 -0.000152 0.022838 -0.000456 -0.000439
# 5 0.005226 0.002401 -0.003695 -0.000456 0.027327 -0.002910
# 6 -0.004648 -0.003627 0.001292 -0.000439 -0.002910 0.032831
#
#
# Mechanical properties :
#
#
# Convention : Reuss Voigt Hill
#
# Bulk Modulus (GPa) = 46.21591 59.81868 53.01729
# Shear Modulus (GPa) = 36.47119 41.71635 39.09377
#
# Velocity S-wave (km/s) = 3.74540 4.00568 3.87772
# Velocity P-wave (km/s) = 6.03988 6.66349 6.35933
#
# Compressibility (1/GPa) = 0.02163757
#
# Stress axis : x y z
#
# Youngs Moduli (GPa) = 70.23406 83.26672 124.77728
#
# Poissons Ratio (x) = -0.05392 0.41579
# Poissons Ratio (y) = -0.04548 0.45263
# Poissons Ratio (z) = 0.23404 0.30205
#
# Static dielectric constant tensor:
#      x y z
#    x 2.064850 -0.096500 0.024850 
#    y -0.096500 2.006410 -0.010470 
#    z 0.024850 -0.010470 2.136340 
# 
# From -- ./inp_files/299136.got.cif
#   From: 2010.05.17/outbox.cif.g08.bks.cpg/sg2_150_cif.got.tgz:299136.got - 2010.06.03 11:33:40.
