data_PCOD9094013
_publ_section_title
;
Structure prediction by ZEFSAII (Michael W. Deem and Ramdas Pophale) SiO2 
 PCOD9094013
Probable space group: P -1
;
_chemical_formula_sum "Si O2"
_cell_formula_units_Z 16
_cell_length_a 11.159634
_cell_length_b 7.229511
_cell_length_c 21.835687
_cell_angle_alpha 107.212387
_cell_angle_beta 26.927499
_cell_angle_gamma 113.623747
_cell_volume 722.899621
_symmetry_space_group_name_H-M "P -1"
_symmetry_group_IT_number 2
_symmetry_cell_setting 'triclinic'
loop_
_space_group_symop_operation_xyz
x,y,z
-x,-y,-z
loop_
_atom_site_type_symbol
_atom_site_label
_atom_site_fract_x
_atom_site_fract_y
_atom_site_fract_z
Si Si1 0.632746 0.147709 0.598964
Si Si2 0.341224 0.687121 0.135862
Si Si3 0.259260 0.443663 0.655941
Si Si4 0.595371 0.601129 0.631258
Si Si5 0.779002 0.257180 0.673848
Si Si6 0.372951 0.265837 0.107628
Si Si7 0.244809 0.000641 0.659161
Si Si8 0.262327 0.288143 0.290544
O O1 0.614415 0.373705 0.613898
O O2 0.631005 0.125733 0.670459
O O3 0.370898 0.998690 0.668769
O O4 0.937579 0.152719 0.435624
O O5 0.330734 0.806787 0.214671
O O6 0.475191 0.511476 0.075895
O O7 0.025891 0.565858 0.247553
O O8 0.488045 0.807172 0.020812
O O9 0.500000 0.500000 0.500000
O O10 0.366071 0.578822 0.681254
O O11 0.200964 0.214473 0.684604
O O12 0.582190 0.692809 0.713421
O O13 0.896042 0.721447 0.477474
O O14 0.758975 0.485550 0.693505
O O15 0.408913 0.227435 0.159018
O O16 0.040926 0.171853 0.240890
O O17 0.500000 0.000000 0.500000
#
# Coordination Sequence:
#
# PCOD9094013 Si02
#       8
#     2   2   2   2   2   2   2   2
#     4   8  14  25  47  73  94 123 164 206 238 284
#     4  10  20  34  52  74 102 134 166 202 247 297
#     4  11  20  32  52  77 102 128 166 210 249 291
#     4   8  14  25  47  73  94 123 164 206 238 284
#     4   8  13  26  47  71  96 125 165 200 236 289
#     4  10  20  34  52  74 102 134 166 202 247 297
#     4  11  20  32  52  77 102 128 166 210 249 291
#     4   8  13  26  47  71  96 125 165 200 236 289
#
# _framework density 22.133087
#
# number of rings (size 3 to 8) (size 9 to 14) (size 15 to 20)
#    0.000    2.750    2.500    2.250    0.000    0.500 
#    0.000    1.250    0.000    4.500    0.000    0.000 
#    0.000    0.000    0.000    0.000    0.000    0.000 
#
# Total GULP energy -89281.896508 kJ/mol
# GULP energy per Si atom -5580.118532 kJ/mol
# Density = 2.208271 g / cm^3
# Si number density = 22.133087 Si / 1000 Ang^3
#
#
#
# Elastic Constant Matrix: (Units=GPa)
#
#
# Indices 1 2 3 4 5 6 
#
# 1 118.4543 29.3767 40.3121 8.0574 43.6245 22.3287
# 2 29.3767 48.7896 5.0162 -7.4626 18.1592 -15.8040
# 3 40.3121 5.0162 104.7856 7.9909 47.0322 13.9813
# 4 8.0574 -7.4626 7.9909 18.0807 10.5433 10.3517
# 5 43.6245 18.1592 47.0322 10.5433 46.3021 7.1318
# 6 22.3287 -15.8040 13.9813 10.3517 7.1318 40.8668
#
#
#
# Elastic Compliance Matrix: (Units=1/GPa)
#
#
# Indices 1 2 3 4 5 6 
#
# 1 0.016798 -0.009555 0.000342 0.001358 -0.010977 -0.011418
# 2 -0.009555 0.043941 0.008672 0.022955 -0.025008 0.017796
# 3 0.000342 0.008672 0.020367 0.011077 -0.026632 -0.001959
# 4 0.001358 0.022955 0.011077 0.089085 -0.040090 -0.011224
# 5 -0.010977 -0.025008 -0.026632 -0.040090 0.077612 0.002049
# 6 -0.011418 0.017796 -0.001959 -0.011224 0.002049 0.040746
#
#
# Mechanical properties :
#
#
# Convention : Reuss Voigt Hill
#
# Bulk Modulus (GPa) = 12.49629 46.82662 29.66145
# Shear Modulus (GPa) = 15.80752 34.20488 25.00620
#
# Velocity S-wave (km/s) = 2.67536 3.93545 3.36491
# Velocity P-wave (km/s) = 3.89892 6.46940 5.34110
#
# Compressibility (1/GPa) = 0.08002373
#
# Stress axis : x y z
#
# Youngs Moduli (GPa) = 59.53112 22.75785 49.09982
#
# Poissons Ratio (x) = 0.21744 -0.01680
# Poissons Ratio (y) = 0.56880 -0.42578
# Poissons Ratio (z) = -0.02036 -0.19735
#
# Static dielectric constant tensor:
#      x y z
#    x 1.750340 0.052940 0.095600 
#    y 0.052940 1.817800 -0.007290 
#    z 0.095600 -0.007290 1.741220 
# 
# From -- ./inp_files/281929.got.cif
#   From: 2010.05.17/outbox.cif.g08.bks.cpg/sg2_141_cif.got.tgz:281929.got - 2010.06.03 11:33:40.
