data_PCOD9094986
_publ_section_title
;
Structure prediction by ZEFSAII (Michael W. Deem and Ramdas Pophale) SiO2 
 PCOD9094986
Probable space group: P -1
;
_chemical_formula_sum "Si O2"
_cell_formula_units_Z 14
_cell_length_a 14.939236
_cell_length_b 24.756087
_cell_length_c 25.392187
_cell_angle_alpha 168.150550
_cell_angle_beta 27.830885
_cell_angle_gamma 153.549874
_cell_volume 855.559692
_symmetry_space_group_name_H-M "P -1"
_symmetry_group_IT_number 2
_symmetry_cell_setting 'triclinic'
loop_
_space_group_symop_operation_xyz
x,y,z
-x,-y,-z
loop_
_atom_site_type_symbol
_atom_site_label
_atom_site_fract_x
_atom_site_fract_y
_atom_site_fract_z
Si Si1 0.211248 0.842056 0.592751
Si Si2 0.024357 0.700035 0.258729
Si Si3 0.866544 0.466170 0.484409
Si Si4 0.607605 0.844409 0.012012
Si Si5 0.542666 0.188948 0.822518
Si Si6 0.811667 0.130029 0.783242
Si Si7 0.624188 0.547174 0.926895
O O1 0.281867 0.690908 0.363871
O O2 0.010775 0.642784 0.532688
O O3 0.387016 0.915496 0.616468
O O4 0.209702 0.147546 0.868783
O O5 0.227709 0.805110 0.287048
O O6 0.096070 0.784734 0.242034
O O7 0.860332 0.848358 0.500808
O O8 0.929148 0.370726 0.991613
O O9 0.000000 0.500000 0.500000
O O10 0.779152 0.142238 0.207292
O O11 0.690598 0.603006 0.717647
O O12 0.534129 0.780035 0.049285
O O13 0.418540 0.876611 0.108472
O O14 0.518761 0.424256 0.020098
O O15 0.500000 0.500000 0.000000
#
# Coordination Sequence:
#
# PCOD9094986 Si02
#       7
#     2   2   2   2   2   2   2
#     4  10  21  32  48  72  97 129 160 193 236 282
#     4   9  17  29  45  63  94 125 163 191 234 275
#     4  12  20  32  47  70  99 135 166 192 224 281
#     4  11  21  31  48  69 104 135 167 189 227 276
#     4   9  21  29  51  71 100 131 161 193 239 285
#     4   9  18  30  42  65  92 131 160 196 225 269
#     4  10  20  35  50  69  99 127 156 202 248 283
#
# _framework density 16.363555999999999
#
# number of rings (size 3 to 8) (size 9 to 14) (size 15 to 20)
#    0.857    1.143    1.429    3.429    2.000    2.286 
#    0.000    0.000    0.000    0.000    0.000    0.000 
#    0.000   22.857    0.000    0.000    0.000    0.000 
#
# Total GULP energy -77978.167750 kJ/mol
# GULP energy per Si atom -5569.869125 kJ/mol
# Density = 1.632631 g / cm^3
# Si number density = 16.363556 Si / 1000 Ang^3
#
#
#
# Elastic Constant Matrix: (Units=GPa)
#
#
# Indices 1 2 3 4 5 6 
#
# 1 21.2172 17.2357 2.4523 -1.5702 1.1946 1.8392
# 2 17.2357 37.3398 -12.4882 -4.2185 3.1085 -0.5333
# 3 2.4523 -12.4882 62.7795 -8.6333 0.7608 4.0112
# 4 -1.5702 -4.2185 -8.6333 25.8363 -0.4127 -1.6896
# 5 1.1946 3.1085 0.7608 -0.4127 15.9541 -5.9050
# 6 1.8392 -0.5333 4.0112 -1.6896 -5.9050 20.5687
#
#
#
# Elastic Compliance Matrix: (Units=1/GPa)
#
#
# Indices 1 2 3 4 5 6 
#
# 1 0.084438 -0.044041 -0.012551 -0.006691 0.000189 -0.006740
# 2 -0.044041 0.053541 0.013827 0.010673 -0.006959 0.001509
# 3 -0.012551 0.013827 0.020512 0.008103 -0.003590 -0.002884
# 4 -0.006691 0.010673 0.008103 0.042941 0.000213 0.002883
# 5 0.000189 -0.006959 -0.003590 0.000213 0.072047 0.021204
# 6 -0.006740 0.001509 -0.002884 0.002883 0.021204 0.056146
#
#
# Mechanical properties :
#
#
# Convention : Reuss Voigt Hill
#
# Bulk Modulus (GPa) = 13.70631 15.08178 14.39404
# Shear Modulus (GPa) = 11.37722 20.08094 15.72908
#
# Velocity S-wave (km/s) = 2.63967 3.50691 3.10373
# Velocity P-wave (km/s) = 4.20533 5.06306 4.65400
#
# Compressibility (1/GPa) = 0.07295912
#
# Stress axis : x y z
#
# Youngs Moduli (GPa) = 11.84307 18.67722 48.75312
#
# Poissons Ratio (x) = 0.82257 0.61189
# Poissons Ratio (y) = 0.52158 -0.67409
# Poissons Ratio (z) = 0.14864 -0.25824
#
# Static dielectric constant tensor:
#      x y z
#    x 1.534010 0.015710 -0.004630 
#    y 0.015710 1.547940 0.010730 
#    z -0.004630 0.010730 1.568960 
# 
# From -- ./inp_files/79698.got.cif
#   From: 2010.05.17/outbox.cif.g08.bks.cpg/sg2_40_cif.got.tgz:79698.got - 2010.06.03 11:33:40.
