data_PCOD9094279
_publ_section_title
;
Structure prediction by ZEFSAII (Michael W. Deem and Ramdas Pophale) SiO2 
 PCOD9094279
Probable space group: P -1
;
_chemical_formula_sum "Si O2"
_cell_formula_units_Z 14
_cell_length_a 7.505509
_cell_length_b 11.873551
_cell_length_c 7.074223
_cell_angle_alpha 93.433813
_cell_angle_beta 107.161928
_cell_angle_gamma 124.433820
_cell_volume 475.808015
_symmetry_space_group_name_H-M "P -1"
_symmetry_group_IT_number 2
_symmetry_cell_setting 'triclinic'
loop_
_space_group_symop_operation_xyz
x,y,z
-x,-y,-z
loop_
_atom_site_type_symbol
_atom_site_label
_atom_site_fract_x
_atom_site_fract_y
_atom_site_fract_z
Si Si1 0.282745 0.061022 0.792766
Si Si2 0.928888 0.452330 0.189219
Si Si3 0.918975 0.262155 0.626310
Si Si4 0.827474 0.186499 0.026605
Si Si5 0.387090 0.295316 0.100214
Si Si6 0.442976 0.180945 0.483782
Si Si7 0.450918 0.421481 0.673860
O O1 0.555798 0.123776 0.914326
O O2 0.255791 0.053325 0.555651
O O3 0.248848 0.168538 0.892688
O O4 0.148642 0.918390 0.859105
O O5 0.658067 0.377441 0.135973
O O6 0.059916 0.593316 0.365127
O O7 0.954719 0.328965 0.205954
O O8 0.000000 0.500000 0.000000
O O9 0.913487 0.220272 0.840530
O O10 0.637559 0.160189 0.475591
O O11 0.171295 0.318379 0.625699
O O12 0.353664 0.214244 0.276561
O O13 0.391467 0.433465 0.134521
O O14 0.523210 0.317319 0.657651
O O15 0.500000 0.500000 0.500000
#
# Coordination Sequence:
#
# PCOD9094279 Si02
#       7
#     2   2   2   2   2   2   2
#     4   9  17  32  52  77 108 141 178 216 259 314
#     4   8  14  27  49  74 101 133 170 214 261 306
#     4   9  17  32  54  78 106 139 173 218 269 310
#     4   8  15  30  51  75 107 139 172 221 262 303
#     4   9  18  32  50  76 108 137 174 221 260 312
#     4  10  20  34  56  79 105 143 176 213 269 315
#     4   9  19  33  52  80 109 134 175 225 261 312
#
# _framework density 29.423632000000001
#
# number of rings (size 3 to 8) (size 9 to 14) (size 15 to 20)
#    0.000    3.143    0.000    0.857    0.000    5.714 
#    0.000   12.143    0.000    8.571    0.000    0.000 
#    0.000    0.000    0.000    0.000    0.000    0.000 
#
# Total GULP energy -78279.430947 kJ/mol
# GULP energy per Si atom -5591.387925 kJ/mol
# Density = 2.935666 g / cm^3
# Si number density = 29.423632 Si / 1000 Ang^3
#
#
#
# Elastic Constant Matrix: (Units=GPa)
#
#
# Indices 1 2 3 4 5 6 
#
# 1 225.0876 56.9974 15.0538 -4.8998 -23.3487 7.0100
# 2 56.9974 123.9326 53.3168 -31.7500 -4.7327 -16.3850
# 3 15.0538 53.3168 142.4156 -43.5355 -11.2515 2.6098
# 4 -4.8998 -31.7500 -43.5355 64.5612 1.4317 -7.6688
# 5 -23.3487 -4.7327 -11.2515 1.4317 21.5637 2.0456
# 6 7.0100 -16.3850 2.6098 -7.6688 2.0456 35.5892
#
#
#
# Elastic Compliance Matrix: (Units=1/GPa)
#
#
# Indices 1 2 3 4 5 6 
#
# 1 0.006130 -0.003815 0.000969 -0.001348 0.006748 -0.003713
# 2 -0.003815 0.013686 -0.003651 0.005100 -0.004192 0.008660
# 3 0.000969 -0.003651 0.010227 0.004829 0.005444 -0.001894
# 4 -0.001348 0.005100 0.004829 0.021981 0.000057 0.006993
# 5 0.006748 -0.004192 0.005444 0.000057 0.056250 -0.006879
# 6 -0.003713 0.008660 -0.001894 0.006993 -0.006879 0.034858
#
#
# Mechanical properties :
#
#
# Convention : Reuss Voigt Hill
#
# Bulk Modulus (GPa) = 58.65246 82.46352 70.55799
# Shear Modulus (GPa) = 30.90099 48.74734 39.82417
#
# Velocity S-wave (km/s) = 3.24421 4.07472 3.68295
# Velocity P-wave (km/s) = 5.83183 7.08696 6.48981
#
# Compressibility (1/GPa) = 0.01704958
#
# Stress axis : x y z
#
# Youngs Moduli (GPa) = 163.12783 73.06980 97.78060
#
# Poissons Ratio (x) = 0.27875 -0.09478
# Poissons Ratio (y) = 0.62231 0.35700
# Poissons Ratio (z) = -0.15812 0.26678
#
# Static dielectric constant tensor:
#      x y z
#    x 2.239510 0.071980 -0.047880 
#    y 0.071980 2.381750 0.083770 
#    z -0.047880 0.083770 2.322150 
# 
# From -- ./inp_files/179110.got.cif
#   From: 2010.05.17/outbox.cif.g08.bks.cpg/sg2_90_cif.got.tgz:179110.got - 2010.06.03 11:33:40.
