data_PCOD9094893
_publ_section_title
;
Structure prediction by ZEFSAII (Michael W. Deem and Ramdas Pophale) SiO2 
 PCOD9094893
Probable space group: P -1
;
_chemical_formula_sum "Si O2"
_cell_formula_units_Z 16
_cell_length_a 8.446771
_cell_length_b 9.040936
_cell_length_c 10.702422
_cell_angle_alpha 97.408899
_cell_angle_beta 59.451764
_cell_angle_gamma 102.269946
_cell_volume 687.576468
_symmetry_space_group_name_H-M "P -1"
_symmetry_group_IT_number 2
_symmetry_cell_setting 'triclinic'
loop_
_space_group_symop_operation_xyz
x,y,z
-x,-y,-z
loop_
_atom_site_type_symbol
_atom_site_label
_atom_site_fract_x
_atom_site_fract_y
_atom_site_fract_z
Si Si1 0.777140 0.461722 0.056682
Si Si2 0.879713 0.886025 0.393377
Si Si3 0.832262 0.185500 0.129172
Si Si4 0.336220 0.855200 0.541960
Si Si5 0.445809 0.052447 0.889547
Si Si6 0.745714 0.709361 0.938812
Si Si7 0.774304 0.911596 0.707926
Si Si8 0.575784 0.620554 0.372073
O O1 0.747554 0.284183 0.069706
O O2 0.656384 0.534145 0.216517
O O3 0.732274 0.532122 0.950832
O O4 0.000000 0.500000 0.000000
O O5 0.853810 0.847442 0.544791
O O6 0.750296 0.751897 0.358197
O O7 0.825522 0.054265 0.423133
O O8 0.094990 0.934898 0.275953
O O9 0.731873 0.210806 0.302631
O O10 0.755667 0.018984 0.093438
O O11 0.051893 0.227187 0.071854
O O12 0.412547 0.721036 0.424660
O O13 0.500000 0.000000 0.500000
O O14 0.592185 0.977785 0.743797
O O15 0.500000 0.000000 0.000000
O O16 0.425598 0.226396 0.921522
O O17 0.748598 0.781692 0.808359
O O18 0.500000 0.500000 0.500000
#
# Coordination Sequence:
#
# PCOD9094893 Si02
#       8
#     2   2   2   2   2   2   2   2
#     4  10  24  39  61  93 129 168 207 260 323 379
#     4  10  22  38  67  90 128 169 206 272 324 375
#     4  11  20  40  62  90 129 162 213 271 314 374
#     4  10  20  34  63  94 118 158 209 270 313 367
#     4  10  22  36  60  90 123 164 213 262 312 378
#     4  10  22  39  63  91 127 171 216 258 317 386
#     4  10  21  40  60  95 132 162 210 264 330 373
#     4  11  22  39  66  98 127 160 222 269 315 375
#
# _framework density 23.270137999999999
#
# number of rings (size 3 to 8) (size 9 to 14) (size 15 to 20)
#    0.000    1.750    2.500    1.875    5.250    4.000 
#    0.000    2.500    0.000   13.500    0.000    0.000 
#    0.000    0.000    0.000    0.000    0.000    0.000 
#
# Total GULP energy -89133.510310 kJ/mol
# GULP energy per Si atom -5570.844394 kJ/mol
# Density = 2.321717 g / cm^3
# Si number density = 23.270138 Si / 1000 Ang^3
#
#
#
# Elastic Constant Matrix: (Units=GPa)
#
#
# Indices 1 2 3 4 5 6 
#
# 1 68.1903 6.8920 1.1359 1.7738 -8.8665 -11.5512
# 2 6.8920 86.8890 23.8936 -9.7776 -7.0155 -34.6469
# 3 1.1359 23.8936 76.5122 -9.7011 -7.1183 -13.9560
# 4 1.7738 -9.7776 -9.7011 32.2946 -8.4860 6.1705
# 5 -8.8665 -7.0155 -7.1183 -8.4860 24.6535 -0.7937
# 6 -11.5512 -34.6469 -13.9560 6.1705 -0.7937 41.3089
#
#
#
# Elastic Compliance Matrix: (Units=1/GPa)
#
#
# Indices 1 2 3 4 5 6 
#
# 1 0.016472 0.001539 0.001163 0.000563 0.007096 0.006342
# 2 0.001539 0.019083 -0.001994 0.004093 0.007309 0.015291
# 3 0.001163 -0.001994 0.015470 0.004969 0.006133 0.003255
# 4 0.000563 0.004093 0.004969 0.037839 0.015824 -0.000079
# 5 0.007096 0.007309 0.006133 0.015824 0.052696 0.008835
# 6 0.006342 0.015291 0.003255 -0.000079 0.008835 0.040088
#
#
# Mechanical properties :
#
#
# Convention : Reuss Voigt Hill
#
# Bulk Modulus (GPa) = 19.06907 32.82605 25.94756
# Shear Modulus (GPa) = 25.28923 32.96273 29.12598
#
# Velocity S-wave (km/s) = 3.30019 3.76776 3.54170
# Velocity P-wave (km/s) = 4.76803 5.75023 5.28201
#
# Compressibility (1/GPa) = 0.05244095
#
# Stress axis : x y z
#
# Youngs Moduli (GPa) = 60.70812 52.40148 64.64331
#
# Poissons Ratio (x) = -0.08063 -0.07520
# Poissons Ratio (y) = -0.09341 0.12891
# Poissons Ratio (z) = -0.07062 0.10450
#
# Static dielectric constant tensor:
#      x y z
#    x 1.996820 0.006740 -0.098280 
#    y 0.006740 1.891470 -0.050430 
#    z -0.098280 -0.050430 2.037880 
# 
# From -- ./inp_files/217063.got.cif
#   From: 2010.05.17/outbox.cif.g08.bks.cpg/sg2_109_cif.got.tgz:217063.got - 2010.06.03 11:33:40.
