data_PCOD9094344
_publ_section_title
;
Structure prediction by ZEFSAII (Michael W. Deem and Ramdas Pophale) SiO2 
 PCOD9094344
Probable space group: P -1
;
_chemical_formula_sum "Si O2"
_cell_formula_units_Z 16
_cell_length_a 9.879150
_cell_length_b 23.596347
_cell_length_c 8.992458
_cell_angle_alpha 123.890612
_cell_angle_beta 149.482856
_cell_angle_gamma 57.815135
_cell_volume 876.794079
_symmetry_space_group_name_H-M "P -1"
_symmetry_group_IT_number 2
_symmetry_cell_setting 'triclinic'
loop_
_space_group_symop_operation_xyz
x,y,z
-x,-y,-z
loop_
_atom_site_type_symbol
_atom_site_label
_atom_site_fract_x
_atom_site_fract_y
_atom_site_fract_z
Si Si1 0.749669 0.530736 0.713304
Si Si2 0.556447 0.316719 0.634441
Si Si3 0.120843 0.316612 0.995954
Si Si4 0.664995 0.071962 0.672136
Si Si5 0.673595 0.224941 0.902526
Si Si6 0.720559 0.530724 0.348462
Si Si7 0.129542 0.071495 0.338527
Si Si8 0.864954 0.775350 0.417096
O O1 0.500000 0.500000 0.500000
O O2 0.746862 0.506543 0.506614
O O3 0.768096 0.612250 0.842464
O O4 0.000000 0.500000 0.000000
O O5 0.636400 0.274291 0.797487
O O6 0.376857 0.387769 0.616828
O O7 0.831782 0.329228 0.826109
O O8 0.353797 0.283308 0.281468
O O9 0.089648 0.273769 0.753971
O O10 0.707205 0.146141 0.757881
O O11 0.354330 0.071706 0.420520
O O12 0.778032 0.000308 0.595464
O O13 0.840056 0.069316 0.986858
O O14 0.414489 0.231922 0.775431
O O15 0.916068 0.236094 0.259695
O O16 0.000000 0.500000 0.500000
O O17 0.500000 0.500000 0.000000
O O18 0.133503 0.145882 0.522959
#
# Coordination Sequence:
#
# PCOD9094344 Si02
#       8
#     2   2   2   2   2   2   2   2
#     4  11  23  40  59  81 106 138 177 219 270 326
#     4  11  23  40  57  79 114 149 174 215 284 338
#     4  11  23  40  57  79 114 149 174 215 284 338
#     4   8  14  26  46  74 108 140 175 225 273 307
#     4  10  20  34  56  86 110 141 192 233 263 314
#     4  11  23  40  59  81 106 138 177 219 270 326
#     4   8  14  26  46  74 108 140 175 225 273 307
#     4  10  20  34  56  86 110 141 192 233 263 314
#
# _framework density 18.248298999999999
#
# number of rings (size 3 to 8) (size 9 to 14) (size 15 to 20)
#    0.000    2.000    0.000    5.250    0.000    3.000 
#    0.000    0.000    0.000    1.500    0.000    0.000 
#    0.000    0.000    0.000    0.000    0.000    0.000 
#
# Total GULP energy -89102.853800 kJ/mol
# GULP energy per Si atom -5568.928362 kJ/mol
# Density = 1.820676 g / cm^3
# Si number density = 18.248299 Si / 1000 Ang^3
#
#
#
# Elastic Constant Matrix: (Units=GPa)
#
#
# Indices 1 2 3 4 5 6 
#
# 1 106.1284 68.8498 48.7533 3.4883 -1.0757 -2.6336
# 2 68.8498 105.2284 42.7982 -1.2255 -7.9273 0.1092
# 3 48.7533 42.7982 132.8785 -6.9072 2.2167 -3.6352
# 4 3.4883 -1.2255 -6.9072 30.5489 -0.6427 -3.2663
# 5 -1.0757 -7.9273 2.2167 -0.6427 37.7294 -5.1781
# 6 -2.6336 0.1092 -3.6352 -3.2663 -5.1781 14.7152
#
#
#
# Elastic Compliance Matrix: (Units=1/GPa)
#
#
# Indices 1 2 3 4 5 6 
#
# 1 0.017851 -0.010489 -0.003273 -0.003090 -0.001378 0.001293
# 2 -0.010489 0.017345 -0.001743 0.001470 0.003345 -0.000933
# 3 -0.003273 -0.001743 0.009496 0.002664 -0.000680 0.002125
# 4 -0.003090 0.001470 0.002664 0.034688 0.001812 0.008432
# 5 -0.001378 0.003345 -0.000680 0.001812 0.028616 0.010032
# 6 0.001293 -0.000933 0.002125 0.008432 0.010032 0.074122
#
#
# Mechanical properties :
#
#
# Convention : Reuss Voigt Hill
#
# Bulk Modulus (GPa) = 73.09569 73.89311 73.49440
# Shear Modulus (GPa) = 22.96848 28.85429 25.91138
#
# Velocity S-wave (km/s) = 3.55161 3.98075 3.77229
# Velocity P-wave (km/s) = 7.54730 7.85554 7.70296
#
# Compressibility (1/GPa) = 0.01368070
#
# Stress axis : x y z
#
# Youngs Moduli (GPa) = 56.01973 57.65275 105.30789
#
# Poissons Ratio (x) = 0.60475 0.34470
# Poissons Ratio (y) = 0.58762 0.18355
# Poissons Ratio (z) = 0.18337 0.10049
#
# Static dielectric constant tensor:
#      x y z
#    x 1.596750 -0.007680 0.006020 
#    y -0.007680 1.701490 0.011420 
#    z 0.006020 0.011420 1.632160 
# 
# From -- ./inp_files/223930.got.cif
#   From: 2010.05.17/outbox.cif.g08.bks.cpg/sg2_112_cif.got.tgz:223930.got - 2010.06.03 11:33:40.
