data_PCOD9094531
_publ_section_title
;
Structure prediction by ZEFSAII (Michael W. Deem and Ramdas Pophale) SiO2 
 PCOD9094531
Probable space group: P -1
;
_chemical_formula_sum "Si O2"
_cell_formula_units_Z 16
_cell_length_a 7.918154
_cell_length_b 5.736591
_cell_length_c 16.618095
_cell_angle_alpha 100.867493
_cell_angle_beta 66.909294
_cell_angle_gamma 117.535555
_cell_volume 615.692874
_symmetry_space_group_name_H-M "P -1"
_symmetry_group_IT_number 2
_symmetry_cell_setting 'triclinic'
loop_
_space_group_symop_operation_xyz
x,y,z
-x,-y,-z
loop_
_atom_site_type_symbol
_atom_site_label
_atom_site_fract_x
_atom_site_fract_y
_atom_site_fract_z
Si Si1 0.667872 0.314122 0.885927
Si Si2 0.290466 0.280441 0.901255
Si Si3 0.086988 0.216136 0.218623
Si Si4 0.871774 0.149919 0.957702
Si Si5 0.634239 0.917432 0.295935
Si Si6 0.640849 0.284948 0.530980
Si Si7 0.000217 0.246510 0.563908
Si Si8 0.671579 0.942925 0.727736
O O1 0.508734 0.436978 0.910661
O O2 0.874409 0.526473 0.822711
O O3 0.709545 0.244528 0.961323
O O4 0.604520 0.062859 0.824313
O O5 0.336008 0.218530 0.799033
O O6 0.105529 0.360675 0.936810
O O7 0.201197 0.023482 0.959896
O O8 0.255668 0.264377 0.259585
O O9 0.106106 0.023702 0.133411
O O10 0.863629 0.102681 0.291179
O O11 0.513631 0.703467 0.372097
O O12 0.500779 0.078084 0.306522
O O13 0.768194 0.526694 0.463632
O O14 0.831984 0.300047 0.548693
O O15 0.500000 0.000000 0.500000
O O16 0.000000 0.000000 0.500000
O O17 0.886274 0.150547 0.663567
#
# Coordination Sequence:
#
# PCOD9094531 Si02
#       8
#     2   2   2   2   2   2   2   2
#     4  10  20  34  58  84 113 156 195 246 303 354
#     4   9  18  36  58  77 120 155 188 251 299 353
#     4  10  21  35  59  86 115 152 200 246 296 367
#     4   9  19  37  54  83 114 152 199 240 298 363
#     4   9  20  39  57  85 117 158 197 244 308 362
#     4  10  23  41  64  92 126 163 208 261 314 379
#     4  10  23  41  62  92 125 163 208 261 316 376
#     4   9  21  39  56  83 120 154 198 248 301 363
#
# _framework density 25.986981
#
# number of rings (size 3 to 8) (size 9 to 14) (size 15 to 20)
#    0.000    2.500    0.000    0.375    3.500    5.000 
#    0.000    8.125    0.000    0.000    0.000    0.000 
#    0.000    0.000    0.000    0.000    0.000    0.000 
#
# Total GULP energy -89259.627792 kJ/mol
# GULP energy per Si atom -5578.726737 kJ/mol
# Density = 2.592783 g / cm^3
# Si number density = 25.986981 Si / 1000 Ang^3
#
#
#
# Elastic Constant Matrix: (Units=GPa)
#
#
# Indices 1 2 3 4 5 6 
#
# 1 132.4543 25.9754 40.6866 -18.3376 -15.5076 4.3531
# 2 25.9754 49.4304 27.6650 -14.4536 -9.3405 23.9161
# 3 40.6866 27.6650 136.7971 -15.8185 -22.0926 8.9326
# 4 -18.3376 -14.4536 -15.8185 42.3447 9.8645 -5.0966
# 5 -15.5076 -9.3405 -22.0926 9.8645 44.8184 -8.4797
# 6 4.3531 23.9161 8.9326 -5.0966 -8.4797 33.4516
#
#
#
# Elastic Compliance Matrix: (Units=1/GPa)
#
#
# Indices 1 2 3 4 5 6 
#
# 1 0.009301 -0.004787 -0.001531 0.001828 0.001693 0.003328
# 2 -0.004787 0.039351 -0.004360 0.007104 -0.002046 -0.025783
# 3 -0.001531 -0.004360 0.009137 0.000723 0.003249 0.001810
# 4 0.001828 0.007104 0.000723 0.027775 -0.004081 -0.002313
# 5 0.001693 -0.002046 0.003249 -0.004081 0.026181 0.006390
# 6 0.003328 -0.025783 0.001810 -0.002313 0.006390 0.048678
#
#
# Mechanical properties :
#
#
# Convention : Reuss Voigt Hill
#
# Bulk Modulus (GPa) = 27.44634 56.37064 41.90849
# Shear Modulus (GPa) = 25.78358 39.07993 32.43176
#
# Velocity S-wave (km/s) = 3.15329 3.88213 3.53654
# Velocity P-wave (km/s) = 4.88285 6.46788 5.73043
#
# Compressibility (1/GPa) = 0.03643474
#
# Stress axis : x y z
#
# Youngs Moduli (GPa) = 107.51978 25.41221 109.44228
#
# Poissons Ratio (x) = 0.12164 0.16752
# Poissons Ratio (y) = 0.51465 0.47716
# Poissons Ratio (z) = 0.16458 0.11080
#
# Static dielectric constant tensor:
#      x y z
#    x 2.080210 -0.041870 -0.066250 
#    y -0.041870 2.107900 0.004530 
#    z -0.066250 0.004530 2.044120 
# 
# From -- ./inp_files/553616.got.cif
#   From: 2010.05.17/outbox.cif.g08.bks.cpg/sg2_277_cif.got.tgz:553616.got - 2010.06.03 11:33:40.
