data_PCOD9094458
_publ_section_title
;
Structure prediction by ZEFSAII (Michael W. Deem and Ramdas Pophale) SiO2 
 PCOD9094458
Probable space group: P -1
;
_chemical_formula_sum "Si O2"
_cell_formula_units_Z 14
_cell_length_a 20.694878
_cell_length_b 5.147744
_cell_length_c 5.514506
_cell_angle_alpha 99.867343
_cell_angle_beta 74.912036
_cell_angle_gamma 76.519347
_cell_volume 534.480839
_symmetry_space_group_name_H-M "P -1"
_symmetry_group_IT_number 2
_symmetry_cell_setting 'triclinic'
loop_
_space_group_symop_operation_xyz
x,y,z
-x,-y,-z
loop_
_atom_site_type_symbol
_atom_site_label
_atom_site_fract_x
_atom_site_fract_y
_atom_site_fract_z
Si Si1 0.278527 0.419064 0.265732
Si Si2 0.330408 0.946733 0.778028
Si Si3 0.918529 0.512166 0.606028
Si Si4 0.208039 0.982441 0.204763
Si Si5 0.950163 0.302190 0.043143
Si Si6 0.462087 0.718029 0.866541
Si Si7 0.406911 0.196568 0.362666
O O1 0.242682 0.188917 0.354602
O O2 0.340086 0.445618 0.385689
O O3 0.224108 0.703722 0.293448
O O4 0.312804 0.255823 0.964562
O O5 0.375144 0.995625 0.516346
O O6 0.387672 0.708804 0.833575
O O7 0.254161 0.908858 0.899611
O O8 0.869179 0.822035 0.735204
O O9 0.903753 0.394384 0.342460
O O10 0.000000 0.500000 0.500000
O O11 0.911760 0.344200 0.827988
O O12 0.000000 0.500000 0.000000
O O13 0.000000 0.000000 0.000000
O O14 0.523103 0.729512 0.617793
O O15 0.500000 0.500000 0.000000
O O16 0.433932 0.017686 0.067275
#
# Coordination Sequence:
#
# PCOD9094458 Si02
#       7
#     2   2   2   2   2   2   2
#     4   9  22  41  57  87 123 159 206 252 314 378
#     4   9  21  38  56  87 121 158 211 251 314 379
#     4  10  23  44  69 101 135 175 225 278 334 396
#     4  10  22  42  62  89 125 163 208 259 318 385
#     4  10  22  41  66  98 132 170 212 271 331 391
#     4  10  20  34  57  86 121 157 205 256 314 370
#     4  10  20  36  59  86 119 162 204 259 308 376
#
# _framework density 26.193639999999998
#
# number of rings (size 3 to 8) (size 9 to 14) (size 15 to 20)
#    0.857    1.429    0.000    1.714    0.000    7.429 
#    2.571    0.000    0.000    0.000    0.000    0.000 
#    0.000    0.000    0.000    0.000    0.000    0.000 
#
# Total GULP energy -78070.668027 kJ/mol
# GULP energy per Si atom -5576.476288 kJ/mol
# Density = 2.613402 g / cm^3
# Si number density = 26.193640 Si / 1000 Ang^3
#
#
#
# Elastic Constant Matrix: (Units=GPa)
#
#
# Indices 1 2 3 4 5 6 
#
# 1 86.1840 32.9261 17.4061 2.1321 -19.1068 -23.3050
# 2 32.9261 194.9255 36.7012 -10.7314 -11.6871 -30.7953
# 3 17.4061 36.7012 121.8069 -4.8851 -9.8567 -19.2309
# 4 2.1321 -10.7314 -4.8851 42.1637 -10.6713 -6.8766
# 5 -19.1068 -11.6871 -9.8567 -10.6713 31.6016 6.8959
# 6 -23.3050 -30.7953 -19.2309 -6.8766 6.8959 55.9168
#
#
#
# Elastic Compliance Matrix: (Units=1/GPa)
#
#
# Indices 1 2 3 4 5 6 
#
# 1 0.015178 -0.001159 -0.000332 0.001752 0.008194 0.004779
# 2 -0.001159 0.006157 -0.001063 0.002300 0.001444 0.002648
# 3 -0.000332 -0.001063 0.009216 0.001802 0.002371 0.002375
# 4 0.001752 0.002300 0.001802 0.027945 0.010880 0.004711
# 5 0.008194 0.001444 0.002371 0.010880 0.041268 0.001275
# 6 0.004779 0.002648 0.002375 0.004711 0.001275 0.022573
#
#
# Mechanical properties :
#
#
# Convention : Reuss Voigt Hill
#
# Bulk Modulus (GPa) = 39.29965 64.10922 51.70443
# Shear Modulus (GPa) = 36.78486 46.99529 41.89007
#
# Velocity S-wave (km/s) = 3.75152 4.24033 4.00340
# Velocity P-wave (km/s) = 5.81389 6.96435 6.41496
#
# Compressibility (1/GPa) = 0.02544552
#
# Stress axis : x y z
#
# Youngs Moduli (GPa) = 65.88388 162.40580 108.50152
#
# Poissons Ratio (x) = 0.18817 0.03603
# Poissons Ratio (y) = 0.07633 0.11530
# Poissons Ratio (z) = 0.02188 0.17257
#
# Static dielectric constant tensor:
#      x y z
#    x 2.215160 0.063390 0.082390 
#    y 0.063390 2.006170 0.004550 
#    z 0.082390 0.004550 2.172660 
# 
# From -- ./inp_files/121136.got.cif
#   From: 2010.05.17/outbox.cif.g08.bks.cpg/sg2_61_cif.got.tgz:121136.got - 2010.06.03 11:33:40.
