data_PCOD9094656
_publ_section_title
;
Structure prediction by ZEFSAII (Michael W. Deem and Ramdas Pophale) SiO2 
 PCOD9094656
Probable space group: P -1
;
_chemical_formula_sum "Si O2"
_cell_formula_units_Z 16
_cell_length_a 5.770924
_cell_length_b 9.216510
_cell_length_c 17.049390
_cell_angle_alpha 119.125376
_cell_angle_beta 118.343199
_cell_angle_gamma 91.581765
_cell_volume 656.547878
_symmetry_space_group_name_H-M "P -1"
_symmetry_group_IT_number 2
_symmetry_cell_setting 'triclinic'
loop_
_space_group_symop_operation_xyz
x,y,z
-x,-y,-z
loop_
_atom_site_type_symbol
_atom_site_label
_atom_site_fract_x
_atom_site_fract_y
_atom_site_fract_z
Si Si1 0.639519 0.280285 0.525770
Si Si2 0.277876 0.612694 0.847800
Si Si3 0.610792 0.671352 0.644510
Si Si4 0.687330 0.323500 0.713336
Si Si5 0.883925 0.968815 0.883895
Si Si6 0.449247 0.132563 0.920425
Si Si7 0.210216 0.486998 0.641885
Si Si8 0.321894 0.595307 0.100903
O O1 0.674097 0.491693 0.590191
O O2 0.396327 0.215815 0.405080
O O3 0.627897 0.207763 0.593376
O O4 0.948491 0.307664 0.552265
O O5 0.224418 0.622043 0.750144
O O6 0.542901 0.549221 0.888266
O O7 0.002803 0.459452 0.793449
O O8 0.347138 0.792863 0.952573
O O9 0.291307 0.593196 0.603342
O O10 0.777573 0.780435 0.773368
O O11 0.465543 0.421387 0.688355
O O12 0.654509 0.273863 0.786324
O O13 0.139069 0.069718 0.891431
O O14 0.600402 0.020006 0.863973
O O15 0.000000 0.000000 0.000000
O O16 0.499331 0.299284 0.914923
O O17 0.000000 0.500000 0.000000
#
# Coordination Sequence:
#
# PCOD9094656 Si02
#       8
#     2   2   2   2   2   2   2   2
#     4   9  19  36  63  89 116 154 209 275 313 359
#     4  10  20  34  59  89 126 154 200 261 317 367
#     4  10  21  37  59  87 120 162 218 256 309 363
#     4   9  19  33  56  94 118 150 189 270 328 360
#     4  12  29  44  61  90 133 181 207 244 303 392
#     4  12  26  41  62  90 129 175 212 245 311 382
#     4   9  18  32  58  89 117 153 197 266 321 365
#     4  11  21  36  62  93 125 160 205 268 318 366
#
# _framework density 24.369893000000001
#
# number of rings (size 3 to 8) (size 9 to 14) (size 15 to 20)
#    0.000    1.750    1.250    2.625   10.500    0.000 
#    0.000    0.000    0.000    1.500    0.000    0.000 
#    0.000    0.000    0.000    0.000    0.000    0.000 
#
# Total GULP energy -89083.411216 kJ/mol
# GULP energy per Si atom -5567.713201 kJ/mol
# Density = 2.431443 g / cm^3
# Si number density = 24.369893 Si / 1000 Ang^3
#
#
#
# Elastic Constant Matrix: (Units=GPa)
#
#
# Indices 1 2 3 4 5 6 
#
# 1 118.0628 27.2364 21.5175 -4.9755 -0.4115 11.6108
# 2 27.2364 34.9733 15.5900 -9.4600 -1.4107 16.1332
# 3 21.5175 15.5900 93.5086 -16.6972 5.6332 2.8281
# 4 -4.9755 -9.4600 -16.6972 36.4918 1.0307 -9.6467
# 5 -0.4115 -1.4107 5.6332 1.0307 27.5568 -8.8536
# 6 11.6108 16.1332 2.8281 -9.6467 -8.8536 45.9455
#
#
#
# Elastic Compliance Matrix: (Units=1/GPa)
#
#
# Indices 1 2 3 4 5 6 
#
# 1 0.010482 -0.007885 -0.001319 -0.001233 0.000053 -0.000048
# 2 -0.007885 0.043519 -0.004083 0.005152 -0.001161 -0.012179
# 3 -0.001319 -0.004083 0.012684 0.005049 -0.002508 0.001563
# 4 -0.001233 0.005152 0.005049 0.032180 -0.000427 0.004866
# 5 0.000053 -0.001161 -0.002508 -0.000427 0.039342 0.008040
# 6 -0.000048 -0.012179 0.001563 0.004866 0.008040 0.028528
#
#
# Mechanical properties :
#
#
# Convention : Reuss Voigt Hill
#
# Bulk Modulus (GPa) = 24.93086 41.69251 33.31168
# Shear Modulus (GPa) = 24.19208 34.14553 29.16880
#
# Velocity S-wave (km/s) = 3.15414 3.74724 3.46341
# Velocity P-wave (km/s) = 4.84945 5.98897 5.44908
#
# Compressibility (1/GPa) = 0.04011093
#
# Stress axis : x y z
#
# Youngs Moduli (GPa) = 95.39800 22.97869 78.83931
#
# Poissons Ratio (x) = 0.18118 0.10403
# Poissons Ratio (y) = 0.75217 0.32190
# Poissons Ratio (z) = 0.12587 0.09382
#
# Static dielectric constant tensor:
#      x y z
#    x 2.113790 0.017850 -0.053280 
#    y 0.017850 1.947450 -0.015340 
#    z -0.053280 -0.015340 2.052370 
# 
# From -- ./inp_files/548923.got.cif
#   From: 2010.05.17/outbox.cif.g08.bks.cpg/sg2_275_cif.got.tgz:548923.got - 2010.06.03 11:33:40.
