data_PCOD9094742
_publ_section_title
;
Structure prediction by ZEFSAII (Michael W. Deem and Ramdas Pophale) SiO2 
 PCOD9094742
Probable space group: P -1
;
_chemical_formula_sum "Si O2"
_cell_formula_units_Z 16
_cell_length_a 12.284553
_cell_length_b 7.144418
_cell_length_c 10.719008
_cell_angle_alpha 63.226421
_cell_angle_beta 120.141439
_cell_angle_gamma 128.594478
_cell_volume 622.620356
_symmetry_space_group_name_H-M "P -1"
_symmetry_group_IT_number 2
_symmetry_cell_setting 'triclinic'
loop_
_space_group_symop_operation_xyz
x,y,z
-x,-y,-z
loop_
_atom_site_type_symbol
_atom_site_label
_atom_site_fract_x
_atom_site_fract_y
_atom_site_fract_z
Si Si1 0.758934 0.529071 0.608799
Si Si2 0.439840 0.514847 0.271440
Si Si3 0.656185 0.228113 0.050632
Si Si4 0.655349 0.993920 0.639400
Si Si5 0.953847 0.375221 0.141861
Si Si6 0.301913 0.970224 0.635893
Si Si7 0.017336 0.857627 0.167513
Si Si8 0.028843 0.278764 0.550683
O O1 0.675760 0.231838 0.649385
O O2 0.654397 0.570620 0.627788
O O3 0.827454 0.617823 0.483567
O O4 0.915030 0.657065 0.731173
O O5 0.460444 0.289582 0.313464
O O6 0.588814 0.767550 0.314974
O O7 0.348821 0.563511 0.097112
O O8 0.783542 0.177685 0.093298
O O9 0.678072 0.224786 0.212842
O O10 0.500000 0.000000 0.000000
O O11 0.651133 0.033436 0.477539
O O12 0.810194 0.016700 0.748959
O O13 0.958919 0.581720 0.172747
O O14 0.000000 0.500000 0.000000
O O15 0.131065 0.904206 0.552120
O O16 0.952293 0.830677 0.276457
O O17 0.000000 0.000000 0.000000
O O18 0.000000 0.500000 0.500000
#
# Coordination Sequence:
#
# PCOD9094742 Si02
#       8
#     2   2   2   2   2   2   2   2
#     4  11  22  38  66  91 120 163 210 250 309 363
#     4  11  23  39  63  95 121 160 214 252 297 377
#     4  10  20  34  60  91 118 163 206 243 307 371
#     4  10  22  40  61  87 128 160 200 255 312 357
#     4  11  19  34  59  87 119 154 198 252 302 354
#     4  10  20  38  64  87 124 170 199 249 320 363
#     4  10  21  35  60  88 117 156 202 247 307 360
#     4  11  18  39  63  86 123 167 198 250 315 361
#
# _framework density 25.697842000000001
#
# number of rings (size 3 to 8) (size 9 to 14) (size 15 to 20)
#    0.000    1.500    6.250    1.125    0.000    0.500 
#    0.000    3.750    0.000    6.750    0.000    2.625 
#    0.000    0.000    0.000    0.000    0.000    0.000 
#
# Total GULP energy -89379.798308 kJ/mol
# GULP energy per Si atom -5586.237394 kJ/mol
# Density = 2.563935 g / cm^3
# Si number density = 25.697842 Si / 1000 Ang^3
#
#
#
# Elastic Constant Matrix: (Units=GPa)
#
#
# Indices 1 2 3 4 5 6 
#
# 1 84.2700 45.9807 39.3351 1.3675 15.0165 15.9873
# 2 45.9807 130.8473 24.4954 18.0644 3.7955 -4.4568
# 3 39.3351 24.4954 197.7654 -24.3945 -6.3700 14.2343
# 4 1.3675 18.0644 -24.3945 45.1834 12.8774 6.6460
# 5 15.0165 3.7955 -6.3700 12.8774 37.4424 8.3317
# 6 15.9873 -4.4568 14.2343 6.6460 8.3317 49.0760
#
#
#
# Elastic Compliance Matrix: (Units=1/GPa)
#
#
# Indices 1 2 3 4 5 6 
#
# 1 0.018856 -0.006675 -0.002317 0.003734 -0.007378 -0.005330
# 2 -0.006675 0.011064 -0.000983 -0.006063 0.002619 0.003841
# 3 -0.002317 -0.000983 0.006280 0.003783 0.001213 -0.001874
# 4 0.003734 -0.006063 0.003783 0.029934 -0.009348 -0.005331
# 5 -0.007378 0.002619 0.001213 -0.009348 0.033289 -0.002096
# 6 -0.005330 0.003841 -0.001874 -0.005331 -0.002096 0.024083
#
#
# Mechanical properties :
#
#
# Convention : Reuss Voigt Hill
#
# Bulk Modulus (GPa) = 61.54028 70.27835 65.90931
# Shear Modulus (GPa) = 33.58585 46.54512 40.06549
#
# Velocity S-wave (km/s) = 3.61910 4.26049 3.95283
# Velocity P-wave (km/s) = 6.43922 7.18399 6.82177
#
# Compressibility (1/GPa) = 0.01624952
#
# Stress axis : x y z
#
# Youngs Moduli (GPa) = 53.03450 90.38196 159.24299
#
# Poissons Ratio (x) = 0.60332 0.36897
# Poissons Ratio (y) = 0.35402 0.15649
# Poissons Ratio (z) = 0.12288 0.08882
#
# Static dielectric constant tensor:
#      x y z
#    x 2.038390 -0.041300 0.002440 
#    y -0.041300 2.169300 0.034840 
#    z 0.002440 0.034840 2.139820 
# 
# From -- ./inp_files/444385.got.cif
#   From: 2010.05.17/outbox.cif.g08.bks.cpg/sg2_223_cif.got.tgz:444385.got - 2010.06.03 11:33:40.
