data_PCOD9094823
_publ_section_title
;
Structure prediction by ZEFSAII (Michael W. Deem and Ramdas Pophale) SiO2 
 PCOD9094823
Probable space group: P -1
;
_chemical_formula_sum "Si O2"
_cell_formula_units_Z 16
_cell_length_a 9.553709
_cell_length_b 9.008841
_cell_length_c 18.367234
_cell_angle_alpha 55.568667
_cell_angle_beta 131.349521
_cell_angle_gamma 91.470152
_cell_volume 809.705260
_symmetry_space_group_name_H-M "P -1"
_symmetry_group_IT_number 2
_symmetry_cell_setting 'triclinic'
loop_
_space_group_symop_operation_xyz
x,y,z
-x,-y,-z
loop_
_atom_site_type_symbol
_atom_site_label
_atom_site_fract_x
_atom_site_fract_y
_atom_site_fract_z
Si Si1 0.842551 0.866491 0.653216
Si Si2 0.657975 0.295184 0.925011
Si Si3 0.931266 0.712297 0.875763
Si Si4 0.319732 0.094960 0.033769
Si Si5 0.666596 0.491905 0.119713
Si Si6 0.424621 0.888221 0.271361
Si Si7 0.795982 0.338114 0.804537
Si Si8 0.549766 0.758559 0.502500
O O1 0.889189 0.699286 0.780731
O O2 0.671057 0.880577 0.531513
O O3 0.091839 0.739469 0.740015
O O4 0.703126 0.092443 0.589473
O O5 0.443322 0.469796 0.849433
O O6 0.679922 0.385455 0.830420
O O7 0.876948 0.239876 0.061434
O O8 0.653005 0.083903 0.964735
O O9 0.704237 0.898089 0.783623
O O10 0.000000 0.500000 0.000000
O O11 0.333957 0.291163 0.955569
O O12 0.061655 0.218370 0.938100
O O13 0.484550 0.955835 0.197415
O O14 0.500000 0.500000 0.000000
O O15 0.253797 0.827193 0.203527
O O16 0.571644 0.719235 0.433742
O O17 0.685675 0.537567 0.655891
#
# Coordination Sequence:
#
# PCOD9094823 Si02
#       8
#     2   2   2   2   2   2   2   2
#     4  10  21  37  53  84 123 156 202 239 304 353
#     4  11  22  36  60  94 123 154 198 253 308 350
#     4  11  18  31  58  92 119 149 196 257 295 344
#     4  11  21  40  63  91 121 158 204 257 296 355
#     4  12  24  39  61  91 124 161 201 250 308 362
#     4  10  20  34  61  93 117 150 203 253 299 349
#     4  11  19  38  64  91 116 159 204 251 296 355
#     4  10  21  37  61  88 121 157 200 254 293 355
#
# _framework density 19.760276999999999
#
# number of rings (size 3 to 8) (size 9 to 14) (size 15 to 20)
#    0.000    1.250    5.000    3.000    0.000    0.000 
#    0.000    0.625    0.000    1.500    0.000    0.000 
#    0.000    0.000    0.000    0.000    0.000    0.000 
#
# Total GULP energy -89101.484416 kJ/mol
# GULP energy per Si atom -5568.842776 kJ/mol
# Density = 1.971530 g / cm^3
# Si number density = 19.760277 Si / 1000 Ang^3
#
#
#
# Elastic Constant Matrix: (Units=GPa)
#
#
# Indices 1 2 3 4 5 6 
#
# 1 63.9019 16.3313 26.5139 9.4427 1.5942 -21.2232
# 2 16.3313 57.3420 15.0217 11.6881 2.0317 -9.2746
# 3 26.5139 15.0217 93.3597 5.6830 -8.5908 -8.6808
# 4 9.4427 11.6881 5.6830 35.5224 -4.1084 1.2888
# 5 1.5942 2.0317 -8.5908 -4.1084 31.7652 -5.3343
# 6 -21.2232 -9.2746 -8.6808 1.2888 -5.3343 31.3511
#
#
#
# Elastic Compliance Matrix: (Units=1/GPa)
#
#
# Indices 1 2 3 4 5 6 
#
# 1 0.023718 -0.002059 -0.004813 -0.005452 -0.000677 0.014224
# 2 -0.002059 0.020583 -0.002149 -0.006250 -0.001926 0.004030
# 3 -0.004813 -0.002149 0.012791 0.000385 0.003939 0.000302
# 4 -0.005452 -0.006250 0.000385 0.032271 0.003928 -0.006091
# 5 -0.000677 -0.001926 0.003939 0.003928 0.034171 0.005715
# 6 0.014224 0.004030 0.000302 -0.006091 0.005715 0.044024
#
#
# Mechanical properties :
#
#
# Convention : Reuss Voigt Hill
#
# Bulk Modulus (GPa) = 25.60743 36.70414 31.15579
# Shear Modulus (GPa) = 25.17423 30.17687 27.67555
#
# Velocity S-wave (km/s) = 3.57316 3.91211 3.74647
# Velocity P-wave (km/s) = 5.47818 6.24670 5.87502
#
# Compressibility (1/GPa) = 0.03905117
#
# Stress axis : x y z
#
# Youngs Moduli (GPa) = 42.16139 48.58490 78.18018
#
# Poissons Ratio (x) = 0.10001 0.37625
# Poissons Ratio (y) = 0.08679 0.16803
# Poissons Ratio (z) = 0.20290 0.10442
#
# Static dielectric constant tensor:
#      x y z
#    x 1.727810 -0.000830 -0.048940 
#    y -0.000830 1.746990 0.008330 
#    z -0.048940 0.008330 1.810580 
# 
# From -- ./inp_files/263574.got.cif
#   From: 2010.05.17/outbox.cif.g08.bks.cpg/sg2_132_cif.got.tgz:263574.got - 2010.06.03 11:33:40.
