data_PCOD9094313
_publ_section_title
;
Structure prediction by ZEFSAII (Michael W. Deem and Ramdas Pophale) SiO2 
 PCOD9094313
Probable space group: P -1
;
_chemical_formula_sum "Si O2"
_cell_formula_units_Z 16
_cell_length_a 19.240073
_cell_length_b 9.124038
_cell_length_c 8.679792
_cell_angle_alpha 67.875941
_cell_angle_beta 36.218390
_cell_angle_gamma 47.321424
_cell_volume 608.900966
_symmetry_space_group_name_H-M "P -1"
_symmetry_group_IT_number 2
_symmetry_cell_setting 'triclinic'
loop_
_space_group_symop_operation_xyz
x,y,z
-x,-y,-z
loop_
_atom_site_type_symbol
_atom_site_label
_atom_site_fract_x
_atom_site_fract_y
_atom_site_fract_z
Si Si1 0.897539 0.312657 0.095847
Si Si2 0.441713 0.302259 0.533429
Si Si3 0.726564 0.885082 0.038351
Si Si4 0.945612 0.423383 0.263777
Si Si5 0.256266 0.183676 0.310966
Si Si6 0.989009 0.941359 0.293118
Si Si7 0.237193 0.710762 0.214613
Si Si8 0.498293 0.263384 0.801112
O O1 0.707370 0.455608 0.352715
O O2 0.913063 0.448071 0.129457
O O3 0.978431 0.100690 0.135547
O O4 0.973837 0.236698 0.819065
O O5 0.356872 0.207492 0.740227
O O6 0.506322 0.285844 0.594361
O O7 0.587226 0.142378 0.217374
O O8 0.794154 0.803184 0.778447
O O9 0.872670 0.780741 0.932908
O O10 0.869394 0.633318 0.416021
O O11 0.840308 0.372348 0.534206
O O12 0.339989 0.951891 0.326801
O O13 0.381882 0.216215 0.050947
O O14 0.139779 0.818528 0.186852
O O15 0.829866 0.095211 0.624691
O O16 0.417227 0.488818 0.940205
#
# Coordination Sequence:
#
# PCOD9094313 Si02
#       8
#     2   2   2   2   2   2   2   2
#     4  10  20  34  56  83 110 141 183 225 269 318
#     4  10  21  35  54  79 114 147 180 214 264 335
#     4  10  22  36  53  79 115 149 177 216 267 329
#     4  10  21  35  54  82 116 143 174 224 273 316
#     4   9  19  32  53  76 111 143 179 213 263 325
#     4   9  18  33  56  86 101 138 188 233 264 311
#     4   9  17  33  59  82 107 138 184 231 267 310
#     4   9  17  32  52  82 107 139 178 220 262 322
#
# _framework density 26.27685
#
# number of rings (size 3 to 8) (size 9 to 14) (size 15 to 20)
#    0.000    2.500    1.250    0.375   10.500    0.500 
#    0.000    0.000    0.000    7.500    0.000    0.000 
#    0.000    0.000    0.000    0.000    0.000    0.000 
#
# Total GULP energy -89552.476110 kJ/mol
# GULP energy per Si atom -5597.029757 kJ/mol
# Density = 2.621704 g / cm^3
# Si number density = 26.276850 Si / 1000 Ang^3
#
#
#
# Elastic Constant Matrix: (Units=GPa)
#
#
# Indices 1 2 3 4 5 6 
#
# 1 137.0238 36.4047 59.7575 9.9120 42.4463 -9.8549
# 2 36.4047 72.9153 46.5284 21.8719 28.3093 -8.4951
# 3 59.7575 46.5284 175.1774 12.4170 38.5108 -15.8014
# 4 9.9120 21.8719 12.4170 42.4823 3.0450 9.6488
# 5 42.4463 28.3093 38.5108 3.0450 38.5490 -4.5829
# 6 -9.8549 -8.4951 -15.8014 9.6488 -4.5829 46.0503
#
#
#
# Elastic Compliance Matrix: (Units=1/GPa)
#
#
# Indices 1 2 3 4 5 6 
#
# 1 0.011515 0.000120 -0.001238 -0.001887 -0.011222 0.001340
# 2 0.000120 0.025077 -0.002097 -0.012408 -0.014873 0.005052
# 3 -0.001238 -0.002097 0.007973 -0.001035 -0.004763 0.001827
# 4 -0.001887 -0.012408 -0.001035 0.032075 0.008631 -0.008910
# 5 -0.011222 -0.014873 -0.004763 0.008631 0.052901 -0.003323
# 6 0.001340 0.005052 0.001827 -0.008910 -0.003323 0.025097
#
#
# Mechanical properties :
#
#
# Convention : Reuss Voigt Hill
#
# Bulk Modulus (GPa) = 26.22250 74.49974 50.36112
# Shear Modulus (GPa) = 28.77175 41.57805 35.17490
#
# Velocity S-wave (km/s) = 3.31259 3.98214 3.66269
# Velocity P-wave (km/s) = 4.96306 7.03965 6.09051
#
# Compressibility (1/GPa) = 0.03813519
#
# Stress axis : x y z
#
# Youngs Moduli (GPa) = 86.84041 39.87651 125.42134
#
# Poissons Ratio (x) = -0.00478 0.15532
# Poissons Ratio (y) = -0.01041 0.26299
# Poissons Ratio (z) = 0.10754 0.08362
#
# Static dielectric constant tensor:
#      x y z
#    x 2.051200 0.132610 -0.018370 
#    y 0.132610 2.098930 -0.044440 
#    z -0.018370 -0.044440 2.047940 
# 
# From -- ./inp_files/179238.got.cif
#   From: 2010.05.17/outbox.cif.g08.bks.cpg/sg2_90_cif.got.tgz:179238.got - 2010.06.03 11:33:40.
