data_PCOD9094285
_publ_section_title
;
Structure prediction by ZEFSAII (Michael W. Deem and Ramdas Pophale) SiO2 
 PCOD9094285
Probable space group: P -1
;
_chemical_formula_sum "Si O2"
_cell_formula_units_Z 16
_cell_length_a 13.420247
_cell_length_b 11.543062
_cell_length_c 9.209085
_cell_angle_alpha 137.540798
_cell_angle_beta 107.758184
_cell_angle_gamma 87.916506
_cell_volume 876.772952
_symmetry_space_group_name_H-M "P -1"
_symmetry_group_IT_number 2
_symmetry_cell_setting 'triclinic'
loop_
_space_group_symop_operation_xyz
x,y,z
-x,-y,-z
loop_
_atom_site_type_symbol
_atom_site_label
_atom_site_fract_x
_atom_site_fract_y
_atom_site_fract_z
Si Si1 0.223859 0.914691 0.223115
Si Si2 0.766163 0.701106 0.396310
Si Si3 0.312958 0.684008 0.630584
Si Si4 0.428674 0.014515 0.186906
Si Si5 0.340099 0.818634 0.450094
Si Si6 0.419930 0.410070 0.539444
Si Si7 0.593181 0.516961 0.937046
Si Si8 0.878153 0.430696 0.322503
O O1 0.337233 0.963423 0.225635
O O2 0.256864 0.878393 0.366667
O O3 0.181577 0.088314 0.364440
O O4 0.144196 0.743947 0.950794
O O5 0.670690 0.638085 0.416827
O O6 0.845475 0.581501 0.352665
O O7 0.702207 0.659528 0.176031
O O8 0.291649 0.730979 0.500328
O O9 0.372951 0.528372 0.519045
O O10 0.205943 0.620980 0.626567
O O11 0.389985 0.863762 0.907967
O O12 0.547480 0.028925 0.318953
O O13 0.433221 0.216415 0.323676
O O14 0.378128 0.669757 0.238554
O O15 0.531614 0.533452 0.776311
O O16 0.500000 0.500000 0.000000
O O17 0.000000 0.500000 0.500000
#
# Coordination Sequence:
#
# PCOD9094285 Si02
#       8
#     2   2   2   2   2   2   2   2
#     4  10  20  34  56  80 107 139 184 220 258 326
#     4   9  17  33  54  81 101 134 181 224 260 311
#     4  10  21  35  52  79 114 143 176 224 269 311
#     4   9  19  32  50  77 110 149 178 205 255 324
#     4  11  20  33  51  83 117 144 176 214 267 317
#     4   8  17  31  49  73 109 144 179 207 254 318
#     4   9  17  29  50  77 108 142 178 209 249 313
#     4  10  21  40  61  77 100 138 186 233 273 317
#
# _framework density 18.248739
#
# number of rings (size 3 to 8) (size 9 to 14) (size 15 to 20)
#    0.000    2.500    1.250    1.500    3.500    2.500 
#    2.250    0.625    0.000    0.750    0.000    0.000 
#    0.000    0.000    0.000    0.000    0.000    0.000 
#
# Total GULP energy -89232.315456 kJ/mol
# GULP energy per Si atom -5577.019716 kJ/mol
# Density = 1.820720 g / cm^3
# Si number density = 18.248739 Si / 1000 Ang^3
#
#
#
# Elastic Constant Matrix: (Units=GPa)
#
#
# Indices 1 2 3 4 5 6 
#
# 1 41.8602 25.1196 51.5500 0.3448 11.0376 -8.2441
# 2 25.1196 97.4212 70.7033 1.0530 5.1924 -2.7168
# 3 51.5500 70.7033 134.0705 6.6925 9.0488 -13.1513
# 4 0.3448 1.0530 6.6925 19.8512 -1.1626 -7.4610
# 5 11.0376 5.1924 9.0488 -1.1626 30.2379 -6.8372
# 6 -8.2441 -2.7168 -13.1513 -7.4610 -6.8372 19.6599
#
#
#
# Elastic Compliance Matrix: (Units=1/GPa)
#
#
# Indices 1 2 3 4 5 6 
#
# 1 0.051261 0.001612 -0.019435 0.007876 -0.011095 0.007849
# 2 0.001612 0.016993 -0.009901 0.000934 -0.001347 -0.003713
# 3 -0.019435 -0.009901 0.020512 -0.004486 0.003309 0.003651
# 4 0.007876 0.000934 -0.004486 0.061953 0.006623 0.026246
# 5 -0.011095 -0.001347 0.003309 0.006623 0.039714 0.013700
# 6 0.007849 -0.003713 0.003651 0.026246 0.013700 0.070810
#
#
# Mechanical properties :
#
#
# Convention : Reuss Voigt Hill
#
# Bulk Modulus (GPa) = 30.01320 63.12198 46.56759
# Shear Modulus (GPa) = 15.25334 22.34842 18.80088
#
# Velocity S-wave (km/s) = 2.89426 3.50330 3.21324
# Velocity P-wave (km/s) = 5.25846 7.14346 6.27218
#
# Compressibility (1/GPa) = 0.03331867
#
# Stress axis : x y z
#
# Youngs Moduli (GPa) = 19.50793 58.84796 48.75285
#
# Poissons Ratio (x) = -0.09488 0.94749
# Poissons Ratio (y) = -0.03145 0.48271
# Poissons Ratio (z) = 0.37913 0.58267
#
# Static dielectric constant tensor:
#      x y z
#    x 1.631450 0.012000 -0.020480 
#    y 0.012000 1.660310 0.002240 
#    z -0.020480 0.002240 1.638720 
# 
# From -- ./inp_files/227861.got.cif
#   From: 2010.05.17/outbox.cif.g08.bks.cpg/sg2_114_cif.got.tgz:227861.got - 2010.06.03 11:33:40.
