data_PCOD9094776
_publ_section_title
;
Structure prediction by ZEFSAII (Michael W. Deem and Ramdas Pophale) SiO2 
 PCOD9094776
Probable space group: P -1
;
_chemical_formula_sum "Si O2"
_cell_formula_units_Z 14
_cell_length_a 11.181473
_cell_length_b 12.016184
_cell_length_c 13.232120
_cell_angle_alpha 105.036978
_cell_angle_beta 22.195314
_cell_angle_gamma 101.916677
_cell_volume 645.834719
_symmetry_space_group_name_H-M "P -1"
_symmetry_group_IT_number 2
_symmetry_cell_setting 'triclinic'
loop_
_space_group_symop_operation_xyz
x,y,z
-x,-y,-z
loop_
_atom_site_type_symbol
_atom_site_label
_atom_site_fract_x
_atom_site_fract_y
_atom_site_fract_z
Si Si1 0.107005 0.769986 0.582064
Si Si2 0.314431 0.401173 0.836700
Si Si3 0.331861 0.635889 0.775934
Si Si4 0.953041 0.746329 0.286693
Si Si5 0.066470 0.628134 0.383534
Si Si6 0.116517 0.994157 0.290681
Si Si7 0.788351 0.593494 0.863916
O O1 0.979060 0.701824 0.568078
O O2 0.050609 0.899882 0.620264
O O3 0.883472 0.723514 0.831658
O O4 0.438878 0.707523 0.349359
O O5 0.233801 0.461396 0.021869
O O6 0.987933 0.363162 0.039134
O O7 0.428660 0.499633 0.695039
O O8 0.604263 0.703142 0.524449
O O9 0.210892 0.696509 0.990582
O O10 0.981491 0.696828 0.365899
O O11 0.013103 0.879614 0.289530
O O12 0.977974 0.497265 0.404941
O O13 0.445818 0.611073 0.087229
O O14 0.000000 0.000000 0.500000
O O15 0.500000 0.000000 0.000000
#
# Coordination Sequence:
#
# PCOD9094776 Si02
#       7
#     2   2   2   2   2   2   2
#     4  11  23  39  66  94 134 173 220 274 332 400
#     4  10  24  42  67  98 130 180 222 273 333 391
#     4  11  26  44  69  97 136 176 225 274 326 394
#     4  12  24  43  67  97 134 176 220 276 328 391
#     4  10  20  34  60  97 131 161 210 268 346 393
#     4  12  26  46  69  98 136 177 221 270 332 401
#     4  10  20  36  62  96 134 166 210 278 338 401
#
# _framework density 21.677372999999999
#
# number of rings (size 3 to 8) (size 9 to 14) (size 15 to 20)
#    0.000    1.143    2.857    3.000    6.000    1.143 
#    0.000    1.429    0.000    0.000    0.000    0.000 
#    0.000    0.000    0.000    0.000    0.000    0.000 
#
# Total GULP energy -78035.352292 kJ/mol
# GULP energy per Si atom -5573.953735 kJ/mol
# Density = 2.162803 g / cm^3
# Si number density = 21.677373 Si / 1000 Ang^3
#
#
#
# Elastic Constant Matrix: (Units=GPa)
#
#
# Indices 1 2 3 4 5 6 
#
# 1 110.6322 10.3938 -23.8934 -3.5275 23.4474 -11.1991
# 2 10.3938 172.1542 45.7415 -0.1033 -26.7041 -20.5557
# 3 -23.8934 45.7415 143.9150 -6.7698 -57.9676 -2.8600
# 4 -3.5275 -0.1033 -6.7698 28.2520 -10.4606 -3.2322
# 5 23.4474 -26.7041 -57.9676 -10.4606 99.4645 -1.1931
# 6 -11.1991 -20.5557 -2.8600 -3.2322 -1.1931 32.4553
#
#
#
# Elastic Compliance Matrix: (Units=1/GPa)
#
#
# Indices 1 2 3 4 5 6 
#
# 1 0.010133 -0.000865 0.001441 0.001376 -0.001599 0.003154
# 2 -0.000865 0.007002 -0.001827 0.000352 0.001105 0.004051
# 3 0.001441 -0.001827 0.010313 0.004864 0.005703 0.000943
# 4 0.001376 0.000352 0.004864 0.039888 0.006864 0.005351
# 5 -0.001599 0.001105 0.005703 0.006864 0.014796 0.001878
# 6 0.003154 0.004051 0.000943 0.005351 0.001878 0.035150
#
#
# Mechanical properties :
#
#
# Convention : Reuss Voigt Hill
#
# Bulk Modulus (GPa) = 40.08768 54.57613 47.33191
# Shear Modulus (GPa) = 39.03188 58.33166 48.68177
#
# Velocity S-wave (km/s) = 4.24793 5.19302 4.74407
# Velocity P-wave (km/s) = 6.52632 7.82226 7.20349
#
# Compressibility (1/GPa) = 0.02494532
#
# Stress axis : x y z
#
# Youngs Moduli (GPa) = 98.68328 142.82370 96.96323
#
# Poissons Ratio (x) = 0.12358 -0.13971
# Poissons Ratio (y) = 0.08538 0.17716
# Poissons Ratio (z) = -0.14218 0.26095
#
# Static dielectric constant tensor:
#      x y z
#    x 1.842990 0.007350 0.007280 
#    y 0.007350 1.884310 -0.066850 
#    z 0.007280 -0.066850 1.901140 
# 
# From -- ./inp_files/64884.got.cif
#   From: 2010.05.17/outbox.cif.g08.bks.cpg/sg2_33_cif.got.tgz:64884.got - 2010.06.03 11:33:40.
