data_PCOD9094485
_publ_section_title
;
Structure prediction by ZEFSAII (Michael W. Deem and Ramdas Pophale) SiO2 
 PCOD9094485
Probable space group: P -1
;
_chemical_formula_sum "Si O2"
_cell_formula_units_Z 16
_cell_length_a 10.103155
_cell_length_b 25.119201
_cell_length_c 9.148689
_cell_angle_alpha 132.273308
_cell_angle_beta 29.965919
_cell_angle_gamma 134.595853
_cell_volume 812.133599
_symmetry_space_group_name_H-M "P -1"
_symmetry_group_IT_number 2
_symmetry_cell_setting 'triclinic'
loop_
_space_group_symop_operation_xyz
x,y,z
-x,-y,-z
loop_
_atom_site_type_symbol
_atom_site_label
_atom_site_fract_x
_atom_site_fract_y
_atom_site_fract_z
Si Si1 0.316005 0.159719 0.635481
Si Si2 0.708321 0.063164 0.018164
Si Si3 0.189712 0.456891 0.665225
Si Si4 0.002429 0.571847 0.534166
Si Si5 0.912596 0.712546 0.567847
Si Si6 0.294587 0.025829 0.846405
Si Si7 0.555602 0.811591 0.096187
Si Si8 0.350706 0.326982 0.928270
O O1 0.572325 0.129956 0.296417
O O2 0.305945 0.159006 0.822623
O O3 0.342593 0.245476 0.721787
O O4 0.029912 0.102663 0.738064
O O5 0.721539 0.017919 0.069161
O O6 0.500000 0.000000 0.000000
O O7 0.500000 0.500000 0.500000
O O8 0.108684 0.368817 0.627370
O O9 0.148554 0.456418 0.528688
O O10 0.000000 0.500000 0.000000
O O11 0.000000 0.500000 0.500000
O O12 0.834720 0.623547 0.866019
O O13 0.323500 0.622149 0.284945
O O14 0.788842 0.693699 0.815654
O O15 0.233151 0.765696 0.354597
O O16 0.714687 0.757150 0.775782
O O17 0.407134 0.116904 0.911268
O O18 0.500000 0.000000 0.500000
O O19 0.000000 0.000000 0.000000
#
# Coordination Sequence:
#
# PCOD9094485 Si02
#       8
#     2   2   2   2   2   2   2   2
#     4  11  20  37  62  86 113 153 202 243 286 341
#     4  12  24  39  59  86 121 159 193 237 296 361
#     4  11  21  37  61  86 120 157 193 231 287 361
#     4  11  22  39  63  92 119 152 195 248 291 338
#     4  10  20  34  57  91 116 148 195 241 290 334
#     4  12  22  38  60  91 115 151 200 244 294 340
#     4  11  19  34  61  86 116 144 198 256 282 325
#     4  10  20  36  62  91 115 149 203 247 284 341
#
# _framework density 19.701194000000001
#
# number of rings (size 3 to 8) (size 9 to 14) (size 15 to 20)
#    0.000    1.000    2.500    9.000    0.000    0.000 
#    0.000    0.000   16.500    0.000    0.000    0.000 
#    0.000    0.000    0.000    0.000    0.000    0.000 
#
# Total GULP energy -89345.350995 kJ/mol
# GULP energy per Si atom -5584.084437 kJ/mol
# Density = 1.965635 g / cm^3
# Si number density = 19.701194 Si / 1000 Ang^3
#
#
#
# Elastic Constant Matrix: (Units=GPa)
#
#
# Indices 1 2 3 4 5 6 
#
# 1 64.8167 43.2980 33.6064 -9.2778 -23.5732 0.4081
# 2 43.2980 153.0924 55.6436 1.9264 -26.0012 -4.2588
# 3 33.6064 55.6436 116.8450 11.0593 -40.6186 0.5396
# 4 -9.2778 1.9264 11.0593 51.4173 5.4841 -20.9559
# 5 -23.5732 -26.0012 -40.6186 5.4841 29.0443 2.8673
# 6 0.4081 -4.2588 0.5396 -20.9559 2.8673 29.7296
#
#
#
# Elastic Compliance Matrix: (Units=1/GPa)
#
#
# Indices 1 2 3 4 5 6 
#
# 1 0.024304 -0.004360 0.000457 0.002396 0.016091 -0.000829
# 2 -0.004360 0.008901 -0.002945 0.000079 0.000155 0.001429
# 3 0.000457 -0.002945 0.023083 -0.014161 0.034084 -0.014116
# 4 0.002396 0.000079 -0.014161 0.038013 -0.027900 0.029721
# 5 0.016091 0.000155 0.034084 -0.027900 0.103571 -0.030473
# 6 -0.000829 0.001429 -0.014116 0.029721 -0.030473 0.057998
#
#
# Mechanical properties :
#
#
# Convention : Reuss Voigt Hill
#
# Bulk Modulus (GPa) = 23.47880 66.65002 45.06441
# Shear Modulus (GPa) = 17.62025 35.51865 26.56945
#
# Velocity S-wave (km/s) = 2.99385 4.25063 3.67634
# Velocity P-wave (km/s) = 4.88817 7.61540 6.39877
#
# Compressibility (1/GPa) = 0.04259162
#
# Stress axis : x y z
#
# Youngs Moduli (GPa) = 41.14514 112.35267 43.32101
#
# Poissons Ratio (x) = 0.48988 -0.01978
# Poissons Ratio (y) = 0.17940 0.12757
# Poissons Ratio (z) = -0.01879 0.33086
#
# Static dielectric constant tensor:
#      x y z
#    x 1.687720 -0.016600 0.000610 
#    y -0.016600 1.751980 0.023830 
#    z 0.000610 0.023830 1.696190 
# 
# From -- ./inp_files/226429.got.cif
#   From: 2010.05.17/outbox.cif.g08.bks.cpg/sg2_114_cif.got.tgz:226429.got - 2010.06.03 11:33:40.
