data_PCOD9094010
_publ_section_title
;
Structure prediction by ZEFSAII (Michael W. Deem and Ramdas Pophale) SiO2 
 PCOD9094010
Probable space group: P -1
;
_chemical_formula_sum "Si O2"
_cell_formula_units_Z 14
_cell_length_a 14.221803
_cell_length_b 13.650394
_cell_length_c 12.449285
_cell_angle_alpha 30.701081
_cell_angle_beta 27.220470
_cell_angle_gamma 31.097133
_cell_volume 519.113085
_symmetry_space_group_name_H-M "P -1"
_symmetry_group_IT_number 2
_symmetry_cell_setting 'triclinic'
loop_
_space_group_symop_operation_xyz
x,y,z
-x,-y,-z
loop_
_atom_site_type_symbol
_atom_site_label
_atom_site_fract_x
_atom_site_fract_y
_atom_site_fract_z
Si Si1 0.358285 0.765008 0.319174
Si Si2 0.071016 0.416218 0.216729
Si Si3 0.633108 0.122477 0.433593
Si Si4 0.388663 0.311185 0.167559
Si Si5 0.316490 0.329422 0.752469
Si Si6 0.035528 0.976759 0.642276
Si Si7 0.285873 0.506500 0.306851
O O1 0.367417 0.539682 0.489542
O O2 0.593686 0.747313 0.147094
O O3 0.190281 0.831514 0.529685
O O4 0.224902 0.942642 0.201296
O O5 0.943222 0.588527 0.094826
O O6 0.905212 0.476943 0.431589
O O7 0.302689 0.390911 0.059515
O O8 0.077613 0.191481 0.389665
O O9 0.471590 0.175419 0.651552
O O10 0.868888 0.107914 0.257332
O O11 0.506700 0.306748 0.306963
O O12 0.644811 0.903472 0.583307
O O13 0.252910 0.463439 0.257849
O O14 0.638738 0.300941 0.936034
#
# Coordination Sequence:
#
# PCOD9094010 Si02
#       7
#     2   2   2   2   2   2   2
#     4   8  12  22  42  74 100 122 166 200 228 300
#     4   9  17  31  49  74 102 130 165 205 243 291
#     4   9  17  31  49  74 102 130 165 205 243 291
#     4  10  20  34  52  73  99 132 166 204 250 293
#     4   8  14  24  44  73  98 127 165 197 241 290
#     4   8  14  24  44  73  98 127 165 197 241 290
#     4  10  20  34  52  73  99 132 166 204 250 293
#
# _framework density 26.969073000000002
#
# number of rings (size 3 to 8) (size 9 to 14) (size 15 to 20)
#    0.000    3.143    0.000    0.857    0.000    0.000 
#    0.000    5.714    0.000   15.429    0.000  452.000 
#    0.000    0.000    0.000    0.000    0.000    0.000 
#
# Total GULP energy -78380.725735 kJ/mol
# GULP energy per Si atom -5598.623267 kJ/mol
# Density = 2.690769 g / cm^3
# Si number density = 26.969073 Si / 1000 Ang^3
#
#
#
# Elastic Constant Matrix: (Units=GPa)
#
#
# Indices 1 2 3 4 5 6 
#
# 1 134.3257 17.7975 33.9432 6.9141 -22.2033 -0.9247
# 2 17.7975 89.3255 18.4376 0.8718 -5.3888 -1.9351
# 3 33.9432 18.4376 70.6117 4.2979 4.5291 7.7877
# 4 6.9141 0.8718 4.2979 14.8486 -4.6430 -5.8061
# 5 -22.2033 -5.3888 4.5291 -4.6430 32.9023 -2.4454
# 6 -0.9247 -1.9351 7.7877 -5.8061 -2.4454 57.2410
#
#
#
# Elastic Compliance Matrix: (Units=1/GPa)
#
#
# Indices 1 2 3 4 5 6 
#
# 1 0.010123 -0.000430 -0.005346 -0.000329 0.007537 0.001165
# 2 -0.000430 0.012129 -0.003346 0.001675 0.002477 0.001134
# 3 -0.005346 -0.003346 0.018952 -0.006793 -0.008006 -0.003809
# 4 -0.000329 0.001675 -0.006793 0.076929 0.012536 0.009314
# 5 0.007537 0.002477 -0.008006 0.012536 0.039071 0.004235
# 6 0.001165 0.001134 -0.003809 0.009314 0.004235 0.019171
#
#
# Mechanical properties :
#
#
# Convention : Reuss Voigt Hill
#
# Bulk Modulus (GPa) = 43.55347 48.29107 45.92227
# Shear Modulus (GPa) = 24.71895 35.93734 30.32815
#
# Velocity S-wave (km/s) = 3.03077 3.65436 3.35707
# Velocity P-wave (km/s) = 5.33216 5.97919 5.66492
#
# Compressibility (1/GPa) = 0.02296028
#
# Stress axis : x y z
#
# Youngs Moduli (GPa) = 98.78276 82.44636 52.76362
#
# Poissons Ratio (x) = 0.03549 0.28206
# Poissons Ratio (y) = 0.04252 0.17655
# Poissons Ratio (z) = 0.52807 0.27587
#
# Static dielectric constant tensor:
#      x y z
#    x 2.151060 -0.086830 -0.082950 
#    y -0.086830 2.144670 0.015610 
#    z -0.082950 0.015610 2.035680 
# 
# From -- ./inp_files/193298.got.cif
#   From: 2010.05.17/outbox.cif.g08.bks.cpg/sg2_97_cif.got.tgz:193298.got - 2010.06.03 11:33:40.
