data_PCOD9094769
_publ_section_title
;
Structure prediction by ZEFSAII (Michael W. Deem and Ramdas Pophale) SiO2 
 PCOD9094769
Probable space group: P -1
;
_chemical_formula_sum "Si O2"
_cell_formula_units_Z 16
_cell_length_a 19.563423
_cell_length_b 6.742885
_cell_length_c 5.287679
_cell_angle_alpha 99.446896
_cell_angle_beta 108.729958
_cell_angle_gamma 98.094276
_cell_volume 637.488560
_symmetry_space_group_name_H-M "P -1"
_symmetry_group_IT_number 2
_symmetry_cell_setting 'triclinic'
loop_
_space_group_symop_operation_xyz
x,y,z
-x,-y,-z
loop_
_atom_site_type_symbol
_atom_site_label
_atom_site_fract_x
_atom_site_fract_y
_atom_site_fract_z
Si Si1 0.367422 0.598342 0.117534
Si Si2 0.298840 0.546067 0.527100
Si Si3 0.132529 0.390106 0.121559
Si Si4 0.829834 0.047890 0.913370
Si Si5 0.900426 0.142185 0.511416
Si Si6 0.512377 0.870632 0.237757
Si Si7 0.669701 0.031522 0.559310
Si Si8 0.059402 0.308544 0.518717
O O1 0.349577 0.491130 0.346198
O O2 0.452007 0.659285 0.141652
O O3 0.346728 0.820476 0.199998
O O4 0.316374 0.479553 0.812636
O O5 0.215185 0.487139 0.324556
O O6 0.318684 0.794853 0.608319
O O7 0.132818 0.146954 0.058456
O O8 0.076098 0.404702 0.282783
O O9 0.109222 0.435448 0.822620
O O10 0.872569 0.187748 0.766993
O O11 0.746185 0.971534 0.704028
O O12 0.837646 0.138045 0.223679
O O13 0.975836 0.266510 0.505296
O O14 0.917488 0.913322 0.514892
O O15 0.500000 0.000000 0.500000
O O16 0.598379 0.864457 0.362184
O O17 0.500000 0.000000 0.000000
#
# Coordination Sequence:
#
# PCOD9094769 Si02
#       8
#     2   2   2   2   2   2   2   2
#     4   9  18  31  50  74  91 130 165 200 226 278
#     4  10  19  31  50  71  99 128 161 196 233 286
#     4  10  19  32  51  74  96 128 159 202 233 292
#     4  10  20  31  50  76 101 120 157 200 257 276
#     4   9  18  31  50  73  96 125 158 208 234 286
#     4  10  16  30  49  74  94 121 167 203 226 270
#     4   9  21  30  53  73 100 125 156 204 243 282
#     4   9  17  32  51  71  94 125 170 195 236 274
#
# _framework density 25.098493000000001
#
# number of rings (size 3 to 8) (size 9 to 14) (size 15 to 20)
#    0.750    1.750    1.250    1.500    1.750    3.000 
#    0.000    0.000    0.000    6.000    0.000    0.000 
#    0.000    0.000    0.000    0.000    0.000    0.000 
#
# Total GULP energy -89366.474000 kJ/mol
# GULP energy per Si atom -5585.404625 kJ/mol
# Density = 2.504137 g / cm^3
# Si number density = 25.098493 Si / 1000 Ang^3
#
#
#
# Elastic Constant Matrix: (Units=GPa)
#
#
# Indices 1 2 3 4 5 6 
#
# 1 47.2127 4.7005 5.6822 -5.2464 -4.4798 -0.3038
# 2 4.7005 50.0649 -13.9352 -7.6222 -5.1554 2.2356
# 3 5.6822 -13.9352 82.6243 -6.4087 -4.4203 -8.7158
# 4 -5.2464 -7.6222 -6.4087 32.3334 9.1400 9.2849
# 5 -4.4798 -5.1554 -4.4203 9.1400 34.2518 3.3159
# 6 -0.3038 2.2356 -8.7158 9.2849 3.3159 28.8139
#
#
#
# Elastic Compliance Matrix: (Units=1/GPa)
#
#
# Indices 1 2 3 4 5 6 
#
# 1 0.022023 -0.001892 -0.001658 0.002630 0.001794 -0.001176
# 2 -0.001892 0.022607 0.004249 0.005965 0.002372 -0.002684
# 3 -0.001658 0.004249 0.013477 0.002215 0.001293 0.002867
# 4 0.002630 0.005965 0.002215 0.038624 -0.007683 -0.011327
# 5 0.001794 0.002372 0.001293 -0.007683 0.032100 -0.000992
# 6 -0.001176 -0.002684 0.002867 -0.011327 -0.000992 0.039533
#
#
# Mechanical properties :
#
#
# Convention : Reuss Voigt Hill
#
# Bulk Modulus (GPa) = 16.80468 19.19964 18.00216
# Shear Modulus (GPa) = 26.76663 31.31011 29.03837
#
# Velocity S-wave (km/s) = 3.26922 3.53581 3.40513
# Velocity P-wave (km/s) = 4.57825 4.93312 4.75899
#
# Compressibility (1/GPa) = 0.05950725
#
# Stress axis : x y z
#
# Youngs Moduli (GPa) = 45.40615 44.23489 74.20004
#
# Poissons Ratio (x) = 0.08367 0.12300
# Poissons Ratio (y) = 0.08589 -0.31530
# Poissons Ratio (z) = 0.07527 -0.18797
#
# Static dielectric constant tensor:
#      x y z
#    x 1.925710 0.024210 0.040290 
#    y 0.024210 2.009290 -0.015920 
#    z 0.040290 -0.015920 1.905120 
# 
# From -- ./inp_files/117681.got.cif
#   From: 2010.05.17/outbox.cif.g08.bks.cpg/sg2_59_cif.got.tgz:117681.got - 2010.06.03 11:33:40.
