data_PCOD9094852
_publ_section_title
;
Structure prediction by ZEFSAII (Michael W. Deem and Ramdas Pophale) SiO2 
 PCOD9094852
Probable space group: P -1
;
_chemical_formula_sum "Si O2"
_cell_formula_units_Z 16
_cell_length_a 19.014327
_cell_length_b 29.432990
_cell_length_c 14.417045
_cell_angle_alpha 159.795630
_cell_angle_beta 28.136285
_cell_angle_gamma 162.967768
_cell_volume 806.615027
_symmetry_space_group_name_H-M "P -1"
_symmetry_group_IT_number 2
_symmetry_cell_setting 'triclinic'
loop_
_space_group_symop_operation_xyz
x,y,z
-x,-y,-z
loop_
_atom_site_type_symbol
_atom_site_label
_atom_site_fract_x
_atom_site_fract_y
_atom_site_fract_z
Si Si1 0.966389 0.255824 0.397284
Si Si2 0.547405 0.314369 0.802101
Si Si3 0.330899 0.208600 0.154090
Si Si4 0.598836 0.561052 0.657129
Si Si5 0.718864 0.292083 0.403902
Si Si6 0.270027 0.715418 0.137373
Si Si7 0.625754 0.073767 0.758644
Si Si8 0.059280 0.568385 0.775068
O O1 0.769139 0.197546 0.575579
O O2 0.205972 0.405861 0.468671
O O3 0.023954 0.391999 0.506238
O O4 0.869010 0.042751 0.081637
O O5 0.590229 0.331591 0.674063
O O6 0.352098 0.061312 0.562090
O O7 0.802553 0.445988 0.803625
O O8 0.475481 0.399126 0.094442
O O9 0.377069 0.332601 0.426846
O O10 0.288651 0.268296 0.227381
O O11 0.587278 0.309193 0.034727
O O12 0.593068 0.092700 0.231543
O O13 0.733504 0.278919 0.252683
O O14 0.000000 0.500000 0.500000
O O15 0.420080 0.870117 0.169996
O O16 0.000000 0.500000 0.000000
O O17 0.850104 0.287977 0.965568
#
# Coordination Sequence:
#
# PCOD9094852 Si02
#       8
#     2   2   2   2   2   2   2   2
#     4  12  24  37  61  88 123 154 196 243 291 353
#     4   9  21  36  59  84 116 150 197 241 284 346
#     4  11  24  38  60  80 121 164 194 236 290 347
#     4  11  23  41  54  85 121 163 197 234 288 359
#     4   8  19  37  59  89 113 147 195 249 290 341
#     4  12  21  39  58  94 121 150 193 243 292 343
#     4  10  20  34  62  88 119 147 189 247 291 343
#     4  11  19  37  63  89 113 151 195 247 297 337
#
# _framework density 19.835981
#
# number of rings (size 3 to 8) (size 9 to 14) (size 15 to 20)
#    0.750    0.750    2.500    3.375    0.000    1.000 
#    0.000    0.625    0.000    0.750    0.000    0.000 
#    0.000    0.000    0.000    0.000    0.000    0.000 
#
# Total GULP energy -89194.373451 kJ/mol
# GULP energy per Si atom -5574.648341 kJ/mol
# Density = 1.979083 g / cm^3
# Si number density = 19.835981 Si / 1000 Ang^3
#
#
#
# Elastic Constant Matrix: (Units=GPa)
#
#
# Indices 1 2 3 4 5 6 
#
# 1 66.1641 21.5146 -4.1258 -11.8843 -6.5413 -14.3972
# 2 21.5146 40.4114 4.5411 2.9646 -6.8343 -11.8674
# 3 -4.1258 4.5411 82.0657 -2.3349 10.8560 -10.7572
# 4 -11.8843 2.9646 -2.3349 40.0699 -3.0606 -2.7848
# 5 -6.5413 -6.8343 10.8560 -3.0606 30.7329 3.0117
# 6 -14.3972 -11.8674 -10.7572 -2.7848 3.0117 29.9113
#
#
#
# Elastic Compliance Matrix: (Units=1/GPa)
#
#
# Indices 1 2 3 4 5 6 
#
# 1 0.021882 -0.009892 0.002756 0.008066 0.001484 0.008200
# 2 -0.009892 0.033438 -0.002257 -0.004688 0.004999 0.006754
# 3 0.002756 -0.002257 0.014009 0.001826 -0.005287 0.006171
# 4 0.008066 -0.004688 0.001826 0.028335 0.002353 0.005080
# 5 0.001484 0.004999 -0.005287 0.002353 0.036327 -0.002642
# 6 0.008200 0.006754 0.006171 0.005080 -0.002642 0.043017
#
#
# Mechanical properties :
#
#
# Convention : Reuss Voigt Hill
#
# Bulk Modulus (GPa) = 19.78532 25.83346 22.80939
# Shear Modulus (GPa) = 23.51361 31.25690 27.38525
#
# Velocity S-wave (km/s) = 3.44670 3.97390 3.71965
# Velocity P-wave (km/s) = 5.08289 5.84018 5.47464
#
# Compressibility (1/GPa) = 0.05054252
#
# Stress axis : x y z
#
# Youngs Moduli (GPa) = 45.69919 29.90586 71.38249
#
# Poissons Ratio (x) = 0.29583 -0.19670
# Poissons Ratio (y) = 0.45206 0.16111
# Poissons Ratio (z) = -0.12593 0.06750
#
# Static dielectric constant tensor:
#      x y z
#    x 1.727710 -0.013470 0.041050 
#    y -0.013470 1.717450 0.022890 
#    z 0.041050 0.022890 1.739760 
# 
# From -- ./inp_files/539467.got.cif
#   From: 2010.05.17/outbox.cif.g08.bks.cpg/sg2_270_cif.got.tgz:539467.got - 2010.06.03 11:33:40.
