data_PCOD9094629
_publ_section_title
;
Structure prediction by ZEFSAII (Michael W. Deem and Ramdas Pophale) SiO2 
 PCOD9094629
Probable space group: P -1
;
_chemical_formula_sum "Si O2"
_cell_formula_units_Z 14
_cell_length_a 10.754907
_cell_length_b 13.264343
_cell_length_c 9.847768
_cell_angle_alpha 118.278529
_cell_angle_beta 115.978743
_cell_angle_gamma 114.944083
_cell_volume 674.880350
_symmetry_space_group_name_H-M "P -1"
_symmetry_group_IT_number 2
_symmetry_cell_setting 'triclinic'
loop_
_space_group_symop_operation_xyz
x,y,z
-x,-y,-z
loop_
_atom_site_type_symbol
_atom_site_label
_atom_site_fract_x
_atom_site_fract_y
_atom_site_fract_z
Si Si1 0.266720 0.867766 0.887468
Si Si2 0.482930 0.045710 0.373078
Si Si3 0.326682 0.204340 0.406164
Si Si4 0.084598 0.728890 0.440406
Si Si5 0.800711 0.904798 0.012587
Si Si6 0.769649 0.912462 0.292641
Si Si7 0.576385 0.434286 0.918149
O O1 0.087627 0.698895 0.583995
O O2 0.214809 0.968704 0.936201
O O3 0.500000 0.000000 0.000000
O O4 0.321445 0.873007 0.074089
O O5 0.390794 0.113292 0.389833
O O6 0.729824 0.216383 0.525442
O O7 0.500000 0.000000 0.500000
O O8 0.503472 0.391845 0.699784
O O9 0.068171 0.050605 0.237230
O O10 0.315703 0.228792 0.257781
O O11 0.173579 0.918285 0.594105
O O12 0.834634 0.570205 0.156829
O O13 0.692324 0.810222 0.046043
O O14 0.582106 0.768222 0.222943
O O15 0.000000 0.000000 0.500000
O O16 0.500000 0.500000 0.000000
#
# Coordination Sequence:
#
# PCOD9094629 Si02
#       7
#     2   2   2   2   2   2   2
#     4   8  16  34  57  80 111 151 190 230 283 342
#     4  10  20  34  59  85 113 155 193 232 288 343
#     4  10  20  35  55  83 118 151 188 237 290 337
#     4  10  21  37  57  84 115 150 192 234 286 340
#     4   9  18  34  57  82 112 151 188 234 287 335
#     4  11  19  36  61  83 112 149 191 236 277 341
#     4  12  22  35  59  86 114 149 193 240 289 337
#
# _framework density 20.744418
#
# number of rings (size 3 to 8) (size 9 to 14) (size 15 to 20)
#    0.000    2.000    2.857    1.714    0.000    0.571 
#    0.000    2.143    0.000   35.143    0.000    0.000 
#    0.000    0.000    0.000    0.000    0.000    0.000 
#
# Total GULP energy -78053.808647 kJ/mol
# GULP energy per Si atom -5575.272046 kJ/mol
# Density = 2.069720 g / cm^3
# Si number density = 20.744418 Si / 1000 Ang^3
#
#
#
# Elastic Constant Matrix: (Units=GPa)
#
#
# Indices 1 2 3 4 5 6 
#
# 1 119.5826 9.6595 36.5165 -11.9374 20.0798 6.7402
# 2 9.6595 59.7210 32.9443 -26.2669 -4.2774 10.3588
# 3 36.5165 32.9443 153.9138 -39.0571 5.5477 18.7937
# 4 -11.9374 -26.2669 -39.0571 40.6390 7.9442 -5.8093
# 5 20.0798 -4.2774 5.5477 7.9442 34.6994 -9.3895
# 6 6.7402 10.3588 18.7937 -5.8093 -9.3895 26.2738
#
#
#
# Elastic Compliance Matrix: (Units=1/GPa)
#
#
# Indices 1 2 3 4 5 6 
#
# 1 0.010498 0.000504 -0.000925 0.003437 -0.007804 -0.004259
# 2 0.000504 0.024613 -0.000675 0.014894 -0.002434 -0.006927
# 3 -0.000925 -0.000675 0.010148 0.009091 -0.005021 -0.006540
# 4 0.003437 0.014894 0.009091 0.045589 -0.014285 -0.008282
# 5 -0.007804 -0.002434 -0.005021 -0.014285 0.042098 0.018440
# 6 -0.004259 -0.006927 -0.006540 -0.008282 0.018440 0.051321
#
#
# Mechanical properties :
#
#
# Convention : Reuss Voigt Hill
#
# Bulk Modulus (GPa) = 23.21983 54.60645 38.91314
# Shear Modulus (GPa) = 24.89866 37.26224 31.08045
#
# Velocity S-wave (km/s) = 3.46823 4.24282 3.87493
# Velocity P-wave (km/s) = 5.22071 7.09807 6.23051
#
# Compressibility (1/GPa) = 0.04306663
#
# Stress axis : x y z
#
# Youngs Moduli (GPa) = 95.25816 40.62867 98.54560
#
# Poissons Ratio (x) = -0.02047 0.09114
# Poissons Ratio (y) = -0.04799 0.06650
# Poissons Ratio (z) = 0.08810 0.02742
#
# Static dielectric constant tensor:
#      x y z
#    x 1.760390 0.008380 -0.027970 
#    y 0.008380 1.768620 -0.070630 
#    z -0.027970 -0.070630 1.822100 
# 
# From -- ./inp_files/71458.got.cif
#   From: 2010.05.17/outbox.cif.g08.bks.cpg/sg2_36_cif.got.tgz:71458.got - 2010.06.03 11:33:40.
