data_PCOD9094958
_publ_section_title
;
Structure prediction by ZEFSAII (Michael W. Deem and Ramdas Pophale) SiO2 
 PCOD9094958
Probable space group: P -1
;
_chemical_formula_sum "Si O2"
_cell_formula_units_Z 16
_cell_length_a 11.136087
_cell_length_b 12.491051
_cell_length_c 15.271420
_cell_angle_alpha 28.958176
_cell_angle_beta 119.861856
_cell_angle_gamma 128.803389
_cell_volume 794.340926
_symmetry_space_group_name_H-M "P -1"
_symmetry_group_IT_number 2
_symmetry_cell_setting 'triclinic'
loop_
_space_group_symop_operation_xyz
x,y,z
-x,-y,-z
loop_
_atom_site_type_symbol
_atom_site_label
_atom_site_fract_x
_atom_site_fract_y
_atom_site_fract_z
Si Si1 0.367524 0.317597 0.514987
Si Si2 0.311895 0.531847 0.882066
Si Si3 0.483911 0.747638 0.134949
Si Si4 0.816523 0.317310 0.583616
Si Si5 0.933339 0.931557 0.928390
Si Si6 0.566708 0.507833 0.872702
Si Si7 0.521274 0.880139 0.462412
Si Si8 0.211358 0.240026 0.679117
O O1 0.500000 0.500000 0.500000
O O2 0.348446 0.512076 0.303828
O O3 0.425447 0.164332 0.582858
O O4 0.230434 0.161877 0.643905
O O5 0.420541 0.448743 0.924085
O O6 0.393890 0.828217 0.696126
O O7 0.145290 0.364152 0.900194
O O8 0.302884 0.448532 0.039621
O O9 0.458463 0.707646 0.051072
O O10 0.643121 0.734157 0.226965
O O11 0.500000 0.000000 0.000000
O O12 0.668064 0.241415 0.518372
O O13 0.783627 0.488674 0.518656
O O14 0.000000 0.500000 0.500000
O O15 0.818227 0.059380 0.788695
O O16 0.061088 0.058498 0.808430
O O17 0.000000 0.000000 0.000000
O O18 0.578641 0.735831 0.654597
#
# Coordination Sequence:
#
# PCOD9094958 Si02
#       8
#     2   2   2   2   2   2   2   2
#     4   9  18  34  60  90 121 164 210 256 321 371
#     4  11  24  38  64  93 124 177 212 272 331 386
#     4  10  20  34  66  95 123 162 212 272 316 376
#     4  10  20  36  63  91 127 168 200 264 326 380
#     4  11  25  42  60  91 130 167 217 272 331 392
#     4  10  21  39  60  95 131 157 219 264 325 390
#     4  11  21  40  65  93 133 166 214 271 322 393
#     4  10  20  39  58  93 125 164 211 261 325 380
#
# _framework density 20.142482999999999
#
# number of rings (size 3 to 8) (size 9 to 14) (size 15 to 20)
#    0.000    1.750    3.750    2.625    5.250    2.000 
#    2.250    0.625    0.000    1.500    0.000    0.000 
#    0.000    0.000    0.000    0.000    0.000    0.000 
#
# Total GULP energy -89082.137136 kJ/mol
# GULP energy per Si atom -5567.633571 kJ/mol
# Density = 2.009664 g / cm^3
# Si number density = 20.142483 Si / 1000 Ang^3
#
#
#
# Elastic Constant Matrix: (Units=GPa)
#
#
# Indices 1 2 3 4 5 6 
#
# 1 83.6118 42.4312 27.9637 -6.0132 -7.0754 -22.0953
# 2 42.4312 121.0164 49.5218 -15.2499 -11.3445 -24.5277
# 3 27.9637 49.5218 76.9399 -13.8816 -2.4247 -0.8461
# 4 -6.0132 -15.2499 -13.8816 36.6465 -0.3806 -6.0354
# 5 -7.0754 -11.3445 -2.4247 -0.3806 27.6912 3.5487
# 6 -22.0953 -24.5277 -0.8461 -6.0354 3.5487 32.0415
#
#
#
# Elastic Compliance Matrix: (Units=1/GPa)
#
#
# Indices 1 2 3 4 5 6 
#
# 1 0.017594 -0.001445 -0.004863 0.002293 0.002087 0.011099
# 2 -0.001445 0.015352 -0.008231 0.004890 0.003853 0.011032
# 3 -0.004863 -0.008231 0.020281 0.002034 -0.001716 -0.008545
# 4 0.002293 0.004890 0.002034 0.032345 0.001767 0.011276
# 5 0.002087 0.003853 -0.001716 0.001767 0.038039 0.000463
# 6 0.011099 0.011032 -0.008545 0.011276 0.000463 0.049156
#
#
# Mechanical properties :
#
#
# Convention : Reuss Voigt Hill
#
# Bulk Modulus (GPa) = 41.40800 57.93350 49.67075
# Shear Modulus (GPa) = 23.82154 30.05259 26.93706
#
# Velocity S-wave (km/s) = 3.44270 3.86683 3.66091
# Velocity P-wave (km/s) = 6.03366 6.98289 6.52556
#
# Compressibility (1/GPa) = 0.02414992
#
# Stress axis : x y z
#
# Youngs Moduli (GPa) = 56.83666 65.14007 49.30637
#
# Poissons Ratio (x) = 0.09410 0.23979
# Poissons Ratio (y) = 0.08211 0.40583
# Poissons Ratio (z) = 0.27641 0.53615
#
# Static dielectric constant tensor:
#      x y z
#    x 1.806490 0.052240 0.003630 
#    y 0.052240 1.783340 0.016900 
#    z 0.003630 0.016900 1.805180 
# 
# From -- ./inp_files/518590.got.cif
#   From: 2010.05.17/outbox.cif.g08.bks.cpg/sg2_260_cif.got.tgz:518590.got - 2010.06.03 11:33:40.
