data_PCOD9094036
_publ_section_title
;
Structure prediction by ZEFSAII (Michael W. Deem and Ramdas Pophale) SiO2 
 PCOD9094036
Probable space group: P -1
;
_chemical_formula_sum "Si O2"
_cell_formula_units_Z 15
_cell_length_a 11.588772
_cell_length_b 18.950870
_cell_length_c 5.357724
_cell_angle_alpha 76.993710
_cell_angle_beta 101.087270
_cell_angle_gamma 146.943116
_cell_volume 625.347523
_symmetry_space_group_name_H-M "P -1"
_symmetry_group_IT_number 2
_symmetry_cell_setting 'triclinic'
loop_
_space_group_symop_operation_xyz
x,y,z
-x,-y,-z
loop_
_atom_site_type_symbol
_atom_site_label
_atom_site_fract_x
_atom_site_fract_y
_atom_site_fract_z
Si Si1 0.107664 0.736023 0.293589
Si Si2 0.494594 0.836795 0.383010
Si Si3 0.559048 0.574371 0.216769
Si Si4 0.076292 0.759794 0.756435
Si Si5 0.568253 0.960274 0.807402
Si Si6 0.000000 0.000000 0.000000
Si Si7 0.119601 0.200580 0.161955
Si Si8 0.393918 0.265519 0.635412
O O1 0.253858 0.741089 0.380071
O O2 0.974501 0.677725 0.530226
O O3 0.264404 0.888089 0.232737
O O4 0.995375 0.677197 0.031446
O O5 0.599980 0.922747 0.613674
O O6 0.508040 0.758060 0.414266
O O7 0.570442 0.916513 0.099211
O O8 0.500000 0.500000 0.500000
O O9 0.479917 0.615287 0.223929
O O10 0.500000 0.500000 0.000000
O O11 0.800175 0.716850 0.119132
O O12 0.330339 0.872968 0.758939
O O13 0.015587 0.811405 0.727804
O O14 0.196269 0.137935 0.820187
O O15 0.004456 0.933739 0.860091
O O16 0.307700 0.268316 0.363901
#
# Coordination Sequence:
#
# PCOD9094036 Si02
#       8
#     2   2   2   2   2   1   2   2
#     4  10  20  34  52  82 112 178 212 242 278 349
#     4  10  21  33  55  78 121 154 209 242 294 358
#     4  11  24  47  70  87 118 159 228 276 308 375
#     4  10  21  33  55  78 121 154 209 242 294 358
#     4  10  20  34  52  82 112 178 212 242 278 349
#     4  10  26  36  52  94 142 176 192 232 330 396
#     4  11  25  40  61  97 129 172 202 260 327 376
#     4  11  25  40  61  97 129 172 202 260 327 376
#
# _framework density 23.986661000000002
#
# number of rings (size 3 to 8) (size 9 to 14) (size 15 to 20)
#    0.000    1.600    1.333    4.400   13.067    0.000 
#    0.000    0.000    0.000    0.000    0.000   22.400 
#    0.000    0.000    0.000    0.000    0.000    0.000 
#
# Total GULP energy -83528.064467 kJ/mol
# GULP energy per Si atom -5568.537631 kJ/mol
# Density = 2.393207 g / cm^3
# Si number density = 23.986661 Si / 1000 Ang^3
#
#
#
# Elastic Constant Matrix: (Units=GPa)
#
#
# Indices 1 2 3 4 5 6 
#
# 1 166.7536 47.5172 54.7419 24.6856 -19.6408 -43.8160
# 2 47.5172 95.8821 52.8032 -6.3378 -8.8121 -30.7986
# 3 54.7419 52.8032 174.8226 33.2777 -20.9688 -29.7067
# 4 24.6856 -6.3378 33.2777 25.1021 -7.7346 -7.1603
# 5 -19.6408 -8.8121 -20.9688 -7.7346 35.9807 11.1390
# 6 -43.8160 -30.7986 -29.7067 -7.1603 11.1390 38.6147
#
#
#
# Elastic Compliance Matrix: (Units=1/GPa)
#
#
# Indices 1 2 3 4 5 6 
#
# 1 0.010320 -0.004221 0.001422 -0.010777 0.000888 0.007183
# 2 -0.004221 0.021890 -0.007843 0.023219 0.000099 0.010912
# 3 0.001422 -0.007843 0.011252 -0.017749 0.001508 0.000288
# 4 -0.010777 0.023219 -0.017749 0.083343 0.005349 0.006547
# 5 0.000888 0.000099 0.001508 0.005349 0.032204 -0.006051
# 6 0.007183 0.010912 0.000288 0.006547 -0.006051 0.045932
#
#
# Mechanical properties :
#
#
# Convention : Reuss Voigt Hill
#
# Bulk Modulus (GPa) = 45.09150 83.06476 64.07813
# Shear Modulus (GPa) = 21.40238 38.76589 30.08413
#
# Velocity S-wave (km/s) = 2.99032 4.02449 3.54531
# Velocity P-wave (km/s) = 5.54635 7.50334 6.59781
#
# Compressibility (1/GPa) = 0.02217713
#
# Stress axis : x y z
#
# Youngs Moduli (GPa) = 96.89599 45.68326 88.87158
#
# Poissons Ratio (x) = 0.19283 -0.12637
# Poissons Ratio (y) = 0.40900 0.69706
# Poissons Ratio (z) = -0.13777 0.35832
#
# Static dielectric constant tensor:
#      x y z
#    x 1.979930 0.043800 0.005210 
#    y 0.043800 1.914320 0.056650 
#    z 0.005210 0.056650 2.034740 
# 
# From -- ./inp_files/79727.got.cif
#   From: 2010.05.17/outbox.cif.g08.bks.cpg/sg2_40_cif.got.tgz:79727.got - 2010.06.03 11:33:40.
