data_PCOD9094445
_publ_section_title
;
Structure prediction by ZEFSAII (Michael W. Deem and Ramdas Pophale) SiO2 
 PCOD9094445
Probable space group: P -1
;
_chemical_formula_sum "Si O2"
_cell_formula_units_Z 16
_cell_length_a 15.925251
_cell_length_b 12.161471
_cell_length_c 16.180557
_cell_angle_alpha 145.757095
_cell_angle_beta 28.552027
_cell_angle_gamma 144.912097
_cell_volume 791.804128
_symmetry_space_group_name_H-M "P -1"
_symmetry_group_IT_number 2
_symmetry_cell_setting 'triclinic'
loop_
_space_group_symop_operation_xyz
x,y,z
-x,-y,-z
loop_
_atom_site_type_symbol
_atom_site_label
_atom_site_fract_x
_atom_site_fract_y
_atom_site_fract_z
Si Si1 0.165184 0.685405 0.013599
Si Si2 0.664608 0.376450 0.864568
Si Si3 0.988830 0.083942 0.827985
Si Si4 0.202729 0.986805 0.445905
Si Si5 0.754788 0.617637 0.772401
Si Si6 0.809182 0.611362 0.539224
Si Si7 0.439118 0.185674 0.210396
Si Si8 0.052252 0.461335 0.131980
O O1 0.159040 0.882286 0.089667
O O2 0.113509 0.657691 0.137635
O O3 0.369258 0.672235 0.824437
O O4 0.000000 0.500000 0.000000
O O5 0.665659 0.143466 0.724742
O O6 0.762916 0.483149 0.761253
O O7 0.789385 0.496093 0.908440
O O8 0.455113 0.376096 0.045471
O O9 0.902100 0.852218 0.794449
O O10 0.168162 0.111947 0.632132
O O11 0.029298 0.257470 0.971406
O O12 0.998054 0.814678 0.500559
O O13 0.284822 0.107311 0.366565
O O14 0.786775 0.530543 0.601933
O O15 0.639242 0.685452 0.705547
O O16 0.859183 0.455347 0.337230
O O17 0.500000 0.000000 0.000000
#
# Coordination Sequence:
#
# PCOD9094445 Si02
#       8
#     2   2   2   2   2   2   2   2
#     4  10  21  37  53  78 117 148 176 221 280 330
#     4  10  21  38  58  81 110 145 187 233 280 328
#     4  10  21  38  57  80 113 147 185 228 275 333
#     4  10  20  34  57  86 113 145 188 232 279 330
#     4  10  21  38  58  81 110 145 187 233 280 328
#     4  10  20  34  57  86 113 145 188 232 279 330
#     4  12  20  33  60  86 112 146 191 231 271 328
#     4  10  21  38  57  80 113 147 185 228 275 333
#
# _framework density 20.207017
#
# number of rings (size 3 to 8) (size 9 to 14) (size 15 to 20)
#    0.000    1.750    0.000    6.375    0.000    5.000 
#    0.000   16.250    0.000    3.000    0.000    0.000 
#    0.000    0.000    0.000    0.000    0.000    0.000 
#
# Total GULP energy -89304.201413 kJ/mol
# GULP energy per Si atom -5581.512588 kJ/mol
# Density = 2.016102 g / cm^3
# Si number density = 20.207017 Si / 1000 Ang^3
#
#
#
# Elastic Constant Matrix: (Units=GPa)
#
#
# Indices 1 2 3 4 5 6 
#
# 1 100.6795 8.9237 19.7140 -2.7192 16.1006 -10.4654
# 2 8.9237 35.3013 -2.7926 -7.5910 21.4718 -6.1785
# 3 19.7140 -2.7926 77.8961 1.7736 26.7962 7.0863
# 4 -2.7192 -7.5910 1.7736 34.0661 0.3890 3.8973
# 5 16.1006 21.4718 26.7962 0.3890 42.1557 -12.0006
# 6 -10.4654 -6.1785 7.0863 3.8973 -12.0006 28.3462
#
#
#
# Elastic Compliance Matrix: (Units=1/GPa)
#
#
# Indices 1 2 3 4 5 6 
#
# 1 0.011269 -0.002849 -0.003694 -0.000108 0.000877 0.004849
# 2 -0.002849 0.058616 0.019358 0.013966 -0.045240 -0.014188
# 3 -0.003694 0.019358 0.026247 0.004952 -0.030049 -0.017108
# 4 -0.000108 0.013966 0.004952 0.033293 -0.012880 -0.008264
# 5 0.000877 -0.045240 -0.030049 -0.012880 0.074563 0.031312
# 6 0.004849 -0.014188 -0.017108 -0.008264 0.031312 0.052646
#
#
# Mechanical properties :
#
#
# Convention : Reuss Voigt Hill
#
# Bulk Modulus (GPa) = 8.21276 29.50746 18.86011
# Shear Modulus (GPa) = 18.40999 33.44905 25.92952
#
# Velocity S-wave (km/s) = 3.02167 4.07297 3.58606
# Velocity P-wave (km/s) = 4.03077 6.06243 5.14783
#
# Compressibility (1/GPa) = 0.12176168
#
# Stress axis : x y z
#
# Youngs Moduli (GPa) = 88.73608 17.06013 38.09986
#
# Poissons Ratio (x) = 0.04860 0.14076
# Poissons Ratio (y) = 0.25278 -0.73752
# Poissons Ratio (z) = 0.32783 -0.33024
#
# Static dielectric constant tensor:
#      x y z
#    x 1.728920 0.006720 0.008520 
#    y 0.006720 1.748090 0.026530 
#    z 0.008520 0.026530 1.788480 
# 
# From -- ./inp_files/521287.got.cif
#   From: 2010.05.17/outbox.cif.g08.bks.cpg/sg2_261_cif.got.tgz:521287.got - 2010.06.03 11:33:40.
