data_PCOD9094343
_publ_section_title
;
Structure prediction by ZEFSAII (Michael W. Deem and Ramdas Pophale) SiO2 
 PCOD9094343
Probable space group: P -1
;
_chemical_formula_sum "Si O2"
_cell_formula_units_Z 16
_cell_length_a 5.437430
_cell_length_b 11.786253
_cell_length_c 16.008841
_cell_angle_alpha 103.505608
_cell_angle_beta 70.107863
_cell_angle_gamma 125.655127
_cell_volume 783.060316
_symmetry_space_group_name_H-M "P -1"
_symmetry_group_IT_number 2
_symmetry_cell_setting 'triclinic'
loop_
_space_group_symop_operation_xyz
x,y,z
-x,-y,-z
loop_
_atom_site_type_symbol
_atom_site_label
_atom_site_fract_x
_atom_site_fract_y
_atom_site_fract_z
Si Si1 0.686387 0.169650 0.020399
Si Si2 0.737294 0.212229 0.453334
Si Si3 0.496142 0.829123 0.770794
Si Si4 0.229389 0.005034 0.754806
Si Si5 0.413568 0.378321 0.372039
Si Si6 0.770813 0.854487 0.052855
Si Si7 0.602999 0.672476 0.434230
Si Si8 0.748546 0.069393 0.585925
O O1 0.604932 0.198922 0.125583
O O2 0.551501 0.219581 0.973038
O O3 0.047022 0.222359 0.980900
O O4 0.500000 0.000000 0.000000
O O5 0.692062 0.313445 0.534279
O O6 0.787095 0.117239 0.493925
O O7 0.044881 0.298719 0.377666
O O8 0.410792 0.097824 0.425901
O O9 0.436869 0.694268 0.704962
O O10 0.321033 0.900212 0.765810
O O11 0.877517 0.932827 0.747664
O O12 0.487948 0.081131 0.665903
O O13 0.264090 0.103462 0.843502
O O14 0.572424 0.542570 0.369302
O O15 0.405217 0.356015 0.469564
O O16 0.000000 0.000000 0.000000
O O17 0.912186 0.819704 0.397454
#
# Coordination Sequence:
#
# PCOD9094343 Si02
#       8
#     2   2   2   2   2   2   2   2
#     4  10  16  30  48  73 115 136 170 216 283 314
#     4  10  19  37  54  74 105 139 184 228 274 321
#     4  12  21  33  53  85 111 142 181 228 268 330
#     4  12  21  32  54  81 118 137 182 221 278 326
#     4  10  22  35  55  78 102 146 190 224 271 320
#     4  10  16  30  47  75 109 145 163 217 279 325
#     4  10  21  39  53  72 110 146 184 226 275 323
#     4  10  22  32  52  81 104 144 176 230 270 328
#
# _framework density 20.432653999999999
#
# number of rings (size 3 to 8) (size 9 to 14) (size 15 to 20)
#    0.000    1.500    6.250    1.500    1.750    0.000 
#    0.000    0.000    0.000    0.000    0.000    1.750 
#    0.000    0.000    0.000    0.000    0.000    0.000 
#
# Total GULP energy -89185.888942 kJ/mol
# GULP energy per Si atom -5574.118059 kJ/mol
# Density = 2.038615 g / cm^3
# Si number density = 20.432654 Si / 1000 Ang^3
#
#
#
# Elastic Constant Matrix: (Units=GPa)
#
#
# Indices 1 2 3 4 5 6 
#
# 1 107.4084 14.4111 13.0482 7.7686 -17.9263 3.6032
# 2 14.4111 54.1157 24.1574 17.1734 -7.5113 0.3150
# 3 13.0482 24.1574 123.0163 16.3504 -19.9181 5.4235
# 4 7.7686 17.1734 16.3504 18.9254 -2.7475 -4.3208
# 5 -17.9263 -7.5113 -19.9181 -2.7475 36.6087 0.7203
# 6 3.6032 0.3150 5.4235 -4.3208 0.7203 9.1554
#
#
#
# Elastic Compliance Matrix: (Units=1/GPa)
#
#
# Indices 1 2 3 4 5 6 
#
# 1 0.010873 -0.000733 0.000972 -0.005659 0.005434 -0.007928
# 2 -0.000733 0.028157 -0.000722 -0.027201 0.003246 -0.013345
# 3 0.000972 -0.000722 0.011210 -0.011529 0.005816 -0.012897
# 4 -0.005659 -0.027201 -0.011529 0.102048 -0.008122 0.058792
# 5 0.005434 0.003246 0.005816 -0.008122 0.033437 -0.012159
# 6 -0.007928 -0.013345 -0.012897 0.058792 -0.012159 0.149147
#
#
# Mechanical properties :
#
#
# Convention : Reuss Voigt Hill
#
# Bulk Modulus (GPa) = 20.29501 43.08596 31.69048
# Shear Modulus (GPa) = 14.19397 28.46616 21.33006
#
# Velocity S-wave (km/s) = 2.63852 3.73657 3.23448
# Velocity P-wave (km/s) = 4.38595 6.30464 5.43070
#
# Compressibility (1/GPa) = 0.04927321
#
# Stress axis : x y z
#
# Youngs Moduli (GPa) = 91.97364 35.51523 89.20377
#
# Poissons Ratio (x) = 0.02604 -0.08672
# Poissons Ratio (y) = 0.06744 0.06443
# Poissons Ratio (z) = -0.08942 0.02565
#
# Static dielectric constant tensor:
#      x y z
#    x 1.869330 0.000550 0.004160 
#    y 0.000550 1.722020 0.009260 
#    z 0.004160 0.009260 1.716170 
# 
# From -- ./inp_files/76188.got.cif
#   From: 2010.05.17/outbox.cif.g08.bks.cpg/sg2_39_cif.got.tgz:76188.got - 2010.06.03 11:33:40.
