data_PCOD9094391
_publ_section_title
;
Structure prediction by ZEFSAII (Michael W. Deem and Ramdas Pophale) SiO2 
 PCOD9094391
Probable space group: P -1
;
_chemical_formula_sum "Si O2"
_cell_formula_units_Z 15
_cell_length_a 16.535385
_cell_length_b 5.046556
_cell_length_c 19.065954
_cell_angle_alpha 66.077212
_cell_angle_beta 28.163663
_cell_angle_gamma 61.078734
_cell_volume 656.445055
_symmetry_space_group_name_H-M "P -1"
_symmetry_group_IT_number 2
_symmetry_cell_setting 'triclinic'
loop_
_space_group_symop_operation_xyz
x,y,z
-x,-y,-z
loop_
_atom_site_type_symbol
_atom_site_label
_atom_site_fract_x
_atom_site_fract_y
_atom_site_fract_z
Si Si1 0.315287 0.879191 0.072784
Si Si2 0.821366 0.760627 0.304481
Si Si3 0.324238 0.739493 0.742347
Si Si4 0.000000 0.500000 0.000000
Si Si5 0.355843 0.756309 0.492915
Si Si6 0.115307 0.027648 0.080607
Si Si7 0.551490 0.316377 0.867497
Si Si8 0.491513 0.193428 0.261648
O O1 0.297553 0.830837 0.174425
O O2 0.142356 0.036435 0.142056
O O3 0.400558 0.555947 0.004169
O O4 0.459509 0.069503 0.936386
O O5 0.773476 0.455276 0.388879
O O6 0.742648 0.922724 0.273964
O O7 0.712112 0.008341 0.417942
O O8 0.025453 0.763879 0.158466
O O9 0.148800 0.645390 0.904142
O O10 0.447778 0.486803 0.623835
O O11 0.445700 0.727804 0.718676
O O12 0.002497 0.690749 0.903840
O O13 0.376784 0.962551 0.388377
O O14 0.316158 0.967084 0.903710
O O15 0.597495 0.514275 0.748886
#
# Coordination Sequence:
#
# PCOD9094391 Si02
#       8
#     2   2   2   1   2   2   2   2
#     4   9  18  36  58  86 124 149 197 239 310 349
#     4  11  27  39  61  83 126 163 208 231 302 360
#     4  11  23  38  61  88 120 163 199 252 292 360
#     4  10  20  34  56  94 122 146 198 246 302 332
#     4  12  24  43  58  87 118 167 202 249 285 366
#     4  10  22  39  60  93 122 163 193 256 294 363
#     4   9  19  33  59  92 114 153 191 256 296 359
#     4  11  23  38  66  88 125 149 211 251 310 336
#
# _framework density 22.850352999999998
#
# number of rings (size 3 to 8) (size 9 to 14) (size 15 to 20)
#    0.000    1.600    2.667    1.600    3.733    6.400 
#    0.000    0.000    0.000    1.600    0.000    0.000 
#    0.000    0.000    0.000    0.000    0.000    0.000 
#
# Total GULP energy -83595.657937 kJ/mol
# GULP energy per Si atom -5573.043862 kJ/mol
# Density = 2.279834 g / cm^3
# Si number density = 22.850353 Si / 1000 Ang^3
#
#
#
# Elastic Constant Matrix: (Units=GPa)
#
#
# Indices 1 2 3 4 5 6 
#
# 1 156.4342 48.7433 33.4473 -41.5742 12.7870 -14.0390
# 2 48.7433 107.2957 44.2658 -38.3563 -1.4513 2.1256
# 3 33.4473 44.2658 92.5202 -47.5447 -3.7954 -1.1644
# 4 -41.5742 -38.3563 -47.5447 60.4211 0.2990 7.5631
# 5 12.7870 -1.4513 -3.7954 0.2990 19.0635 -14.2105
# 6 -14.0390 2.1256 -1.1644 7.5631 -14.2105 39.1467
#
#
#
# Elastic Compliance Matrix: (Units=1/GPa)
#
#
# Indices 1 2 3 4 5 6 
#
# 1 0.008894 -0.002529 0.000117 0.004604 -0.006015 0.000257
# 2 -0.002529 0.013497 -0.003185 0.004648 0.000075 -0.002605
# 3 0.000117 -0.003185 0.019202 0.013255 0.002702 -0.000794
# 4 0.004604 0.004648 0.013255 0.033985 -0.005739 -0.006856
# 5 -0.006015 0.000075 0.002702 -0.005739 0.077324 0.027097
# 6 0.000257 -0.002605 -0.000794 -0.006856 0.027097 0.036916
#
#
# Mechanical properties :
#
#
# Convention : Reuss Voigt Hill
#
# Bulk Modulus (GPa) = 32.89557 67.68476 50.29017
# Shear Modulus (GPa) = 23.68044 39.04583 31.36314
#
# Velocity S-wave (km/s) = 3.22270 4.13820 3.70881
# Velocity P-wave (km/s) = 5.31743 7.24694 6.35583
#
# Compressibility (1/GPa) = 0.03039923
#
# Stress axis : x y z
#
# Youngs Moduli (GPa) = 112.43775 74.09053 52.07776
#
# Poissons Ratio (x) = 0.18741 -0.00610
# Poissons Ratio (y) = 0.28441 0.16584
# Poissons Ratio (z) = -0.01318 0.23594
#
# Static dielectric constant tensor:
#      x y z
#    x 1.891680 -0.002950 0.062390 
#    y -0.002950 1.930790 0.034740 
#    z 0.062390 0.034740 1.904470 
# 
# From -- ./inp_files/574686.got.cif
#   From: 2010.05.17/outbox.cif.g08.bks.cpg/sg2_288_cif.got.tgz:574686.got - 2010.06.03 11:33:40.
