data_PCOD9094671
_publ_section_title
;
Structure prediction by ZEFSAII (Michael W. Deem and Ramdas Pophale) SiO2 
 PCOD9094671
Probable space group: P -1
;
_chemical_formula_sum "Si O2"
_cell_formula_units_Z 16
_cell_length_a 14.553798
_cell_length_b 8.962822
_cell_length_c 11.713095
_cell_angle_alpha 120.181279
_cell_angle_beta 151.710958
_cell_angle_gamma 74.157735
_cell_volume 569.708864
_symmetry_space_group_name_H-M "P -1"
_symmetry_group_IT_number 2
_symmetry_cell_setting 'triclinic'
loop_
_space_group_symop_operation_xyz
x,y,z
-x,-y,-z
loop_
_atom_site_type_symbol
_atom_site_label
_atom_site_fract_x
_atom_site_fract_y
_atom_site_fract_z
Si Si1 0.098481 0.250461 0.690212
Si Si2 0.254412 0.470148 0.560637
Si Si3 0.598183 0.318502 0.803234
Si Si4 0.325605 0.686501 0.369089
Si Si5 0.947500 0.756852 0.100546
Si Si6 0.497616 0.174138 0.159818
Si Si7 0.990306 0.855508 0.695849
Si Si8 0.502296 0.805001 0.120607
O O1 0.004291 0.193095 0.692132
O O2 0.962715 0.182558 0.398927
O O3 0.206065 0.476613 0.889471
O O4 0.295266 0.187119 0.883118
O O5 0.395930 0.373609 0.619478
O O6 0.289908 0.647201 0.584726
O O7 0.035476 0.302857 0.298347
O O8 0.361262 0.595233 0.838026
O O9 0.608512 0.248139 0.661764
O O10 0.581911 0.184094 0.840650
O O11 0.508277 0.763282 0.692079
O O12 0.145567 0.751597 0.244138
O O13 0.226851 0.457845 0.175814
O O14 0.898210 0.927248 0.061859
O O15 0.495265 0.967395 0.092894
O O16 0.741916 0.825858 0.402825
#
# Coordination Sequence:
#
# PCOD9094671 Si02
#       8
#     2   2   2   2   2   2   2   2
#     4  10  20  36  62  89 116 147 193 243 295 337
#     4  10  20  34  59  92 119 142 187 253 296 334
#     4   9  18  34  58  82 116 151 188 236 278 342
#     4  10  22  40  58  86 118 154 204 230 275 345
#     4  10  22  38  61  80 115 165 195 226 280 357
#     4  11  22  35  61  91 120 145 188 251 293 323
#     4  11  18  37  60  88 114 155 193 232 292 356
#     4  11  18  34  60  92 116 138 194 247 295 329
#
# _framework density 28.084520000000001
#
# number of rings (size 3 to 8) (size 9 to 14) (size 15 to 20)
#    0.000    1.750    5.000    1.500    0.000    5.000 
#    0.000    0.625    8.250    1.500    0.000    0.000 
#    0.000    0.000    0.000    0.000    0.000    0.000 
#
# Total GULP energy -89647.908909 kJ/mol
# GULP energy per Si atom -5602.994307 kJ/mol
# Density = 2.802060 g / cm^3
# Si number density = 28.084520 Si / 1000 Ang^3
#
#
#
# Elastic Constant Matrix: (Units=GPa)
#
#
# Indices 1 2 3 4 5 6 
#
# 1 170.5782 54.7116 13.9937 6.3031 -2.8453 19.5038
# 2 54.7116 187.4632 19.0424 17.2498 7.2941 13.2861
# 3 13.9937 19.0424 52.2857 8.1519 -5.1538 -3.6645
# 4 6.3031 17.2498 8.1519 39.7315 2.5351 0.8749
# 5 -2.8453 7.2941 -5.1538 2.5351 43.7790 0.8911
# 6 19.5038 13.2861 -3.6645 0.8749 0.8911 54.6694
#
#
#
# Elastic Compliance Matrix: (Units=1/GPa)
#
#
# Indices 1 2 3 4 5 6 
#
# 1 0.006769 -0.001718 -0.001261 -0.000063 0.000624 -0.002091
# 2 -0.001718 0.006313 -0.001715 -0.002016 -0.001229 -0.000984
# 3 -0.001261 -0.001715 0.021093 -0.003615 0.002850 0.002292
# 4 -0.000063 -0.002016 -0.003615 0.026904 -0.001649 -0.000133
# 5 0.000624 -0.001229 0.002850 -0.001649 0.023520 -0.000090
# 6 -0.002091 -0.000984 0.002292 -0.000133 -0.000090 0.019434
#
#
# Mechanical properties :
#
#
# Convention : Reuss Voigt Hill
#
# Bulk Modulus (GPa) = 40.34420 65.09137 52.71779
# Shear Modulus (GPa) = 41.09021 49.14128 45.11575
#
# Velocity S-wave (km/s) = 3.82919 4.18756 4.01237
# Velocity P-wave (km/s) = 5.82638 6.82701 6.34645
#
# Compressibility (1/GPa) = 0.02478671
#
# Stress axis : x y z
#
# Youngs Moduli (GPa) = 147.74089 158.40367 47.40883
#
# Poissons Ratio (x) = 0.27207 0.05979
# Poissons Ratio (y) = 0.25376 0.08131
# Poissons Ratio (z) = 0.18634 0.27169
#
# Static dielectric constant tensor:
#      x y z
#    x 2.253420 -0.007490 0.036790 
#    y -0.007490 2.188680 -0.041390 
#    z 0.036790 -0.041390 2.174750 
# 
# From -- ./inp_files/354098.got.cif
#   From: 2010.05.17/outbox.cif.g08.bks.cpg/sg2_178_cif.got.tgz:354098.got - 2010.06.03 11:33:40.
