data_PCOD9094792
_publ_section_title
;
Structure prediction by ZEFSAII (Michael W. Deem and Ramdas Pophale) SiO2 
 PCOD9094792
Probable space group: P -1
;
_chemical_formula_sum "Si O2"
_cell_formula_units_Z 16
_cell_length_a 8.902238
_cell_length_b 10.978728
_cell_length_c 10.005244
_cell_angle_alpha 51.758972
_cell_angle_beta 93.449008
_cell_angle_gamma 102.582337
_cell_volume 746.018193
_symmetry_space_group_name_H-M "P -1"
_symmetry_group_IT_number 2
_symmetry_cell_setting 'triclinic'
loop_
_space_group_symop_operation_xyz
x,y,z
-x,-y,-z
loop_
_atom_site_type_symbol
_atom_site_label
_atom_site_fract_x
_atom_site_fract_y
_atom_site_fract_z
Si Si1 0.887226 0.828388 0.636354
Si Si2 0.322769 0.973398 0.485111
Si Si3 0.394549 0.942096 0.208719
Si Si4 0.743219 0.017617 0.109994
Si Si5 0.112662 0.276753 0.704638
Si Si6 0.788622 0.378622 0.565483
Si Si7 0.887360 0.355047 0.290622
Si Si8 0.956801 0.716337 0.004375
O O1 0.952978 0.700854 0.644073
O O2 0.726063 0.869931 0.570791
O O3 0.000000 0.000000 0.500000
O O4 0.897344 0.783837 0.821949
O O5 0.307880 0.963465 0.328348
O O6 0.225978 0.808125 0.657636
O O7 0.500000 0.000000 0.500000
O O8 0.361091 0.751272 0.312784
O O9 0.579280 0.007262 0.182139
O O10 0.315207 0.001511 0.035123
O O11 0.837265 0.880122 0.239813
O O12 0.866761 0.183716 0.031169
O O13 0.206773 0.438355 0.529311
O O14 0.937967 0.309662 0.664089
O O15 0.129969 0.265363 0.874279
O O16 0.807366 0.381942 0.405155
O O17 0.929745 0.526592 0.109039
#
# Coordination Sequence:
#
# PCOD9094792 Si02
#       8
#     2   2   2   2   2   2   2   2
#     4  10  22  37  61  87 109 150 203 237 279 344
#     4  10  22  40  63  82 119 154 189 241 289 339
#     4  10  22  39  53  87 120 151 192 234 289 349
#     4  11  23  34  61  86 118 154 189 236 288 348
#     4  10  20  34  61  86 110 153 190 230 292 335
#     4   9  19  37  57  84 118 145 186 240 283 344
#     4   9  21  38  61  86 117 147 196 241 284 339
#     4  11  21  37  62  88 117 149 193 245 288 334
#
# _framework density 21.447199999999999
#
# number of rings (size 3 to 8) (size 9 to 14) (size 15 to 20)
#    0.000    2.000    1.250    1.500    8.750    0.500 
#    0.000    0.625   16.500    0.000    0.000    0.000 
#    0.000    0.000    0.000    0.000    0.000    0.000 
#
# Total GULP energy -89097.974909 kJ/mol
# GULP energy per Si atom -5568.623432 kJ/mol
# Density = 2.139839 g / cm^3
# Si number density = 21.447200 Si / 1000 Ang^3
#
#
#
# Elastic Constant Matrix: (Units=GPa)
#
#
# Indices 1 2 3 4 5 6 
#
# 1 90.3205 14.5635 42.6498 -33.0893 1.1367 5.5463
# 2 14.5635 40.6012 32.5502 -11.4199 -7.3023 2.2128
# 3 42.6498 32.5502 121.4900 -34.6658 -1.8166 1.6601
# 4 -33.0893 -11.4199 -34.6658 33.5523 1.5563 -0.1723
# 5 1.1367 -7.3023 -1.8166 1.5563 22.4496 0.5611
# 6 5.5463 2.2128 1.6601 -0.1723 0.5611 23.8193
#
#
#
# Elastic Compliance Matrix: (Units=1/GPa)
#
#
# Indices 1 2 3 4 5 6 
#
# 1 0.018077 -0.001001 -0.001483 0.016046 -0.002377 -0.003841
# 2 -0.001001 0.033947 -0.008053 0.001752 0.010384 -0.002591
# 3 -0.001483 -0.008053 0.013760 0.010114 -0.002139 0.000258
# 4 0.016046 0.001752 0.010114 0.056805 -0.003259 -0.004116
# 5 -0.002377 0.010384 -0.002139 -0.003259 0.048131 -0.001420
# 6 -0.003841 -0.002591 0.000258 -0.004116 -0.001420 0.043104
#
#
# Mechanical properties :
#
#
# Convention : Reuss Voigt Hill
#
# Bulk Modulus (GPa) = 22.36602 47.99319 35.17960
# Shear Modulus (GPa) = 20.01604 26.80744 23.41174
#
# Velocity S-wave (km/s) = 3.05826 3.53927 3.30752
# Velocity P-wave (km/s) = 4.78766 6.25522 5.56999
#
# Compressibility (1/GPa) = 0.04471068
#
# Stress axis : x y z
#
# Youngs Moduli (GPa) = 55.31740 29.45781 72.67649
#
# Poissons Ratio (x) = 0.02948 0.10775
# Poissons Ratio (y) = 0.05535 0.58529
# Poissons Ratio (z) = 0.08201 0.23724
#
# Static dielectric constant tensor:
#      x y z
#    x 1.800050 -0.002210 -0.003750 
#    y -0.002210 1.870710 0.031440 
#    z -0.003750 0.031440 1.839570 
# 
# From -- ./inp_files/186543.got.cif
#   From: 2010.05.17/outbox.cif.g08.bks.cpg/sg2_94_cif.got.tgz:186543.got - 2010.06.03 11:33:40.
