data_PCOD9094246
_publ_section_title
;
Structure prediction by ZEFSAII (Michael W. Deem and Ramdas Pophale) SiO2 
 PCOD9094246
Probable space group: P -1
;
_chemical_formula_sum "Si O2"
_cell_formula_units_Z 16
_cell_length_a 21.203806
_cell_length_b 12.612886
_cell_length_c 5.110434
_cell_angle_alpha 86.849628
_cell_angle_beta 79.348506
_cell_angle_gamma 28.990739
_cell_volume 634.452382
_symmetry_space_group_name_H-M "P -1"
_symmetry_group_IT_number 2
_symmetry_cell_setting 'triclinic'
loop_
_space_group_symop_operation_xyz
x,y,z
-x,-y,-z
loop_
_atom_site_type_symbol
_atom_site_label
_atom_site_fract_x
_atom_site_fract_y
_atom_site_fract_z
Si Si1 0.176043 0.108146 0.536557
Si Si2 0.741316 0.364136 0.371382
Si Si3 0.720208 0.848394 0.216266
Si Si4 0.025344 0.131715 0.927640
Si Si5 0.049338 0.601137 0.667042
Si Si6 0.664441 0.828308 0.758672
Si Si7 0.408578 0.619822 0.302119
Si Si8 0.727648 0.514741 0.882251
O O1 0.298539 0.872031 0.334317
O O2 0.236860 0.104459 0.689702
O O3 0.096055 0.131115 0.743189
O O4 0.377492 0.069604 0.509392
O O5 0.663061 0.387255 0.587850
O O6 0.753699 0.434101 0.579997
O O7 0.876636 0.108784 0.189107
O O8 0.671678 0.513672 0.143304
O O9 0.864819 0.574881 0.137646
O O10 0.655339 0.931833 0.971710
O O11 0.930040 0.702520 0.630860
O O12 0.874638 0.326645 0.920253
O O13 0.009502 0.198588 0.228653
O O14 0.173589 0.423811 0.394467
O O15 0.632849 0.757354 0.901779
O O16 0.500000 0.500000 0.500000
O O17 0.500000 0.500000 0.000000
#
# Coordination Sequence:
#
# PCOD9094246 Si02
#       8
#     2   2   2   2   2   2   2   2
#     4  11  24  36  67  89 127 173 208 248 324 361
#     4  11  26  36  66  86 116 170 213 242 323 359
#     4  10  21  37  55  91 129 175 204 240 295 382
#     4  11  22  34  54  91 140 161 205 242 295 378
#     4  10  20  34  55  87 139 167 200 230 303 365
#     4  10  21  36  54  85 140 169 198 240 283 355
#     4  11  27  50  67  91 120 152 215 283 310 354
#     4  12  20  40  55  92 128 174 196 245 289 391
#
# _framework density 25.218601
#
# number of rings (size 3 to 8) (size 9 to 14) (size 15 to 20)
#    0.750    0.500    2.500    3.375    8.750    1.000 
#    0.000    0.000    0.000    0.000    0.000   17.500 
#    0.000    0.000    0.000    0.000    0.000    0.000 
#
# Total GULP energy -89397.123720 kJ/mol
# GULP energy per Si atom -5587.320232 kJ/mol
# Density = 2.516120 g / cm^3
# Si number density = 25.218601 Si / 1000 Ang^3
#
#
#
# Elastic Constant Matrix: (Units=GPa)
#
#
# Indices 1 2 3 4 5 6 
#
# 1 80.3838 9.7673 20.9343 4.9630 19.2193 15.6680
# 2 9.7673 50.2773 19.1087 3.6676 -6.0924 6.4888
# 3 20.9343 19.1087 147.3015 -7.0155 19.8307 10.8621
# 4 4.9630 3.6676 -7.0155 23.6749 -2.4660 2.7044
# 5 19.2193 -6.0924 19.8307 -2.4660 37.5253 -1.5704
# 6 15.6680 6.4888 10.8621 2.7044 -1.5704 31.6978
#
#
#
# Elastic Compliance Matrix: (Units=1/GPa)
#
#
# Indices 1 2 3 4 5 6 
#
# 1 0.016896 -0.003080 -0.000296 -0.003254 -0.009538 -0.007815
# 2 -0.003080 0.023075 -0.003534 -0.003097 0.006930 -0.001383
# 3 -0.000296 -0.003534 0.008235 0.002839 -0.004689 -0.002426
# 4 -0.003254 -0.003097 0.002839 0.044780 0.002505 -0.002427
# 5 -0.009538 0.006930 -0.004689 0.002505 0.035571 0.006451
# 6 -0.007815 -0.001383 -0.002426 -0.002427 0.006451 0.037052
#
#
# Mechanical properties :
#
#
# Convention : Reuss Voigt Hill
#
# Bulk Modulus (GPa) = 29.08182 41.95367 35.51775
# Shear Modulus (GPa) = 26.19287 33.78977 29.99132
#
# Velocity S-wave (km/s) = 3.22628 3.66440 3.45230
# Velocity P-wave (km/s) = 5.04336 5.88013 5.47774
#
# Compressibility (1/GPa) = 0.03438574
#
# Stress axis : x y z
#
# Youngs Moduli (GPa) = 59.18479 43.33639 121.43662
#
# Poissons Ratio (x) = 0.13346 0.03599
# Poissons Ratio (y) = 0.18227 0.42919
# Poissons Ratio (z) = 0.01754 0.15316
#
# Static dielectric constant tensor:
#      x y z
#    x 2.283900 0.152210 -0.123220 
#    y 0.152210 2.059470 -0.076400 
#    z -0.123220 -0.076400 2.062500 
# 
# From -- ./inp_files/118187.got.cif
#   From: 2010.05.17/outbox.cif.g08.bks.cpg/sg2_60_cif.got.tgz:118187.got - 2010.06.03 11:33:40.
