data_PCOD9094168
_publ_section_title
;
Structure prediction by ZEFSAII (Michael W. Deem and Ramdas Pophale) SiO2 
 PCOD9094168
Probable space group: P -1
;
_chemical_formula_sum "Si O2"
_cell_formula_units_Z 16
_cell_length_a 13.836671
_cell_length_b 5.228861
_cell_length_c 16.017009
_cell_angle_alpha 120.775076
_cell_angle_beta 56.055623
_cell_angle_gamma 99.952548
_cell_volume 815.545871
_symmetry_space_group_name_H-M "P -1"
_symmetry_group_IT_number 2
_symmetry_cell_setting 'triclinic'
loop_
_space_group_symop_operation_xyz
x,y,z
-x,-y,-z
loop_
_atom_site_type_symbol
_atom_site_label
_atom_site_fract_x
_atom_site_fract_y
_atom_site_fract_z
Si Si1 0.258195 0.143040 0.790922
Si Si2 0.605202 0.894916 0.636765
Si Si3 0.656464 0.734269 0.937232
Si Si4 0.701609 0.509912 0.382463
Si Si5 0.918829 0.460186 0.142046
Si Si6 0.540647 0.616351 0.332279
Si Si7 0.613493 0.071160 0.847278
Si Si8 0.159045 0.091833 0.003873
O O1 0.126060 0.232071 0.834001
O O2 0.336780 0.400998 0.779807
O O3 0.248351 0.105978 0.886697
O O4 0.315843 0.839380 0.665412
O O5 0.698883 0.672529 0.499079
O O6 0.509943 0.686776 0.676588
O O7 0.548803 0.161864 0.645792
O O8 0.646198 0.002626 0.723693
O O9 0.664016 0.379647 0.893864
O O10 0.652935 0.812927 0.853522
O O11 0.529142 0.868736 0.061420
O O12 0.763476 0.880291 0.948176
O O13 0.823324 0.487471 0.268220
O O14 0.591686 0.685685 0.410941
O O15 0.895580 0.206004 0.043397
O O16 0.050250 0.367047 0.095214
#
# Coordination Sequence:
#
# PCOD9094168 Si02
#       8
#     2   2   2   2   2   2   2   2
#     4  10  20  34  54  88 122 148 187 235 286 364
#     4  12  23  36  60  80 120 159 193 239 285 341
#     4  10  22  40  60  82 115 146 194 246 283 333
#     4  10  22  36  53  87 122 153 189 238 287 352
#     4   9  21  36  57  91 120 147 197 231 294 362
#     4  11  22  34  54  88 117 156 192 224 291 356
#     4  10  23  40  56  87 111 150 200 234 284 339
#     4  10  20  37  61  86 116 158 187 242 297 343
#
# _framework density 19.618762
#
# number of rings (size 3 to 8) (size 9 to 14) (size 15 to 20)
#    0.000    1.750    1.250    2.625    8.750    1.000 
#    0.000    0.000    0.000    1.500    0.000    0.000 
#    0.000    0.000    0.000    0.000    0.000    0.000 
#
# Total GULP energy -89153.481194 kJ/mol
# GULP energy per Si atom -5572.092575 kJ/mol
# Density = 1.957411 g / cm^3
# Si number density = 19.618762 Si / 1000 Ang^3
#
#
#
# Elastic Constant Matrix: (Units=GPa)
#
#
# Indices 1 2 3 4 5 6 
#
# 1 68.5065 9.4823 27.8360 3.9691 4.7948 -9.2905
# 2 9.4823 83.1341 13.3709 -0.2486 -1.8806 -12.2606
# 3 27.8360 13.3709 88.6171 1.2205 6.4794 -10.8061
# 4 3.9691 -0.2486 1.2205 13.0900 -7.3274 -5.1266
# 5 4.7948 -1.8806 6.4794 -7.3274 23.3958 -2.4940
# 6 -9.2905 -12.2606 -10.8061 -5.1266 -2.4940 26.0999
#
#
#
# Elastic Compliance Matrix: (Units=1/GPa)
#
#
# Indices 1 2 3 4 5 6 
#
# 1 0.017615 -0.001043 -0.004719 -0.006399 -0.004160 0.002172
# 2 -0.001043 0.013490 -0.001242 0.005772 0.004195 0.006986
# 3 -0.004719 -0.001242 0.013518 -0.000095 -0.002579 0.003069
# 4 -0.006399 0.005772 -0.000095 0.110495 0.039163 0.025840
# 5 -0.004160 0.004195 -0.002579 0.039163 0.058264 0.012682
# 6 0.002172 0.006986 0.003069 0.025840 0.012682 0.049927
#
#
# Mechanical properties :
#
#
# Convention : Reuss Voigt Hill
#
# Bulk Modulus (GPa) = 32.66292 37.95955 35.31123
# Shear Modulus (GPa) = 17.38992 25.15504 21.27248
#
# Velocity S-wave (km/s) = 2.98046 3.58466 3.29643
# Velocity P-wave (km/s) = 5.34127 6.04348 5.70319
#
# Compressibility (1/GPa) = 0.03061575
#
# Stress axis : x y z
#
# Youngs Moduli (GPa) = 56.76868 74.12910 73.97420
#
# Poissons Ratio (x) = 0.07733 0.34906
# Poissons Ratio (y) = 0.05922 0.09188
# Poissons Ratio (z) = 0.26787 0.09207
#
# Static dielectric constant tensor:
#      x y z
#    x 1.701100 -0.010330 -0.011950 
#    y -0.010330 1.794810 0.015110 
#    z -0.011950 0.015110 1.707880 
# 
# From -- ./inp_files/483611.got.cif
#   From: 2010.05.17/outbox.cif.g08.bks.cpg/sg2_242_cif.got.tgz:483611.got - 2010.06.03 11:33:40.
