data_PCOD9094638
_publ_section_title
;
Structure prediction by ZEFSAII (Michael W. Deem and Ramdas Pophale) SiO2 
 PCOD9094638
Probable space group: P -1
;
_chemical_formula_sum "Si O2"
_cell_formula_units_Z 16
_cell_length_a 16.091578
_cell_length_b 7.731509
_cell_length_c 16.915792
_cell_angle_alpha 92.012841
_cell_angle_beta 26.399195
_cell_angle_gamma 74.649357
_cell_volume 697.101989
_symmetry_space_group_name_H-M "P -1"
_symmetry_group_IT_number 2
_symmetry_cell_setting 'triclinic'
loop_
_space_group_symop_operation_xyz
x,y,z
-x,-y,-z
loop_
_atom_site_type_symbol
_atom_site_label
_atom_site_fract_x
_atom_site_fract_y
_atom_site_fract_z
Si Si1 0.003068 0.569165 0.741905
Si Si2 0.472840 0.606456 0.718896
Si Si3 0.933032 0.393465 0.651317
Si Si4 0.040459 0.777619 0.987714
Si Si5 0.789084 0.202593 0.899610
Si Si6 0.787382 0.914825 0.369561
Si Si7 0.719509 0.877023 0.129439
Si Si8 0.581249 0.828061 0.856001
O O1 0.233384 0.559633 0.546318
O O2 0.105259 0.328236 0.688887
O O3 0.936173 0.555801 0.710391
O O4 0.781400 0.764470 0.989937
O O5 0.369062 0.869019 0.801581
O O6 0.399280 0.599593 0.870777
O O7 0.315041 0.594718 0.789442
O O8 0.842165 0.288233 0.779333
O O9 0.740602 0.565109 0.749480
O O10 0.215751 0.202078 0.373820
O O11 0.845793 0.871848 0.226734
O O12 0.963675 0.717312 0.975328
O O13 0.000000 0.000000 0.000000
O O14 0.047036 0.040663 0.727563
O O15 0.659376 0.106425 0.980582
O O16 0.500037 0.091869 0.640475
O O17 0.500000 0.000000 0.000000
#
# Coordination Sequence:
#
# PCOD9094638 Si02
#       8
#     2   2   2   2   2   2   2   2
#     4  10  20  36  59  84 115 157 194 245 293 350
#     4   9  19  37  58  83 121 157 195 241 294 345
#     4  10  23  41  60  89 123 154 195 244 303 355
#     4   9  18  35  55  81 118 158 196 248 293 338
#     4  10  20  41  64  85 123 160 192 244 301 353
#     4   9  20  37  57  82 118 158 196 242 294 347
#     4  10  20  34  59  87 116 156 203 242 292 346
#     4  11  24  41  65  90 118 155 196 246 299 358
#
# _framework density 22.952162999999999
#
# number of rings (size 3 to 8) (size 9 to 14) (size 15 to 20)
#    0.000    2.250    1.250    0.750    1.750    1.500 
#    0.000   17.500    0.000    0.000    0.000    0.000 
#    0.000    0.000    0.000    0.000    0.000    0.000 
#
# Total GULP energy -89425.589945 kJ/mol
# GULP energy per Si atom -5589.099372 kJ/mol
# Density = 2.289992 g / cm^3
# Si number density = 22.952163 Si / 1000 Ang^3
#
#
#
# Elastic Constant Matrix: (Units=GPa)
#
#
# Indices 1 2 3 4 5 6 
#
# 1 91.1170 13.8352 30.4551 -11.3132 2.2559 9.9611
# 2 13.8352 66.4415 21.1949 -9.5508 0.4384 -2.8477
# 3 30.4551 21.1949 54.2855 -40.7254 -3.6773 20.5419
# 4 -11.3132 -9.5508 -40.7254 32.8829 -0.1478 10.9569
# 5 2.2559 0.4384 -3.6773 -0.1478 26.4733 -12.8989
# 6 9.9611 -2.8477 20.5419 10.9569 -12.8989 24.3588
#
#
#
# Elastic Compliance Matrix: (Units=1/GPa)
#
#
# Indices 1 2 3 4 5 6 
#
# 1 0.013380 -0.001661 -0.003364 0.001976 -0.004556 -0.006130
# 2 -0.001661 0.015678 0.002280 0.008115 -0.001681 -0.003951
# 3 -0.003364 0.002280 -0.013520 -0.028331 0.014525 0.033479
# 4 0.001976 0.008115 -0.028331 -0.014213 0.014161 0.037924
# 5 -0.004556 -0.001681 0.014525 0.014161 0.043163 0.005904
# 6 -0.006130 -0.003951 0.033479 0.037924 0.005904 0.000932
#
#
# Mechanical properties :
#
#
# Convention : Reuss Voigt Hill
#
# Bulk Modulus (GPa) = 99.54260 38.09049 68.81655
# Shear Modulus (GPa) = 92.14909 26.50025 59.32467
#
# Velocity S-wave (km/s) = 6.34314 3.40161 5.08952
# Velocity P-wave (km/s) = 9.85449 5.66211 8.03650
#
# Compressibility (1/GPa) = 0.01004595
#
# Stress axis : x y z
#
# Youngs Moduli (GPa) = 74.73885 63.78496 -73.96237
#
# Poissons Ratio (x) = 0.10598 -0.24884
# Poissons Ratio (y) = 0.12418 0.16865
# Poissons Ratio (z) = 0.25145 -0.14544
#
# Static dielectric constant tensor:
#      x y z
#    x 1.911130 -0.011110 -0.041330 
#    y -0.011110 1.872500 -0.006520 
#    z -0.041330 -0.006520 1.842550 
# 
# From -- ./inp_files/141383.got.cif
#   From: 2010.05.17/outbox.cif.g08.bks.cpg/sg2_71_cif.got.tgz:141383.got - 2010.06.03 11:33:40.
