data_PCOD9094887
_publ_section_title
;
Structure prediction by ZEFSAII (Michael W. Deem and Ramdas Pophale) SiO2 
 PCOD9094887
Probable space group: P -1
;
_chemical_formula_sum "Si O2"
_cell_formula_units_Z 14
_cell_length_a 8.563662
_cell_length_b 11.166186
_cell_length_c 8.532105
_cell_angle_alpha 55.482084
_cell_angle_beta 82.596205
_cell_angle_gamma 57.338891
_cell_volume 547.215702
_symmetry_space_group_name_H-M "P -1"
_symmetry_group_IT_number 2
_symmetry_cell_setting 'triclinic'
loop_
_space_group_symop_operation_xyz
x,y,z
-x,-y,-z
loop_
_atom_site_type_symbol
_atom_site_label
_atom_site_fract_x
_atom_site_fract_y
_atom_site_fract_z
Si Si1 0.356193 0.979120 0.871903
Si Si2 0.375114 0.457042 0.156593
Si Si3 0.728807 0.987357 0.810593
Si Si4 0.641748 0.342937 0.478075
Si Si5 0.943158 0.489467 0.691389
Si Si6 0.290216 0.405059 0.881713
Si Si7 0.269704 0.107763 0.464683
O O1 0.254495 0.012868 0.691870
O O2 0.508575 0.034970 0.802208
O O3 0.219918 0.070026 0.970814
O O4 0.496860 0.768513 0.045980
O O5 0.527588 0.325848 0.361973
O O6 0.193166 0.576816 0.205846
O O7 0.500000 0.500000 0.000000
O O8 0.280862 0.415998 0.060103
O O9 0.747307 0.152242 0.679239
O O10 0.806383 0.893590 0.698731
O O11 0.500000 0.500000 0.500000
O O12 0.748751 0.419982 0.324210
O O13 0.000000 0.500000 0.500000
O O14 0.131527 0.384580 0.849799
O O15 0.821850 0.695111 0.607844
O O16 0.500000 0.000000 0.500000
#
# Coordination Sequence:
#
# PCOD9094887 Si02
#       7
#     2   2   2   2   2   2   2
#     4  10  20  36  66  98 127 183 243 281 334 433
#     4  10  22  39  64  98 135 181 230 281 340 420
#     4  10  20  34  63  89 133 175 238 270 341 403
#     4  11  20  38  64  99 139 178 230 286 344 415
#     4  12  26  43  69 105 148 177 227 302 367 403
#     4  11  23  40  68 104 138 174 233 300 353 398
#     4  10  22  41  64  95 135 186 233 276 345 438
#
# _framework density 25.584061999999999
#
# number of rings (size 3 to 8) (size 9 to 14) (size 15 to 20)
#    0.000    1.429    1.429    5.571    6.000    0.000 
#    0.000    0.714    0.000    6.000    0.000    1.000 
#    0.000    0.000    0.000    0.000    0.000    0.000 
#
# Total GULP energy -78033.580622 kJ/mol
# GULP energy per Si atom -5573.827187 kJ/mol
# Density = 2.552583 g / cm^3
# Si number density = 25.584062 Si / 1000 Ang^3
#
#
#
# Elastic Constant Matrix: (Units=GPa)
#
#
# Indices 1 2 3 4 5 6 
#
# 1 64.6817 6.8679 45.9595 14.8139 -15.1611 -5.1999
# 2 6.8679 128.8559 55.8552 28.5111 -17.8883 1.3338
# 3 45.9595 55.8552 143.4183 54.1207 -7.3578 -0.6419
# 4 14.8139 28.5111 54.1207 49.9157 11.7437 -2.9234
# 5 -15.1611 -17.8883 -7.3578 11.7437 38.7810 0.9184
# 6 -5.1999 1.3338 -0.6419 -2.9234 0.9184 28.3917
#
#
#
# Elastic Compliance Matrix: (Units=1/GPa)
#
#
# Indices 1 2 3 4 5 6 
#
# 1 0.023938 0.004281 -0.007150 -0.004239 0.011183 0.003223
# 2 0.004281 0.011449 -0.002846 -0.006766 0.008482 -0.000789
# 3 -0.007150 -0.002846 0.016043 -0.014592 0.003412 -0.002426
# 4 -0.004239 -0.006766 -0.014592 0.046356 -0.021695 0.004687
# 5 0.011183 0.008482 0.003412 -0.021695 0.041331 -0.001844
# 6 0.003223 -0.000789 -0.002426 0.004687 -0.001844 0.036336
#
#
# Mechanical properties :
#
#
# Convention : Reuss Voigt Hill
#
# Bulk Modulus (GPa) = 25.00081 61.59124 43.29603
# Shear Modulus (GPa) = 24.97295 38.63591 31.80443
#
# Velocity S-wave (km/s) = 3.12767 3.89029 3.52964
# Velocity P-wave (km/s) = 4.77874 6.65623 5.79404
#
# Compressibility (1/GPa) = 0.03999870
#
# Stress axis : x y z
#
# Youngs Moduli (GPa) = 41.77487 87.34567 62.33341
#
# Poissons Ratio (x) = -0.37390 0.44571
# Poissons Ratio (y) = -0.17883 0.17738
# Poissons Ratio (z) = 0.29871 0.24855
#
# Static dielectric constant tensor:
#      x y z
#    x 2.115770 0.064190 -0.072220 
#    y 0.064190 2.201740 -0.058680 
#    z -0.072220 -0.058680 2.103860 
# 
# From -- ./inp_files/185036.got.cif
#   From: 2010.05.17/outbox.cif.g08.bks.cpg/sg2_93_cif.got.tgz:185036.got - 2010.06.03 11:33:40.
