data_PCOD9094868
_publ_section_title
;
Structure prediction by ZEFSAII (Michael W. Deem and Ramdas Pophale) SiO2 
 PCOD9094868
Probable space group: P -1
;
_chemical_formula_sum "Si O2"
_cell_formula_units_Z 14
_cell_length_a 11.983908
_cell_length_b 5.548786
_cell_length_c 18.231839
_cell_angle_alpha 103.886035
_cell_angle_beta 149.121848
_cell_angle_gamma 85.653394
_cell_volume 583.024555
_symmetry_space_group_name_H-M "P -1"
_symmetry_group_IT_number 2
_symmetry_cell_setting 'triclinic'
loop_
_space_group_symop_operation_xyz
x,y,z
-x,-y,-z
loop_
_atom_site_type_symbol
_atom_site_label
_atom_site_fract_x
_atom_site_fract_y
_atom_site_fract_z
Si Si1 0.931921 0.259474 0.641816
Si Si2 0.377619 0.488876 0.183500
Si Si3 0.011722 0.153408 0.839645
Si Si4 0.250296 0.090381 0.613016
Si Si5 0.607753 0.886312 0.153871
Si Si6 0.238836 0.022721 0.175714
Si Si7 0.788839 0.247468 0.161136
O O1 0.909624 0.253168 0.716640
O O2 0.172815 0.208992 0.750001
O O3 0.981101 0.556500 0.670524
O O4 0.758222 0.061844 0.479027
O O5 0.637217 0.606733 0.313126
O O6 0.308560 0.755170 0.182441
O O7 0.372404 0.293139 0.233933
O O8 0.193920 0.351009 0.008200
O O9 0.817182 0.988068 0.770419
O O10 0.145201 0.970040 0.864382
O O11 0.400106 0.037070 0.761150
O O12 0.000000 0.000000 0.500000
O O13 0.646733 0.139175 0.144570
O O14 0.384468 0.676774 0.987490
O O15 0.000000 0.000000 0.000000
#
# Coordination Sequence:
#
# PCOD9094868 Si02
#       7
#     2   2   2   2   2   2   2
#     4  10  21  38  57  90 130 167 220 255 339 385
#     4  11  24  44  68 102 130 172 226 274 332 394
#     4  10  22  38  68  94 126 161 218 281 332 380
#     4  10  23  43  62  91 134 180 218 263 325 404
#     4   9  20  37  56  90 124 169 217 270 325 381
#     4  10  23  42  70 102 130 166 223 285 336 383
#     4  10  20  34  62  95 121 164 214 277 326 387
#
# _framework density 24.012712000000001
#
# number of rings (size 3 to 8) (size 9 to 14) (size 15 to 20)
#    0.000    2.000    0.000    3.000   10.000    6.286 
#    7.714    1.429    0.000    0.000    0.000    0.000 
#    0.000    0.000    0.000    0.000    0.000    0.000 
#
# Total GULP energy -78005.295852 kJ/mol
# GULP energy per Si atom -5571.806847 kJ/mol
# Density = 2.395806 g / cm^3
# Si number density = 24.012712 Si / 1000 Ang^3
#
#
#
# Elastic Constant Matrix: (Units=GPa)
#
#
# Indices 1 2 3 4 5 6 
#
# 1 125.2756 49.0454 34.5230 21.4209 -18.8786 42.0281
# 2 49.0454 90.2045 36.4095 25.6588 -1.6452 16.0214
# 3 34.5230 36.4095 133.6668 37.8702 -27.1886 28.0437
# 4 21.4209 25.6588 37.8702 27.9684 0.4156 10.6833
# 5 -18.8786 -1.6452 -27.1886 0.4156 40.1354 -6.2849
# 6 42.0281 16.0214 28.0437 10.6833 -6.2849 51.1637
#
#
#
# Elastic Compliance Matrix: (Units=1/GPa)
#
#
# Indices 1 2 3 4 5 6 
#
# 1 0.014915 -0.005505 0.003284 -0.007147 0.007537 -0.009910
# 2 -0.005505 0.017230 -0.000989 -0.010857 -0.002179 0.001667
# 3 0.003284 -0.000989 0.017016 -0.022755 0.012415 -0.005438
# 4 -0.007147 -0.010857 -0.022755 0.081406 -0.019701 0.002325
# 5 0.007537 -0.002179 0.012415 -0.019701 0.036402 -0.003729
# 6 -0.009910 0.001667 -0.005438 0.002325 -0.003729 0.029201
#
#
# Mechanical properties :
#
#
# Convention : Reuss Voigt Hill
#
# Bulk Modulus (GPa) = 23.39558 65.45586 44.42572
# Shear Modulus (GPa) = 23.05905 39.13142 31.09523
#
# Velocity S-wave (km/s) = 3.10221 4.04123 3.60244
# Velocity P-wave (km/s) = 4.75350 7.00666 5.98703
#
# Compressibility (1/GPa) = 0.04274312
#
# Stress axis : x y z
#
# Youngs Moduli (GPa) = 67.04716 58.03702 58.76955
#
# Poissons Ratio (x) = 0.31947 -0.19302
# Poissons Ratio (y) = 0.36906 0.05810
# Poissons Ratio (z) = -0.22020 0.05738
#
# Static dielectric constant tensor:
#      x y z
#    x 1.980380 0.048830 0.057520 
#    y 0.048830 2.140060 0.025290 
#    z 0.057520 0.025290 2.005270 
# 
# From -- ./inp_files/369382.got.cif
#   From: 2010.05.17/outbox.cif.g08.bks.cpg/sg2_185_cif.got.tgz:369382.got - 2010.06.03 11:33:40.
