data_PCOD9094912
_publ_section_title
;
Structure prediction by ZEFSAII (Michael W. Deem and Ramdas Pophale) SiO2 
 PCOD9094912
Probable space group: P -1
;
_chemical_formula_sum "Si O2"
_cell_formula_units_Z 16
_cell_length_a 7.827602
_cell_length_b 14.084840
_cell_length_c 19.404702
_cell_angle_alpha 161.329356
_cell_angle_beta 96.056147
_cell_angle_gamma 90.242121
_cell_volume 643.552017
_symmetry_space_group_name_H-M "P -1"
_symmetry_group_IT_number 2
_symmetry_cell_setting 'triclinic'
loop_
_space_group_symop_operation_xyz
x,y,z
-x,-y,-z
loop_
_atom_site_type_symbol
_atom_site_label
_atom_site_fract_x
_atom_site_fract_y
_atom_site_fract_z
Si Si1 0.681369 0.302347 0.986504
Si Si2 0.227256 0.485315 0.639359
Si Si3 0.163812 0.812449 0.741229
Si Si4 0.929256 0.335818 0.773002
Si Si5 0.963455 0.284415 0.091166
Si Si6 0.391996 0.255390 0.609203
Si Si7 0.557814 0.879629 0.268595
Si Si8 0.867531 0.943349 0.233910
O O1 0.573173 0.499831 0.158508
O O2 0.854795 0.560450 0.134691
O O3 0.780247 0.155074 0.946946
O O4 0.567612 0.069281 0.764358
O O5 0.287630 0.698701 0.721081
O O6 0.376335 0.445770 0.670774
O O7 0.102475 0.631987 0.781841
O O8 0.080088 0.148023 0.382226
O O9 0.000000 0.500000 0.500000
O O10 0.225731 0.967381 0.776509
O O11 0.077541 0.050672 0.938057
O O12 0.924675 0.425051 0.753565
O O13 0.808133 0.992357 0.553195
O O14 0.858122 0.584211 0.981076
O O15 0.514480 0.043424 0.447633
O O16 0.761985 0.009654 0.339863
O O17 0.500000 0.500000 0.000000
#
# Coordination Sequence:
#
# PCOD9094912 Si02
#       8
#     2   2   2   2   2   2   2   2
#     4   9  22  38  58  85 117 151 189 245 282 337
#     4  10  20  34  64  84 109 144 201 246 274 339
#     4   9  18  35  59  86 110 143 190 246 286 325
#     4   9  18  37  57  84 111 145 194 244 282 330
#     4   8  18  34  59  87 110 140 186 245 292 320
#     4  11  22  38  59  87 115 155 199 232 291 337
#     4  12  25  38  55  83 126 161 186 227 292 363
#     4  10  21  37  54  87 114 152 191 235 293 337
#
# _framework density 24.862017000000002
#
# number of rings (size 3 to 8) (size 9 to 14) (size 15 to 20)
#    0.750    1.500    1.250    1.500    3.500    1.500 
#    4.500    0.625    0.000    1.500    0.000    0.000 
#    0.000    0.000    0.000    0.000    0.000    0.000 
#
# Total GULP energy -89377.362001 kJ/mol
# GULP energy per Si atom -5586.085125 kJ/mol
# Density = 2.480543 g / cm^3
# Si number density = 24.862017 Si / 1000 Ang^3
#
#
#
# Elastic Constant Matrix: (Units=GPa)
#
#
# Indices 1 2 3 4 5 6 
#
# 1 62.9920 9.1363 22.9804 -7.7655 -11.5584 11.8971
# 2 9.1363 97.0564 24.0641 -1.7151 -10.5211 -10.7448
# 3 22.9804 24.0641 75.2366 -16.0043 -17.3021 15.3014
# 4 -7.7655 -1.7151 -16.0043 40.0917 2.8071 -18.2777
# 5 -11.5584 -10.5211 -17.3021 2.8071 32.8756 -14.8552
# 6 11.8971 -10.7448 15.3014 -18.2777 -14.8552 30.5565
#
#
#
# Elastic Compliance Matrix: (Units=1/GPa)
#
#
# Indices 1 2 3 4 5 6 
#
# 1 0.018741 -0.001136 -0.003997 -0.000448 0.001878 -0.005050
# 2 -0.001136 0.013901 -0.004188 0.004483 0.007728 0.013866
# 3 -0.003997 -0.004188 0.018736 0.004126 0.004711 -0.004540
# 4 -0.000448 0.004483 0.004126 0.039333 0.013557 0.029803
# 5 0.001878 0.007728 0.004711 0.013557 0.049170 0.031640
# 6 -0.005050 0.013866 -0.004540 0.029803 0.031640 0.075051
#
#
# Mechanical properties :
#
#
# Convention : Reuss Voigt Hill
#
# Bulk Modulus (GPa) = 30.54883 38.62742 34.58812
# Shear Modulus (GPa) = 20.45097 32.64504 26.54800
#
# Velocity S-wave (km/s) = 2.87118 3.62753 3.27129
# Velocity P-wave (km/s) = 4.82758 5.75463 5.31137
#
# Compressibility (1/GPa) = 0.03273448
#
# Stress axis : x y z
#
# Youngs Moduli (GPa) = 53.35831 71.93888 53.37179
#
# Poissons Ratio (x) = 0.08176 0.21334
# Poissons Ratio (y) = 0.06064 0.22354
# Poissons Ratio (z) = 0.21329 0.30130
#
# Static dielectric constant tensor:
#      x y z
#    x 1.993800 -0.040630 -0.015250 
#    y -0.040630 1.988280 0.015660 
#    z -0.015250 0.015660 1.962190 
# 
# From -- ./inp_files/590138.got.cif
#   From: 2010.05.17/outbox.cif.g08.bks.cpg/sg2_296_cif.got.tgz:590138.got - 2010.06.03 11:33:40.
