data_PCOD9094886
_publ_section_title
;
Structure prediction by ZEFSAII (Michael W. Deem and Ramdas Pophale) SiO2 
 PCOD9094886
Probable space group: P -1
;
_chemical_formula_sum "Si O2"
_cell_formula_units_Z 16
_cell_length_a 7.586657
_cell_length_b 7.981536
_cell_length_c 17.436844
_cell_angle_alpha 137.328110
_cell_angle_beta 65.566297
_cell_angle_gamma 122.579863
_cell_volume 602.753006
_symmetry_space_group_name_H-M "P -1"
_symmetry_group_IT_number 2
_symmetry_cell_setting 'triclinic'
loop_
_space_group_symop_operation_xyz
x,y,z
-x,-y,-z
loop_
_atom_site_type_symbol
_atom_site_label
_atom_site_fract_x
_atom_site_fract_y
_atom_site_fract_z
Si Si1 0.436284 0.810468 0.627454
Si Si2 0.862214 0.185582 0.597848
Si Si3 0.603353 0.156710 0.837145
Si Si4 0.078029 0.044171 0.749935
Si Si5 0.070692 0.443458 0.790544
Si Si6 0.787997 0.495448 0.573054
Si Si7 0.055069 0.885065 0.042684
Si Si8 0.365150 0.295673 0.044018
O O1 0.658528 0.011170 0.623263
O O2 0.481300 0.859365 0.727082
O O3 0.370677 0.578278 0.495769
O O4 0.245610 0.911603 0.690866
O O5 0.012671 0.429207 0.706967
O O6 0.769220 0.291837 0.578075
O O7 0.000000 0.000000 0.500000
O O8 0.847878 0.278579 0.816785
O O9 0.539857 0.193650 0.947370
O O10 0.547688 0.386170 0.876907
O O11 0.860361 0.797272 0.689388
O O12 0.180506 0.243874 0.727563
O O13 0.031318 0.185866 0.880706
O O14 0.150869 0.709642 0.915126
O O15 0.000000 0.500000 0.500000
O O16 0.836926 0.835855 0.020615
O O17 0.241854 0.178616 0.104874
#
# Coordination Sequence:
#
# PCOD9094886 Si02
#       8
#     2   2   2   2   2   2   2   2
#     4  10  21  39  64  90 118 165 203 247 314 365
#     4  11  23  43  66  91 119 159 209 261 308 375
#     4   9  18  36  59  87 124 158 204 249 308 362
#     4  11  22  41  60  92 130 165 203 259 301 369
#     4  10  23  39  60  88 125 163 207 252 310 361
#     4  10  23  39  61  90 121 160 206 252 309 364
#     4  10  20  34  63  89 124 162 208 248 312 354
#     4   9  18  33  58  92 118 160 204 255 295 371
#
# _framework density 26.544868999999998
#
# number of rings (size 3 to 8) (size 9 to 14) (size 15 to 20)
#    0.000    2.000    1.250    2.250    7.000    0.000 
#    0.000   13.125    0.000    0.000    0.000    0.000 
#    0.000    0.000    0.000    0.000    0.000    0.000 
#
# Total GULP energy -89148.043878 kJ/mol
# GULP energy per Si atom -5571.752742 kJ/mol
# Density = 2.648445 g / cm^3
# Si number density = 26.544869 Si / 1000 Ang^3
#
#
#
# Elastic Constant Matrix: (Units=GPa)
#
#
# Indices 1 2 3 4 5 6 
#
# 1 65.6179 2.2948 18.0694 -0.0540 12.3728 -2.5012
# 2 2.2948 63.1487 9.8457 2.5508 6.5661 9.0584
# 3 18.0694 9.8457 138.1951 9.6158 17.6509 -6.0027
# 4 -0.0540 2.5508 9.6158 31.9855 1.6475 2.4128
# 5 12.3728 6.5661 17.6509 1.6475 33.9793 1.2719
# 6 -2.5012 9.0584 -6.0027 2.4128 1.2719 36.7205
#
#
#
# Elastic Compliance Matrix: (Units=1/GPa)
#
#
# Indices 1 2 3 4 5 6 
#
# 1 0.016706 0.000011 -0.001501 0.000678 -0.005377 0.001032
# 2 0.000011 0.016887 -0.001020 -0.000591 -0.002551 -0.004204
# 3 -0.001501 -0.001020 0.008186 -0.002337 -0.003461 0.001761
# 4 0.000678 -0.000591 -0.002337 0.032208 -0.000394 -0.002293
# 5 -0.005377 -0.002551 -0.003461 -0.000394 0.033752 -0.001446
# 6 0.001032 -0.004204 0.001761 -0.002293 -0.001446 0.028829
#
#
# Mechanical properties :
#
#
# Convention : Reuss Voigt Hill
#
# Bulk Modulus (GPa) = 27.20435 36.37574 31.79004
# Shear Modulus (GPa) = 32.50097 36.32054 34.41075
#
# Velocity S-wave (km/s) = 3.50291 3.70303 3.60436
# Velocity P-wave (km/s) = 5.16054 5.65831 5.41515
#
# Compressibility (1/GPa) = 0.03675883
#
# Stress axis : x y z
#
# Youngs Moduli (GPa) = 59.85719 59.21875 122.15603
#
# Poissons Ratio (x) = -0.00063 0.18332
# Poissons Ratio (y) = -0.00064 0.12461
# Poissons Ratio (z) = 0.08983 0.06041
#
# Static dielectric constant tensor:
#      x y z
#    x 2.268370 -0.160960 -0.040670 
#    y -0.160960 2.103310 0.069820 
#    z -0.040670 0.069820 2.253070 
# 
# From -- ./inp_files/588205.got.cif
#   From: 2010.05.17/outbox.cif.g08.bks.cpg/sg2_295_cif.got.tgz:588205.got - 2010.06.03 11:33:40.
