data_PCOD9094658
_publ_section_title
;
Structure prediction by ZEFSAII (Michael W. Deem and Ramdas Pophale) SiO2 
 PCOD9094658
Probable space group: P -1
;
_chemical_formula_sum "Si O2"
_cell_formula_units_Z 12
_cell_length_a 12.348656
_cell_length_b 9.352920
_cell_length_c 8.181077
_cell_angle_alpha 128.559286
_cell_angle_beta 37.425193
_cell_angle_gamma 127.985008
_cell_volume 434.364283
_symmetry_space_group_name_H-M "P -1"
_symmetry_group_IT_number 2
_symmetry_cell_setting 'triclinic'
loop_
_space_group_symop_operation_xyz
x,y,z
-x,-y,-z
loop_
_atom_site_type_symbol
_atom_site_label
_atom_site_fract_x
_atom_site_fract_y
_atom_site_fract_z
Si Si1 0.989939 0.600019 0.753359
Si Si2 0.952275 0.880996 0.310883
Si Si3 0.385440 0.680751 0.941274
Si Si4 0.230522 0.149519 0.970704
Si Si5 0.597310 0.957459 0.619777
Si Si6 0.275848 0.436287 0.431197
O O1 0.000000 0.500000 0.500000
O O2 0.183484 0.601887 0.606691
O O3 0.816393 0.450968 0.935325
O O4 0.915636 0.778870 0.917563
O O5 0.787317 0.944618 0.467782
O O6 0.864950 0.675283 0.340787
O O7 0.000000 0.000000 0.500000
O O8 0.133279 0.954873 0.039167
O O9 0.444711 0.811191 0.804349
O O10 0.523960 0.548996 0.720942
O O11 0.408987 0.829999 0.171538
O O12 0.382741 0.108879 0.636168
O O13 0.276018 0.306899 0.173844
#
# Coordination Sequence:
#
# PCOD9094658 Si02
#       6
#     2   2   2   2   2   2
#     4  10  21  38  60  85 118 154 188 238 298 345
#     4   9  17  34  58  84 114 151 193 235 281 343
#     4  10  21  38  59  82 117 159 194 232 289 351
#     4  10  20  34  59  90 117 147 193 246 289 336
#     4  10  20  35  58  87 116 153 197 241 285 338
#     4   9  20  38  61  85 115 156 195 232 287 349
#
# _framework density 27.626580000000001
#
# number of rings (size 3 to 8) (size 9 to 14) (size 15 to 20)
#    0.000    2.333    0.000    3.500    0.000    5.333 
#    0.000    3.333    0.000   12.000    0.000    3.500 
#    0.000    0.000    0.000    0.000    0.000    0.000 
#
# Total GULP energy -67145.669560 kJ/mol
# GULP energy per Si atom -5595.472463 kJ/mol
# Density = 2.756370 g / cm^3
# Si number density = 27.626580 Si / 1000 Ang^3
#
#
#
# Elastic Constant Matrix: (Units=GPa)
#
#
# Indices 1 2 3 4 5 6 
#
# 1 -92.3209 301.6914 162.8210 47.5861 -348.1744 174.9610
# 2 301.6914 -285.9434 -46.1632 -27.5707 467.8079 -274.8969
# 3 162.8210 -46.1632 119.1213 -17.1611 200.1131 -103.7334
# 4 47.5861 -27.5707 -17.1611 60.5219 35.0997 -32.6011
# 5 -348.1744 467.8079 200.1131 35.0997 -505.4241 337.3927
# 6 174.9610 -274.8969 -103.7334 -32.6011 337.3927 -139.8296
#
#
#
# Elastic Compliance Matrix: (Units=1/GPa)
#
#
# Indices 1 2 3 4 5 6 
#
# 1 0.013217 0.008274 -0.008718 -0.004877 -0.000033 0.007795
# 2 0.008274 0.027444 -0.020386 -0.006276 0.011198 0.000005
# 3 -0.008718 -0.020386 0.021081 0.005382 -0.006634 -0.003732
# 4 -0.004877 -0.006276 0.005382 0.018401 0.000667 -0.000439
# 5 -0.000033 0.011198 -0.006634 0.000667 0.009355 0.005283
# 6 0.007795 0.000005 -0.003732 -0.000439 0.005283 0.018211
#
#
# Mechanical properties :
#
#
# Convention : Reuss Voigt Hill
#
# Bulk Modulus (GPa) = 49.79109 64.17282 56.98195
# Shear Modulus (GPa) = 32.03844 -162.11252 -65.03704
#
# Velocity S-wave (km/s) = 3.40913 -7.66859 -4.85722
# Velocity P-wave (km/s) = 5.79294 7.42500 3.28424
#
# Compressibility (1/GPa) = 0.02008391
#
# Stress axis : x y z
#
# Youngs Moduli (GPa) = 75.65850 36.43751 47.43692
#
# Poissons Ratio (x) = -0.30149 0.41355
# Poissons Ratio (y) = -0.62602 0.96703
# Poissons Ratio (z) = 0.65958 0.74280
#
# Static dielectric constant tensor:
#      x y z
#    x 2.106890 0.045580 0.062010 
#    y 0.045580 2.110020 -0.055460 
#    z 0.062010 -0.055460 2.120360 
# 
# From -- ./inp_files/293132.got.cif
#   From: 2010.05.17/outbox.cif.g08.bks.cpg/sg2_147_cif.got.tgz:293132.got - 2010.06.03 11:33:40.
