data_PCOD9094006
_publ_section_title
;
Structure prediction by ZEFSAII (Michael W. Deem and Ramdas Pophale) SiO2 
 PCOD9094006
Probable space group: P -1
;
_chemical_formula_sum "Si O2"
_cell_formula_units_Z 16
_cell_length_a 8.755194
_cell_length_b 6.470135
_cell_length_c 19.249666
_cell_angle_alpha 46.673584
_cell_angle_beta 60.049297
_cell_angle_gamma 76.654666
_cell_volume 676.426791
_symmetry_space_group_name_H-M "P -1"
_symmetry_group_IT_number 2
_symmetry_cell_setting 'triclinic'
loop_
_space_group_symop_operation_xyz
x,y,z
-x,-y,-z
loop_
_atom_site_type_symbol
_atom_site_label
_atom_site_fract_x
_atom_site_fract_y
_atom_site_fract_z
Si Si1 0.132981 0.082539 0.123711
Si Si2 0.804477 0.539990 0.719615
Si Si3 0.138376 0.112238 0.881085
Si Si4 0.989783 0.285683 0.236756
Si Si5 0.330577 0.930791 0.725163
Si Si6 0.421365 0.548161 0.582358
Si Si7 0.612361 0.673848 0.109826
Si Si8 0.328341 0.100278 0.442970
O O1 0.128977 0.302255 0.137174
O O2 0.124094 0.762057 0.231566
O O3 0.301221 0.156010 0.016625
O O4 0.955726 0.079188 0.117473
O O5 0.906946 0.742276 0.709693
O O6 0.599561 0.429164 0.816501
O O7 0.803852 0.727513 0.606713
O O8 0.324256 0.152870 0.872951
O O9 0.097883 0.430900 0.801601
O O10 0.000000 0.000000 0.000000
O O11 0.824535 0.052256 0.300013
O O12 0.354243 0.221529 0.698456
O O13 0.304948 0.621383 0.839245
O O14 0.512803 0.921612 0.643066
O O15 0.500000 0.500000 0.500000
O O16 0.574930 0.707479 0.560992
O O17 0.280558 0.767987 0.555934
#
# Coordination Sequence:
#
# PCOD9094006 Si02
#       8
#     2   2   2   2   2   2   2   2
#     4  10  20  34  52  73 109 150 178 219 262 297
#     4  10  21  35  50  75 111 143 175 214 262 317
#     4   8  17  33  50  69  96 133 180 225 257 293
#     4  10  21  34  49  77 111 143 181 214 255 314
#     4   9  19  34  55  80 106 136 177 220 259 308
#     4   9  18  35  61  86 102 124 169 222 267 313
#     4   9  18  34  53  76 104 141 187 223 256 304
#     4   9  19  37  60  81 104 133 169 217 267 313
#
# _framework density 23.653704000000001
#
# number of rings (size 3 to 8) (size 9 to 14) (size 15 to 20)
#    0.000    2.750    0.000    0.375    0.000   12.000 
#    0.000    6.875    0.000    7.500    0.000    0.000 
#    0.000    0.000    0.000    0.000    0.000    0.000 
#
# Total GULP energy -89274.159808 kJ/mol
# GULP energy per Si atom -5579.634988 kJ/mol
# Density = 2.359987 g / cm^3
# Si number density = 23.653704 Si / 1000 Ang^3
#
#
#
# Elastic Constant Matrix: (Units=GPa)
#
#
# Indices 1 2 3 4 5 6 
#
# 1 77.0785 23.8623 6.2444 1.0891 13.8488 6.0271
# 2 23.8623 106.0078 10.0299 -4.3933 14.8871 13.2988
# 3 6.2444 10.0299 83.9682 -13.5106 18.3791 3.9013
# 4 1.0891 -4.3933 -13.5106 30.9166 2.3428 -1.6860
# 5 13.8488 14.8871 18.3791 2.3428 37.7865 6.5461
# 6 6.0271 13.2988 3.9013 -1.6860 6.5461 31.2402
#
#
#
# Elastic Compliance Matrix: (Units=1/GPa)
#
#
# Indices 1 2 3 4 5 6 
#
# 1 0.014606 -0.002625 0.000088 -0.000580 -0.004175 -0.000868
# 2 -0.002625 0.010927 -0.000070 0.001639 -0.002811 -0.003459
# 3 0.000088 -0.000070 0.014696 0.006994 -0.007612 0.000150
# 4 -0.000580 0.001639 0.006994 0.036240 -0.006400 0.001838
# 5 -0.004175 -0.002811 -0.007612 -0.006400 0.033984 -0.004513
# 6 -0.000868 -0.003459 0.000150 0.001838 -0.004513 0.034676
#
#
# Mechanical properties :
#
#
# Convention : Reuss Voigt Hill
#
# Bulk Modulus (GPa) = 28.55920 38.59198 33.57559
# Shear Modulus (GPa) = 30.86164 35.11653 32.98908
#
# Velocity S-wave (km/s) = 3.61602 3.85724 3.73858
# Velocity P-wave (km/s) = 5.43454 6.01570 5.73249
#
# Compressibility (1/GPa) = 0.03501498
#
# Stress axis : x y z
#
# Youngs Moduli (GPa) = 68.46733 91.51267 68.04753
#
# Poissons Ratio (x) = 0.24021 -0.00601
# Poissons Ratio (y) = 0.17972 0.00478
# Poissons Ratio (z) = -0.00605 0.00643
#
# Static dielectric constant tensor:
#      x y z
#    x 1.928250 0.026760 -0.011680 
#    y 0.026760 2.037900 0.085130 
#    z -0.011680 0.085130 2.120470 
# 
# From -- ./inp_files/53275.got.cif
#   From: 2010.05.17/outbox.cif.g08.bks.cpg/sg2_27_cif.got.tgz:53275.got - 2010.06.03 11:33:40.
