data_PCOD9094240
_publ_section_title
;
Structure prediction by ZEFSAII (Michael W. Deem and Ramdas Pophale) SiO2 
 PCOD9094240
Probable space group: P -1
;
_chemical_formula_sum "Si O2"
_cell_formula_units_Z 16
_cell_length_a 9.399565
_cell_length_b 17.827039
_cell_length_c 7.472598
_cell_angle_alpha 100.881162
_cell_angle_beta 100.254246
_cell_angle_gamma 139.770957
_cell_volume 684.092780
_symmetry_space_group_name_H-M "P -1"
_symmetry_group_IT_number 2
_symmetry_cell_setting 'triclinic'
loop_
_space_group_symop_operation_xyz
x,y,z
-x,-y,-z
loop_
_atom_site_type_symbol
_atom_site_label
_atom_site_fract_x
_atom_site_fract_y
_atom_site_fract_z
Si Si1 0.508606 0.345539 0.883653
Si Si2 0.620357 0.269080 0.633664
Si Si3 0.131302 0.374981 0.105733
Si Si4 0.585780 0.461829 0.309076
Si Si5 0.895604 0.950472 0.751826
Si Si6 0.923926 0.520711 0.655279
Si Si7 0.042486 0.896144 0.471576
Si Si8 0.912574 0.244031 0.636377
O O1 0.521350 0.261576 0.794956
O O2 0.717251 0.493036 0.910845
O O3 0.247340 0.257938 0.693669
O O4 0.512849 0.366621 0.101688
O O5 0.408138 0.197851 0.405215
O O6 0.870137 0.430728 0.742261
O O7 0.705246 0.220728 0.597397
O O8 0.342475 0.410778 0.253353
O O9 0.943564 0.345850 0.173187
O O10 0.995089 0.268051 0.872164
O O11 0.670924 0.454906 0.501300
O O12 0.842368 0.616708 0.359978
O O13 0.042053 0.949119 0.669736
O O14 0.910401 0.032151 0.662948
O O15 0.000000 0.000000 0.000000
O O16 0.000000 0.500000 0.500000
O O17 0.190566 0.881286 0.515805
#
# Coordination Sequence:
#
# PCOD9094240 Si02
#       8
#     2   2   2   2   2   2   2   2
#     4   9  18  34  59  84 113 158 193 231 289 353
#     4  10  23  38  56  85 120 156 195 245 296 350
#     4  10  20  34  55  87 119 158 197 231 288 357
#     4  11  19  34  57  87 122 154 199 230 286 358
#     4  10  24  44  65  88 112 151 208 252 304 360
#     4  11  23  35  51  87 129 161 189 238 293 351
#     4  10  20  42  66  87 114 155 199 253 301 348
#     4  11  20  37  60  86 120 152 198 240 293 360
#
# _framework density 23.388638
#
# number of rings (size 3 to 8) (size 9 to 14) (size 15 to 20)
#    0.000    1.750    3.750    1.125    3.500    2.000 
#    2.250    0.625    0.000    0.000    0.000    0.000 
#    0.000    0.000    0.000    0.000    0.000    0.000 
#
# Total GULP energy -89106.940177 kJ/mol
# GULP energy per Si atom -5569.183761 kJ/mol
# Density = 2.333540 g / cm^3
# Si number density = 23.388638 Si / 1000 Ang^3
#
#
#
# Elastic Constant Matrix: (Units=GPa)
#
#
# Indices 1 2 3 4 5 6 
#
# 1 182.1640 23.7841 37.1614 -4.5637 -28.9453 -33.3910
# 2 23.7841 39.2506 14.5697 -0.0132 -11.3772 -15.9914
# 3 37.1614 14.5697 102.3794 -16.1180 -17.8991 -10.7203
# 4 -4.5637 -0.0132 -16.1180 20.0603 -3.6052 0.0145
# 5 -28.9453 -11.3772 -17.8991 -3.6052 46.0729 0.4016
# 6 -33.3910 -15.9914 -10.7203 0.0145 0.4016 27.1009
#
#
#
# Elastic Compliance Matrix: (Units=1/GPa)
#
#
# Indices 1 2 3 4 5 6 
#
# 1 0.008329 0.001049 -0.000813 0.002179 0.005255 0.010480
# 2 0.001049 0.037240 -0.001658 0.000542 0.009057 0.022476
# 3 -0.000813 -0.001658 0.013334 0.011446 0.005127 0.003212
# 4 0.002179 0.000542 0.011446 0.061459 0.010695 0.007341
# 5 0.005255 0.009057 0.005127 0.010695 0.029955 0.013397
# 6 0.010480 0.022476 0.003212 0.007341 0.013397 0.064142
#
#
# Mechanical properties :
#
#
# Convention : Reuss Voigt Hill
#
# Bulk Modulus (GPa) = 17.83891 52.75826 35.29858
# Shear Modulus (GPa) = 21.18734 35.19873 28.19304
#
# Velocity S-wave (km/s) = 3.01305 3.88358 3.47568
# Velocity P-wave (km/s) = 4.44391 6.53573 5.58857
#
# Compressibility (1/GPa) = 0.05605723
#
# Stress axis : x y z
#
# Youngs Moduli (GPa) = 120.05904 26.85296 74.99898
#
# Poissons Ratio (x) = -0.02816 0.06100
# Poissons Ratio (y) = -0.12590 0.12434
# Poissons Ratio (z) = 0.09766 0.04452
#
# Static dielectric constant tensor:
#      x y z
#    x 1.992520 0.066700 -0.054790 
#    y 0.066700 2.004440 0.003610 
#    z -0.054790 0.003610 1.979730 
# 
# From -- ./inp_files/169761.got.cif
#   From: 2010.05.17/outbox.cif.g08.bks.cpg/sg2_85_cif.got.tgz:169761.got - 2010.06.03 11:33:40.
