data_PCOD9094892
_publ_section_title
;
Structure prediction by ZEFSAII (Michael W. Deem and Ramdas Pophale) SiO2 
 PCOD9094892
Probable space group: P -1
;
_chemical_formula_sum "Si O2"
_cell_formula_units_Z 16
_cell_length_a 12.042330
_cell_length_b 8.284102
_cell_length_c 11.732760
_cell_angle_alpha 53.195153
_cell_angle_beta 123.853180
_cell_angle_gamma 118.781911
_cell_volume 758.829795
_symmetry_space_group_name_H-M "P -1"
_symmetry_group_IT_number 2
_symmetry_cell_setting 'triclinic'
loop_
_space_group_symop_operation_xyz
x,y,z
-x,-y,-z
loop_
_atom_site_type_symbol
_atom_site_label
_atom_site_fract_x
_atom_site_fract_y
_atom_site_fract_z
Si Si1 0.786079 0.358152 0.015214
Si Si2 0.690244 0.742357 0.031295
Si Si3 0.520789 0.501295 0.718050
Si Si4 0.393717 0.689777 0.781447
Si Si5 0.145337 0.997140 0.190908
Si Si6 0.380990 0.064519 0.480898
Si Si7 0.954271 0.293099 0.927441
Si Si8 0.364340 0.071704 0.848433
O O1 0.657313 0.462729 0.875369
O O2 0.830153 0.310488 0.931354
O O3 0.923701 0.505355 0.079070
O O4 0.735581 0.146818 0.146691
O O5 0.529860 0.728840 0.919109
O O6 0.770700 0.874363 0.920081
O O7 0.711566 0.508303 0.144264
O O8 0.710923 0.845275 0.122985
O O9 0.437332 0.595106 0.727673
O O10 0.570035 0.688584 0.578458
O O11 0.427632 0.278255 0.724238
O O12 0.360150 0.908276 0.640791
O O13 0.092131 0.772341 0.199912
O O14 0.244530 0.016737 0.346198
O O15 0.020858 0.108407 0.092317
O O16 0.500000 0.000000 0.500000
O O17 0.500000 0.000000 0.000000
#
# Coordination Sequence:
#
# PCOD9094892 Si02
#       8
#     2   2   2   2   2   2   2   2
#     4  10  17  32  48  78 106 143 182 215 261 304
#     4  10  16  30  49  79 107 131 174 223 251 322
#     4   9  16  29  49  78 107 133 166 218 262 322
#     4   9  18  28  52  81 109 136 164 215 282 313
#     4  11  19  33  51  81 108 135 184 225 252 307
#     4  10  17  31  52  80 112 139 162 223 280 313
#     4  10  21  30  51  77 105 146 183 221 247 302
#     4   9  18  28  48  75 109 132 169 216 269 310
#
# _framework density 21.085097999999999
#
# number of rings (size 3 to 8) (size 9 to 14) (size 15 to 20)
#    0.000    2.250    5.000    0.000    0.000    0.000 
#    0.000    0.000    0.000   16.500    0.000    8.750 
#    0.000    0.000    0.000    0.000    0.000    0.000 
#
# Total GULP energy -89226.250748 kJ/mol
# GULP energy per Si atom -5576.640672 kJ/mol
# Density = 2.103711 g / cm^3
# Si number density = 21.085098 Si / 1000 Ang^3
#
#
#
# Elastic Constant Matrix: (Units=GPa)
#
#
# Indices 1 2 3 4 5 6 
#
# 1 52.5734 2.6807 11.1882 -6.5978 -4.8836 2.6132
# 2 2.6807 149.0141 43.5120 -39.6908 -9.0438 15.5319
# 3 11.1882 43.5120 87.8850 -33.8339 -10.8706 7.9190
# 4 -6.5978 -39.6908 -33.8339 33.6891 4.9352 -2.8866
# 5 -4.8836 -9.0438 -10.8706 4.9352 19.7460 -2.7972
# 6 2.6132 15.5319 7.9190 -2.8866 -2.7972 27.6845
#
#
#
# Elastic Compliance Matrix: (Units=1/GPa)
#
#
# Indices 1 2 3 4 5 6 
#
# 1 0.020095 0.001347 -0.001232 0.003598 0.003791 -0.001542
# 2 0.001347 0.010440 -0.000243 0.011724 0.001406 -0.004550
# 3 -0.001232 -0.000243 0.019537 0.018050 0.005416 -0.002906
# 4 0.003598 0.011724 0.018050 0.061854 -0.000062 -0.005637
# 5 0.003791 0.001406 0.005416 -0.000062 0.055635 0.002919
# 6 -0.001542 -0.004550 -0.002906 -0.005637 0.002919 0.039358
#
#
# Mechanical properties :
#
#
# Convention : Reuss Voigt Hill
#
# Bulk Modulus (GPa) = 20.07414 44.91491 32.49453
# Shear Modulus (GPa) = 22.34344 31.69671 27.02007
#
# Velocity S-wave (km/s) = 3.25880 3.88142 3.58366
# Velocity P-wave (km/s) = 4.86836 6.43702 5.70684
#
# Compressibility (1/GPa) = 0.04981534
#
# Stress axis : x y z
#
# Youngs Moduli (GPa) = 49.76386 95.78779 51.18616
#
# Poissons Ratio (x) = -0.12907 0.06308
# Poissons Ratio (y) = -0.06706 0.01244
# Poissons Ratio (z) = 0.06133 0.02328
#
# Static dielectric constant tensor:
#      x y z
#    x 1.822420 -0.025110 -0.047300 
#    y -0.025110 1.873480 -0.035540 
#    z -0.047300 -0.035540 1.760350 
# 
# From -- ./inp_files/416385.got.cif
#   From: 2010.05.17/outbox.cif.g08.bks.cpg/sg2_209_cif.got.tgz:416385.got - 2010.06.03 11:33:40.
