data_PCOD9094327
_publ_section_title
;
Structure prediction by ZEFSAII (Michael W. Deem and Ramdas Pophale) SiO2 
 PCOD9094327
Probable space group: P -1
;
_chemical_formula_sum "Si O2"
_cell_formula_units_Z 15
_cell_length_a 11.758236
_cell_length_b 7.328429
_cell_length_c 9.134931
_cell_angle_alpha 86.053339
_cell_angle_beta 130.262512
_cell_angle_gamma 97.636379
_cell_volume 595.190012
_symmetry_space_group_name_H-M "P -1"
_symmetry_group_IT_number 2
_symmetry_cell_setting 'triclinic'
loop_
_space_group_symop_operation_xyz
x,y,z
-x,-y,-z
loop_
_atom_site_type_symbol
_atom_site_label
_atom_site_fract_x
_atom_site_fract_y
_atom_site_fract_z
Si Si1 0.276513 0.063221 0.723530
Si Si2 0.605445 0.628369 0.863162
Si Si3 0.023007 0.689300 0.827790
Si Si4 0.802408 0.237710 0.551553
Si Si5 0.000000 0.500000 0.500000
Si Si6 0.105087 0.117425 0.841927
Si Si7 0.580513 0.275297 0.046783
Si Si8 0.255265 0.537969 0.255117
O O1 0.326291 0.897786 0.876731
O O2 0.238137 0.962161 0.545073
O O3 0.140580 0.140114 0.693906
O O4 0.421359 0.212676 0.835206
O O5 0.639349 0.469409 0.015862
O O6 0.608285 0.532910 0.714945
O O7 0.742370 0.790078 0.966107
O O8 0.466732 0.707147 0.822719
O O9 0.029273 0.614409 0.672796
O O10 0.855725 0.622374 0.750710
O O11 0.057787 0.908013 0.849735
O O12 0.705687 0.307788 0.597297
O O13 0.847126 0.383918 0.452167
O O14 0.967865 0.227549 0.761219
O O15 0.851951 0.387663 0.962014
#
# Coordination Sequence:
#
# PCOD9094327 Si02
#       8
#     2   2   2   2   1   2   2   2
#     4  10  20  38  59  87 116 154 204 258 283 345
#     4  10  20  38  60  85 114 158 205 249 289 350
#     4  10  20  36  55  89 125 161 187 230 300 377
#     4  11  23  36  57  95 126 154 189 241 308 365
#     4  10  20  34  56  84 124 156 188 230 286 360
#     4  11  21  34  63  92 124 149 198 242 299 359
#     4   9  21  39  62  83 108 158 219 248 287 332
#     4  10  22  38  56  84 129 160 189 236 308 360
#
# _framework density 25.202033
#
# number of rings (size 3 to 8) (size 9 to 14) (size 15 to 20)
#    0.000    1.867    1.333    3.600    1.867    2.133 
#    0.000    1.333    0.000    0.000    0.000    0.000 
#    0.000    0.000    0.000    0.000    0.000    0.000 
#
# Total GULP energy -83703.145926 kJ/mol
# GULP energy per Si atom -5580.209728 kJ/mol
# Density = 2.514467 g / cm^3
# Si number density = 25.202033 Si / 1000 Ang^3
#
#
#
# Elastic Constant Matrix: (Units=GPa)
#
#
# Indices 1 2 3 4 5 6 
#
# 1 106.2532 -4.3801 28.8969 1.4341 -35.4206 -13.3780
# 2 -4.3801 87.0467 16.1637 11.5115 2.5615 9.8778
# 3 28.8969 16.1637 128.0895 19.9399 -40.4271 -5.2849
# 4 1.4341 11.5115 19.9399 32.6015 -6.1569 -3.1894
# 5 -35.4206 2.5615 -40.4271 -6.1569 51.5402 6.9362
# 6 -13.3780 9.8778 -5.2849 -3.1894 6.9362 18.0152
#
#
#
# Elastic Compliance Matrix: (Units=1/GPa)
#
#
# Indices 1 2 3 4 5 6 
#
# 1 0.013021 -0.000600 -0.000374 0.002076 0.007965 0.007189
# 2 -0.000600 0.013438 -0.001756 -0.004830 -0.001897 -0.008453
# 3 -0.000374 -0.001756 0.011466 -0.004817 0.008246 0.000021
# 4 0.002076 -0.004830 -0.004817 0.036291 0.001039 0.008801
# 5 0.007965 -0.001897 0.008246 0.001039 0.031931 -0.002736
# 6 0.007189 -0.008453 0.000021 0.008801 -0.002736 0.068100
#
#
# Mechanical properties :
#
#
# Convention : Reuss Voigt Hill
#
# Bulk Modulus (GPa) = 30.80293 44.75004 37.77648
# Shear Modulus (GPa) = 26.24273 39.14532 32.69403
#
# Velocity S-wave (km/s) = 3.23041 3.94542 3.60568
# Velocity P-wave (km/s) = 5.11498 6.20888 5.68828
#
# Compressibility (1/GPa) = 0.03246445
#
# Stress axis : x y z
#
# Youngs Moduli (GPa) = 76.79910 74.41720 87.21182
#
# Poissons Ratio (x) = 0.04465 0.03265
# Poissons Ratio (y) = 0.04608 0.15314
# Poissons Ratio (z) = 0.02875 0.13068
#
# Static dielectric constant tensor:
#      x y z
#    x 2.019470 -0.031490 0.043790 
#    y -0.031490 1.986210 -0.040180 
#    z 0.043790 -0.040180 2.098900 
# 
# From -- ./inp_files/413209.got.cif
#   From: 2010.05.17/outbox.cif.g08.bks.cpg/sg2_207_cif.got.tgz:413209.got - 2010.06.03 11:33:40.
