data_PCOD9094590
_publ_section_title
;
Structure prediction by ZEFSAII (Michael W. Deem and Ramdas Pophale) SiO2 
 PCOD9094590
Probable space group: P -1
;
_chemical_formula_sum "Si O2"
_cell_formula_units_Z 10
_cell_length_a 22.013981
_cell_length_b 8.270856
_cell_length_c 21.603430
_cell_angle_alpha 33.034995
_cell_angle_beta 12.641594
_cell_angle_gamma 30.857308
_cell_volume 441.516874
_symmetry_space_group_name_H-M "P -1"
_symmetry_group_IT_number 2
_symmetry_cell_setting 'triclinic'
loop_
_space_group_symop_operation_xyz
x,y,z
-x,-y,-z
loop_
_atom_site_type_symbol
_atom_site_label
_atom_site_fract_x
_atom_site_fract_y
_atom_site_fract_z
Si Si1 0.439673 0.182598 0.145495
Si Si2 0.215538 0.127020 0.784561
Si Si3 0.931590 0.681034 0.655079
Si Si4 0.105490 0.764813 0.635363
Si Si5 0.496141 0.402718 0.245232
O O1 0.233096 0.265186 0.263713
O O2 0.254508 0.021717 0.424059
O O3 0.500000 0.500000 0.000000
O O4 0.770344 0.932895 0.893229
O O5 0.114013 0.503890 0.762037
O O6 0.500000 0.000000 0.500000
O O7 0.301627 0.942940 0.822531
O O8 0.000000 0.000000 0.000000
O O9 0.253843 0.419748 0.428222
O O10 0.706040 0.589406 0.953214
O O11 0.000000 0.000000 0.500000
O O12 0.303189 0.578779 0.440156
#
# Coordination Sequence:
#
# PCOD9094590 Si02
#       5
#     2   2   2   2   2
#     4  12  26  41  59  87 126 170 203 239 301 369
#     4  10  20  34  58  91 123 152 193 252 309 354
#     4  12  24  36  62  88 126 158 195 258 306 349
#     4  11  22  39  63  88 124 160 202 251 299 359
#     4  11  22  37  61  95 122 150 200 255 312 352
#
# _framework density 22.649190999999998
#
# number of rings (size 3 to 8) (size 9 to 14) (size 15 to 20)
#    0.000    0.800    2.000    8.400    0.000    0.000 
#    0.000    0.000    0.000    7.200    0.000    0.000 
#    0.000    0.000    0.000    0.000    0.000    0.000 
#
# Total GULP energy -55880.773387 kJ/mol
# GULP energy per Si atom -5588.077339 kJ/mol
# Density = 2.259764 g / cm^3
# Si number density = 22.649191 Si / 1000 Ang^3
#
#
#
# Elastic Constant Matrix: (Units=GPa)
#
#
# Indices 1 2 3 4 5 6 
#
# 1 82.7688 83.7364 52.1193 -16.3918 -33.6628 -33.6368
# 2 83.7364 160.7800 68.8238 -20.9645 -26.3334 -53.6187
# 3 52.1193 68.8238 201.5402 -12.9583 -39.1306 -27.5027
# 4 -16.3918 -20.9645 -12.9583 37.1321 -1.5267 -1.1551
# 5 -33.6628 -26.3334 -39.1306 -1.5267 41.7870 -2.4641
# 6 -33.6368 -53.6187 -27.5027 -1.1551 -2.4641 41.8107
#
#
#
# Elastic Compliance Matrix: (Units=1/GPa)
#
#
# Indices 1 2 3 4 5 6 
#
# 1 0.069196 -0.003708 0.006215 0.035113 0.064032 0.059745
# 2 -0.003708 0.018075 0.000323 0.009767 0.010317 0.021287
# 3 0.006215 0.000323 0.007867 0.006586 0.013500 0.011566
# 4 0.035113 0.009767 0.006586 0.053646 0.045474 0.049268
# 5 0.064032 0.010317 0.013500 0.045474 0.101085 0.080839
# 6 0.059745 0.021287 0.011566 0.049268 0.080839 0.113014
#
#
# Mechanical properties :
#
#
# Convention : Reuss Voigt Hill
#
# Bulk Modulus (GPa) = 9.92098 94.93866 52.42982
# Shear Modulus (GPa) = 12.79344 40.17327 26.48335
#
# Velocity S-wave (km/s) = 2.37924 4.21612 3.42319
# Velocity P-wave (km/s) = 3.45507 8.10610 6.23083
#
# Compressibility (1/GPa) = 0.10079650
#
# Stress axis : x y z
#
# Youngs Moduli (GPa) = 14.45163 55.32407 127.10834
#
# Poissons Ratio (x) = 0.20517 -0.78994
# Poissons Ratio (y) = 0.05359 -0.04099
# Poissons Ratio (z) = -0.08981 -0.01784
#
# Static dielectric constant tensor:
#      x y z
#    x 1.922160 -0.019550 0.049190 
#    y -0.019550 1.967200 0.009640 
#    z 0.049190 0.009640 1.827360 
# 
# From -- ./inp_files/425368.got.cif
#   From: 2010.05.17/outbox.cif.g08.bks.cpg/sg2_213_cif.got.tgz:425368.got - 2010.06.03 11:33:40.
