data_PCOD9094889
_publ_section_title
;
Structure prediction by ZEFSAII (Michael W. Deem and Ramdas Pophale) SiO2 
 PCOD9094889
Probable space group: P -1
;
_chemical_formula_sum "Si O2"
_cell_formula_units_Z 16
_cell_length_a 11.988519
_cell_length_b 7.695234
_cell_length_c 10.729009
_cell_angle_alpha 52.366861
_cell_angle_beta 91.492983
_cell_angle_gamma 81.249975
_cell_volume 765.737793
_symmetry_space_group_name_H-M "P -1"
_symmetry_group_IT_number 2
_symmetry_cell_setting 'triclinic'
loop_
_space_group_symop_operation_xyz
x,y,z
-x,-y,-z
loop_
_atom_site_type_symbol
_atom_site_label
_atom_site_fract_x
_atom_site_fract_y
_atom_site_fract_z
Si Si1 0.456483 0.773729 0.088604
Si Si2 0.553956 0.219833 0.635976
Si Si3 0.907834 0.702388 0.347703
Si Si4 0.308006 0.438110 0.480774
Si Si5 0.756084 0.369160 0.874126
Si Si6 0.635246 0.704624 0.934119
Si Si7 0.959988 0.185431 0.137489
Si Si8 0.127148 0.365159 0.911827
O O1 0.475287 0.676156 0.270412
O O2 0.321561 0.816138 0.045801
O O3 0.530192 0.646817 0.034142
O O4 0.500000 0.000000 0.000000
O O5 0.431517 0.267804 0.543668
O O6 0.653848 0.348298 0.544275
O O7 0.600118 0.957474 0.770947
O O8 0.782523 0.675102 0.400948
O O9 0.909140 0.678082 0.209103
O O10 0.000000 0.500000 0.500000
O O11 0.938859 0.941750 0.277821
O O12 0.249654 0.528116 0.308365
O O13 0.686537 0.552168 0.886713
O O14 0.877300 0.274068 0.978957
O O15 0.737802 0.676129 0.048851
O O16 0.926340 0.378787 0.156777
O O17 0.083365 0.199767 0.081561
#
# Coordination Sequence:
#
# PCOD9094889 Si02
#       8
#     2   2   2   2   2   2   2   2
#     4   9  18  32  57  85 115 152 197 252 290 350
#     4   9  20  36  58  82 120 164 190 247 302 359
#     4  12  26  40  66  95 119 164 204 250 314 372
#     4  10  22  39  55  87 126 156 200 242 307 363
#     4  10  21  38  59  87 123 156 201 254 300 361
#     4  10  20  34  63  90 111 160 207 246 303 357
#     4  10  24  43  66  91 123 157 208 263 301 358
#     4  10  23  44  65  93 121 161 207 255 309 357
#
# _framework density 20.894883
#
# number of rings (size 3 to 8) (size 9 to 14) (size 15 to 20)
#    0.000    2.000    0.000    2.250   10.500    1.000 
#    2.250    0.000    0.000    0.000    0.000    0.000 
#    0.000    0.000    0.000    0.000    0.000    0.000 
#
# Total GULP energy -89227.539129 kJ/mol
# GULP energy per Si atom -5576.721196 kJ/mol
# Density = 2.084732 g / cm^3
# Si number density = 20.894883 Si / 1000 Ang^3
#
#
#
# Elastic Constant Matrix: (Units=GPa)
#
#
# Indices 1 2 3 4 5 6 
#
# 1 68.7115 13.8294 6.4345 -5.2486 -25.5422 8.1262
# 2 13.8294 74.3164 24.2711 -11.1353 -13.1304 10.0955
# 3 6.4345 24.2711 44.7202 -19.5104 -10.4677 -1.5657
# 4 -5.2486 -11.1353 -19.5104 24.8264 5.5282 -3.2516
# 5 -25.5422 -13.1304 -10.4677 5.5282 36.9269 -5.0223
# 6 8.1262 10.0955 -1.5657 -3.2516 -5.0223 20.5156
#
#
#
# Elastic Compliance Matrix: (Units=1/GPa)
#
#
# Indices 1 2 3 4 5 6 
#
# 1 0.020103 -0.001085 0.001179 0.001251 0.013132 -0.003926
# 2 -0.001085 0.018406 -0.010558 -0.001893 0.001822 -0.009287
# 3 0.001179 -0.010558 0.042930 0.029628 0.006747 0.014352
# 4 0.001251 -0.001893 0.029628 0.064537 0.000711 0.013100
# 5 0.013132 0.001822 0.006747 0.000711 0.039178 0.004120
# 6 -0.003926 -0.009287 0.014352 0.013100 0.004120 0.059049
#
#
# Mechanical properties :
#
#
# Convention : Reuss Voigt Hill
#
# Bulk Modulus (GPa) = 16.52613 30.75756 23.64184
# Shear Modulus (GPa) = 17.52534 26.00132 21.76333
#
# Velocity S-wave (km/s) = 2.89924 3.53141 3.23083
# Velocity P-wave (km/s) = 4.37422 5.60178 5.02562
#
# Compressibility (1/GPa) = 0.06051025
#
# Stress axis : x y z
#
# Youngs Moduli (GPa) = 49.74335 54.33049 23.29393
#
# Poissons Ratio (x) = 0.05894 -0.02746
# Poissons Ratio (y) = 0.05396 0.24594
# Poissons Ratio (z) = -0.05863 0.57362
#
# Static dielectric constant tensor:
#      x y z
#    x 1.785030 0.005320 -0.020630 
#    y 0.005320 1.803090 0.003790 
#    z -0.020630 0.003790 1.768440 
# 
# From -- ./inp_files/416325.got.cif
#   From: 2010.05.17/outbox.cif.g08.bks.cpg/sg2_209_cif.got.tgz:416325.got - 2010.06.03 11:33:40.
