data_PCOD9094286
_publ_section_title
;
Structure prediction by ZEFSAII (Michael W. Deem and Ramdas Pophale) SiO2 
 PCOD9094286
Probable space group: P -1
;
_chemical_formula_sum "Si O2"
_cell_formula_units_Z 16
_cell_length_a 15.210568
_cell_length_b 9.829162
_cell_length_c 16.076746
_cell_angle_alpha 148.816388
_cell_angle_beta 143.423689
_cell_angle_gamma 52.847312
_cell_volume 714.212522
_symmetry_space_group_name_H-M "P -1"
_symmetry_group_IT_number 2
_symmetry_cell_setting 'triclinic'
loop_
_space_group_symop_operation_xyz
x,y,z
-x,-y,-z
loop_
_atom_site_type_symbol
_atom_site_label
_atom_site_fract_x
_atom_site_fract_y
_atom_site_fract_z
Si Si1 0.911157 0.776516 0.438915
Si Si2 0.858738 0.890817 0.770157
Si Si3 0.259843 0.529344 0.422924
Si Si4 0.364245 0.985741 0.624509
Si Si5 0.174679 0.490031 0.111918
Si Si6 0.062970 0.388334 0.807699
Si Si7 0.307078 0.959626 0.139671
Si Si8 0.927033 0.105129 0.211646
O O1 0.746256 0.817378 0.358147
O O2 0.005181 0.075529 0.631856
O O3 0.004108 0.729242 0.566319
O O4 0.897100 0.600017 0.252659
O O5 0.778259 0.572185 0.564172
O O6 0.744572 0.048265 0.806932
O O7 0.927508 0.925491 0.749182
O O8 0.000000 0.000000 0.000000
O O9 0.353412 0.829897 0.624477
O O10 0.327774 0.288938 0.314022
O O11 0.089469 0.505485 0.245101
O O12 0.290989 0.732562 0.374811
O O13 0.537007 0.114307 0.796889
O O14 0.191212 0.516739 0.039349
O O15 0.170827 0.188479 0.981683
O O16 0.000000 0.500000 0.000000
O O17 0.182333 0.817393 0.900777
#
# Coordination Sequence:
#
# PCOD9094286 Si02
#       8
#     2   2   2   2   2   2   2   2
#     4   9  19  29  49  65  98 121 158 190 230 278
#     4   8  16  26  44  70  96 119 152 194 229 271
#     4   9  16  27  48  67  97 116 156 186 236 267
#     4  11  17  28  48  78  95 121 147 196 246 271
#     4  11  16  27  51  75  90 117 159 198 229 271
#     4   9  17  31  46  71  90 124 157 197 226 264
#     4   9  18  27  47  74 100 117 148 198 241 272
#     4  10  16  30  47  69  94 125 156 191 225 282
#
# _framework density 22.402294999999999
#
# number of rings (size 3 to 8) (size 9 to 14) (size 15 to 20)
#    0.750    1.750    5.000    0.375    0.000    0.000 
#    0.000    1.250    2.750    3.000    0.000    4.375 
#    0.000    0.000    0.000    0.000    0.000    0.000 
#
# Total GULP energy -89099.762999 kJ/mol
# GULP energy per Si atom -5568.735187 kJ/mol
# Density = 2.235131 g / cm^3
# Si number density = 22.402295 Si / 1000 Ang^3
#
#
#
# Elastic Constant Matrix: (Units=GPa)
#
#
# Indices 1 2 3 4 5 6 
#
# 1 123.3055 23.9782 49.0316 -27.7425 -12.3428 7.0972
# 2 23.9782 47.6920 11.7224 -11.6698 -2.0027 20.0417
# 3 49.0316 11.7224 74.0783 -10.9567 -13.8456 -2.5687
# 4 -27.7425 -11.6698 -10.9567 22.7731 4.7415 -0.9511
# 5 -12.3428 -2.0027 -13.8456 4.7415 26.6056 -6.6163
# 6 7.0972 20.0417 -2.5687 -0.9511 -6.6163 35.4436
#
#
#
# Elastic Compliance Matrix: (Units=1/GPa)
#
#
# Indices 1 2 3 4 5 6 
#
# 1 0.014450 -0.001085 -0.007564 0.013370 -0.000326 -0.002530
# 2 -0.001085 0.034867 -0.004853 0.015064 -0.008310 -0.020997
# 3 -0.007564 -0.004853 0.020791 -0.003342 0.009389 0.007428
# 4 0.013370 0.015064 -0.003342 0.067774 -0.009305 -0.011356
# 5 -0.000326 -0.008310 0.009389 -0.009305 0.046819 0.013935
# 6 -0.002530 -0.020997 0.007428 -0.011356 0.013935 0.043428
#
#
# Mechanical properties :
#
#
# Convention : Reuss Voigt Hill
#
# Bulk Modulus (GPa) = 23.19869 46.06001 34.62935
# Shear Modulus (GPa) = 18.55298 27.65403 23.10351
#
# Velocity S-wave (km/s) = 2.88092 3.51726 3.21487
# Velocity P-wave (km/s) = 4.63079 6.09096 5.41036
#
# Compressibility (1/GPa) = 0.04310588
#
# Stress axis : x y z
#
# Youngs Moduli (GPa) = 69.20620 28.68071 48.09673
#
# Poissons Ratio (x) = 0.03111 0.36378
# Poissons Ratio (y) = 0.07506 0.23340
# Poissons Ratio (z) = 0.52345 0.13918
#
# Static dielectric constant tensor:
#      x y z
#    x 1.899310 0.055680 0.002800 
#    y 0.055680 1.930170 0.065780 
#    z 0.002800 0.065780 1.842690 
# 
# From -- ./inp_files/531335.got.cif
#   From: 2010.05.17/outbox.cif.g08.bks.cpg/sg2_266_cif.got.tgz:531335.got - 2010.06.03 11:33:40.
