data_PCOD9094322
_publ_section_title
;
Structure prediction by ZEFSAII (Michael W. Deem and Ramdas Pophale) SiO2 
 PCOD9094322
Probable space group: P -1
;
_chemical_formula_sum "Si O2"
_cell_formula_units_Z 16
_cell_length_a 13.462955
_cell_length_b 8.604905
_cell_length_c 13.962096
_cell_angle_alpha 70.004881
_cell_angle_beta 48.864905
_cell_angle_gamma 40.333634
_cell_volume 745.062930
_symmetry_space_group_name_H-M "P -1"
_symmetry_group_IT_number 2
_symmetry_cell_setting 'triclinic'
loop_
_space_group_symop_operation_xyz
x,y,z
-x,-y,-z
loop_
_atom_site_type_symbol
_atom_site_label
_atom_site_fract_x
_atom_site_fract_y
_atom_site_fract_z
Si Si1 0.252934 0.818226 0.938337
Si Si2 0.894225 0.421662 0.069481
Si Si3 0.270905 0.573413 0.452589
Si Si4 0.681634 0.325075 0.296543
Si Si5 0.368008 0.325098 0.254152
Si Si6 0.918211 0.190917 0.781636
Si Si7 0.495905 0.090860 0.881365
Si Si8 0.153851 0.982832 0.297720
O O1 0.287028 0.738682 0.823705
O O2 0.460700 0.699326 0.869234
O O3 0.181639 0.735625 0.067040
O O4 0.077452 0.123477 0.990926
O O5 0.761167 0.440395 0.228827
O O6 0.723256 0.625337 0.057805
O O7 0.000000 0.500000 0.000000
O O8 0.450711 0.481789 0.422183
O O9 0.338318 0.364463 0.379889
O O10 0.066533 0.728228 0.606222
O O11 0.198554 0.787189 0.381268
O O12 0.840856 0.058520 0.308030
O O13 0.165424 0.575411 0.274186
O O14 0.449713 0.081824 0.205206
O O15 0.845718 0.096393 0.790555
O O16 0.667782 0.063640 0.784473
O O17 0.500000 0.000000 0.000000
#
# Coordination Sequence:
#
# PCOD9094322 Si02
#       8
#     2   2   2   2   2   2   2   2
#     4  10  20  36  57  82 113 154 189 232 280 340
#     4  11  21  36  52  84 119 150 184 225 287 344
#     4   9  20  41  63  79 107 153 206 236 272 329
#     4  10  21  36  61  84 111 155 189 236 283 330
#     4  10  21  36  55  84 115 151 188 231 285 341
#     4  10  20  34  56  84 115 146 191 239 279 331
#     4  12  25  35  57  89 122 152 177 234 300 342
#     4  10  21  39  60  84 112 149 197 242 276 336
#
# _framework density 21.474696999999999
#
# number of rings (size 3 to 8) (size 9 to 14) (size 15 to 20)
#    0.000    1.750    2.500    2.625    5.250    1.000 
#    0.000    0.000    0.000    0.750    0.000    0.000 
#    0.000    0.000    0.000    0.000    0.000    0.000 
#
# Total GULP energy -89266.464749 kJ/mol
# GULP energy per Si atom -5579.154047 kJ/mol
# Density = 2.142582 g / cm^3
# Si number density = 21.474697 Si / 1000 Ang^3
#
#
#
# Elastic Constant Matrix: (Units=GPa)
#
#
# Indices 1 2 3 4 5 6 
#
# 1 110.8464 26.5189 29.5927 18.3689 -9.8183 -2.8302
# 2 26.5189 84.0287 8.2548 15.9316 -1.9424 -23.8175
# 3 29.5927 8.2548 50.0659 22.0492 -8.1734 -2.9619
# 4 18.3689 15.9316 22.0492 26.2319 -3.0811 -6.3067
# 5 -9.8183 -1.9424 -8.1734 -3.0811 24.5967 17.8286
# 6 -2.8302 -23.8175 -2.9619 -6.3067 17.8286 41.1926
#
#
#
# Elastic Compliance Matrix: (Units=1/GPa)
#
#
# Indices 1 2 3 4 5 6 
#
# 1 0.012098 -0.004160 -0.004624 -0.002526 0.006281 -0.005012
# 2 -0.004160 0.018111 0.001951 -0.007666 -0.010457 0.013678
# 3 -0.004624 0.001951 0.036473 -0.028688 0.010972 -0.005708
# 4 -0.002526 -0.007666 -0.028688 0.069511 -0.007751 0.007328
# 5 0.006281 -0.010457 0.010972 -0.007751 0.071938 -0.037148
# 6 -0.005012 0.013678 -0.005708 0.007328 -0.037148 0.048630
#
#
# Mechanical properties :
#
#
# Convention : Reuss Voigt Hill
#
# Bulk Modulus (GPa) = 18.86243 41.51931 30.19087
# Shear Modulus (GPa) = 17.35518 30.44257 23.89888
#
# Velocity S-wave (km/s) = 2.84592 3.76919 3.33961
# Velocity P-wave (km/s) = 4.42737 6.19019 5.38145
#
# Compressibility (1/GPa) = 0.05301544
#
# Stress axis : x y z
#
# Youngs Moduli (GPa) = 82.65750 55.21595 27.41775
#
# Poissons Ratio (x) = 0.22972 0.12677
# Poissons Ratio (y) = 0.34388 -0.05350
# Poissons Ratio (z) = 0.38219 -0.10773
#
# Static dielectric constant tensor:
#      x y z
#    x 1.793230 -0.002820 0.023480 
#    y -0.002820 1.775320 0.031640 
#    z 0.023480 0.031640 1.821500 
# 
# From -- ./inp_files/220288.got.cif
#   From: 2010.05.17/outbox.cif.g08.bks.cpg/sg2_111_cif.got.tgz:220288.got - 2010.06.03 11:33:40.
