data_PCOD9094282
_publ_section_title
;
Structure prediction by ZEFSAII (Michael W. Deem and Ramdas Pophale) SiO2 
 PCOD9094282
Probable space group: P -1
;
_chemical_formula_sum "Si O2"
_cell_formula_units_Z 16
_cell_length_a 8.013340
_cell_length_b 10.623362
_cell_length_c 11.222103
_cell_angle_alpha 92.150491
_cell_angle_beta 89.153867
_cell_angle_gamma 132.335910
_cell_volume 705.614080
_symmetry_space_group_name_H-M "P -1"
_symmetry_group_IT_number 2
_symmetry_cell_setting 'triclinic'
loop_
_space_group_symop_operation_xyz
x,y,z
-x,-y,-z
loop_
_atom_site_type_symbol
_atom_site_label
_atom_site_fract_x
_atom_site_fract_y
_atom_site_fract_z
Si Si1 0.527182 0.649731 0.340181
Si Si2 0.792180 0.275788 0.337146
Si Si3 0.167618 0.477832 0.157144
Si Si4 0.230040 0.985223 0.555825
Si Si5 0.579231 0.893957 0.867111
Si Si6 0.813497 0.267527 0.956231
Si Si7 0.778926 0.859204 0.669458
Si Si8 0.692013 0.493503 0.416429
O O1 0.415788 0.575414 0.209216
O O2 0.601818 0.831387 0.372053
O O3 0.728474 0.651577 0.368076
O O4 0.346803 0.528608 0.442844
O O5 0.578216 0.158815 0.247129
O O6 0.831492 0.440230 0.381205
O O7 0.998898 0.343128 0.254325
O O8 0.743701 0.150822 0.436076
O O9 0.149487 0.620014 0.149490
O O10 0.046044 0.372968 0.032237
O O11 0.228400 0.028759 0.420954
O O12 0.996784 0.897642 0.622823
O O13 0.758493 0.886947 0.809162
O O14 0.715821 0.084022 0.915581
O O15 0.388037 0.768059 0.964393
O O16 0.553669 0.665965 0.640263
#
# Coordination Sequence:
#
# PCOD9094282 Si02
#       8
#     2   2   2   2   2   2   2   2
#     4  10  20  35  55  81 117 152 180 227 284 337
#     4  10  20  34  57  83 111 147 185 230 280 336
#     4  10  20  34  56  79 112 150 185 231 283 325
#     4  10  20  34  56  87 115 145 186 222 277 351
#     4   9  18  35  59  79 108 146 187 237 283 320
#     4   9  19  35  56  84 110 146 196 241 276 321
#     4   9  19  35  57  81 113 148 181 231 284 333
#     4   9  20  36  54  82 116 148 184 223 281 348
#
# _framework density 22.675286
#
# number of rings (size 3 to 8) (size 9 to 14) (size 15 to 20)
#    0.000    2.500    0.000    1.500    0.000    8.000 
#    0.000    0.000    0.000   52.500    0.000    0.000 
#    0.000    0.000    0.000    0.000    0.000    0.000 
#
# Total GULP energy -89147.076554 kJ/mol
# GULP energy per Si atom -5571.692285 kJ/mol
# Density = 2.262368 g / cm^3
# Si number density = 22.675286 Si / 1000 Ang^3
#
#
#
# Elastic Constant Matrix: (Units=GPa)
#
#
# Indices 1 2 3 4 5 6 
#
# 1 34.2768 9.9932 18.3860 1.2512 0.0222 -6.8734
# 2 9.9932 87.8342 28.3362 1.3590 7.8674 -4.6019
# 3 18.3860 28.3362 62.1158 -1.5812 7.3858 -7.6230
# 4 1.2512 1.3590 -1.5812 32.4622 1.5008 8.5909
# 5 0.0222 7.8674 7.3858 1.5008 37.7468 -5.4135
# 6 -6.8734 -4.6019 -7.6230 8.5909 -5.4135 29.9228
#
#
#
# Elastic Compliance Matrix: (Units=1/GPa)
#
#
# Indices 1 2 3 4 5 6 
#
# 1 0.036400 -0.000757 -0.010012 -0.003981 0.003320 0.007438
# 2 -0.000757 0.013492 -0.005713 -0.000845 -0.001603 0.000398
# 3 -0.010012 -0.005713 0.022249 0.001441 -0.002994 0.001534
# 4 -0.003981 -0.000845 0.001441 0.034122 -0.003041 -0.011024
# 5 0.003320 -0.001603 -0.002994 -0.003041 0.028357 0.005757
# 6 0.007438 0.000398 0.001534 -0.011024 0.005757 0.039786
#
#
# Mechanical properties :
#
#
# Convention : Reuss Voigt Hill
#
# Bulk Modulus (GPa) = 25.52511 33.07308 29.29909
# Shear Modulus (GPa) = 22.68293 28.52712 25.60503
#
# Velocity S-wave (km/s) = 3.16624 3.55078 3.36401
# Velocity P-wave (km/s) = 4.96468 5.60606 5.29509
#
# Compressibility (1/GPa) = 0.03917711
#
# Stress axis : x y z
#
# Youngs Moduli (GPa) = 27.47237 74.11957 44.94487
#
# Poissons Ratio (x) = 0.05614 0.45000
# Poissons Ratio (y) = 0.02081 0.25675
# Poissons Ratio (z) = 0.27506 0.42341
#
# Static dielectric constant tensor:
#      x y z
#    x 1.998210 -0.006220 0.002760 
#    y -0.006220 1.864580 0.013820 
#    z 0.002760 0.013820 1.816220 
# 
# From -- ./inp_files/390046.got.cif
#   From: 2010.05.17/outbox.cif.g08.bks.cpg/sg2_196_cif.got.tgz:390046.got - 2010.06.03 11:33:40.
