data_PCOD9094777
_publ_section_title
;
Structure prediction by ZEFSAII (Michael W. Deem and Ramdas Pophale) SiO2 
 PCOD9094777
Probable space group: P -1
;
_chemical_formula_sum "Si O2"
_cell_formula_units_Z 13
_cell_length_a 18.085583
_cell_length_b 5.191436
_cell_length_c 11.779817
_cell_angle_alpha 104.478194
_cell_angle_beta 151.656575
_cell_angle_gamma 86.099588
_cell_volume 479.802781
_symmetry_space_group_name_H-M "P -1"
_symmetry_group_IT_number 2
_symmetry_cell_setting 'triclinic'
loop_
_space_group_symop_operation_xyz
x,y,z
-x,-y,-z
loop_
_atom_site_type_symbol
_atom_site_label
_atom_site_fract_x
_atom_site_fract_y
_atom_site_fract_z
Si Si1 0.168792 0.741796 0.472492
Si Si2 0.500000 0.500000 0.500000
Si Si3 0.984919 0.781308 0.657251
Si Si4 0.480755 0.613870 0.863329
Si Si5 0.416138 0.120239 0.562426
Si Si6 0.705549 0.907388 0.005948
Si Si7 0.923226 0.227879 0.973844
O O1 0.361273 0.800759 0.721986
O O2 0.123582 0.019300 0.451982
O O3 0.120503 0.543090 0.497788
O O4 0.054085 0.544311 0.195982
O O5 0.434561 0.248087 0.476705
O O6 0.655817 0.658697 0.817716
O O7 0.107946 0.891710 0.732032
O O8 0.099413 0.840870 0.930291
O O9 0.379744 0.342658 0.621456
O O10 0.645162 0.763482 0.029799
O O11 0.500000 0.500000 0.000000
O O12 0.579538 0.072226 0.822576
O O13 0.263547 0.828175 0.326207
O O14 0.000000 0.000000 0.000000
#
# Coordination Sequence:
#
# PCOD9094777 Si02
#       7
#     2   1   2   2   2   2   2
#     4  10  24  44  67  98 141 176 229 280 357 411
#     4  10  20  34  60  98 138 164 216 270 352 402
#     4  10  24  42  67 102 140 178 218 284 349 426
#     4  11  27  47  68  95 134 187 241 290 337 407
#     4  11  22  40  65 103 135 180 221 283 344 416
#     4  11  25  38  70 100 139 180 230 284 345 416
#     4  10  21  36  62  99 141 174 217 273 354 417
#
# _framework density 27.094466000000001
#
# number of rings (size 3 to 8) (size 9 to 14) (size 15 to 20)
#    0.923    0.615    3.077    0.462   10.769    1.231 
#    0.000    1.538    0.000    0.000    0.000    0.000 
#    0.000    0.000    0.000    0.000    0.000    0.000 
#
# Total GULP energy -72593.498697 kJ/mol
# GULP energy per Si atom -5584.115284 kJ/mol
# Density = 2.703280 g / cm^3
# Si number density = 27.094466 Si / 1000 Ang^3
#
#
#
# Elastic Constant Matrix: (Units=GPa)
#
#
# Indices 1 2 3 4 5 6 
#
# 1 126.5039 34.8268 12.8711 2.7026 -12.5584 38.1035
# 2 34.8268 89.3875 6.3060 -3.4243 -4.3828 23.6992
# 3 12.8711 6.3060 55.4023 -4.1199 -6.1362 -2.5460
# 4 2.7026 -3.4243 -4.1199 42.6550 6.9522 6.8390
# 5 -12.5584 -4.3828 -6.1362 6.9522 40.8568 1.5062
# 6 38.1035 23.6992 -2.5460 6.8390 1.5062 58.0351
#
#
#
# Elastic Compliance Matrix: (Units=1/GPa)
#
#
# Indices 1 2 3 4 5 6 
#
# 1 0.011027 -0.002304 -0.002291 -0.000588 0.003135 -0.006412
# 2 -0.002304 0.013356 -0.001002 0.001724 0.000436 -0.004200
# 3 -0.002291 -0.001002 0.019098 0.001212 0.001756 0.002563
# 4 -0.000588 0.001724 0.001212 0.024874 -0.003932 -0.003094
# 5 0.003135 0.000436 0.001756 -0.003932 0.026507 -0.002384
# 6 -0.006412 -0.004200 0.002563 -0.003094 -0.002384 0.023695
#
#
# Mechanical properties :
#
#
# Convention : Reuss Voigt Hill
#
# Bulk Modulus (GPa) = 30.96942 42.14459 36.55700
# Shear Modulus (GPa) = 35.58402 42.79537 39.18969
#
# Velocity S-wave (km/s) = 3.62792 3.97859 3.80730
# Velocity P-wave (km/s) = 5.38554 6.05756 5.73141
#
# Compressibility (1/GPa) = 0.03228992
#
# Stress axis : x y z
#
# Youngs Moduli (GPa) = 90.68488 74.87039 52.36041
#
# Poissons Ratio (x) = 0.17247 0.11995
# Poissons Ratio (y) = 0.20890 0.05245
# Poissons Ratio (z) = 0.20774 0.07499
#
# Static dielectric constant tensor:
#      x y z
#    x 2.239450 -0.043090 -0.033160 
#    y -0.043090 2.149860 0.064930 
#    z -0.033160 0.064930 2.099580 
# 
# From -- ./inp_files/458868.got.cif
#   From: 2010.05.17/outbox.cif.g08.bks.cpg/sg2_230_cif.got.tgz:458868.got - 2010.06.03 11:33:40.
