data_PCOD9094254
_publ_section_title
;
Structure prediction by ZEFSAII (Michael W. Deem and Ramdas Pophale) SiO2 
 PCOD9094254
Probable space group: P -1
;
_chemical_formula_sum "Si O2"
_cell_formula_units_Z 16
_cell_length_a 7.750439
_cell_length_b 16.177111
_cell_length_c 7.280124
_cell_angle_alpha 86.948385
_cell_angle_beta 127.511567
_cell_angle_gamma 120.958351
_cell_volume 573.752149
_symmetry_space_group_name_H-M "P -1"
_symmetry_group_IT_number 2
_symmetry_cell_setting 'triclinic'
loop_
_space_group_symop_operation_xyz
x,y,z
-x,-y,-z
loop_
_atom_site_type_symbol
_atom_site_label
_atom_site_fract_x
_atom_site_fract_y
_atom_site_fract_z
Si Si1 0.994931 0.247065 0.071305
Si Si2 0.999989 0.678141 0.349846
Si Si3 0.610597 0.793684 0.747696
Si Si4 0.484783 0.949214 0.688991
Si Si5 0.193472 0.457169 0.282926
Si Si6 0.249732 0.220210 0.769903
Si Si7 0.600580 0.926199 0.185813
Si Si8 0.760078 0.467422 0.111050
O O1 0.246148 0.243327 0.278061
O O2 0.011763 0.332618 0.194111
O O3 0.710987 0.135958 0.933413
O O4 0.003053 0.287942 0.866330
O O5 0.769454 0.553935 0.226615
O O6 0.288308 0.702560 0.577483
O O7 0.969050 0.758355 0.426644
O O8 0.581348 0.881982 0.666800
O O9 0.792692 0.823785 0.045160
O O10 0.599737 0.946761 0.966816
O O11 0.500000 0.000000 0.500000
O O12 0.259044 0.965392 0.629649
O O13 0.500000 0.500000 0.500000
O O14 0.050323 0.488017 0.320752
O O15 0.205664 0.494675 0.080838
O O16 0.326059 0.153239 0.721975
O O17 0.512678 0.344303 0.959085
#
# Coordination Sequence:
#
# PCOD9094254 Si02
#       8
#     2   2   2   2   2   2   2   2
#     4  10  20  39  62  89 129 170 211 262 323 384
#     4  10  21  37  61  90 131 173 213 265 319 380
#     4  10  22  39  61  91 125 167 214 266 328 389
#     4  10  22  43  67  97 128 164 220 272 334 404
#     4  10  20  34  55  88 128 169 214 264 310 373
#     4  10  21  39  59  91 129 168 219 266 325 383
#     4  10  21  42  69  92 132 173 207 279 336 380
#     4  10  20  35  56  88 126 172 218 261 318 379
#
# _framework density 27.886607999999999
#
# number of rings (size 3 to 8) (size 9 to 14) (size 15 to 20)
#    0.000    2.000    1.250    1.875    0.000    2.000 
#    2.250    3.750    0.000    0.000    0.000    0.000 
#    0.000    0.000    0.000    0.000    0.000    0.000 
#
# Total GULP energy -89073.036849 kJ/mol
# GULP energy per Si atom -5567.064803 kJ/mol
# Density = 2.782314 g / cm^3
# Si number density = 27.886608 Si / 1000 Ang^3
#
#
#
# Elastic Constant Matrix: (Units=GPa)
#
#
# Indices 1 2 3 4 5 6 
#
# 1 103.4560 63.6212 22.9707 3.3090 17.7662 -45.5640
# 2 63.6212 129.4489 48.2969 -40.8602 -18.9146 -27.9419
# 3 22.9707 48.2969 66.7311 -10.3065 10.4270 -11.6095
# 4 3.3090 -40.8602 -10.3065 22.7501 2.9166 0.5420
# 5 17.7662 -18.9146 10.4270 2.9166 53.9176 -6.5366
# 6 -45.5640 -27.9419 -11.6095 0.5420 -6.5366 61.2838
#
#
#
# Elastic Compliance Matrix: (Units=1/GPa)
#
#
# Indices 1 2 3 4 5 6 
#
# 1 -0.042508 0.078481 -0.028158 0.129175 0.040238 0.001993
# 2 0.078481 -0.105449 0.032837 -0.178766 -0.058093 0.011876
# 3 -0.028158 0.032837 0.007927 0.064778 0.015349 -0.003397
# 4 0.129175 -0.178766 0.064778 -0.253931 -0.101862 0.018186
# 5 0.040238 -0.058093 0.015349 -0.101862 -0.011825 0.005977
# 6 0.001993 0.011876 -0.003397 0.018186 0.005977 0.023048
#
#
# Mechanical properties :
#
#
# Convention : Reuss Voigt Hill
#
# Bulk Modulus (GPa) = 38.03648 63.26816 50.65232
# Shear Modulus (GPa) = -9.25420 38.57346 14.65963
#
# Velocity S-wave (km/s) = -1.82365 3.72321 2.29527
# Velocity P-wave (km/s) = 3.03892 6.42028 5.02270
#
# Compressibility (1/GPa) = 0.02629055
#
# Stress axis : x y z
#
# Youngs Moduli (GPa) = -23.52496 -9.48322 126.14332
#
# Poissons Ratio (x) = 0.74425 3.55190
# Poissons Ratio (y) = 1.84625 -4.14222
# Poissons Ratio (z) = -0.66241 0.31140
#
# Static dielectric constant tensor:
#      x y z
#    x 2.243500 0.115920 0.146820 
#    y 0.115920 2.698240 0.283780 
#    z 0.146820 0.283780 2.306250 
# 
# From -- ./inp_files/202287.got.cif
#   From: 2010.05.17/outbox.cif.g08.bks.cpg/sg2_102_cif.got.tgz:202287.got - 2010.06.03 11:33:40.
