data_PCOD9094934
_publ_section_title
;
Structure prediction by ZEFSAII (Michael W. Deem and Ramdas Pophale) SiO2 
 PCOD9094934
Probable space group: P -1
;
_chemical_formula_sum "Si O2"
_cell_formula_units_Z 16
_cell_length_a 7.373530
_cell_length_b 13.777089
_cell_length_c 9.937366
_cell_angle_alpha 115.379550
_cell_angle_beta 49.066654
_cell_angle_gamma 112.238883
_cell_volume 681.953412
_symmetry_space_group_name_H-M "P -1"
_symmetry_group_IT_number 2
_symmetry_cell_setting 'triclinic'
loop_
_space_group_symop_operation_xyz
x,y,z
-x,-y,-z
loop_
_atom_site_type_symbol
_atom_site_label
_atom_site_fract_x
_atom_site_fract_y
_atom_site_fract_z
Si Si1 0.726986 0.454332 0.638114
Si Si2 0.945583 0.871711 0.486724
Si Si3 0.455891 0.902243 0.665465
Si Si4 0.681923 0.440430 0.234633
Si Si5 0.361643 0.349035 0.940716
Si Si6 0.555204 0.134677 0.657938
Si Si7 0.131196 0.699670 0.711633
Si Si8 0.027209 0.340272 0.828398
O O1 0.569145 0.523697 0.664098
O O2 0.596522 0.435475 0.834138
O O3 0.739164 0.332119 0.505975
O O4 0.000000 0.500000 0.500000
O O5 0.656622 0.861143 0.640937
O O6 0.985256 0.775868 0.304497
O O7 0.151743 0.858539 0.487335
O O8 0.000000 0.000000 0.500000
O O9 0.540827 0.883111 0.458261
O O10 0.201633 0.827940 0.772662
O O11 0.460425 0.030596 0.735673
O O12 0.718741 0.361026 0.289560
O O13 0.847743 0.555853 0.254685
O O14 0.779908 0.379367 0.022470
O O15 0.469746 0.237389 0.829788
O O16 0.194684 0.345169 0.883982
O O17 0.153445 0.345222 0.154678
#
# Coordination Sequence:
#
# PCOD9094934 Si02
#       8
#     2   2   2   2   2   2   2   2
#     4  11  23  38  56  90 128 155 207 262 309 377
#     4  10  20  34  64  95 120 165 211 257 320 374
#     4  10  20  39  60  90 124 163 213 258 308 386
#     4   9  20  36  61  85 117 173 202 252 317 366
#     4  10  21  39  62  87 121 166 205 257 315 373
#     4  10  20  36  64  89 125 165 203 265 321 357
#     4  11  22  39  63  86 119 168 212 253 320 377
#     4   9  17  37  60  88 124 158 215 256 305 383
#
# _framework density 23.462012999999999
#
# number of rings (size 3 to 8) (size 9 to 14) (size 15 to 20)
#    0.000    2.000    2.500    1.875    0.000    4.000 
#    0.000    0.000    0.000    6.000    0.000    0.000 
#    0.000    0.000    0.000    0.000    0.000    0.000 
#
# Total GULP energy -89182.969486 kJ/mol
# GULP energy per Si atom -5573.935593 kJ/mol
# Density = 2.340861 g / cm^3
# Si number density = 23.462013 Si / 1000 Ang^3
#
#
#
# Elastic Constant Matrix: (Units=GPa)
#
#
# Indices 1 2 3 4 5 6 
#
# 1 59.2601 22.5241 19.2589 -3.9270 -27.3421 -9.0675
# 2 22.5241 124.9679 57.9908 -3.6757 -16.1307 -4.3192
# 3 19.2589 57.9908 125.8003 -7.3201 -22.1000 -0.1035
# 4 -3.9270 -3.6757 -7.3201 23.6083 4.8671 -8.6454
# 5 -27.3421 -16.1307 -22.1000 4.8671 39.8271 1.8505
# 6 -9.0675 -4.3192 -0.1035 -8.6454 1.8505 36.0803
#
#
#
# Elastic Compliance Matrix: (Units=1/GPa)
#
#
# Indices 1 2 3 4 5 6 
#
# 1 0.026608 -0.002404 0.000149 0.002937 0.016727 0.006245
# 2 -0.002404 0.010548 -0.004472 0.000077 0.000101 0.000659
# 3 0.000149 -0.004472 0.010807 0.001742 0.004087 -0.000259
# 4 0.002937 0.000077 0.001742 0.048745 -0.003529 0.012613
# 5 0.016727 0.000101 0.004087 -0.003529 0.039268 0.001368
# 6 0.006245 0.000659 -0.000259 0.012613 0.001368 0.032316
#
#
# Mechanical properties :
#
#
# Convention : Reuss Voigt Hill
#
# Bulk Modulus (GPa) = 28.97680 56.61951 42.79816
# Shear Modulus (GPa) = 25.87336 33.92010 29.89673
#
# Velocity S-wave (km/s) = 3.32441 3.80642 3.57355
# Velocity P-wave (km/s) = 5.20701 6.59570 5.94206
#
# Compressibility (1/GPa) = 0.03451037
#
# Stress axis : x y z
#
# Youngs Moduli (GPa) = 37.58291 94.80028 92.53386
#
# Poissons Ratio (x) = 0.22787 -0.01380
# Poissons Ratio (y) = 0.09034 0.41380
# Poissons Ratio (z) = -0.00561 0.42394
#
# Static dielectric constant tensor:
#      x y z
#    x 1.942210 0.073110 0.024450 
#    y 0.073110 1.959410 0.012820 
#    z 0.024450 0.012820 1.895160 
# 
# From -- ./inp_files/399386.got.cif
#   From: 2010.05.17/outbox.cif.g08.bks.cpg/sg2_200_cif.got.tgz:399386.got - 2010.06.03 11:33:40.
