data_PCOD9094479
_publ_section_title
;
Structure prediction by ZEFSAII (Michael W. Deem and Ramdas Pophale) SiO2 
 PCOD9094479
Probable space group: P -1
;
_chemical_formula_sum "Si O2"
_cell_formula_units_Z 16
_cell_length_a 9.623472
_cell_length_b 8.313491
_cell_length_c 11.643355
_cell_angle_alpha 76.900740
_cell_angle_beta 63.079508
_cell_angle_gamma 72.084072
_cell_volume 786.101914
_symmetry_space_group_name_H-M "P -1"
_symmetry_group_IT_number 2
_symmetry_cell_setting 'triclinic'
loop_
_space_group_symop_operation_xyz
x,y,z
-x,-y,-z
loop_
_atom_site_type_symbol
_atom_site_label
_atom_site_fract_x
_atom_site_fract_y
_atom_site_fract_z
Si Si1 0.635407 0.066809 0.509480
Si Si2 0.317273 0.083312 0.094135
Si Si3 0.390647 0.431402 0.961914
Si Si4 0.115907 0.114017 0.388746
Si Si5 0.841547 0.322217 0.317899
Si Si6 0.407847 0.333003 0.713650
Si Si7 0.130172 0.746329 0.931133
Si Si8 0.193174 0.075874 0.897941
O O1 0.751865 0.167376 0.385263
O O2 0.548835 0.218514 0.604334
O O3 0.500000 0.000000 0.500000
O O4 0.749420 0.905313 0.558687
O O5 0.228767 0.042407 0.247904
O O6 0.327158 0.278188 0.064204
O O7 0.219805 0.044144 0.028181
O O8 0.500000 0.000000 0.000000
O O9 0.460330 0.380319 0.814650
O O10 0.240696 0.582474 0.968727
O O11 0.500000 0.500000 0.000000
O O12 0.985499 0.282518 0.364665
O O13 0.000000 0.000000 0.500000
O O14 0.703560 0.499421 0.333839
O O15 0.923733 0.305122 0.164360
O O16 0.298545 0.200637 0.798937
O O17 0.225180 0.894360 0.856943
O O18 0.989452 0.823652 0.058587
#
# Coordination Sequence:
#
# PCOD9094479 Si02
#       8
#     2   2   2   2   2   2   2   2
#     4  11  23  41  63  87 120 167 212 254 308 376
#     4  11  21  36  62  89 122 163 206 256 315 375
#     4  10  22  36  58  92 128 154 201 254 311 368
#     4  10  22  39  60  89 120 163 206 258 311 374
#     4  10  21  39  63  85 124 162 207 254 315 369
#     4  10  22  38  63  89 121 158 204 253 309 370
#     4  10  20  35  57  88 119 156 194 250 306 369
#     4  10  20  34  57  89 118 152 199 246 305 368
#
# _framework density 20.353593
#
# number of rings (size 3 to 8) (size 9 to 14) (size 15 to 20)
#    0.000    1.750    1.250    3.375    1.750    3.500 
#    0.000    0.625    0.000    0.000    0.000    0.000 
#    0.000    0.000    0.000    0.000    0.000    0.000 
#
# Total GULP energy -89068.809229 kJ/mol
# GULP energy per Si atom -5566.800577 kJ/mol
# Density = 2.030727 g / cm^3
# Si number density = 20.353593 Si / 1000 Ang^3
#
#
#
# Elastic Constant Matrix: (Units=GPa)
#
#
# Indices 1 2 3 4 5 6 
#
# 1 107.2291 24.3542 32.2625 -2.5885 14.7743 -7.9857
# 2 24.3542 85.7091 26.8665 -1.6406 6.1694 -8.3448
# 3 32.2625 26.8665 86.6439 -9.3070 -8.2709 -6.6946
# 4 -2.5885 -1.6406 -9.3070 16.6298 -9.2669 6.4947
# 5 14.7743 6.1694 -8.2709 -9.2669 25.4383 -0.6570
# 6 -7.9857 -8.3448 -6.6946 6.4947 -0.6570 27.8172
#
#
#
# Elastic Compliance Matrix: (Units=1/GPa)
#
#
# Indices 1 2 3 4 5 6 
#
# 1 0.013601 -0.000361 -0.007227 -0.011665 -0.014296 0.004443
# 2 -0.000361 0.014369 -0.005568 -0.007893 -0.007844 0.004525
# 3 -0.007227 -0.005568 0.019952 0.022031 0.019967 -0.003616
# 4 -0.011665 -0.007893 0.022031 0.110503 0.055464 -0.024905
# 5 -0.014296 -0.007844 0.019967 0.055464 0.075883 -0.012809
# 6 0.004443 0.004525 -0.003616 -0.024905 -0.012809 0.043224
#
#
# Mechanical properties :
#
#
# Convention : Reuss Voigt Hill
#
# Bulk Modulus (GPa) = 46.27411 49.61650 47.94530
# Shear Modulus (GPa) = 16.07466 27.05032 21.56249
#
# Velocity S-wave (km/s) = 2.81333 3.64953 3.25837
# Velocity P-wave (km/s) = 5.77387 6.49530 6.14518
#
# Compressibility (1/GPa) = 0.02161036
#
# Stress axis : x y z
#
# Youngs Moduli (GPa) = 73.52217 69.59187 50.11933
#
# Poissons Ratio (x) = 0.02513 0.36221
# Poissons Ratio (y) = 0.02655 0.27908
# Poissons Ratio (z) = 0.53135 0.38751
#
# Static dielectric constant tensor:
#      x y z
#    x 1.755890 -0.057100 0.008710 
#    y -0.057100 1.759180 0.015190 
#    z 0.008710 0.015190 1.762830 
# 
# From -- ./inp_files/217497.got.cif
#   From: 2010.05.17/outbox.cif.g08.bks.cpg/sg2_109_cif.got.tgz:217497.got - 2010.06.03 11:33:40.
