data_PCOD9094068
_publ_section_title
;
Structure prediction by ZEFSAII (Michael W. Deem and Ramdas Pophale) SiO2 
 PCOD9094068
Probable space group: P -1
;
_chemical_formula_sum "Si O2"
_cell_formula_units_Z 14
_cell_length_a 6.471646
_cell_length_b 15.624840
_cell_length_c 7.466231
_cell_angle_alpha 61.233657
_cell_angle_beta 58.280931
_cell_angle_gamma 72.305275
_cell_volume 561.637906
_symmetry_space_group_name_H-M "P -1"
_symmetry_group_IT_number 2
_symmetry_cell_setting 'triclinic'
loop_
_space_group_symop_operation_xyz
x,y,z
-x,-y,-z
loop_
_atom_site_type_symbol
_atom_site_label
_atom_site_fract_x
_atom_site_fract_y
_atom_site_fract_z
Si Si1 0.113634 0.517709 0.194715
Si Si2 0.343439 0.573100 0.367434
Si Si3 0.389906 0.732672 0.439507
Si Si4 0.722108 0.063940 0.272881
Si Si5 0.346786 0.217835 0.408992
Si Si6 0.092610 0.354666 0.106397
Si Si7 0.886258 0.086559 0.770431
O O1 0.328175 0.546598 0.193735
O O2 0.179781 0.454858 0.051572
O O3 0.938557 0.442677 0.442180
O O4 0.952775 0.615212 0.108760
O O5 0.500000 0.500000 0.500000
O O6 0.415902 0.679400 0.288743
O O7 0.609953 0.722905 0.488781
O O8 0.174360 0.675560 0.683526
O O9 0.300330 0.846033 0.331502
O O10 0.615035 0.166954 0.294702
O O11 0.241169 0.931955 0.962810
O O12 0.500000 0.000000 0.500000
O O13 0.984688 0.014539 0.265362
O O14 0.261563 0.272659 0.211947
O O15 0.125763 0.149016 0.623137
#
# Coordination Sequence:
#
# PCOD9094068 Si02
#       7
#     2   2   2   2   2   2   2
#     4   9  19  35  54  77 112 154 196 245 294 337
#     4  10  20  34  53  80 113 153 197 241 292 347
#     4  10  21  35  55  84 118 155 194 241 297 351
#     4   9  19  39  64  86 115 155 195 236 292 354
#     4  10  20  37  60  87 119 155 195 241 295 351
#     4   9  19  36  55  80 114 152 199 250 290 342
#     4   9  20  40  59  84 121 152 192 245 289 350
#
# _framework density 24.927091999999998
#
# number of rings (size 3 to 8) (size 9 to 14) (size 15 to 20)
#    0.000    2.571    0.000    0.857    0.000    5.143 
#    0.000   15.000    0.000    0.000    0.000    0.000 
#    0.000    0.000    0.000    0.000    0.000    0.000 
#
# Total GULP energy -78046.015237 kJ/mol
# GULP energy per Si atom -5574.715374 kJ/mol
# Density = 2.487036 g / cm^3
# Si number density = 24.927092 Si / 1000 Ang^3
#
#
#
# Elastic Constant Matrix: (Units=GPa)
#
#
# Indices 1 2 3 4 5 6 
#
# 1 108.2948 23.0384 47.3552 4.6932 10.0502 -3.1454
# 2 23.0384 60.2157 18.2995 -4.2994 14.9834 -14.8060
# 3 47.3552 18.2995 126.0405 -9.1560 -2.7815 -6.4166
# 4 4.6932 -4.2994 -9.1560 27.8665 1.1360 10.5401
# 5 10.0502 14.9834 -2.7815 1.1360 43.8012 0.8467
# 6 -3.1454 -14.8060 -6.4166 10.5401 0.8467 23.7714
#
#
#
# Elastic Compliance Matrix: (Units=1/GPa)
#
#
# Indices 1 2 3 4 5 6 
#
# 1 0.012195 -0.003016 -0.004461 -0.004056 -0.001952 0.000399
# 2 -0.003016 0.023840 -0.001866 -0.001788 -0.007826 0.015018
# 3 -0.004461 -0.001866 0.010180 0.004050 0.002221 -0.000880
# 4 -0.004056 -0.001788 0.004050 0.045424 0.001022 -0.020735
# 5 -0.001952 -0.007826 0.002221 0.001022 0.026184 -0.005919
# 6 0.000399 0.015018 -0.000880 -0.020735 -0.005919 0.060641
#
#
# Mechanical properties :
#
#
# Convention : Reuss Voigt Hill
#
# Bulk Modulus (GPa) = 36.32682 52.43746 44.38214
# Shear Modulus (GPa) = 24.23337 32.81168 28.52253
#
# Velocity S-wave (km/s) = 3.12135 3.63203 3.38633
# Velocity P-wave (km/s) = 5.25312 6.21859 5.75613
#
# Compressibility (1/GPa) = 0.02752787
#
# Stress axis : x y z
#
# Youngs Moduli (GPa) = 82.00023 41.94623 98.23571
#
# Poissons Ratio (x) = 0.12649 0.43828
# Poissons Ratio (y) = 0.24728 0.18334
# Poissons Ratio (z) = 0.36584 0.07829
#
# Static dielectric constant tensor:
#      x y z
#    x 1.942390 -0.076310 -0.004290 
#    y -0.076310 2.181490 0.108440 
#    z -0.004290 0.108440 2.120730 
# 
# From -- ./inp_files/136715.got.cif
#   From: 2010.05.17/outbox.cif.g08.bks.cpg/sg2_69_cif.got.tgz:136715.got - 2010.06.03 11:33:40.
