data_PCOD9094850
_publ_section_title
;
Structure prediction by ZEFSAII (Michael W. Deem and Ramdas Pophale) SiO2 
 PCOD9094850
Probable space group: P -1
;
_chemical_formula_sum "Si O2"
_cell_formula_units_Z 16
_cell_length_a 13.519104
_cell_length_b 17.823514
_cell_length_c 13.902863
_cell_angle_alpha 44.898652
_cell_angle_beta 124.077300
_cell_angle_gamma 157.301293
_cell_volume 857.415445
_symmetry_space_group_name_H-M "P -1"
_symmetry_group_IT_number 2
_symmetry_cell_setting 'triclinic'
loop_
_space_group_symop_operation_xyz
x,y,z
-x,-y,-z
loop_
_atom_site_type_symbol
_atom_site_label
_atom_site_fract_x
_atom_site_fract_y
_atom_site_fract_z
Si Si1 0.089167 0.302769 0.241573
Si Si2 0.306761 0.945018 0.055357
Si Si3 0.901901 0.344841 0.985027
Si Si4 0.704417 0.953274 0.516099
Si Si5 0.980837 0.387509 0.330314
Si Si6 0.998863 0.021291 0.364915
Si Si7 0.093743 0.507468 0.634517
Si Si8 0.509593 0.704796 0.261371
O O1 0.126644 0.241849 0.237403
O O2 0.314126 0.480791 0.287338
O O3 0.802013 0.054654 0.367036
O O4 0.074593 0.404581 0.090468
O O5 0.187821 0.792030 0.034511
O O6 0.115585 0.752207 0.211986
O O7 0.615197 0.150772 0.051009
O O8 0.324970 0.082896 0.910912
O O9 0.056640 0.572433 0.823136
O O10 0.840816 0.949457 0.619070
O O11 0.386676 0.694847 0.597853
O O12 0.820842 0.148949 0.458158
O O13 0.301382 0.611101 0.295987
O O14 0.901003 0.401407 0.359679
O O15 0.000000 0.000000 0.500000
O O16 0.710444 0.802575 0.352227
O O17 0.000000 0.500000 0.500000
#
# Coordination Sequence:
#
# PCOD9094850 Si02
#       8
#     2   2   2   2   2   2   2   2
#     4  10  20  34  62  88 114 146 187 239 287 335
#     4   9  18  32  56  82 116 149 186 234 286 337
#     4   9  16  32  57  87 111 142 186 239 291 331
#     4  10  22  37  51  83 115 151 187 221 284 341
#     4   9  21  35  59  84 113 147 185 239 286 338
#     4  10  22  37  59  83 117 151 188 238 283 335
#     4  11  22  34  55  84 116 154 183 228 284 345
#     4  10  20  37  60  90 111 144 194 241 285 329
#
# _framework density 18.660731999999999
#
# number of rings (size 3 to 8) (size 9 to 14) (size 15 to 20)
#    0.000    2.250    1.250    1.875    3.500   10.000 
#    0.000    0.625    0.000    0.750    0.000    0.000 
#    0.000    0.000    0.000    0.000    0.000    0.000 
#
# Total GULP energy -89168.603352 kJ/mol
# GULP energy per Si atom -5573.037709 kJ/mol
# Density = 1.861826 g / cm^3
# Si number density = 18.660732 Si / 1000 Ang^3
#
#
#
# Elastic Constant Matrix: (Units=GPa)
#
#
# Indices 1 2 3 4 5 6 
#
# 1 72.2667 32.3347 28.8465 0.8509 13.4478 8.9334
# 2 32.3347 101.5346 48.6480 20.2699 0.5640 12.6323
# 3 28.8465 48.6480 100.9453 -3.9160 -2.4295 17.8604
# 4 0.8509 20.2699 -3.9160 34.0195 5.9193 5.0856
# 5 13.4478 0.5640 -2.4295 5.9193 19.4743 0.4990
# 6 8.9334 12.6323 17.8604 5.0856 0.4990 32.9687
#
#
#
# Elastic Compliance Matrix: (Units=1/GPa)
#
#
# Indices 1 2 3 4 5 6 
#
# 1 0.020998 -0.006188 -0.002730 0.006087 -0.016447 -0.002530
# 2 -0.006188 0.017607 -0.007148 -0.012404 0.006626 0.000616
# 3 -0.002730 -0.007148 0.015497 0.006627 0.002164 -0.005972
# 4 0.006087 -0.012404 0.006627 0.041047 -0.015325 -0.006587
# 5 -0.016447 0.006626 0.002164 -0.015325 0.067389 0.002089
# 6 -0.002530 0.000616 -0.005972 -0.006587 0.002089 0.035001
#
#
# Mechanical properties :
#
#
# Convention : Reuss Voigt Hill
#
# Bulk Modulus (GPa) = 45.51685 54.93387 50.22536
# Shear Modulus (GPa) = 21.09760 28.28699 24.69230
#
# Velocity S-wave (km/s) = 3.36607 3.89762 3.64156
# Velocity P-wave (km/s) = 6.28904 7.05389 6.68242
#
# Compressibility (1/GPa) = 0.02196989
#
# Stress axis : x y z
#
# Youngs Moduli (GPa) = 47.62431 56.79614 64.52892
#
# Poissons Ratio (x) = 0.35145 0.17619
# Poissons Ratio (y) = 0.29469 0.46122
# Poissons Ratio (z) = 0.13003 0.40595
#
# Static dielectric constant tensor:
#      x y z
#    x 1.693650 -0.027690 0.033390 
#    y -0.027690 1.665610 0.002430 
#    z 0.033390 0.002430 1.680220 
# 
# From -- ./inp_files/388448.got.cif
#   From: 2010.05.17/outbox.cif.g08.bks.cpg/sg2_195_cif.got.tgz:388448.got - 2010.06.03 11:33:40.
