data_PCOD9094379
_publ_section_title
;
Structure prediction by ZEFSAII (Michael W. Deem and Ramdas Pophale) SiO2 
 PCOD9094379
Probable space group: P -1
;
_chemical_formula_sum "Si O2"
_cell_formula_units_Z 16
_cell_length_a 11.414807
_cell_length_b 10.318869
_cell_length_c 9.793211
_cell_angle_alpha 42.067952
_cell_angle_beta 104.488324
_cell_angle_gamma 127.275918
_cell_volume 570.352502
_symmetry_space_group_name_H-M "P -1"
_symmetry_group_IT_number 2
_symmetry_cell_setting 'triclinic'
loop_
_space_group_symop_operation_xyz
x,y,z
-x,-y,-z
loop_
_atom_site_type_symbol
_atom_site_label
_atom_site_fract_x
_atom_site_fract_y
_atom_site_fract_z
Si Si1 0.852196 0.115394 0.833524
Si Si2 0.448763 0.444437 0.251568
Si Si3 0.676644 0.426079 0.189975
Si Si4 0.162122 0.436503 0.124202
Si Si5 0.266446 0.286262 0.682143
Si Si6 0.422599 0.931428 0.317458
Si Si7 0.055302 0.378309 0.426754
Si Si8 0.293946 0.986395 0.715780
O O1 0.676064 0.017308 0.834875
O O2 0.930295 0.375096 0.738788
O O3 0.924234 0.177755 0.654425
O O4 0.841345 0.903903 0.075772
O O5 0.583755 0.527074 0.116933
O O6 0.323826 0.487694 0.174131
O O7 0.555438 0.554221 0.333444
O O8 0.338639 0.136184 0.469295
O O9 0.685099 0.314348 0.421320
O O10 0.551953 0.171171 0.264022
O O11 0.833178 0.616650 0.994010
O O12 0.045228 0.295880 0.330739
O O13 0.181547 0.687614 0.922551
O O14 0.211506 0.432727 0.490374
O O15 0.234840 0.095602 0.706512
O O16 0.536555 0.925211 0.258309
#
# Coordination Sequence:
#
# PCOD9094379 Si02
#       8
#     2   2   2   2   2   2   2   2
#     4  11  24  41  60  82 120 159 197 238 286 346
#     4  11  22  34  60  91 122 151 186 241 294 351
#     4   9  19  37  58  89 116 151 189 242 293 342
#     4  11  21  36  59  86 119 156 193 234 294 343
#     4  12  22  37  61  90 120 150 192 241 296 347
#     4   9  19  37  62  86 116 151 192 239 295 344
#     4  11  24  40  58  86 119 159 197 236 283 348
#     4  10  20  34  56  91 119 145 182 244 297 344
#
# _framework density 28.052828999999999
#
# number of rings (size 3 to 8) (size 9 to 14) (size 15 to 20)
#    0.000    1.500    2.500    4.875    1.750    1.000 
#    0.000    0.625    0.000    3.000    0.000    0.000 
#    0.000    0.000    0.000    0.000    0.000    0.000 
#
# Total GULP energy -89422.844398 kJ/mol
# GULP energy per Si atom -5588.927775 kJ/mol
# Density = 2.798898 g / cm^3
# Si number density = 28.052829 Si / 1000 Ang^3
#
#
#
# Elastic Constant Matrix: (Units=GPa)
#
#
# Indices 1 2 3 4 5 6 
#
# 1 111.2723 33.1787 35.5217 3.7594 -8.0074 -5.3906
# 2 33.1787 49.5500 11.4243 7.2571 -2.8595 -22.1119
# 3 35.5217 11.4243 133.8379 14.5006 -4.0360 -15.8525
# 4 3.7594 7.2571 14.5006 41.1353 -17.7484 -5.8143
# 5 -8.0074 -2.8595 -4.0360 -17.7484 62.6173 18.1220
# 6 -5.3906 -22.1119 -15.8525 -5.8143 18.1220 50.4985
#
#
#
# Elastic Compliance Matrix: (Units=1/GPa)
#
#
# Indices 1 2 3 4 5 6 
#
# 1 0.013057 -0.010408 -0.003348 0.002463 0.003141 -0.005058
# 2 -0.010408 0.034383 0.002227 -0.006231 -0.006041 0.016094
# 3 -0.003348 0.002227 0.008929 -0.003494 -0.001802 0.003665
# 4 0.002463 -0.006231 -0.003494 0.029936 0.009288 -0.003449
# 5 0.003141 -0.006041 -0.001802 0.009288 0.021353 -0.009469
# 6 -0.005058 0.016094 0.003665 -0.003449 -0.009469 0.030461
#
#
# Mechanical properties :
#
#
# Convention : Reuss Voigt Hill
#
# Bulk Modulus (GPa) = 30.02101 50.54551 40.28326
# Shear Modulus (GPa) = 29.02249 45.15259 37.08754
#
# Velocity S-wave (km/s) = 3.21996 4.01628 3.63996
# Velocity P-wave (km/s) = 4.95469 6.29003 5.66186
#
# Compressibility (1/GPa) = 0.03331001
#
# Stress axis : x y z
#
# Youngs Moduli (GPa) = 76.58813 29.08406 111.99987
#
# Poissons Ratio (x) = 0.30269 0.37501
# Poissons Ratio (y) = 0.79709 -0.24937
# Poissons Ratio (z) = 0.25644 -0.06476
#
# Static dielectric constant tensor:
#      x y z
#    x 2.182760 0.009030 -0.058830 
#    y 0.009030 2.278330 -0.024380 
#    z -0.058830 -0.024380 2.291190 
# 
# From -- ./inp_files/425023.got.cif
#   From: 2010.05.17/outbox.cif.g08.bks.cpg/sg2_213_cif.got.tgz:425023.got - 2010.06.03 11:33:40.
