data_PCOD9094409
_publ_section_title
;
Structure prediction by ZEFSAII (Michael W. Deem and Ramdas Pophale) SiO2 
 PCOD9094409
Probable space group: P -1
;
_chemical_formula_sum "Si O2"
_cell_formula_units_Z 10
_cell_length_a 7.140709
_cell_length_b 7.067807
_cell_length_c 9.946638
_cell_angle_alpha 65.549710
_cell_angle_beta 117.769660
_cell_angle_gamma 83.313116
_cell_volume 373.351135
_symmetry_space_group_name_H-M "P -1"
_symmetry_group_IT_number 2
_symmetry_cell_setting 'triclinic'
loop_
_space_group_symop_operation_xyz
x,y,z
-x,-y,-z
loop_
_atom_site_type_symbol
_atom_site_label
_atom_site_fract_x
_atom_site_fract_y
_atom_site_fract_z
Si Si1 0.178599 0.594108 0.417122
Si Si2 0.255537 0.962970 0.810500
Si Si3 0.236986 0.662363 0.129714
Si Si4 0.127206 0.638412 0.684565
Si Si5 0.723719 0.732205 0.926610
O O1 0.296334 0.653765 0.309925
O O2 0.256104 0.589615 0.598203
O O3 0.116861 0.379566 0.421589
O O4 0.925095 0.795996 0.279925
O O5 0.127954 0.857378 0.694487
O O6 0.315764 0.806514 0.009485
O O7 0.490158 0.935872 0.823454
O O8 0.292338 0.409422 0.167478
O O9 0.956619 0.774800 0.988207
O O10 0.243042 0.449128 0.890440
#
# Coordination Sequence:
#
# PCOD9094409 Si02
#       5
#     2   2   2   2   2
#     4  10  20  34  57  82 108 142 181 220 267 319
#     4  11  20  36  60  81 104 144 184 219 264 318
#     4   9  18  34  56  81 109 140 178 223 266 315
#     4   9  19  35  54  79 112 144 172 218 276 319
#     4   9  19  36  58  79 108 144 179 219 268 318
#
# _framework density 26.784435999999999
#
# number of rings (size 3 to 8) (size 9 to 14) (size 15 to 20)
#    0.000    2.400    0.000    4.800    0.000    3.200 
#    0.000    6.000    0.000   45.600    0.000    0.000 
#    0.000    0.000    0.000    0.000    0.000    0.000 
#
# Total GULP energy -55974.798601 kJ/mol
# GULP energy per Si atom -5597.479860 kJ/mol
# Density = 2.672347 g / cm^3
# Si number density = 26.784436 Si / 1000 Ang^3
#
#
#
# Elastic Constant Matrix: (Units=GPa)
#
#
# Indices 1 2 3 4 5 6 
#
# 1 101.6855 21.4897 2.5206 -2.4394 -15.6412 -25.5642
# 2 21.4897 114.6591 20.8518 40.3599 1.8101 1.5589
# 3 2.5206 20.8518 118.7774 32.9596 -32.5438 -8.1694
# 4 -2.4394 40.3599 32.9596 43.1824 -14.8540 2.4343
# 5 -15.6412 1.8101 -32.5438 -14.8540 41.2101 15.3712
# 6 -25.5642 1.5589 -8.1694 2.4343 15.3712 45.2574
#
#
#
# Elastic Compliance Matrix: (Units=1/GPa)
#
#
# Indices 1 2 3 4 5 6 
#
# 1 0.013463 -0.005341 0.000864 0.007057 0.006582 0.005330
# 2 -0.005341 0.016714 -0.000192 -0.019339 -0.010212 0.000882
# 3 0.000864 -0.000192 0.012379 -0.006668 0.007508 0.000538
# 4 0.007057 -0.019339 -0.006668 0.053972 0.020053 -0.006265
# 5 0.006582 -0.010212 0.007508 0.020053 0.044369 -0.010723
# 6 0.005330 0.000882 0.000538 -0.006265 -0.010723 0.029152
#
#
# Mechanical properties :
#
#
# Convention : Reuss Voigt Hill
#
# Bulk Modulus (GPa) = 30.10359 47.20513 38.65436
# Shear Modulus (GPa) = 26.25226 45.28064 35.76645
#
# Velocity S-wave (km/s) = 3.13410 4.11610 3.65820
# Velocity P-wave (km/s) = 4.93563 6.34445 5.68386
#
# Compressibility (1/GPa) = 0.03321863
#
# Stress axis : x y z
#
# Youngs Moduli (GPa) = 74.27691 59.82995 80.78322
#
# Poissons Ratio (x) = 0.31953 -0.06978
# Poissons Ratio (y) = 0.39669 0.01549
# Poissons Ratio (z) = -0.06416 0.01147
#
# Static dielectric constant tensor:
#      x y z
#    x 2.129430 -0.023820 0.037760 
#    y -0.023820 2.070090 0.005200 
#    z 0.037760 0.005200 2.120690 
# 
# From -- ./inp_files/25963.got.cif
#   From: 2010.05.17/outbox.cif.g08.bks.cpg/sg2_13_cif.got.tgz:25963.got - 2010.06.03 11:33:40.
