data_PCOD9094681
_publ_section_title
;
Structure prediction by ZEFSAII (Michael W. Deem and Ramdas Pophale) SiO2 
 PCOD9094681
Probable space group: P -1
;
_chemical_formula_sum "Si O2"
_cell_formula_units_Z 15
_cell_length_a 5.046479
_cell_length_b 5.822433
_cell_length_c 23.395192
_cell_angle_alpha 100.688764
_cell_angle_beta 122.727604
_cell_angle_gamma 99.189478
_cell_volume 539.422056
_symmetry_space_group_name_H-M "P -1"
_symmetry_group_IT_number 2
_symmetry_cell_setting 'triclinic'
loop_
_space_group_symop_operation_xyz
x,y,z
-x,-y,-z
loop_
_atom_site_type_symbol
_atom_site_label
_atom_site_fract_x
_atom_site_fract_y
_atom_site_fract_z
Si Si1 0.818113 0.914419 0.325342
Si Si2 0.432586 0.459512 0.809879
Si Si3 0.500000 0.000000 0.000000
Si Si4 0.957314 0.710038 0.546547
Si Si5 0.901520 0.922819 0.146224
Si Si6 0.048027 0.503155 0.938681
Si Si7 0.626188 0.333090 0.590569
Si Si8 0.879591 0.705048 0.724064
O O1 0.540336 0.693557 0.251430
O O2 0.110837 0.807788 0.374180
O O3 0.970209 0.100441 0.299744
O O4 0.753316 0.070305 0.379181
O O5 0.276125 0.268403 0.833861
O O6 0.785740 0.618074 0.883137
O O7 0.172645 0.599505 0.772069
O O8 0.633496 0.004632 0.082510
O O9 0.600710 0.301625 0.025955
O O10 0.778294 0.549847 0.572406
O O11 0.711916 0.818942 0.486560
O O12 0.000000 0.500000 0.500000
O O13 0.037003 0.765749 0.110033
O O14 0.176647 0.142173 0.221054
O O15 0.000000 0.500000 0.000000
O O16 0.593937 0.480345 0.651495
#
# Coordination Sequence:
#
# PCOD9094681 Si02
#       8
#     2   2   1   2   2   2   2   2
#     4   9  19  38  62  90 127 175 221 272 334 398
#     4  10  22  45  67  92 134 174 224 285 340 407
#     4  12  26  44  70  98 132 170 226 278 342 420
#     4  10  20  34  59  94 129 171 217 269 332 396
#     4  11  24  43  66  98 129 168 226 277 337 416
#     4  12  27  45  68  99 134 175 224 282 351 409
#     4   9  19  38  59  88 131 170 216 274 328 393
#     4   9  20  40  67  90 128 177 221 277 334 397
#
# _framework density 27.807539999999999
#
# number of rings (size 3 to 8) (size 9 to 14) (size 15 to 20)
#    0.000    1.867    1.333    1.600    1.867    4.267 
#    0.000   14.667    0.000    0.000    0.000    0.000 
#    0.000    0.000    0.000    0.000    0.000    0.000 
#
# Total GULP energy -83790.493464 kJ/mol
# GULP energy per Si atom -5586.032898 kJ/mol
# Density = 2.774425 g / cm^3
# Si number density = 27.807540 Si / 1000 Ang^3
#
#
#
# Elastic Constant Matrix: (Units=GPa)
#
#
# Indices 1 2 3 4 5 6 
#
# 1 61.6907 16.3450 44.1655 8.1468 -19.4595 -9.2300
# 2 16.3450 119.4716 63.1079 -8.4364 -11.5335 -8.6018
# 3 44.1655 63.1079 242.7617 8.6978 -31.7641 -20.8377
# 4 8.1468 -8.4364 8.6978 80.6451 -15.1156 -6.9185
# 5 -19.4595 -11.5335 -31.7641 -15.1156 50.6227 5.9686
# 6 -9.2300 -8.6018 -20.8377 -6.9185 5.9686 35.4233
#
#
#
# Elastic Compliance Matrix: (Units=1/GPa)
#
#
# Indices 1 2 3 4 5 6 
#
# 1 0.020474 -0.000770 -0.002547 -0.000600 0.005613 0.002587
# 2 -0.000770 0.009968 -0.002304 0.001625 0.000893 0.001031
# 3 -0.002547 -0.002304 0.005563 -0.000107 0.001751 0.001734
# 4 -0.000600 0.001625 -0.000107 0.013553 0.003863 0.002171
# 5 0.005613 0.000893 0.001751 0.003863 0.024444 -0.000655
# 6 0.002587 0.001031 0.001734 0.002171 -0.000655 0.030709
#
#
# Mechanical properties :
#
#
# Convention : Reuss Voigt Hill
#
# Bulk Modulus (GPa) = 40.38242 74.57341 57.47792
# Shear Modulus (GPa) = 40.25569 53.35859 46.80714
#
# Velocity S-wave (km/s) = 3.80893 4.38522 4.10720
# Velocity P-wave (km/s) = 5.82216 7.24680 6.57319
#
# Compressibility (1/GPa) = 0.02476325
#
# Stress axis : x y z
#
# Youngs Moduli (GPa) = 48.84277 100.32357 179.75261
#
# Poissons Ratio (x) = 0.07727 0.45777
# Poissons Ratio (y) = 0.03762 0.41414
# Poissons Ratio (z) = 0.12439 0.23114
#
# Static dielectric constant tensor:
#      x y z
#    x 2.238130 0.017200 0.035810 
#    y 0.017200 2.219840 0.058540 
#    z 0.035810 0.058540 2.155350 
# 
# From -- ./inp_files/12588.got.cif
#   From: 2010.05.17/outbox.cif.g08.bks.cpg/sg2_7_cif.got.tgz:12588.got - 2010.06.03 11:33:40.
