data_PCOD9094396
_publ_section_title
;
Structure prediction by ZEFSAII (Michael W. Deem and Ramdas Pophale) SiO2 
 PCOD9094396
Probable space group: P -1
;
_chemical_formula_sum "Si O2"
_cell_formula_units_Z 12
_cell_length_a 8.128452
_cell_length_b 10.905179
_cell_length_c 6.482106
_cell_angle_alpha 84.021819
_cell_angle_beta 101.064935
_cell_angle_gamma 119.405690
_cell_volume 491.222904
_symmetry_space_group_name_H-M "P -1"
_symmetry_group_IT_number 2
_symmetry_cell_setting 'triclinic'
loop_
_space_group_symop_operation_xyz
x,y,z
-x,-y,-z
loop_
_atom_site_type_symbol
_atom_site_label
_atom_site_fract_x
_atom_site_fract_y
_atom_site_fract_z
Si Si1 0.407301 0.766810 0.068113
Si Si2 0.868065 0.924654 0.675780
Si Si3 0.709849 0.506359 0.188628
Si Si4 0.908977 0.469438 0.749409
Si Si5 0.227083 0.965983 0.991779
Si Si6 0.319699 0.381848 0.267500
O O1 0.376202 0.648811 0.912047
O O2 0.628476 0.884135 0.105076
O O3 0.289566 0.676972 0.254454
O O4 0.301782 0.857463 0.973351
O O5 0.710046 0.764901 0.628846
O O6 0.779342 0.006504 0.769441
O O7 0.000000 0.000000 0.500000
O O8 0.015654 0.909838 0.868505
O O9 0.915331 0.536504 0.317515
O O10 0.545316 0.494437 0.303718
O O11 0.725056 0.612153 0.991139
O O12 0.836657 0.582026 0.681371
O O13 0.000000 0.500000 0.000000
#
# Coordination Sequence:
#
# PCOD9094396 Si02
#       6
#     2   2   2   2   2   2
#     4   9  16  32  52  82 107 134 188 221 274 323
#     4  11  22  36  53  81 112 145 183 217 270 331
#     4   9  15  27  53  81 105 135 182 228 267 320
#     4   8  15  26  49  79 106 133 179 231 264 319
#     4  10  20  34  57  77 110 148 172 228 271 320
#     4   9  16  29  50  79 105 137 184 222 262 320
#
# _framework density 24.428830000000001
#
# number of rings (size 3 to 8) (size 9 to 14) (size 15 to 20)
#    0.000    3.000    1.667    3.000    0.000    0.000 
#    0.000    3.333    0.000    8.000    0.000    0.000 
#    0.000    0.000    0.000    0.000    0.000    0.000 
#
# Total GULP energy -66935.892218 kJ/mol
# GULP energy per Si atom -5577.991018 kJ/mol
# Density = 2.437323 g / cm^3
# Si number density = 24.428830 Si / 1000 Ang^3
#
#
#
# Elastic Constant Matrix: (Units=GPa)
#
#
# Indices 1 2 3 4 5 6 
#
# 1 165.0430 14.1074 39.0457 4.5966 -23.4211 2.6892
# 2 14.1074 98.2115 18.5195 -21.6418 -20.2484 7.0101
# 3 39.0457 18.5195 50.2996 0.6221 -10.4972 -15.2925
# 4 4.5966 -21.6418 0.6221 13.8445 3.2145 1.2227
# 5 -23.4211 -20.2484 -10.4972 3.2145 44.1294 3.2629
# 6 2.6892 7.0101 -15.2925 1.2227 3.2629 40.2004
#
#
#
# Elastic Compliance Matrix: (Units=1/GPa)
#
#
# Indices 1 2 3 4 5 6 
#
# 1 0.008253 0.000697 -0.007008 -0.001818 0.003428 -0.003562
# 2 0.000697 0.021048 -0.010222 0.032564 0.005895 -0.009074
# 3 -0.007008 -0.010222 0.034007 -0.016503 -0.000280 0.015712
# 4 -0.001818 0.032564 -0.016503 0.125392 0.002087 -0.015818
# 5 0.003428 0.005895 -0.000280 0.002087 0.027235 -0.003638
# 6 -0.003562 -0.009074 0.015712 -0.015818 -0.003638 0.033449
#
#
# Mechanical properties :
#
#
# Convention : Reuss Voigt Hill
#
# Bulk Modulus (GPa) = 33.06654 50.76661 41.91658
# Shear Modulus (GPa) = 17.09220 35.76029 26.42625
#
# Velocity S-wave (km/s) = 2.64800 3.83019 3.29259
# Velocity P-wave (km/s) = 4.78691 6.35508 5.62590
#
# Compressibility (1/GPa) = 0.03024205
#
# Stress axis : x y z
#
# Youngs Moduli (GPa) = 121.17482 47.50984 29.40588
#
# Poissons Ratio (x) = -0.03309 0.20607
# Poissons Ratio (y) = -0.08440 0.30058
# Poissons Ratio (z) = 0.84915 0.48563
#
# Static dielectric constant tensor:
#      x y z
#    x 2.008660 0.011050 -0.114800 
#    y 0.011050 1.941190 0.028160 
#    z -0.114800 0.028160 2.126130 
# 
# From -- ./inp_files/26571.got.cif
#   From: 2010.05.17/outbox.cif.g08.bks.cpg/sg2_14_cif.got.tgz:26571.got - 2010.06.03 11:33:40.
