data_PCOD9094785
_publ_section_title
;
Structure prediction by ZEFSAII (Michael W. Deem and Ramdas Pophale) SiO2 
 PCOD9094785
Probable space group: P -1
;
_chemical_formula_sum "Si O2"
_cell_formula_units_Z 14
_cell_length_a 9.060576
_cell_length_b 7.978034
_cell_length_c 14.517231
_cell_angle_alpha 140.972242
_cell_angle_beta 100.891194
_cell_angle_gamma 69.623787
_cell_volume 613.509076
_symmetry_space_group_name_H-M "P -1"
_symmetry_group_IT_number 2
_symmetry_cell_setting 'triclinic'
loop_
_space_group_symop_operation_xyz
x,y,z
-x,-y,-z
loop_
_atom_site_type_symbol
_atom_site_label
_atom_site_fract_x
_atom_site_fract_y
_atom_site_fract_z
Si Si1 0.775679 0.293479 0.427539
Si Si2 0.939565 0.526273 0.898985
Si Si3 0.554079 0.294503 0.748594
Si Si4 0.206813 0.251821 0.703207
Si Si5 0.595191 0.841769 0.031454
Si Si6 0.127165 0.052199 0.408705
Si Si7 0.490094 0.415836 0.331638
O O1 0.666425 0.421324 0.381679
O O2 0.657749 0.446876 0.561045
O O3 0.788794 0.970316 0.310307
O O4 0.960131 0.269073 0.445328
O O5 0.892003 0.258672 0.740024
O O6 0.076027 0.534909 0.847039
O O7 0.777087 0.782181 0.998012
O O8 0.000000 0.500000 0.000000
O O9 0.383505 0.259676 0.720431
O O10 0.704629 0.009910 0.650733
O O11 0.555823 0.424916 0.702085
O O12 0.573088 0.543382 0.921283
O O13 0.152089 0.142840 0.554807
O O14 0.522496 0.082008 0.199158
O O15 0.500000 0.000000 0.000000
#
# Coordination Sequence:
#
# PCOD9094785 Si02
#       7
#     2   2   2   2   2   2   2
#     4  10  20  34  61  84 109 150 190 230 278 334
#     4  10  20  36  58  83 111 148 190 233 273 336
#     4  10  21  37  60  83 114 147 187 240 280 326
#     4  11  21  36  64  86 111 144 198 238 278 323
#     4   9  19  34  56  77 110 151 185 220 275 342
#     4  10  20  35  61  87 109 148 197 230 272 340
#     4  10  20  36  57  82 118 147 187 227 284 339
#
# _framework density 22.819547
#
# number of rings (size 3 to 8) (size 9 to 14) (size 15 to 20)
#    0.000    2.000    1.429    3.857    4.000    0.000 
#    0.000   10.000    0.000    0.000    0.000    0.000 
#    0.000    0.000    0.000    0.000    0.000    0.000 
#
# Total GULP energy -77988.025363 kJ/mol
# GULP energy per Si atom -5570.573240 kJ/mol
# Density = 2.276761 g / cm^3
# Si number density = 22.819547 Si / 1000 Ang^3
#
#
#
# Elastic Constant Matrix: (Units=GPa)
#
#
# Indices 1 2 3 4 5 6 
#
# 1 155.7252 40.3023 33.9714 8.4859 -17.6371 -51.3065
# 2 40.3023 48.1919 6.2320 3.4213 -2.9126 -32.4409
# 3 33.9714 6.2320 36.0027 14.9030 -18.5253 -10.7435
# 4 8.4859 3.4213 14.9030 24.5674 -9.5793 -4.5962
# 5 -17.6371 -2.9126 -18.5253 -9.5793 35.0718 13.0873
# 6 -51.3065 -32.4409 -10.7435 -4.5962 13.0873 48.1150
#
#
#
# Elastic Compliance Matrix: (Units=1/GPa)
#
#
# Indices 1 2 3 4 5 6 
#
# 1 0.012272 -0.002553 -0.011000 0.003650 -0.002569 0.009957
# 2 -0.002553 0.040540 0.000288 -0.003309 -0.008635 0.026709
# 3 -0.011000 0.000288 0.056384 -0.023793 0.020290 -0.006737
# 4 0.003650 -0.003309 -0.023793 0.056038 0.004078 0.000592
# 5 -0.002569 -0.008635 0.020290 0.004078 0.044178 -0.015658
# 6 0.009957 0.026709 -0.006737 0.000592 -0.015658 0.052220
#
#
# Mechanical properties :
#
#
# Convention : Reuss Voigt Hill
#
# Bulk Modulus (GPa) = 12.09675 44.54789 28.32232
# Shear Modulus (GPa) = 15.83692 32.17845 24.00768
#
# Velocity S-wave (km/s) = 2.63726 3.75924 3.24708
# Velocity P-wave (km/s) = 3.81917 6.19731 5.14746
#
# Compressibility (1/GPa) = 0.08266686
#
# Stress axis : x y z
#
# Youngs Moduli (GPa) = 81.48414 24.66684 17.73558
#
# Poissons Ratio (x) = 0.06297 0.19509
# Poissons Ratio (y) = 0.20801 -0.00510
# Poissons Ratio (z) = 0.89630 -0.00710
#
# Static dielectric constant tensor:
#      x y z
#    x 1.937700 -0.021340 0.084710 
#    y -0.021340 1.830850 -0.008760 
#    z 0.084710 -0.008760 1.986310 
# 
# From -- ./inp_files/331605.got.cif
#   From: 2010.05.17/outbox.cif.g08.bks.cpg/sg2_166_cif.got.tgz:331605.got - 2010.06.03 11:33:40.
