data_PCOD9094614
_publ_section_title
;
Structure prediction by ZEFSAII (Michael W. Deem and Ramdas Pophale) SiO2 
 PCOD9094614
Probable space group: P -1
;
_chemical_formula_sum "Si O2"
_cell_formula_units_Z 16
_cell_length_a 11.652656
_cell_length_b 13.203661
_cell_length_c 20.600121
_cell_angle_alpha 154.004785
_cell_angle_beta 25.217650
_cell_angle_gamma 141.256004
_cell_volume 582.429091
_symmetry_space_group_name_H-M "P -1"
_symmetry_group_IT_number 2
_symmetry_cell_setting 'triclinic'
loop_
_space_group_symop_operation_xyz
x,y,z
-x,-y,-z
loop_
_atom_site_type_symbol
_atom_site_label
_atom_site_fract_x
_atom_site_fract_y
_atom_site_fract_z
Si Si1 0.963426 0.052584 0.124092
Si Si2 0.315986 0.947778 0.326458
Si Si3 0.705970 0.748251 0.602750
Si Si4 0.707154 0.414896 0.622909
Si Si5 0.138308 0.685833 0.925127
Si Si6 0.711157 0.117665 0.918356
Si Si7 0.744096 0.562759 0.823463
Si Si8 0.418416 0.202890 0.540026
O O1 0.185787 0.208378 0.119891
O O2 0.686079 0.233045 0.379372
O O3 0.962072 0.823207 0.036579
O O4 0.000000 0.000000 0.000000
O O5 0.402068 0.154070 0.355930
O O6 0.353730 0.986427 0.405647
O O7 0.000000 0.000000 0.500000
O O8 0.484046 0.695079 0.072915
O O9 0.444535 0.692029 0.743819
O O10 0.983069 0.553703 0.343986
O O11 0.786624 0.961846 0.727253
O O12 0.719198 0.381732 0.674527
O O13 0.569833 0.221083 0.542182
O O14 0.000000 0.500000 0.500000
O O15 0.462159 0.632614 0.864971
O O16 0.165554 0.415765 0.777838
O O17 0.070955 0.839352 0.113881
O O18 0.500000 0.000000 0.000000
#
# Coordination Sequence:
#
# PCOD9094614 Si02
#       8
#     2   2   2   2   2   2   2   2
#     4  12  21  33  57  97 137 159 194 249 323 388
#     4  12  28  48  62  82 126 178 223 258 292 360
#     4  11  21  37  65  91 125 165 206 254 317 370
#     4  11  19  34  60 100 133 154 191 253 327 388
#     4  10  20  34  58  97 136 154 188 253 329 385
#     4   9  17  31  53  92 131 163 186 235 315 388
#     4  12  22  38  64  96 124 164 205 258 315 377
#     4  11  24  37  63  98 127 162 203 253 320 378
#
# _framework density 27.471157000000002
#
# number of rings (size 3 to 8) (size 9 to 14) (size 15 to 20)
#    0.000    1.000    6.250    2.250    3.500    1.500 
#    0.000    0.625    0.000    0.750    0.000    0.000 
#    0.000    0.000    0.000    0.000    0.000    0.000 
#
# Total GULP energy -89229.681838 kJ/mol
# GULP energy per Si atom -5576.855115 kJ/mol
# Density = 2.740863 g / cm^3
# Si number density = 27.471157 Si / 1000 Ang^3
#
#
#
# Elastic Constant Matrix: (Units=GPa)
#
#
# Indices 1 2 3 4 5 6 
#
# 1 186.7643 35.2093 57.4882 20.8830 7.4182 6.7280
# 2 35.2093 40.5617 26.4111 -20.0695 3.6796 -18.5308
# 3 57.4882 26.4111 147.8262 13.7501 -19.1803 18.2497
# 4 20.8830 -20.0695 13.7501 15.9984 6.0853 -25.5428
# 5 7.4182 3.6796 -19.1803 6.0853 55.1460 16.8810
# 6 6.7280 -18.5308 18.2497 -25.5428 16.8810 24.7271
#
#
#
# Elastic Compliance Matrix: (Units=1/GPa)
#
#
# Indices 1 2 3 4 5 6 
#
# 1 0.006367 -0.000625 -0.003390 0.001263 -0.003318 0.003871
# 2 -0.000625 0.009288 0.002506 -0.014648 0.006280 -0.014138
# 3 -0.003390 0.002506 0.006898 0.005766 0.001175 0.002864
# 4 0.001263 -0.014648 0.005766 0.000995 0.009048 -0.020726
# 5 -0.003318 0.006280 0.001175 0.009048 0.016762 0.002645
# 6 0.003871 -0.014138 0.002864 -0.020726 0.002645 0.003464
#
#
# Mechanical properties :
#
#
# Convention : Reuss Voigt Hill
#
# Bulk Modulus (GPa) = 51.18986 68.15218 59.67102
# Shear Modulus (GPa) = 93.80444 36.24385 65.02415
#
# Velocity S-wave (km/s) = 5.84984 3.63622 4.87046
# Velocity P-wave (km/s) = 8.01885 6.51858 7.30732
#
# Compressibility (1/GPa) = 0.01953512
#
# Stress axis : x y z
#
# Youngs Moduli (GPa) = 157.06312 107.66572 144.96980
#
# Poissons Ratio (x) = 0.06726 0.49150
# Poissons Ratio (y) = 0.09812 -0.36332
# Poissons Ratio (z) = 0.53250 -0.26983
#
# Static dielectric constant tensor:
#      x y z
#    x 2.278860 0.096110 0.073440 
#    y 0.096110 2.418950 -0.009710 
#    z 0.073440 -0.009710 2.086270 
# 
# From -- ./inp_files/595517.got.cif
#   From: 2010.05.17/outbox.cif.g08.bks.cpg/sg2_298_cif.got.tgz:595517.got - 2010.06.03 11:33:40.
