data_PCOD9094657
_publ_section_title
;
Structure prediction by ZEFSAII (Michael W. Deem and Ramdas Pophale) SiO2 
 PCOD9094657
Probable space group: P -1
;
_chemical_formula_sum "Si O2"
_cell_formula_units_Z 16
_cell_length_a 11.868284
_cell_length_b 9.652262
_cell_length_c 11.638317
_cell_angle_alpha 61.990444
_cell_angle_beta 127.458637
_cell_angle_gamma 126.839271
_cell_volume 835.348790
_symmetry_space_group_name_H-M "P -1"
_symmetry_group_IT_number 2
_symmetry_cell_setting 'triclinic'
loop_
_space_group_symop_operation_xyz
x,y,z
-x,-y,-z
loop_
_atom_site_type_symbol
_atom_site_label
_atom_site_fract_x
_atom_site_fract_y
_atom_site_fract_z
Si Si1 0.952652 0.672754 0.633466
Si Si2 0.081341 0.642925 0.392826
Si Si3 0.676039 0.745948 0.428005
Si Si4 0.444404 0.104007 0.331490
Si Si5 0.726782 0.130477 0.372943
Si Si6 0.916130 0.123602 0.883217
Si Si7 0.951276 0.654749 0.906772
Si Si8 0.603556 0.585920 0.702153
O O1 0.131547 0.745904 0.670399
O O2 0.862381 0.467815 0.616716
O O3 0.845310 0.761471 0.483972
O O4 0.965780 0.709123 0.762201
O O5 0.193887 0.809164 0.475088
O O6 0.001606 0.725366 0.222327
O O7 0.000000 0.500000 0.500000
O O8 0.642631 0.652180 0.568645
O O9 0.535267 0.612240 0.312236
O O10 0.683880 0.933909 0.384344
O O11 0.566514 0.149402 0.283024
O O12 0.449202 0.279767 0.320901
O O13 0.500000 0.000000 0.500000
O O14 0.266159 0.983241 0.226124
O O15 0.932815 0.207976 0.984967
O O16 0.000000 0.000000 0.000000
O O17 0.768940 0.601964 0.848543
O O18 0.000000 0.500000 0.000000
#
# Coordination Sequence:
#
# PCOD9094657 Si02
#       8
#     2   2   2   2   2   2   2   2
#     4  10  22  39  59  92 128 171 209 266 332 390
#     4  10  21  39  65  94 128 170 215 266 322 385
#     4  10  20  34  59  89 126 161 213 272 322 373
#     4  12  22  38  65  95 128 168 224 274 317 387
#     4  11  22  37  62  93 126 169 219 272 320 382
#     4  12  24  41  67 100 131 171 221 268 330 392
#     4  11  23  40  65  88 129 171 215 265 332 400
#     4  10  21  36  58  94 124 161 218 276 320 377
#
# _framework density 19.153676000000001
#
# number of rings (size 3 to 8) (size 9 to 14) (size 15 to 20)
#    0.000    1.250    5.000    1.125    3.500    0.000 
#    0.000    0.625    0.000    3.750    0.000    0.000 
#    0.000    0.000    0.000    0.000    0.000    0.000 
#
# Total GULP energy -89068.305745 kJ/mol
# GULP energy per Si atom -5566.769109 kJ/mol
# Density = 1.911008 g / cm^3
# Si number density = 19.153676 Si / 1000 Ang^3
#
#
#
# Elastic Constant Matrix: (Units=GPa)
#
#
# Indices 1 2 3 4 5 6 
#
# 1 105.9673 44.9507 41.1887 -0.7054 17.0483 -4.1019
# 2 44.9507 127.9278 46.3936 24.6539 9.0243 -31.1999
# 3 41.1887 46.3936 90.7180 17.1218 9.3194 -6.4099
# 4 -0.7054 24.6539 17.1218 33.6524 -6.3303 1.4475
# 5 17.0483 9.0243 9.3194 -6.3303 33.6717 -0.8910
# 6 -4.1019 -31.1999 -6.4099 1.4475 -0.8910 33.6145
#
#
#
# Elastic Compliance Matrix: (Units=1/GPa)
#
#
# Indices 1 2 3 4 5 6 
#
# 1 0.013877 -0.005128 -0.004785 0.006047 -0.003305 -0.004327
# 2 -0.005128 0.016774 -0.002551 -0.012326 -0.003116 0.014905
# 3 -0.004785 -0.002551 0.016107 -0.006939 -0.002647 0.000349
# 4 0.006047 -0.012326 -0.006939 0.044919 0.010245 -0.013689
# 5 -0.003305 -0.003116 -0.002647 0.010245 0.034778 -0.003320
# 6 -0.004327 0.014905 0.000349 -0.013689 -0.003320 0.043624
#
#
# Mechanical properties :
#
#
# Convention : Reuss Voigt Hill
#
# Bulk Modulus (GPa) = 45.80939 65.51990 55.66465
# Shear Modulus (GPa) = 24.71805 32.99307 28.85556
#
# Velocity S-wave (km/s) = 3.59627 4.15486 3.88561
# Velocity P-wave (km/s) = 6.41972 7.56960 7.01825
#
# Compressibility (1/GPa) = 0.02182959
#
# Stress axis : x y z
#
# Youngs Moduli (GPa) = 72.06382 59.61574 62.08672
#
# Poissons Ratio (x) = 0.30570 0.29711
# Poissons Ratio (y) = 0.36953 0.15835
# Poissons Ratio (z) = 0.34486 0.15205
#
# Static dielectric constant tensor:
#      x y z
#    x 1.704150 0.049080 -0.020410 
#    y 0.049080 1.688730 0.042060 
#    z -0.020410 0.042060 1.542390 
# 
# From -- ./inp_files/335831.got.cif
#   From: 2010.05.17/outbox.cif.g08.bks.cpg/sg2_168_cif.got.tgz:335831.got - 2010.06.03 11:33:40.
