data_PCOD9094975
_publ_section_title
;
Structure prediction by ZEFSAII (Michael W. Deem and Ramdas Pophale) SiO2 
 PCOD9094975
Probable space group: P -1
;
_chemical_formula_sum "Si O2"
_cell_formula_units_Z 11
_cell_length_a 8.522711
_cell_length_b 8.248396
_cell_length_c 9.578315
_cell_angle_alpha 61.436601
_cell_angle_beta 80.220300
_cell_angle_gamma 124.842127
_cell_volume 382.880286
_symmetry_space_group_name_H-M "P -1"
_symmetry_group_IT_number 2
_symmetry_cell_setting 'triclinic'
loop_
_space_group_symop_operation_xyz
x,y,z
-x,-y,-z
loop_
_atom_site_type_symbol
_atom_site_label
_atom_site_fract_x
_atom_site_fract_y
_atom_site_fract_z
Si Si1 0.695684 0.662405 0.028852
Si Si2 0.000000 0.500000 0.000000
Si Si3 0.247341 0.555670 0.645151
Si Si4 0.823501 0.777349 0.427425
Si Si5 0.294895 0.951180 0.991102
Si Si6 0.140013 0.844395 0.575527
O O1 0.958003 0.942036 0.811941
O O2 0.639914 0.776377 0.102107
O O3 0.500000 0.500000 0.000000
O O4 0.728222 0.495504 0.175497
O O5 0.011281 0.382714 0.185844
O O6 0.223718 0.828262 0.897312
O O7 0.305334 0.820738 0.506829
O O8 0.953053 0.291679 0.782794
O O9 0.327814 0.486112 0.542801
O O10 0.724573 0.859434 0.503300
O O11 0.960556 0.764405 0.520731
O O12 0.500000 0.000000 0.000000
#
# Coordination Sequence:
#
# PCOD9094975 Si02
#       6
#     2   1   2   2   2   2
#     4  11  24  39  63  94 131 169 215 261 311 384
#     4  10  20  38  64  92 120 162 208 250 314 366
#     4  10  21  40  61  89 127 166 210 260 317 374
#     4  10  20  38  59  95 121 163 212 260 320 370
#     4  10  22  36  65  96 121 163 212 262 310 379
#     4  10  20  34  69  86 122 164 208 262 319 379
#
# _framework density 28.729607999999999
#
# number of rings (size 3 to 8) (size 9 to 14) (size 15 to 20)
#    0.000    1.818    0.000    6.000   10.182    0.000 
#    0.000    0.909    8.000    3.273    0.000    0.000 
#    0.000    0.000    0.000    0.000    0.000    0.000 
#
# Total GULP energy -61449.611721 kJ/mol
# GULP energy per Si atom -5586.328338 kJ/mol
# Density = 2.866422 g / cm^3
# Si number density = 28.729608 Si / 1000 Ang^3
#
#
#
# Elastic Constant Matrix: (Units=GPa)
#
#
# Indices 1 2 3 4 5 6 
#
# 1 151.4874 76.0497 59.8272 -2.5449 37.2459 -20.4820
# 2 76.0497 248.3845 23.6366 13.2062 40.1790 -17.7514
# 3 59.8272 23.6366 119.3759 17.7458 30.6837 -0.7034
# 4 -2.5449 13.2062 17.7458 45.7442 2.3922 7.5165
# 5 37.2459 40.1790 30.6837 2.3922 69.6865 -4.0377
# 6 -20.4820 -17.7514 -0.7034 7.5165 -4.0377 68.3769
#
#
#
# Elastic Compliance Matrix: (Units=1/GPa)
#
#
# Indices 1 2 3 4 5 6 
#
# 1 0.010510 -0.002436 -0.004648 0.002870 -0.002147 0.002026
# 2 -0.002436 0.005160 0.001023 -0.002036 -0.002012 0.000725
# 3 -0.004648 0.001023 0.012084 -0.004963 -0.003294 -0.000651
# 4 0.002870 -0.002036 -0.004963 0.024885 0.000831 -0.002406
# 5 -0.002147 -0.002012 -0.003294 0.000831 0.018067 -0.000224
# 6 0.002026 0.000725 -0.000651 -0.002406 -0.000224 0.015665
#
#
# Mechanical properties :
#
#
# Convention : Reuss Voigt Hill
#
# Bulk Modulus (GPa) = 63.96728 93.14164 78.55446
# Shear Modulus (GPa) = 48.21513 60.74382 54.47948
#
# Velocity S-wave (km/s) = 4.10108 4.60317 4.35936
# Velocity P-wave (km/s) = 6.68870 7.79376 7.26228
#
# Compressibility (1/GPa) = 0.01563299
#
# Stress axis : x y z
#
# Youngs Moduli (GPa) = 95.15021 193.79741 82.75367
#
# Poissons Ratio (x) = 0.47210 0.38460
# Poissons Ratio (y) = 0.23179 -0.08467
# Poissons Ratio (z) = 0.44222 -0.19829
#
# Static dielectric constant tensor:
#      x y z
#    x 2.196400 -0.158460 0.178800 
#    y -0.158460 2.386280 -0.096950 
#    z 0.178800 -0.096950 1.872460 
# 
# From -- ./inp_files/373649.got.cif
#   From: 2010.05.17/outbox.cif.g08.bks.cpg/sg2_187_cif.got.tgz:373649.got - 2010.06.03 11:33:40.
