data_PCOD9094685
_publ_section_title
;
Structure prediction by ZEFSAII (Michael W. Deem and Ramdas Pophale) SiO2 
 PCOD9094685
Probable space group: P -1
;
_chemical_formula_sum "Si O2"
_cell_formula_units_Z 16
_cell_length_a 15.009223
_cell_length_b 5.234035
_cell_length_c 15.882521
_cell_angle_alpha 60.338872
_cell_angle_beta 133.852614
_cell_angle_gamma 100.990539
_cell_volume 758.444980
_symmetry_space_group_name_H-M "P -1"
_symmetry_group_IT_number 2
_symmetry_cell_setting 'triclinic'
loop_
_space_group_symop_operation_xyz
x,y,z
-x,-y,-z
loop_
_atom_site_type_symbol
_atom_site_label
_atom_site_fract_x
_atom_site_fract_y
_atom_site_fract_z
Si Si1 0.290661 0.195893 0.528525
Si Si2 0.154202 0.320714 0.789989
Si Si3 0.122039 0.817735 0.557365
Si Si4 0.108949 0.709229 0.374230
Si Si5 0.813918 0.400171 0.068302
Si Si6 0.901647 0.672835 0.780859
Si Si7 0.443172 0.806375 0.360409
Si Si8 0.293196 0.447979 0.205681
O O1 0.253451 0.519901 0.497344
O O2 0.199988 0.274930 0.372555
O O3 0.435822 0.096182 0.615654
O O4 0.234849 0.985244 0.589181
O O5 0.173592 0.498105 0.689704
O O6 0.225934 0.418963 0.900759
O O7 0.003631 0.451683 0.692360
O O8 0.173282 0.960332 0.851851
O O9 0.077804 0.794494 0.436710
O O10 0.000000 0.000000 0.500000
O O11 0.097080 0.978874 0.256890
O O12 0.950944 0.462675 0.121619
O O13 0.724442 0.496707 0.913968
O O14 0.841298 0.519489 0.840238
O O15 0.500000 0.500000 0.500000
O O16 0.359434 0.687604 0.254542
O O17 0.367585 0.092103 0.319205
#
# Coordination Sequence:
#
# PCOD9094685 Si02
#       8
#     2   2   2   2   2   2   2   2
#     4  11  22  37  63  97 129 163 210 265 326 382
#     4  11  21  39  60  93 130 167 200 262 321 384
#     4  11  21  35  61  99 134 163 204 266 338 384
#     4  10  20  34  59  96 134 158 201 260 333 386
#     4  11  24  41  64  93 129 173 216 255 318 379
#     4  10  21  38  62  95 129 163 210 268 322 379
#     4  12  26  44  68  92 130 171 215 263 320 372
#     4  12  26  44  66  91 129 175 218 262 308 382
#
# _framework density 21.095797000000001
#
# number of rings (size 3 to 8) (size 9 to 14) (size 15 to 20)
#    0.000    1.000    3.750    4.125    5.250    0.000 
#    0.000    3.125    0.000    4.500    0.000    0.000 
#    0.000    0.000    0.000    0.000    0.000    0.000 
#
# Total GULP energy -89223.698718 kJ/mol
# GULP energy per Si atom -5576.481170 kJ/mol
# Density = 2.104778 g / cm^3
# Si number density = 21.095797 Si / 1000 Ang^3
#
#
#
# Elastic Constant Matrix: (Units=GPa)
#
#
# Indices 1 2 3 4 5 6 
#
# 1 61.3577 9.2664 -6.6200 0.8382 -4.6265 13.3925
# 2 9.2664 54.9685 3.1074 13.1322 -4.3976 0.4305
# 3 -6.6200 3.1074 43.2433 6.2008 -16.1425 10.1393
# 4 0.8382 13.1322 6.2008 29.3549 0.2568 -1.9161
# 5 -4.6265 -4.3976 -16.1425 0.2568 25.1131 -4.0609
# 6 13.3925 0.4305 10.1393 -1.9161 -4.0609 32.7143
#
#
#
# Elastic Compliance Matrix: (Units=1/GPa)
#
#
# Indices 1 2 3 4 5 6 
#
# 1 0.020478 -0.002833 0.008718 -0.001892 0.007241 -0.010260
# 2 -0.002833 0.021215 0.000710 -0.009556 0.003841 0.000578
# 3 0.008718 0.000710 0.037770 -0.009595 0.024026 -0.012864
# 4 -0.001892 -0.009556 -0.009595 0.040836 -0.007749 0.005304
# 5 0.007241 0.003841 0.024026 -0.007749 0.056723 -0.003874
# 6 -0.010260 0.000578 -0.012864 0.005304 -0.003874 0.038577
#
#
# Mechanical properties :
#
#
# Convention : Reuss Voigt Hill
#
# Bulk Modulus (GPa) = 10.79292 19.00858 14.90075
# Shear Modulus (GPa) = 21.43231 27.69081 24.56156
#
# Velocity S-wave (km/s) = 3.19086 3.62694 3.41587
# Velocity P-wave (km/s) = 4.32466 5.15459 4.75776
#
# Compressibility (1/GPa) = 0.09265332
#
# Stress axis : x y z
#
# Youngs Moduli (GPa) = 48.83371 47.13549 26.47629
#
# Poissons Ratio (x) = 0.13355 -0.23083
# Poissons Ratio (y) = 0.13836 -0.01881
# Poissons Ratio (z) = -0.42575 -0.03348
#
# Static dielectric constant tensor:
#      x y z
#    x 1.741930 -0.022340 0.004280 
#    y -0.022340 1.903230 -0.003500 
#    z 0.004280 -0.003500 1.797730 
# 
# From -- ./inp_files/75532.got.cif
#   From: 2010.05.17/outbox.cif.g08.bks.cpg/sg2_38_cif.got.tgz:75532.got - 2010.06.03 11:33:40.
