data_PCOD9094712
_publ_section_title
;
Structure prediction by ZEFSAII (Michael W. Deem and Ramdas Pophale) SiO2 
 PCOD9094712
Probable space group: P -1
;
_chemical_formula_sum "Si O2"
_cell_formula_units_Z 16
_cell_length_a 11.683782
_cell_length_b 9.001638
_cell_length_c 8.671505
_cell_angle_alpha 92.014289
_cell_angle_beta 54.189359
_cell_angle_gamma 98.374424
_cell_volume 730.286849
_symmetry_space_group_name_H-M "P -1"
_symmetry_group_IT_number 2
_symmetry_cell_setting 'triclinic'
loop_
_space_group_symop_operation_xyz
x,y,z
-x,-y,-z
loop_
_atom_site_type_symbol
_atom_site_label
_atom_site_fract_x
_atom_site_fract_y
_atom_site_fract_z
Si Si1 0.215619 0.465681 0.881190
Si Si2 0.461273 0.377193 0.890079
Si Si3 0.156734 0.765770 0.090594
Si Si4 0.815876 0.746285 0.357146
Si Si5 0.974437 0.264555 0.269388
Si Si6 0.773447 0.388215 0.659714
Si Si7 0.221886 0.259549 0.267935
Si Si8 0.165023 0.980855 0.842698
O O1 0.363466 0.442050 0.843951
O O2 0.222294 0.416660 0.697136
O O3 0.182053 0.629496 0.952570
O O4 0.084919 0.352915 0.061707
O O5 0.614699 0.346879 0.714348
O O6 0.500000 0.500000 0.000000
O O7 0.356031 0.245407 0.054084
O O8 0.213857 0.721111 0.208705
O O9 0.987626 0.768979 0.240800
O O10 0.220274 0.916773 0.954005
O O11 0.756753 0.774033 0.572528
O O12 0.765858 0.861997 0.277955
O O13 0.895713 0.371055 0.441249
O O14 0.854673 0.147331 0.276916
O O15 0.076277 0.183714 0.299208
O O16 0.793464 0.561070 0.709443
O O17 0.000000 0.000000 0.000000
#
# Coordination Sequence:
#
# PCOD9094712 Si02
#       8
#     2   2   2   2   2   2   2   2
#     4  11  20  34  64  88 116 152 189 240 292 339
#     4   9  19  38  55  87 122 149 185 243 291 342
#     4  11  19  34  59  87 118 147 185 244 288 336
#     4  11  22  37  55  90 120 151 191 237 293 340
#     4  11  19  34  59  89 113 151 190 239 289 333
#     4  11  20  35  59  91 119 143 194 244 293 329
#     4  10  20  34  60  86 116 149 193 241 282 343
#     4  10  23  37  52  87 125 154 181 241 290 348
#
# _framework density 21.909199000000001
#
# number of rings (size 3 to 8) (size 9 to 14) (size 15 to 20)
#    0.000    1.500    7.500    1.500    1.750    0.500 
#    0.000    3.750    0.000    4.500    0.000    0.000 
#    0.000    0.000    0.000    0.000    0.000    0.000 
#
# Total GULP energy -89321.567969 kJ/mol
# GULP energy per Si atom -5582.597998 kJ/mol
# Density = 2.185933 g / cm^3
# Si number density = 21.909199 Si / 1000 Ang^3
#
#
#
# Elastic Constant Matrix: (Units=GPa)
#
#
# Indices 1 2 3 4 5 6 
#
# 1 80.7245 10.9793 19.1557 -9.6783 -6.5903 -7.1668
# 2 10.9793 56.7777 14.4284 -11.2897 8.9009 -16.1604
# 3 19.1557 14.4284 37.9649 -8.6517 4.9063 -3.2167
# 4 -9.6783 -11.2897 -8.6517 23.9150 -8.6049 16.7759
# 5 -6.5903 8.9009 4.9063 -8.6049 33.2547 -5.2041
# 6 -7.1668 -16.1604 -3.2167 16.7759 -5.2041 22.7018
#
#
#
# Elastic Compliance Matrix: (Units=1/GPa)
#
#
# Indices 1 2 3 4 5 6 
#
# 1 0.015258 -0.000806 -0.007014 0.004346 0.005606 0.001322
# 2 -0.000806 0.025129 -0.008634 -0.008244 -0.004381 0.021498
# 3 -0.007014 -0.008634 0.035861 0.016261 -0.002651 -0.015903
# 4 0.004346 -0.008244 0.016261 0.104337 0.015826 -0.075666
# 5 0.005606 -0.004381 -0.002651 0.015826 0.036033 -0.005159
# 6 0.001322 0.021498 -0.015903 -0.075666 -0.005159 0.112249
#
#
# Mechanical properties :
#
#
# Convention : Reuss Voigt Hill
#
# Bulk Modulus (GPa) = 23.07402 29.39933 26.23667
# Shear Modulus (GPa) = 13.28997 24.70122 18.99560
#
# Velocity S-wave (km/s) = 2.46558 3.36137 2.94771
# Velocity P-wave (km/s) = 4.31972 5.33975 4.85659
#
# Compressibility (1/GPa) = 0.04333879
#
# Stress axis : x y z
#
# Youngs Moduli (GPa) = 65.53890 39.79451 27.88510
#
# Poissons Ratio (x) = 0.03209 0.19559
# Poissons Ratio (y) = 0.05284 0.24077
# Poissons Ratio (z) = 0.45971 0.34360
#
# Static dielectric constant tensor:
#      x y z
#    x 1.832850 0.025440 0.037190 
#    y 0.025440 1.947570 0.022100 
#    z 0.037190 0.022100 1.858390 
# 
# From -- ./inp_files/243886.got.cif
#   From: 2010.05.17/outbox.cif.g08.bks.cpg/sg2_122_cif.got.tgz:243886.got - 2010.06.03 11:33:40.
