data_PCOD9094210
_publ_section_title
;
Structure prediction by ZEFSAII (Michael W. Deem and Ramdas Pophale) SiO2 
 PCOD9094210
Probable space group: P -1
;
_chemical_formula_sum "Si O2"
_cell_formula_units_Z 16
_cell_length_a 11.429224
_cell_length_b 23.554328
_cell_length_c 17.020350
_cell_angle_alpha 20.039374
_cell_angle_beta 35.341361
_cell_angle_gamma 27.323595
_cell_volume 715.466092
_symmetry_space_group_name_H-M "P -1"
_symmetry_group_IT_number 2
_symmetry_cell_setting 'triclinic'
loop_
_space_group_symop_operation_xyz
x,y,z
-x,-y,-z
loop_
_atom_site_type_symbol
_atom_site_label
_atom_site_fract_x
_atom_site_fract_y
_atom_site_fract_z
Si Si1 0.743284 0.056838 0.142946
Si Si2 0.139768 0.779552 0.665983
Si Si3 0.299291 0.696795 0.506667
Si Si4 0.310836 0.653787 0.331970
Si Si5 0.637640 0.537964 0.808088
Si Si6 0.551881 0.837691 0.591066
Si Si7 0.895154 0.135094 0.112951
Si Si8 0.994963 0.520229 0.882250
O O1 0.531888 0.038235 0.316490
O O2 0.009280 0.817222 0.305771
O O3 0.784914 0.175232 0.033219
O O4 0.671240 0.176674 0.944073
O O5 0.191069 0.772461 0.554883
O O6 0.426266 0.636476 0.728681
O O7 0.000000 0.000000 0.500000
O O8 0.993325 0.678996 0.892521
O O9 0.601221 0.524311 0.550597
O O10 0.191953 0.573050 0.695726
O O11 0.172784 0.911650 0.249939
O O12 0.500000 0.500000 0.500000
O O13 0.656349 0.699208 0.634094
O O14 0.500000 0.500000 0.000000
O O15 0.879510 0.320236 0.922846
O O16 0.289969 0.889184 0.700025
O O17 0.752899 0.705676 0.722551
O O18 0.000000 0.500000 0.000000
#
# Coordination Sequence:
#
# PCOD9094210 Si02
#       8
#     2   2   2   2   2   2   2   2
#     4  11  24  39  68  90 120 167 208 273 303 370
#     4  11  21  36  54  90 129 164 203 243 317 380
#     4  11  23  36  63  88 122 163 204 260 306 366
#     4  11  23  44  61  91 124 163 222 259 311 359
#     4  10  20  34  55  83 128 169 189 243 302 387
#     4  11  21  38  60  95 129 160 207 252 324 379
#     4  11  20  37  62  95 123 164 201 249 326 375
#     4  10  21  34  53  89 127 164 195 255 307 369
#
# _framework density 22.363045
#
# number of rings (size 3 to 8) (size 9 to 14) (size 15 to 20)
#    0.000    1.250    5.000    2.625    1.750    2.000 
#    0.000    0.000    0.000    9.000    0.000    0.000 
#    0.000    0.000    0.000    0.000    0.000    0.000 
#
# Total GULP energy -89137.197635 kJ/mol
# GULP energy per Si atom -5571.074852 kJ/mol
# Density = 2.231215 g / cm^3
# Si number density = 22.363045 Si / 1000 Ang^3
#
#
#
# Elastic Constant Matrix: (Units=GPa)
#
#
# Indices 1 2 3 4 5 6 
#
# 1 104.5159 27.9184 48.1211 -4.7499 7.5577 12.1750
# 2 27.9184 78.1631 25.0061 -32.9180 -0.5500 16.4191
# 3 48.1211 25.0061 91.7402 -15.5358 9.7194 12.2760
# 4 -4.7499 -32.9180 -15.5358 35.2504 10.1182 4.4749
# 5 7.5577 -0.5500 9.7194 10.1182 49.6516 -13.4781
# 6 12.1750 16.4191 12.2760 4.4749 -13.4781 23.7183
#
#
#
# Elastic Compliance Matrix: (Units=1/GPa)
#
#
# Indices 1 2 3 4 5 6 
#
# 1 0.014338 -0.010942 -0.009229 -0.015386 0.005653 0.011106
# 2 -0.010942 0.091789 0.028584 0.133322 -0.066982 -0.135936
# 3 -0.009229 0.028584 0.027728 0.053432 -0.029929 -0.056490
# 4 -0.015386 0.133322 0.053432 0.235442 -0.114804 -0.221708
# 5 0.005653 -0.066982 -0.029929 -0.114804 0.082384 0.127433
# 6 0.011106 -0.135936 -0.056490 -0.221708 0.127433 0.274044
#
#
# Mechanical properties :
#
#
# Convention : Reuss Voigt Hill
#
# Bulk Modulus (GPa) = 6.63651 52.94561 29.79106
# Shear Modulus (GPa) = 6.58652 33.28232 19.93442
#
# Velocity S-wave (km/s) = 1.71804 3.86200 2.98887
# Velocity P-wave (km/s) = 2.62861 6.60406 5.02609
#
# Compressibility (1/GPa) = 0.15068160
#
# Stress axis : x y z
#
# Youngs Moduli (GPa) = 69.74431 10.89458 36.06407
#
# Poissons Ratio (x) = 0.11920 0.33284
# Poissons Ratio (y) = 0.76311 -1.03085
# Poissons Ratio (z) = 0.64367 -0.31141
#
# Static dielectric constant tensor:
#      x y z
#    x 1.829560 -0.017520 -0.044240 
#    y -0.017520 1.943050 -0.069070 
#    z -0.044240 -0.069070 1.881080 
# 
# From -- ./inp_files/531824.got.cif
#   From: 2010.05.17/outbox.cif.g08.bks.cpg/sg2_266_cif.got.tgz:531824.got - 2010.06.03 11:33:40.
