data_PCOD9094439
_publ_section_title
;
Structure prediction by ZEFSAII (Michael W. Deem and Ramdas Pophale) SiO2 
 PCOD9094439
Probable space group: P -1
;
_chemical_formula_sum "Si O2"
_cell_formula_units_Z 16
_cell_length_a 11.342549
_cell_length_b 15.115974
_cell_length_c 9.634128
_cell_angle_alpha 131.946603
_cell_angle_beta 71.144200
_cell_angle_gamma 139.317431
_cell_volume 741.141683
_symmetry_space_group_name_H-M "P -1"
_symmetry_group_IT_number 2
_symmetry_cell_setting 'triclinic'
loop_
_space_group_symop_operation_xyz
x,y,z
-x,-y,-z
loop_
_atom_site_type_symbol
_atom_site_label
_atom_site_fract_x
_atom_site_fract_y
_atom_site_fract_z
Si Si1 0.797018 0.642100 0.870843
Si Si2 0.270653 0.967336 0.413828
Si Si3 0.091357 0.174682 0.239996
Si Si4 0.010795 0.659668 0.404725
Si Si5 0.643125 0.263603 0.192626
Si Si6 0.306822 0.694212 0.451138
Si Si7 0.233632 0.916503 0.058080
Si Si8 0.914528 0.943642 0.320469
O O1 0.744970 0.656144 0.752767
O O2 0.692142 0.442674 0.737967
O O3 0.802485 0.747793 0.095686
O O4 0.027114 0.775054 0.914819
O O5 0.497129 0.098616 0.461150
O O6 0.239596 0.062454 0.615781
O O7 0.217494 0.953542 0.259297
O O8 0.122250 0.766527 0.330716
O O9 0.984082 0.218639 0.373757
O O10 0.091405 0.110110 0.322460
O O11 0.000000 0.000000 0.000000
O O12 0.784136 0.457454 0.263329
O O13 0.120861 0.631273 0.406255
O O14 0.686712 0.305339 0.384203
O O15 0.410088 0.106293 0.104668
O O16 0.701582 0.172255 0.036842
O O17 0.000000 0.000000 0.500000
#
# Coordination Sequence:
#
# PCOD9094439 Si02
#       8
#     2   2   2   2   2   2   2   2
#     4  11  19  36  64  83 117 155 204 240 296 345
#     4  10  23  37  56  85 123 154 198 245 295 354
#     4   9  20  34  59  90 111 151 204 240 281 351
#     4  11  19  36  60  82 121 157 195 241 297 348
#     4  10  20  34  57  85 117 151 197 236 293 354
#     4  11  21  36  59  90 114 157 198 246 294 349
#     4  10  20  35  55  87 117 154 191 244 293 349
#     4  10  20  38  61  84 118 162 193 238 307 354
#
# _framework density 21.588315000000001
#
# number of rings (size 3 to 8) (size 9 to 14) (size 15 to 20)
#    0.000    1.750    3.750    1.500    0.000    1.000 
#    0.000    0.000    0.000   15.000    0.000    0.000 
#    0.000    0.000    0.000    0.000    0.000    0.000 
#
# Total GULP energy -89146.797797 kJ/mol
# GULP energy per Si atom -5571.674862 kJ/mol
# Density = 2.153918 g / cm^3
# Si number density = 21.588315 Si / 1000 Ang^3
#
#
#
# Elastic Constant Matrix: (Units=GPa)
#
#
# Indices 1 2 3 4 5 6 
#
# 1 12.7232 8.1427 7.5220 1.1792 -8.2352 -6.8916
# 2 8.1427 137.6491 33.8916 10.5454 5.4386 -0.5779
# 3 7.5220 33.8916 80.1055 -12.3753 -21.1865 -11.9412
# 4 1.1792 10.5454 -12.3753 29.5798 -1.5371 2.2902
# 5 -8.2352 5.4386 -21.1865 -1.5371 34.5498 5.4080
# 6 -6.8916 -0.5779 -11.9412 2.2902 5.4080 30.5567
#
#
#
# Elastic Compliance Matrix: (Units=1/GPa)
#
#
# Indices 1 2 3 4 5 6 
#
# 1 0.110617 -0.008232 0.003155 -0.000451 0.026224 0.021418
# 2 -0.008232 0.010267 -0.007002 -0.006468 -0.007762 -0.002540
# 3 0.003155 -0.007002 0.021724 0.011799 0.014830 0.005559
# 4 -0.000451 -0.006468 0.011799 0.041631 0.010079 -0.000517
# 5 0.026224 -0.007762 0.014830 0.010079 0.045528 0.002750
# 6 0.021418 -0.002540 0.005559 -0.000517 0.002750 0.039233
#
#
# Mechanical properties :
#
#
# Convention : Reuss Voigt Hill
#
# Bulk Modulus (GPa) = 8.44243 36.62116 22.53179
# Shear Modulus (GPa) = 15.03119 30.99868 23.01493
#
# Velocity S-wave (km/s) = 2.64155 3.79344 3.26863
# Velocity P-wave (km/s) = 3.63632 6.01558 4.97041
#
# Compressibility (1/GPa) = 0.11844936
#
# Stress axis : x y z
#
# Youngs Moduli (GPa) = 9.04022 97.39587 46.03287
#
# Poissons Ratio (x) = 0.80177 -0.14522
# Poissons Ratio (y) = 0.07442 0.32232
# Poissons Ratio (z) = -0.02852 0.68196
#
# Static dielectric constant tensor:
#      x y z
#    x 1.839390 -0.028740 -0.017220 
#    y -0.028740 1.830910 0.011690 
#    z -0.017220 0.011690 1.792300 
# 
# From -- ./inp_files/180592.got.cif
#   From: 2010.05.17/outbox.cif.g08.bks.cpg/sg2_91_cif.got.tgz:180592.got - 2010.06.03 11:33:40.
