data_PCOD9094757
_publ_section_title
;
Structure prediction by ZEFSAII (Michael W. Deem and Ramdas Pophale) SiO2 
 PCOD9094757
Probable space group: P -1
;
_chemical_formula_sum "Si O2"
_cell_formula_units_Z 14
_cell_length_a 9.658827
_cell_length_b 16.391369
_cell_length_c 5.363450
_cell_angle_alpha 71.550323
_cell_angle_beta 71.124021
_cell_angle_gamma 121.688276
_cell_volume 544.831568
_symmetry_space_group_name_H-M "P -1"
_symmetry_group_IT_number 2
_symmetry_cell_setting 'triclinic'
loop_
_space_group_symop_operation_xyz
x,y,z
-x,-y,-z
loop_
_atom_site_type_symbol
_atom_site_label
_atom_site_fract_x
_atom_site_fract_y
_atom_site_fract_z
Si Si1 0.927804 0.655722 0.487061
Si Si2 0.537624 0.261643 0.417884
Si Si3 0.981863 0.135621 0.300954
Si Si4 0.216097 0.629098 0.340318
Si Si5 0.078778 0.140129 0.742449
Si Si6 0.725887 0.593948 0.168041
Si Si7 0.586583 0.078910 0.622946
O O1 0.934287 0.761103 0.363970
O O2 0.852055 0.600121 0.309075
O O3 0.142969 0.697872 0.361740
O O4 0.774199 0.574094 0.887037
O O5 0.670950 0.352203 0.487708
O O6 0.309264 0.204994 0.588538
O O7 0.538079 0.159298 0.560405
O O8 0.639189 0.319077 0.033431
O O9 0.977573 0.075156 0.603479
O O10 0.823801 0.149007 0.402802
O O11 0.948609 0.069196 0.133063
O O12 0.198743 0.275407 0.024154
O O13 0.000000 0.500000 0.500000
O O14 0.500000 0.500000 0.500000
O O15 0.500000 0.000000 0.500000
O O16 0.500000 0.000000 0.000000
#
# Coordination Sequence:
#
# PCOD9094757 Si02
#       7
#     2   2   2   2   2   2   2
#     4  10  21  38  58  88 129 180 226 266 321 401
#     4  12  25  46  68 102 142 178 235 301 347 418
#     4  10  21  41  64  94 133 173 222 281 342 417
#     4  12  26  43  67 101 144 193 235 281 347 424
#     4  10  21  40  67  95 131 177 216 282 354 403
#     4  10  20  34  60  93 125 171 220 267 329 404
#     4  12  26  48  76 103 133 186 243 296 361 421
#
# _framework density 25.696014000000002
#
# number of rings (size 3 to 8) (size 9 to 14) (size 15 to 20)
#    0.000    1.143    0.000    7.714    0.000    6.857 
#    0.000    4.286    0.000    0.000    0.000    0.000 
#    0.000    0.000    0.000    0.000    0.000    0.000 
#
# Total GULP energy -78385.279585 kJ/mol
# GULP energy per Si atom -5598.948542 kJ/mol
# Density = 2.563753 g / cm^3
# Si number density = 25.696014 Si / 1000 Ang^3
#
#
#
# Elastic Constant Matrix: (Units=GPa)
#
#
# Indices 1 2 3 4 5 6 
#
# 1 159.4247 28.5652 26.9196 21.4241 -3.2347 3.6401
# 2 28.5652 95.8220 36.7322 20.0935 14.3952 3.4672
# 3 26.9196 36.7322 165.7085 51.2706 9.6243 6.8099
# 4 21.4241 20.0935 51.2706 49.8883 16.1761 11.3712
# 5 -3.2347 14.3952 9.6243 16.1761 50.0693 10.6937
# 6 3.6401 3.4672 6.8099 11.3712 10.6937 37.0992
#
#
#
# Elastic Compliance Matrix: (Units=1/GPa)
#
#
# Indices 1 2 3 4 5 6 
#
# 1 0.007022 -0.001784 0.000062 -0.002948 0.001948 -0.000191
# 2 -0.001784 0.012419 -0.001845 -0.001527 -0.002983 0.000681
# 3 0.000062 -0.001845 0.009249 -0.009529 0.001639 0.000917
# 4 -0.002948 -0.001527 -0.009529 0.035823 -0.008113 -0.006460
# 5 0.001948 -0.002983 0.001639 -0.008113 0.024271 -0.004722
# 6 -0.000191 0.000681 0.000917 -0.006460 -0.004722 0.030083
#
#
# Mechanical properties :
#
#
# Convention : Reuss Voigt Hill
#
# Bulk Modulus (GPa) = 46.39404 67.26546 56.82975
# Shear Modulus (GPa) = 37.54123 49.32724 43.43424
#
# Velocity S-wave (km/s) = 3.82642 4.38613 4.11580
# Velocity P-wave (km/s) = 6.13320 7.20313 6.68959
#
# Compressibility (1/GPa) = 0.02155449
#
# Stress axis : x y z
#
# Youngs Moduli (GPa) = 142.41016 80.52106 108.11766
#
# Poissons Ratio (x) = 0.14369 -0.00668
# Poissons Ratio (y) = 0.25413 0.19950
# Poissons Ratio (z) = -0.00880 0.14858
#
# Static dielectric constant tensor:
#      x y z
#    x 1.990070 0.007610 0.021870 
#    y 0.007610 2.361390 0.000680 
#    z 0.021870 0.000680 2.050590 
# 
# From -- ./inp_files/43635.got.cif
#   From: 2010.05.17/outbox.cif.g08.bks.cpg/sg2_22_cif.got.tgz:43635.got - 2010.06.03 11:33:40.
