data_PCOD9094190
_publ_section_title
;
Structure prediction by ZEFSAII (Michael W. Deem and Ramdas Pophale) SiO2 
 PCOD9094190
Probable space group: P -1
;
_chemical_formula_sum "Si O2"
_cell_formula_units_Z 12
_cell_length_a 9.341999
_cell_length_b 9.753071
_cell_length_c 12.324975
_cell_angle_alpha 75.888462
_cell_angle_beta 107.246718
_cell_angle_gamma 43.615482
_cell_volume 531.281491
_symmetry_space_group_name_H-M "P -1"
_symmetry_group_IT_number 2
_symmetry_cell_setting 'triclinic'
loop_
_space_group_symop_operation_xyz
x,y,z
-x,-y,-z
loop_
_atom_site_type_symbol
_atom_site_label
_atom_site_fract_x
_atom_site_fract_y
_atom_site_fract_z
Si Si1 0.194550 0.542617 0.818239
Si Si2 0.405801 0.577885 0.203800
Si Si3 0.802723 0.723629 0.009247
Si Si4 0.611535 0.700206 0.656570
Si Si5 0.157952 0.045647 0.141937
Si Si6 0.801130 0.722052 0.507473
O O1 0.393083 0.504981 0.821918
O O2 0.355471 0.280977 0.968392
O O3 0.976924 0.786699 0.810666
O O4 0.007957 0.629162 0.661359
O O5 0.518552 0.345818 0.333018
O O6 0.118995 0.763780 0.035448
O O7 0.330532 0.759685 0.239481
O O8 0.047319 0.575604 0.178751
O O9 0.000000 0.500000 0.000000
O O10 0.660052 0.977738 0.874392
O O11 0.625384 0.740945 0.527789
O O12 0.435130 0.963871 0.632329
O O13 0.000000 0.500000 0.500000
#
# Coordination Sequence:
#
# PCOD9094190 Si02
#       6
#     2   2   2   2   2   2
#     4  10  20  34  55  82 106 139 184 221 256 312
#     4  10  20  34  57  83 110 140 170 217 274 321
#     4   8  16  33  55  77 106 140 173 215 262 311
#     4   9  20  38  54  76 110 139 173 225 268 310
#     4   9  19  36  54  81 115 141 169 213 272 322
#     4  10  22  39  57  75 102 145 187 220 261 312
#
# _framework density 22.586894999999998
#
# number of rings (size 3 to 8) (size 9 to 14) (size 15 to 20)
#    0.000    2.667    0.000    0.500    0.000    8.000 
#    0.000   13.333    0.000    0.000    0.000    0.000 
#    0.000    0.000    0.000    0.000    0.000    0.000 
#
# Total GULP energy -66964.221798 kJ/mol
# GULP energy per Si atom -5580.351817 kJ/mol
# Density = 2.253549 g / cm^3
# Si number density = 22.586895 Si / 1000 Ang^3
#
#
#
# Elastic Constant Matrix: (Units=GPa)
#
#
# Indices 1 2 3 4 5 6 
#
# 1 166.0260 66.0967 46.0508 -17.5391 -68.2900 11.8272
# 2 66.0967 165.8561 41.5418 14.9273 -31.7517 3.0159
# 3 46.0508 41.5418 36.2398 -8.2869 -16.2840 17.7272
# 4 -17.5391 14.9273 -8.2869 30.1548 8.8330 -4.6664
# 5 -68.2900 -31.7517 -16.2840 8.8330 42.7808 -5.2781
# 6 11.8272 3.0159 17.7272 -4.6664 -5.2781 32.5257
#
#
#
# Elastic Compliance Matrix: (Units=1/GPa)
#
#
# Indices 1 2 3 4 5 6 
#
# 1 0.024680 0.002751 -0.024347 -0.002160 0.033753 0.009207
# 2 0.002751 0.013083 -0.021542 -0.012153 0.009564 0.009336
# 3 -0.024347 -0.021542 0.097357 0.024845 -0.028258 -0.043232
# 4 -0.002160 -0.012153 0.024845 0.047683 -0.013722 -0.007014
# 5 0.033753 0.009564 -0.028258 -0.013722 0.078025 0.012934
# 6 0.009207 0.009336 -0.043232 -0.007014 0.012934 0.051186
#
#
# Mechanical properties :
#
#
# Convention : Reuss Voigt Hill
#
# Bulk Modulus (GPa) = 20.47276 75.05562 47.76419
# Shear Modulus (GPa) = 12.06067 35.38778 23.72422
#
# Velocity S-wave (km/s) = 2.31328 3.96250 3.24443
# Velocity P-wave (km/s) = 4.02724 7.36458 5.93531
#
# Compressibility (1/GPa) = 0.04884538
#
# Stress axis : x y z
#
# Youngs Moduli (GPa) = 40.51847 76.43294 10.27151
#
# Poissons Ratio (x) = -0.21029 0.25008
# Poissons Ratio (y) = -0.11148 0.22127
# Poissons Ratio (z) = 0.98649 1.64652
#
# Static dielectric constant tensor:
#      x y z
#    x 1.893180 0.009540 0.004580 
#    y 0.009540 1.846720 -0.036540 
#    z 0.004580 -0.036540 1.915430 
# 
# From -- ./inp_files/59134.got.cif
#   From: 2010.05.17/outbox.cif.g08.bks.cpg/sg2_30_cif.got.tgz:59134.got - 2010.06.03 11:33:40.
