data_PCOD9094950
_publ_section_title
;
Structure prediction by ZEFSAII (Michael W. Deem and Ramdas Pophale) SiO2 
 PCOD9094950
Probable space group: P -1
;
_chemical_formula_sum "Si O2"
_cell_formula_units_Z 14
_cell_length_a 9.551144
_cell_length_b 8.748923
_cell_length_c 12.057777
_cell_angle_alpha 34.607399
_cell_angle_beta 76.229553
_cell_angle_gamma 74.214865
_cell_volume 550.487457
_symmetry_space_group_name_H-M "P -1"
_symmetry_group_IT_number 2
_symmetry_cell_setting 'triclinic'
loop_
_space_group_symop_operation_xyz
x,y,z
-x,-y,-z
loop_
_atom_site_type_symbol
_atom_site_label
_atom_site_fract_x
_atom_site_fract_y
_atom_site_fract_z
Si Si1 0.252303 0.207181 0.749936
Si Si2 0.653174 0.129212 0.272130
Si Si3 0.117509 0.248288 0.097872
Si Si4 0.678891 0.691584 0.797410
Si Si5 0.320433 0.543697 0.723136
Si Si6 0.041381 0.771407 0.278097
Si Si7 0.342206 0.669558 0.177415
O O1 0.282994 0.484967 0.636666
O O2 0.083285 0.178799 0.821810
O O3 0.280767 0.126527 0.663045
O O4 0.349677 0.952611 0.942569
O O5 0.479124 0.139158 0.289634
O O6 0.702691 0.184582 0.356291
O O7 0.671519 0.416789 0.036989
O O8 0.211859 0.157949 0.242853
O O9 0.020795 0.026786 0.209220
O O10 0.225607 0.341306 0.927968
O O11 0.000000 0.500000 0.000000
O O12 0.720777 0.551713 0.756592
O O13 0.494038 0.448526 0.753294
O O14 0.213529 0.738219 0.246636
O O15 0.000000 0.500000 0.500000
#
# Coordination Sequence:
#
# PCOD9094950 Si02
#       7
#     2   2   2   2   2   2   2
#     4  11  20  36  65  89 116 169 212 257 309 368
#     4   8  16  31  54  94 123 137 196 271 313 348
#     4  11  21  36  65  94 123 159 216 262 309 366
#     4   8  16  30  56  87 118 151 192 260 312 348
#     4  10  20  34  66 100 117 153 221 274 300 358
#     4  12  27  41  56  92 139 167 198 261 328 377
#     4  10  20  38  65  92 122 157 219 261 307 373
#
# _framework density 25.432005
#
# number of rings (size 3 to 8) (size 9 to 14) (size 15 to 20)
#    0.000    2.000    1.429    6.000    4.000    0.000 
#    0.000    1.429    0.000    4.286    0.000    0.000 
#    0.000    0.000    0.000    0.000    0.000    0.000 
#
# Total GULP energy -78173.236641 kJ/mol
# GULP energy per Si atom -5583.802617 kJ/mol
# Density = 2.537412 g / cm^3
# Si number density = 25.432005 Si / 1000 Ang^3
#
#
#
# Elastic Constant Matrix: (Units=GPa)
#
#
# Indices 1 2 3 4 5 6 
#
# 1 117.2830 51.6348 7.9668 -6.1592 -5.7012 27.8275
# 2 51.6348 175.3673 34.9124 -21.7064 -2.7041 25.3503
# 3 7.9668 34.9124 57.0020 -11.0779 -9.4327 4.4237
# 4 -6.1592 -21.7064 -11.0779 35.1908 4.1734 -5.0414
# 5 -5.7012 -2.7041 -9.4327 4.1734 19.8112 -3.8869
# 6 27.8275 25.3503 4.4237 -5.0414 -3.8869 56.8609
#
#
#
# Elastic Compliance Matrix: (Units=1/GPa)
#
#
# Indices 1 2 3 4 5 6 
#
# 1 0.010720 -0.002763 0.000818 -0.000423 0.002411 -0.003951
# 2 -0.002763 0.007956 -0.004181 0.003176 -0.002717 -0.001774
# 3 0.000818 -0.004181 0.022213 0.003515 0.009639 0.000707
# 4 -0.000423 0.003176 0.003515 0.032100 -0.004571 0.001051
# 5 0.002411 -0.002717 0.009639 -0.004571 0.056895 0.002766
# 6 -0.003951 -0.001774 0.000707 0.001051 0.002766 0.020538
#
#
# Mechanical properties :
#
#
# Convention : Reuss Voigt Hill
#
# Bulk Modulus (GPa) = 34.92250 59.85338 47.38794
# Shear Modulus (GPa) = 29.03247 39.38180 34.20713
#
# Velocity S-wave (km/s) = 3.38238 3.93938 3.67146
# Velocity P-wave (km/s) = 5.38661 6.65413 6.05363
#
# Compressibility (1/GPa) = 0.02863483
#
# Stress axis : x y z
#
# Youngs Moduli (GPa) = 93.28651 125.69332 45.01798
#
# Poissons Ratio (x) = 0.34730 -0.03680
# Poissons Ratio (y) = 0.25776 0.18824
# Poissons Ratio (z) = -0.07626 0.52558
#
# Static dielectric constant tensor:
#      x y z
#    x 2.007090 0.033790 0.071400 
#    y 0.033790 2.091820 0.042930 
#    z 0.071400 0.042930 2.113350 
# 
# From -- ./inp_files/332500.got.cif
#   From: 2010.05.17/outbox.cif.g08.bks.cpg/sg2_167_cif.got.tgz:332500.got - 2010.06.03 11:33:40.
