data_PCOD9094380
_publ_section_title
;
Structure prediction by ZEFSAII (Michael W. Deem and Ramdas Pophale) SiO2 
 PCOD9094380
Probable space group: P -1
;
_chemical_formula_sum "Si O2"
_cell_formula_units_Z 16
_cell_length_a 12.634634
_cell_length_b 11.950720
_cell_length_c 14.406170
_cell_angle_alpha 27.372955
_cell_angle_beta 44.271790
_cell_angle_gamma 60.026595
_cell_volume 632.106640
_symmetry_space_group_name_H-M "P -1"
_symmetry_group_IT_number 2
_symmetry_cell_setting 'triclinic'
loop_
_space_group_symop_operation_xyz
x,y,z
-x,-y,-z
loop_
_atom_site_type_symbol
_atom_site_label
_atom_site_fract_x
_atom_site_fract_y
_atom_site_fract_z
Si Si1 0.500049 0.747691 0.262665
Si Si2 0.080720 0.022623 0.710973
Si Si3 0.661500 0.343925 0.756560
Si Si4 0.150602 0.019256 0.455484
Si Si5 0.541302 0.437181 0.179793
Si Si6 0.861877 0.432095 0.312981
Si Si7 0.336932 0.912070 0.767441
Si Si8 0.022460 0.512088 0.343107
O O1 0.500000 0.500000 0.500000
O O2 0.477903 0.682888 0.215015
O O3 0.319553 0.737464 0.406657
O O4 0.636601 0.035262 0.998521
O O5 0.140780 0.055028 0.543806
O O6 0.036022 0.274234 0.567795
O O7 0.221038 0.977880 0.716203
O O8 0.914818 0.744742 0.031950
O O9 0.607638 0.463465 0.791607
O O10 0.850446 0.529920 0.466970
O O11 0.144370 0.725443 0.660155
O O12 0.302926 0.276235 0.128524
O O13 0.000000 0.000000 0.500000
O O14 0.584699 0.284267 0.178684
O O15 0.491362 0.206096 0.461683
O O16 0.988856 0.429149 0.316076
O O17 0.200764 0.772149 0.036934
#
# Coordination Sequence:
#
# PCOD9094380 Si02
#       8
#     2   2   2   2   2   2   2   2
#     4  10  20  35  56  89 128 161 196 243 310 390
#     4  11  21  38  64  88 121 170 206 256 310 368
#     4  10  22  38  62  88 128 167 195 258 319 357
#     4  12  21  36  62  91 124 156 202 258 310 373
#     4  11  23  45  62  92 129 162 212 263 305 364
#     4  10  20  34  56  91 122 155 201 248 315 368
#     4  10  24  44  65  86 123 170 217 260 299 358
#     4  10  20  41  62  89 122 163 205 254 308 372
#
# _framework density 25.312183999999998
#
# number of rings (size 3 to 8) (size 9 to 14) (size 15 to 20)
#    0.000    1.500    3.750    1.875    0.000    3.000 
#    0.000    0.625    0.000    0.000    0.000    0.000 
#    0.000    0.000    0.000    0.000    0.000    0.000 
#
# Total GULP energy -89281.721965 kJ/mol
# GULP energy per Si atom -5580.107623 kJ/mol
# Density = 2.525457 g / cm^3
# Si number density = 25.312184 Si / 1000 Ang^3
#
#
#
# Elastic Constant Matrix: (Units=GPa)
#
#
# Indices 1 2 3 4 5 6 
#
# 1 74.9389 27.2860 32.8872 -5.5722 9.9644 -5.2055
# 2 27.2860 73.3156 26.0215 8.5573 -1.1980 1.2923
# 3 32.8872 26.0215 187.7680 11.1211 -0.8899 1.2155
# 4 -5.5722 8.5573 11.1211 42.7548 -15.4845 -6.6256
# 5 9.9644 -1.1980 -0.8899 -15.4845 28.1321 -6.1495
# 6 -5.2055 1.2923 1.2155 -6.6256 -6.1495 16.5439
#
#
#
# Elastic Compliance Matrix: (Units=1/GPa)
#
#
# Indices 1 2 3 4 5 6 
#
# 1 0.018025 -0.006479 -0.002580 0.004423 -0.002752 0.007116
# 2 -0.006479 0.017080 -0.000878 -0.005429 -0.001298 -0.005965
# 3 -0.002580 -0.000878 0.006053 -0.002397 -0.000785 -0.002440
# 4 0.004423 -0.005429 -0.002397 0.039179 0.025640 0.027213
# 5 -0.002752 -0.001298 -0.000785 0.025640 0.057300 0.030861
# 6 0.007116 -0.005965 -0.002440 0.027213 0.030861 0.085699
#
#
# Mechanical properties :
#
#
# Convention : Reuss Voigt Hill
#
# Bulk Modulus (GPa) = 46.98516 56.49020 51.73768
# Shear Modulus (GPa) = 19.97552 34.14136 27.05844
#
# Velocity S-wave (km/s) = 2.81226 3.67660 3.27309
# Velocity P-wave (km/s) = 5.39885 6.35524 5.89647
#
# Compressibility (1/GPa) = 0.02128332
#
# Stress axis : x y z
#
# Youngs Moduli (GPa) = 55.47933 58.54692 165.19607
#
# Poissons Ratio (x) = 0.37934 0.42623
# Poissons Ratio (y) = 0.35946 0.14508
# Poissons Ratio (z) = 0.14315 0.05142
#
# Static dielectric constant tensor:
#      x y z
#    x 2.200310 0.073800 -0.066640 
#    y 0.073800 2.116130 -0.045430 
#    z -0.066640 -0.045430 2.025640 
# 
# From -- ./inp_files/538830.got.cif
#   From: 2010.05.17/outbox.cif.g08.bks.cpg/sg2_270_cif.got.tgz:538830.got - 2010.06.03 11:33:40.
