data_PCOD9094293
_publ_section_title
;
Structure prediction by ZEFSAII (Michael W. Deem and Ramdas Pophale) SiO2 
 PCOD9094293
Probable space group: P -1
;
_chemical_formula_sum "Si O2"
_cell_formula_units_Z 15
_cell_length_a 9.967836
_cell_length_b 14.672139
_cell_length_c 9.806522
_cell_angle_alpha 140.856265
_cell_angle_beta 133.018062
_cell_angle_gamma 38.306323
_cell_volume 551.177178
_symmetry_space_group_name_H-M "P -1"
_symmetry_group_IT_number 2
_symmetry_cell_setting 'triclinic'
loop_
_space_group_symop_operation_xyz
x,y,z
-x,-y,-z
loop_
_atom_site_type_symbol
_atom_site_label
_atom_site_fract_x
_atom_site_fract_y
_atom_site_fract_z
Si Si1 0.369020 0.827585 0.439839
Si Si2 0.058318 0.062575 0.875464
Si Si3 0.000000 0.500000 0.500000
Si Si4 0.271311 0.241768 0.588218
Si Si5 0.096246 0.720390 0.446057
Si Si6 0.643280 0.474322 0.365091
Si Si7 0.196780 0.184679 0.880035
Si Si8 0.574129 0.167733 0.964371
O O1 0.586254 0.814574 0.517508
O O2 0.451578 0.663306 0.402728
O O3 0.201315 0.836321 0.220597
O O4 0.245088 0.005273 0.641539
O O5 0.147426 0.165700 0.978592
O O6 0.146911 0.868788 0.652173
O O7 0.183519 0.003606 0.037985
O O8 0.111670 0.443448 0.669363
O O9 0.156547 0.566796 0.642386
O O10 0.109206 0.197809 0.494316
O O11 0.457647 0.170492 0.748690
O O12 0.279733 0.547352 0.449689
O O13 0.013660 0.683646 0.206479
O O14 0.589624 0.331369 0.149082
O O15 0.407614 0.188318 0.993059
#
# Coordination Sequence:
#
# PCOD9094293 Si02
#       8
#     2   2   1   2   2   2   2   2
#     4  10  20  34  56  81 109 137 183 222 254 319
#     4  10  20  36  53  76 109 148 178 216 270 315
#     4   8  16  32  54  76 110 140 166 208 264 328
#     4   9  18  33  55  83 108 139 173 217 270 315
#     4   8  16  32  55  76 104 141 178 211 258 322
#     4   9  18  35  55  82 106 141 178 214 265 317
#     4  10  20  37  56  75 105 147 182 221 265 309
#     4  10  21  36  56  77 109 143 175 217 274 323
#
# _framework density 27.214476999999999
#
# number of rings (size 3 to 8) (size 9 to 14) (size 15 to 20)
#    0.000    2.667    0.000    2.000    0.000    7.467 
#    0.000   16.000    0.000    0.000    0.000    0.000 
#    0.000    0.000    0.000    0.000    0.000    0.000 
#
# Total GULP energy -83569.657577 kJ/mol
# GULP energy per Si atom -5571.310505 kJ/mol
# Density = 2.715254 g / cm^3
# Si number density = 27.214477 Si / 1000 Ang^3
#
#
#
# Elastic Constant Matrix: (Units=GPa)
#
#
# Indices 1 2 3 4 5 6 
#
# 1 135.4436 31.8320 28.6271 10.0771 41.9258 21.1024
# 2 31.8320 186.0535 59.9933 -17.7489 10.8430 44.1015
# 3 28.6271 59.9933 72.9569 -13.3447 24.2883 5.8064
# 4 10.0771 -17.7489 -13.3447 32.7888 4.5017 4.1027
# 5 41.9258 10.8430 24.2883 4.5017 41.1554 5.3875
# 6 21.1024 44.1015 5.8064 4.1027 5.3875 41.4277
#
#
#
# Elastic Compliance Matrix: (Units=1/GPa)
#
#
# Indices 1 2 3 4 5 6 
#
# 1 0.011684 -0.000440 -0.000814 -0.002237 -0.010568 -0.003774
# 2 -0.000440 0.010932 -0.008526 0.003461 0.003666 -0.011038
# 3 -0.000814 -0.008526 0.026676 0.007609 -0.014399 0.006871
# 4 -0.002237 0.003461 0.007609 0.037852 -0.006409 -0.006526
# 5 -0.010568 0.003666 -0.014399 -0.006409 0.043497 -0.001523
# 6 -0.003774 -0.011038 0.006871 -0.006526 -0.001523 0.037693
#
#
# Mechanical properties :
#
#
# Convention : Reuss Voigt Hill
#
# Bulk Modulus (GPa) = 33.63240 70.59543 52.11392
# Shear Modulus (GPa) = 25.27752 41.34113 33.30933
#
# Velocity S-wave (km/s) = 3.05097 3.90177 3.50230
# Velocity P-wave (km/s) = 4.97959 6.80405 5.96203
#
# Compressibility (1/GPa) = 0.02973323
#
# Stress axis : x y z
#
# Youngs Moduli (GPa) = 85.58608 91.47208 37.48718
#
# Poissons Ratio (x) = 0.04022 0.03050
# Poissons Ratio (y) = 0.03763 0.31962
# Poissons Ratio (z) = 0.06964 0.77990
#
# Static dielectric constant tensor:
#      x y z
#    x 2.152180 -0.084860 -0.071400 
#    y -0.084860 2.293910 0.016150 
#    z -0.071400 0.016150 2.171260 
# 
# From -- ./inp_files/411931.got.cif
#   From: 2010.05.17/outbox.cif.g08.bks.cpg/sg2_206_cif.got.tgz:411931.got - 2010.06.03 11:33:40.
