data_PCOD9094422
_publ_section_title
;
Structure prediction by ZEFSAII (Michael W. Deem and Ramdas Pophale) SiO2 
 PCOD9094422
Probable space group: P -1
;
_chemical_formula_sum "Si O2"
_cell_formula_units_Z 14
_cell_length_a 5.418824
_cell_length_b 20.084429
_cell_length_c 7.578846
_cell_angle_alpha 116.475746
_cell_angle_beta 46.192794
_cell_angle_gamma 117.711440
_cell_volume 516.978757
_symmetry_space_group_name_H-M "P -1"
_symmetry_group_IT_number 2
_symmetry_cell_setting 'triclinic'
loop_
_space_group_symop_operation_xyz
x,y,z
-x,-y,-z
loop_
_atom_site_type_symbol
_atom_site_label
_atom_site_fract_x
_atom_site_fract_y
_atom_site_fract_z
Si Si1 0.185424 0.589159 0.471673
Si Si2 0.511751 0.257315 0.875622
Si Si3 0.924213 0.298995 0.035293
Si Si4 0.281855 0.878729 0.506174
Si Si5 0.006152 0.011492 0.720844
Si Si6 0.197705 0.450281 0.722115
Si Si7 0.240099 0.848199 0.867186
O O1 0.074276 0.641599 0.737008
O O2 0.594843 0.592732 0.300158
O O3 0.000000 0.500000 0.500000
O O4 0.057614 0.601643 0.354126
O O5 0.785576 0.204372 0.644733
O O6 0.706893 0.317065 0.995855
O O7 0.319573 0.284500 0.832840
O O8 0.156209 0.198309 0.052867
O O9 0.683272 0.215454 0.116763
O O10 0.619932 0.938180 0.326555
O O11 0.431850 0.864146 0.606274
O O12 0.985950 0.926846 0.710330
O O13 0.000000 0.000000 0.500000
O O14 0.765261 0.069852 0.952913
O O15 0.500000 0.500000 0.500000
O O16 0.000000 0.500000 0.000000
#
# Coordination Sequence:
#
# PCOD9094422 Si02
#       7
#     2   2   2   2   2   2   2
#     4  10  21  39  67  94 127 168 213 268 324 387
#     4   9  21  38  59  83 121 158 197 251 297 366
#     4  10  20  41  61  85 127 157 202 253 305 369
#     4  10  20  36  56  86 115 156 202 244 307 358
#     4  10  20  34  57  83 117 153 198 252 299 361
#     4  10  21  40  67  96 133 169 212 270 329 391
#     4   9  21  36  56  83 120 156 199 250 300 368
#
# _framework density 27.080414000000001
#
# number of rings (size 3 to 8) (size 9 to 14) (size 15 to 20)
#    0.857    1.429    0.000    2.571    0.000    1.714 
#    0.000    8.571    0.000    0.000    0.000    0.000 
#    0.000    0.000    0.000    0.000    0.000    0.000 
#
# Total GULP energy -78142.848852 kJ/mol
# GULP energy per Si atom -5581.632061 kJ/mol
# Density = 2.701878 g / cm^3
# Si number density = 27.080414 Si / 1000 Ang^3
#
#
#
# Elastic Constant Matrix: (Units=GPa)
#
#
# Indices 1 2 3 4 5 6 
#
# 1 195.4492 29.3168 23.6641 10.0114 13.2640 -4.8034
# 2 29.3168 95.2560 8.6237 11.1635 -1.7608 -1.4108
# 3 23.6641 8.6237 107.9085 36.2631 4.8691 -0.1799
# 4 10.0114 11.1635 36.2631 41.1024 0.8226 -2.1050
# 5 13.2640 -1.7608 4.8691 0.8226 53.5129 2.5704
# 6 -4.8034 -1.4108 -0.1799 -2.1050 2.5704 54.1566
#
#
#
# Elastic Compliance Matrix: (Units=1/GPa)
#
#
# Indices 1 2 3 4 5 6 
#
# 1 0.005594 -0.001652 -0.001056 0.000072 -0.001371 0.000517
# 2 -0.001652 0.011343 0.000463 -0.003103 0.000789 -0.000008
# 3 -0.001056 0.000463 0.013437 -0.011732 -0.000743 -0.000458
# 4 0.000072 -0.003103 -0.011732 0.035563 0.000341 0.001253
# 5 -0.001371 0.000789 -0.000743 0.000341 0.019163 -0.001000
# 6 0.000517 -0.000008 -0.000458 0.001253 -0.001000 0.018605
#
#
# Mechanical properties :
#
#
# Convention : Reuss Voigt Hill
#
# Bulk Modulus (GPa) = 38.63502 57.98031 48.30766
# Shear Modulus (GPa) = 42.79943 52.22167 47.51055
#
# Velocity S-wave (km/s) = 3.97981 4.39611 4.19313
# Velocity P-wave (km/s) = 5.95116 6.87202 6.42810
#
# Compressibility (1/GPa) = 0.02588325
#
# Stress axis : x y z
#
# Youngs Moduli (GPa) = 178.75701 88.16226 74.42061
#
# Poissons Ratio (x) = 0.14566 0.07860
# Poissons Ratio (y) = 0.29534 -0.03446
# Poissons Ratio (z) = 0.18881 -0.04082
#
# Static dielectric constant tensor:
#      x y z
#    x 2.101090 0.161830 -0.110660 
#    y 0.161830 2.071370 0.023970 
#    z -0.110660 0.023970 2.097170 
# 
# From -- ./inp_files/142633.got.cif
#   From: 2010.05.17/outbox.cif.g08.bks.cpg/sg2_72_cif.got.tgz:142633.got - 2010.06.03 11:33:40.
