data_PCOD9094088
_publ_section_title
;
Structure prediction by ZEFSAII (Michael W. Deem and Ramdas Pophale) SiO2 
 PCOD9094088
Probable space group: P -1
;
_chemical_formula_sum "Si O2"
_cell_formula_units_Z 16
_cell_length_a 22.596228
_cell_length_b 20.595442
_cell_length_c 8.064944
_cell_angle_alpha 137.692619
_cell_angle_beta 127.514548
_cell_angle_gamma 19.355531
_cell_volume 768.141125
_symmetry_space_group_name_H-M "P -1"
_symmetry_group_IT_number 2
_symmetry_cell_setting 'triclinic'
loop_
_space_group_symop_operation_xyz
x,y,z
-x,-y,-z
loop_
_atom_site_type_symbol
_atom_site_label
_atom_site_fract_x
_atom_site_fract_y
_atom_site_fract_z
Si Si1 0.495007 0.119598 0.235204
Si Si2 0.892893 0.317156 0.041029
Si Si3 0.923135 0.706861 0.620526
Si Si4 0.118751 0.291843 0.074369
Si Si5 0.104606 0.092057 0.643460
Si Si6 0.530989 0.211755 0.750626
Si Si7 0.484441 0.411129 0.739793
Si Si8 0.856973 0.313024 0.342734
O O1 0.536730 0.101434 0.460690
O O2 0.297336 0.412265 0.400461
O O3 0.500000 0.000000 0.000000
O O4 0.673567 0.945594 0.103596
O O5 0.675347 0.543742 0.047647
O O6 0.931716 0.221533 0.106249
O O7 0.912978 0.407953 0.286803
O O8 0.030326 0.139218 0.780801
O O9 0.861981 0.735210 0.745276
O O10 0.993106 0.538763 0.299478
O O11 0.729866 0.990488 0.765395
O O12 0.035359 0.286634 0.875260
O O13 0.018860 0.138042 0.426365
O O14 0.338232 0.814662 0.510980
O O15 0.521657 0.298457 0.749064
O O16 0.274542 0.623919 0.723779
O O17 0.500000 0.500000 0.000000
#
# Coordination Sequence:
#
# PCOD9094088 Si02
#       8
#     2   2   2   2   2   2   2   2
#     4  10  20  34  53  84 119 152 200 242 287 354
#     4   9  21  37  56  89 124 152 202 250 288 358
#     4  10  21  35  56  83 128 159 198 248 290 347
#     4  10  20  36  53  89 120 161 205 240 286 363
#     4  11  21  38  64  88 115 167 197 241 316 355
#     4  10  21  38  58  85 115 162 193 246 306 345
#     4  10  22  43  64  89 120 151 204 260 303 361
#     4  10  22  39  60  89 120 157 198 252 301 357
#
# _framework density 20.829505000000001
#
# number of rings (size 3 to 8) (size 9 to 14) (size 15 to 20)
#    0.000    2.250    2.500    2.250    3.500    1.000 
#    0.000    5.000    0.000   12.750    0.000    0.000 
#    0.000    0.000    0.000    0.000    0.000    0.000 
#
# Total GULP energy -89214.374395 kJ/mol
# GULP energy per Si atom -5575.898400 kJ/mol
# Density = 2.078210 g / cm^3
# Si number density = 20.829505 Si / 1000 Ang^3
#
#
#
# Elastic Constant Matrix: (Units=GPa)
#
#
# Indices 1 2 3 4 5 6 
#
# 1 77.9872 28.8102 30.9634 8.9112 -26.5201 -28.5656
# 2 28.8102 49.6531 2.3922 0.1453 -10.7617 -8.9284
# 3 30.9634 2.3922 49.5650 -0.8822 -2.6690 -14.0841
# 4 8.9112 0.1453 -0.8822 18.3408 -16.4569 -7.6473
# 5 -26.5201 -10.7617 -2.6690 -16.4569 37.0376 6.6473
# 6 -28.5656 -8.9284 -14.0841 -7.6473 6.6473 22.5291
#
#
#
# Elastic Compliance Matrix: (Units=1/GPa)
#
#
# Indices 1 2 3 4 5 6 
#
# 1 0.047812 -0.011888 -0.014106 0.024302 0.032342 0.045799
# 2 -0.011888 0.028285 0.007474 0.011615 0.004807 0.003332
# 3 -0.014106 0.007474 0.031006 0.008872 -0.003266 0.008435
# 4 0.024302 0.011615 0.008872 0.131425 0.068057 0.065493
# 5 0.032342 0.004807 -0.003266 0.068057 0.073996 0.042140
# 6 0.045799 0.003332 0.008435 0.065493 0.042140 0.118849
#
#
# Mechanical properties :
#
#
# Convention : Reuss Voigt Hill
#
# Bulk Modulus (GPa) = 14.27321 33.50410 23.88865
# Shear Modulus (GPa) = 10.16744 23.25081 16.70913
#
# Velocity S-wave (km/s) = 2.21176 3.34465 2.83536
# Velocity P-wave (km/s) = 3.65920 5.57094 4.71302
#
# Compressibility (1/GPa) = 0.07006131
#
# Stress axis : x y z
#
# Youngs Moduli (GPa) = 20.91533 35.35494 32.25206
#
# Poissons Ratio (x) = 0.42030 0.45496
# Poissons Ratio (y) = 0.24864 -0.24105
# Poissons Ratio (z) = 0.29504 -0.26424
#
# Static dielectric constant tensor:
#      x y z
#    x 1.752040 -0.005370 0.025380 
#    y -0.005370 1.781280 0.019080 
#    z 0.025380 0.019080 1.804700 
# 
# From -- ./inp_files/207541.got.cif
#   From: 2010.05.17/outbox.cif.g08.bks.cpg/sg2_104_cif.got.tgz:207541.got - 2010.06.03 11:33:40.
