data_PCOD9094350
_publ_section_title
;
Structure prediction by ZEFSAII (Michael W. Deem and Ramdas Pophale) SiO2 
 PCOD9094350
Probable space group: P -1
;
_chemical_formula_sum "Si O2"
_cell_formula_units_Z 14
_cell_length_a 5.148683
_cell_length_b 5.311250
_cell_length_c 20.906287
_cell_angle_alpha 89.390486
_cell_angle_beta 65.878335
_cell_angle_gamma 97.447057
_cell_volume 516.100241
_symmetry_space_group_name_H-M "P -1"
_symmetry_group_IT_number 2
_symmetry_cell_setting 'triclinic'
loop_
_space_group_symop_operation_xyz
x,y,z
-x,-y,-z
loop_
_atom_site_type_symbol
_atom_site_label
_atom_site_fract_x
_atom_site_fract_y
_atom_site_fract_z
Si Si1 0.381409 0.407422 0.909009
Si Si2 0.823684 0.354160 0.771488
Si Si3 0.747670 0.839206 0.956794
Si Si4 0.827442 0.220823 0.175647
Si Si5 0.088053 0.898757 0.424118
Si Si6 0.616143 0.711705 0.689650
Si Si7 0.690825 0.683661 0.363003
O O1 0.580587 0.244173 0.847428
O O2 0.595661 0.598745 0.931585
O O3 0.247860 0.583490 0.871812
O O4 0.163653 0.257903 0.982348
O O5 0.678983 0.470981 0.724957
O O6 0.982666 0.604100 0.792199
O O7 0.074302 0.214353 0.716779
O O8 0.995124 0.959983 0.882378
O O9 0.500000 0.000000 0.000000
O O10 0.541899 0.124518 0.244724
O O11 0.403392 0.813465 0.395698
O O12 0.851132 0.692385 0.414818
O O13 0.112256 0.126656 0.369717
O O14 0.000000 0.000000 0.500000
O O15 0.419814 0.599623 0.650590
#
# Coordination Sequence:
#
# PCOD9094350 Si02
#       7
#     2   2   2   2   2   2   2
#     4   9  19  37  56  85 126 168 217 283 327 394
#     4   9  19  42  65  93 127 176 227 277 336 393
#     4  10  20  34  56  86 125 169 222 271 338 397
#     4   9  19  37  62  87 126 174 221 276 341 390
#     4  12  28  45  70 107 140 178 227 278 344 416
#     4  10  23  45  71  95 140 177 229 290 333 404
#     4  11  24  46  70 101 137 181 229 271 348 408
#
# _framework density 27.126508999999999
#
# number of rings (size 3 to 8) (size 9 to 14) (size 15 to 20)
#    0.000    2.000    1.429    0.857    4.000    2.857 
#    5.143    0.000    0.000    0.000    0.000    0.000 
#    0.000    0.000    0.000    0.000    0.000    0.000 
#
# Total GULP energy -78359.589640 kJ/mol
# GULP energy per Si atom -5597.113546 kJ/mol
# Density = 2.706477 g / cm^3
# Si number density = 27.126509 Si / 1000 Ang^3
#
#
#
# Elastic Constant Matrix: (Units=GPa)
#
#
# Indices 1 2 3 4 5 6 
#
# 1 127.6965 20.6591 57.1941 28.3704 -0.8355 -10.9467
# 2 20.6591 56.1470 52.6456 16.3127 0.7186 -3.0231
# 3 57.1941 52.6456 229.7291 54.8758 -19.1500 -8.6000
# 4 28.3704 16.3127 54.8758 49.1463 1.5160 -0.9561
# 5 -0.8355 0.7186 -19.1500 1.5160 51.6585 16.4168
# 6 -10.9467 -3.0231 -8.6000 -0.9561 16.4168 48.4123
#
#
#
# Elastic Compliance Matrix: (Units=1/GPa)
#
#
# Indices 1 2 3 4 5 6 
#
# 1 0.009563 -0.001178 -0.001218 -0.003703 -0.000833 0.002082
# 2 -0.001178 0.023330 -0.004843 -0.001558 -0.002453 0.001131
# 3 -0.001218 -0.004843 0.007479 -0.006146 0.003139 -0.000435
# 4 -0.003703 -0.001558 -0.006146 0.029952 -0.003071 -0.000394
# 5 -0.000833 -0.002453 0.003139 -0.003071 0.023069 -0.007667
# 6 0.002082 0.001131 -0.000435 -0.000394 -0.007667 0.023712
#
#
# Mechanical properties :
#
#
# Convention : Reuss Voigt Hill
#
# Bulk Modulus (GPa) = 38.61781 74.95223 56.78502
# Shear Modulus (GPa) = 35.65956 48.71500 42.18728
#
# Velocity S-wave (km/s) = 3.62963 4.24234 3.94789
# Velocity P-wave (km/s) = 5.64205 7.18938 6.46219
#
# Compressibility (1/GPa) = 0.02589479
#
# Stress axis : x y z
#
# Youngs Moduli (GPa) = 104.57118 42.86357 133.69892
#
# Poissons Ratio (x) = 0.05050 0.16281
# Poissons Ratio (y) = 0.12320 0.64749
# Poissons Ratio (z) = 0.12734 0.20758
#
# Static dielectric constant tensor:
#      x y z
#    x 2.226790 0.029990 -0.087110 
#    y 0.029990 2.188540 -0.033970 
#    z -0.087110 -0.033970 2.087810 
# 
# From -- ./inp_files/7929.got.cif
#   From: 2010.05.17/outbox.cif.g08.bks.cpg/sg2_4_cif.got.tgz:7929.got - 2010.06.03 11:33:40.
