data_PCOD9094586
_publ_section_title
;
Structure prediction by ZEFSAII (Michael W. Deem and Ramdas Pophale) SiO2 
 PCOD9094586
Probable space group: P -1
;
_chemical_formula_sum "Si O2"
_cell_formula_units_Z 14
_cell_length_a 8.342188
_cell_length_b 12.468011
_cell_length_c 23.190175
_cell_angle_alpha 159.588059
_cell_angle_beta 116.925986
_cell_angle_gamma 72.957864
_cell_volume 679.862603
_symmetry_space_group_name_H-M "P -1"
_symmetry_group_IT_number 2
_symmetry_cell_setting 'triclinic'
loop_
_space_group_symop_operation_xyz
x,y,z
-x,-y,-z
loop_
_atom_site_type_symbol
_atom_site_label
_atom_site_fract_x
_atom_site_fract_y
_atom_site_fract_z
Si Si1 0.876741 0.221505 0.084680
Si Si2 0.147128 0.456845 0.454216
Si Si3 0.513176 0.616584 0.127755
Si Si4 0.838175 0.256385 0.894540
Si Si5 0.555831 0.073213 0.180313
Si Si6 0.147049 0.495892 0.654209
Si Si7 0.945015 0.746328 0.269397
O O1 0.817741 0.318880 0.185803
O O2 0.991519 0.567341 0.241488
O O3 0.672580 0.019995 0.915285
O O4 0.000000 0.000000 0.000000
O O5 0.361965 0.716647 0.641696
O O6 0.000000 0.500000 0.500000
O O7 0.060807 0.527451 0.417080
O O8 0.136206 0.085081 0.265042
O O9 0.374854 0.813930 0.203502
O O10 0.742757 0.793876 0.272292
O O11 0.500000 0.500000 0.000000
O O12 0.422658 0.277589 0.981756
O O13 0.882242 0.473935 0.070056
O O14 0.000000 0.500000 0.000000
O O15 0.685500 0.289347 0.256678
O O16 0.114382 0.107880 0.461201
#
# Coordination Sequence:
#
# PCOD9094586 Si02
#       7
#     2   2   2   2   2   2   2
#     4  11  24  41  60  87 123 162 201 247 304 362
#     4  10  20  34  58  91 119 148 193 250 298 344
#     4   9  19  36  56  83 121 157 191 241 302 353
#     4  11  19  33  59  91 121 156 200 249 298 358
#     4  10  21  40  62  87 120 160 201 247 300 357
#     4  11  21  40  63  86 117 162 204 246 298 361
#     4  10  22  40  59  85 122 161 199 250 306 357
#
# _framework density 20.592395
#
# number of rings (size 3 to 8) (size 9 to 14) (size 15 to 20)
#    0.000    1.714    0.000    6.857    0.000    1.143 
#    0.000    8.571    0.000    0.000    0.000    0.000 
#    0.000    0.000    0.000    0.000    0.000    0.000 
#
# Total GULP energy -78184.381922 kJ/mol
# GULP energy per Si atom -5584.598709 kJ/mol
# Density = 2.054553 g / cm^3
# Si number density = 20.592395 Si / 1000 Ang^3
#
#
#
# Elastic Constant Matrix: (Units=GPa)
#
#
# Indices 1 2 3 4 5 6 
#
# 1 59.3532 31.3736 26.3416 18.4062 -3.5176 -7.9191
# 2 31.3736 92.4311 21.8817 28.2790 16.8755 -11.4652
# 3 26.3416 21.8817 86.5625 26.5797 9.5519 -5.9091
# 4 18.4062 28.2790 26.5797 53.9665 -0.3891 4.3371
# 5 -3.5176 16.8755 9.5519 -0.3891 20.6936 13.2290
# 6 -7.9191 -11.4652 -5.9091 4.3371 13.2290 34.5679
#
#
#
# Elastic Compliance Matrix: (Units=1/GPa)
#
#
# Indices 1 2 3 4 5 6 
#
# 1 0.028644 -0.016351 -0.010685 0.005382 0.031916 -0.013577
# 2 -0.016351 0.036581 0.012270 -0.023087 -0.062572 0.037328
# 3 -0.010685 0.012270 0.021792 -0.015452 -0.035519 0.020879
# 4 0.005382 -0.023087 -0.015452 0.039366 0.048412 -0.032532
# 5 0.031916 -0.062572 -0.035519 0.048412 0.183280 -0.095728
# 6 -0.013577 0.037328 0.020879 -0.032532 -0.095728 0.082484
#
#
# Mechanical properties :
#
#
# Convention : Reuss Voigt Hill
#
# Bulk Modulus (GPa) = 17.39534 44.17116 30.78325
# Shear Modulus (GPa) = 11.34198 32.42893 21.88546
#
# Velocity S-wave (km/s) = 2.34943 3.97268 3.26359
# Velocity P-wave (km/s) = 3.97813 6.52225 5.40210
#
# Compressibility (1/GPa) = 0.05748668
#
# Stress axis : x y z
#
# Youngs Moduli (GPa) = 34.91113 27.33622 45.88938
#
# Poissons Ratio (x) = 0.44697 0.49031
# Poissons Ratio (y) = 0.57083 -0.56307
# Poissons Ratio (z) = 0.37301 -0.33542
#
# Static dielectric constant tensor:
#      x y z
#    x 0.931820 0.141230 1.399880 
#    y 0.141230 1.713710 -0.234520 
#    z 1.399880 -0.234520 -0.508900 
# 
# From -- ./inp_files/176762.got.cif
#   From: 2010.05.17/outbox.cif.g08.bks.cpg/sg2_89_cif.got.tgz:176762.got - 2010.06.03 11:33:40.
