data_PCOD9094888
_publ_section_title
;
Structure prediction by ZEFSAII (Michael W. Deem and Ramdas Pophale) SiO2 
 PCOD9094888
Probable space group: P -1
;
_chemical_formula_sum "Si O2"
_cell_formula_units_Z 16
_cell_length_a 14.124613
_cell_length_b 11.170109
_cell_length_c 14.227879
_cell_angle_alpha 33.488685
_cell_angle_beta 56.919825
_cell_angle_gamma 53.373566
_cell_volume 988.116062
_symmetry_space_group_name_H-M "P -1"
_symmetry_group_IT_number 2
_symmetry_cell_setting 'triclinic'
loop_
_space_group_symop_operation_xyz
x,y,z
-x,-y,-z
loop_
_atom_site_type_symbol
_atom_site_label
_atom_site_fract_x
_atom_site_fract_y
_atom_site_fract_z
Si Si1 0.617073 0.331900 0.258237
Si Si2 0.332729 0.047080 0.383090
Si Si3 0.502950 0.097495 0.782794
Si Si4 0.625159 0.294693 0.881334
Si Si5 0.641502 0.454852 0.960072
Si Si6 0.283935 0.436543 0.776161
Si Si7 0.138726 0.910450 0.464692
Si Si8 0.263006 0.986066 0.162598
O O1 0.476752 0.467998 0.239576
O O2 0.672156 0.461205 0.221798
O O3 0.642608 0.077594 0.449054
O O4 0.673004 0.344227 0.117765
O O5 0.334682 0.303853 0.213921
O O6 0.210942 0.030764 0.415293
O O7 0.435913 0.901653 0.351367
O O8 0.398668 0.318846 0.726176
O O9 0.609869 0.049809 0.830935
O O10 0.447411 0.889195 0.949021
O O11 0.688239 0.312990 0.933501
O O12 0.713138 0.203379 0.807278
O O13 0.500000 0.500000 0.000000
O O14 0.193359 0.643075 0.634867
O O15 0.232738 0.234745 0.968878
O O16 0.173360 0.960453 0.307705
O O17 0.000000 0.000000 0.500000
#
# Coordination Sequence:
#
# PCOD9094888 Si02
#       8
#     2   2   2   2   2   2   2   2
#     4  10  17  28  46  69 103 138 159 188 244 297
#     4  10  20  31  51  73 102 137 164 196 254 297
#     4  10  16  30  49  79 105 127 159 199 254 319
#     4  10  17  29  48  72 108 132 159 194 243 308
#     4  10  19  32  43  72 111 136 160 198 233 302
#     4  10  18  31  53  76 101 130 161 203 261 304
#     4  10  23  36  51  76  99 128 177 213 243 294
#     4  10  18  32  53  73 103 133 160 203 258 296
#
# _framework density 16.192430000000002
#
# number of rings (size 3 to 8) (size 9 to 14) (size 15 to 20)
#    0.000    2.000    5.000    1.500    1.750    4.000 
#    0.000    0.000    0.000    0.750    0.000    7.000 
#    0.000    0.000    0.000    0.000    0.000    0.000 
#
# Total GULP energy -89204.671284 kJ/mol
# GULP energy per Si atom -5575.291955 kJ/mol
# Density = 1.615558 g / cm^3
# Si number density = 16.192430 Si / 1000 Ang^3
#
#
#
# Elastic Constant Matrix: (Units=GPa)
#
#
# Indices 1 2 3 4 5 6 
#
# 1 50.1892 52.0233 41.3965 8.7227 -0.0546 4.2276
# 2 52.0233 94.0692 56.3788 14.1127 -2.0771 1.3354
# 3 41.3965 56.3788 120.8715 12.0775 5.5899 0.9899
# 4 8.7227 14.1127 12.0775 16.9222 2.5891 4.0217
# 5 -0.0546 -2.0771 5.5899 2.5891 9.7684 5.1457
# 6 4.2276 1.3354 0.9899 4.0217 5.1457 31.4178
#
#
#
# Elastic Compliance Matrix: (Units=1/GPa)
#
#
# Indices 1 2 3 4 5 6 
#
# 1 0.050438 -0.024084 -0.006025 -0.000509 0.001800 -0.005803
# 2 -0.024084 0.028310 -0.004440 -0.010004 0.010130 0.001799
# 3 -0.006025 -0.004440 0.012973 -0.001591 -0.009191 0.002300
# 4 -0.000509 -0.010004 -0.001591 0.072910 -0.017418 -0.005936
# 5 0.001800 0.010130 -0.009191 -0.017418 0.124149 -0.018487
# 6 -0.005803 0.001799 0.002300 -0.005936 -0.018487 0.036249
#
#
# Mechanical properties :
#
#
# Convention : Reuss Voigt Hill
#
# Bulk Modulus (GPa) = 44.20498 62.74747 53.47623
# Shear Modulus (GPa) = 12.44810 19.31043 15.87927
#
# Velocity S-wave (km/s) = 2.77566 3.45709 3.13495
# Velocity P-wave (km/s) = 6.13445 7.40071 6.79713
#
# Compressibility (1/GPa) = 0.02262189
#
# Stress axis : x y z
#
# Youngs Moduli (GPa) = 19.82643 35.32377 77.08385
#
# Poissons Ratio (x) = 0.85074 0.46446
# Poissons Ratio (y) = 0.47750 0.34224
# Poissons Ratio (z) = 0.11946 0.15683
#
# Static dielectric constant tensor:
#      x y z
#    x 1.538110 0.037740 0.009940 
#    y 0.037740 1.552190 0.014000 
#    z 0.009940 0.014000 1.577820 
# 
# From -- ./inp_files/255922.got.cif
#   From: 2010.05.17/outbox.cif.g08.bks.cpg/sg2_128_cif.got.tgz:255922.got - 2010.06.03 11:33:40.
