data_PCOD9094078
_publ_section_title
;
Structure prediction by ZEFSAII (Michael W. Deem and Ramdas Pophale) SiO2 
 PCOD9094078
Probable space group: P -1
;
_chemical_formula_sum "Si O2"
_cell_formula_units_Z 14
_cell_length_a 10.533728
_cell_length_b 24.977069
_cell_length_c 24.454956
_cell_angle_alpha 11.410958
_cell_angle_beta 155.757739
_cell_angle_gamma 152.351131
_cell_volume 520.140635
_symmetry_space_group_name_H-M "P -1"
_symmetry_group_IT_number 2
_symmetry_cell_setting 'triclinic'
loop_
_space_group_symop_operation_xyz
x,y,z
-x,-y,-z
loop_
_atom_site_type_symbol
_atom_site_label
_atom_site_fract_x
_atom_site_fract_y
_atom_site_fract_z
Si Si1 0.463026 0.332427 0.834097
Si Si2 0.207692 0.119025 0.047790
Si Si3 0.764650 0.828671 0.503096
Si Si4 0.134908 0.326698 0.015039
Si Si5 0.849029 0.626894 0.435076
Si Si6 0.974291 0.852349 0.364848
Si Si7 0.622356 0.004641 0.457869
O O1 0.184474 0.273773 0.824936
O O2 0.664285 0.533490 0.746004
O O3 0.390638 0.450303 0.627839
O O4 0.635299 0.029123 0.202566
O O5 0.101625 0.362446 0.804124
O O6 0.556119 0.965844 0.333487
O O7 0.988011 0.881769 0.205324
O O8 0.127378 0.864081 0.612255
O O9 0.909520 0.139321 0.081407
O O10 0.200517 0.224584 0.204073
O O11 0.028854 0.633701 0.652991
O O12 0.538950 0.761656 0.799495
O O13 0.762289 0.739247 0.348565
O O14 0.312343 0.876812 0.443238
#
# Coordination Sequence:
#
# PCOD9094078 Si02
#       7
#     2   2   2   2   2   2   2
#     4  10  21  34  54  81 104 148 176 221 250 308
#     4  10  20  34  53  82 100 154 173 221 247 310
#     4  10  21  33  55  81 109 130 192 210 267 300
#     4   9  20  36  61  80  99 137 186 213 273 297
#     4  12  20  35  57  75 118 133 186 211 262 309
#     4  10  21  35  55  87 100 140 174 227 260 314
#     4   9  21  37  61  79 104 136 178 229 256 324
#
# _framework density 26.915797999999999
#
# number of rings (size 3 to 8) (size 9 to 14) (size 15 to 20)
#    1.714    0.286    1.429    3.000    2.000    0.000 
#    0.000    1.429    0.000    5.143    0.000    0.000 
#    0.000    0.000    0.000    0.000    0.000    0.000 
#
# Total GULP energy -78166.354887 kJ/mol
# GULP energy per Si atom -5583.311063 kJ/mol
# Density = 2.685454 g / cm^3
# Si number density = 26.915798 Si / 1000 Ang^3
#
#
#
# Elastic Constant Matrix: (Units=GPa)
#
#
# Indices 1 2 3 4 5 6 
#
# 1 46.1839 19.7587 20.3636 3.0308 10.6561 -1.5434
# 2 19.7587 95.1744 20.9238 -18.5156 -8.4337 -20.3523
# 3 20.3636 20.9238 127.1631 -34.9721 -0.6289 12.1505
# 4 3.0308 -18.5156 -34.9721 30.8701 -2.0136 0.2497
# 5 10.6561 -8.4337 -0.6289 -2.0136 37.4411 -2.3538
# 6 -1.5434 -20.3523 12.1505 0.2497 -2.3538 37.8822
#
#
#
# Elastic Compliance Matrix: (Units=1/GPa)
#
#
# Indices 1 2 3 4 5 6 
#
# 1 0.035420 -0.011240 -0.009794 -0.022217 -0.014109 -0.002184
# 2 -0.011240 0.017918 0.002083 0.014701 0.008623 0.008939
# 3 -0.009794 0.002083 0.014780 0.019267 0.004297 -0.003881
# 4 -0.022217 0.014701 0.019267 0.066096 0.013590 0.001222
# 5 -0.014109 0.008623 0.004297 0.013590 0.033764 0.004688
# 6 -0.002184 0.008939 -0.003881 0.001222 0.004688 0.032639
#
#
# Mechanical properties :
#
#
# Convention : Reuss Voigt Hill
#
# Bulk Modulus (GPa) = 33.09351 43.40151 38.24751
# Shear Modulus (GPa) = 20.11335 35.07038 27.59186
#
# Velocity S-wave (km/s) = 2.73659 3.61358 3.20522
# Velocity P-wave (km/s) = 4.72304 5.79401 5.28572
#
# Compressibility (1/GPa) = 0.03021740
#
# Stress axis : x y z
#
# Youngs Moduli (GPa) = 28.23265 55.80944 67.65774
#
# Poissons Ratio (x) = 0.62729 0.66262
# Poissons Ratio (y) = 0.31733 -0.14093
# Poissons Ratio (z) = 0.27650 -0.11625
#
# Static dielectric constant tensor:
#      x y z
#    x 2.166750 0.062360 0.015480 
#    y 0.062360 2.201020 0.055650 
#    z 0.015480 0.055650 2.004540 
# 
# From -- ./inp_files/618853.got.cif
#   From: 2010.05.17/outbox.cif.g08.bks.cpg/sg2_310_cif.got.tgz:618853.got - 2010.06.03 11:33:40.
