data_PCOD9094292
_publ_section_title
;
Structure prediction by ZEFSAII (Michael W. Deem and Ramdas Pophale) SiO2 
 PCOD9094292
Probable space group: P -1
;
_chemical_formula_sum "Si O2"
_cell_formula_units_Z 12
_cell_length_a 11.155559
_cell_length_b 11.273339
_cell_length_c 8.695610
_cell_angle_alpha 122.913583
_cell_angle_beta 141.461655
_cell_angle_gamma 41.697757
_cell_volume 451.036202
_symmetry_space_group_name_H-M "P -1"
_symmetry_group_IT_number 2
_symmetry_cell_setting 'triclinic'
loop_
_space_group_symop_operation_xyz
x,y,z
-x,-y,-z
loop_
_atom_site_type_symbol
_atom_site_label
_atom_site_fract_x
_atom_site_fract_y
_atom_site_fract_z
Si Si1 0.096678 0.608616 0.856726
Si Si2 0.580197 0.301701 0.293918
Si Si3 0.533794 0.058166 0.898002
Si Si4 0.012182 0.770875 0.545452
Si Si5 0.754206 0.650069 0.767569
Si Si6 0.939156 0.964016 0.073604
O O1 0.356017 0.430535 0.040768
O O2 0.094726 0.663848 0.717168
O O3 0.862734 0.616465 0.678392
O O4 0.061240 0.757045 0.042420
O O5 0.794979 0.309145 0.457621
O O6 0.461028 0.352451 0.380260
O O7 0.644996 0.109888 0.175985
O O8 0.647451 0.078758 0.875148
O O9 0.247121 0.180971 0.711527
O O10 0.651313 0.850393 0.855492
O O11 0.970091 0.956958 0.666142
O O12 0.000000 0.500000 0.000000
O O13 0.000000 0.000000 0.000000
#
# Coordination Sequence:
#
# PCOD9094292 Si02
#       6
#     2   2   2   2   2   2
#     4   9  18  35  56  78 107 142 176 217 264 307
#     4  10  20  36  55  77 110 144 174 213 263 318
#     4  10  20  34  56  81 107 138 175 220 267 312
#     4  10  20  34  56  83 107 136 177 220 264 313
#     4   9  19  36  56  75 104 144 179 215 261 313
#     4   8  17  33  52  75 105 138 172 214 260 305
#
# _framework density 26.605405999999999
#
# number of rings (size 3 to 8) (size 9 to 14) (size 15 to 20)
#    0.000    2.667    0.000    1.000    0.000    7.333 
#    0.000    5.000    0.000   15.000    0.000    0.000 
#    0.000    0.000    0.000    0.000    0.000    0.000 
#
# Total GULP energy -66959.811803 kJ/mol
# GULP energy per Si atom -5579.984317 kJ/mol
# Density = 2.654485 g / cm^3
# Si number density = 26.605406 Si / 1000 Ang^3
#
#
#
# Elastic Constant Matrix: (Units=GPa)
#
#
# Indices 1 2 3 4 5 6 
#
# 1 249.1853 35.8227 77.7239 -0.3442 69.4333 -2.7501
# 2 35.8227 91.4477 31.6299 -2.7294 5.6911 -10.8197
# 3 77.7239 31.6299 120.3682 -5.5586 36.6544 4.0026
# 4 -0.3442 -2.7294 -5.5586 27.3518 -0.7825 1.3509
# 5 69.4333 5.6911 36.6544 -0.7825 51.4422 1.9404
# 6 -2.7501 -10.8197 4.0026 1.3509 1.9404 37.1770
#
#
#
# Elastic Compliance Matrix: (Units=1/GPa)
#
#
# Indices 1 2 3 4 5 6 
#
# 1 0.007059 -0.001607 -0.001701 -0.000685 -0.008174 0.000689
# 2 -0.001607 0.013029 -0.003412 0.000482 0.003020 0.003865
# 3 -0.001701 -0.003412 0.012290 0.002074 -0.005968 -0.002206
# 4 -0.000685 0.000482 0.002074 0.037095 0.000014 -0.001482
# 5 -0.008174 0.003020 -0.005968 0.000014 0.034424 -0.000880
# 6 0.000689 0.003865 -0.002206 -0.001482 -0.000880 0.028412
#
#
# Mechanical properties :
#
#
# Convention : Reuss Voigt Hill
#
# Bulk Modulus (GPa) = 52.80718 83.48381 68.14549
# Shear Modulus (GPa) = 32.88155 44.24917 38.56536
#
# Velocity S-wave (km/s) = 3.51935 4.08262 3.81140
# Velocity P-wave (km/s) = 6.03372 7.32600 6.71104
#
# Compressibility (1/GPa) = 0.01893682
#
# Stress axis : x y z
#
# Youngs Moduli (GPa) = 141.66104 76.75444 81.37022
#
# Poissons Ratio (x) = 0.12335 0.13843
# Poissons Ratio (y) = 0.22765 0.27763
# Poissons Ratio (z) = 0.24100 0.26188
#
# Static dielectric constant tensor:
#      x y z
#    x 2.205170 0.124880 0.072590 
#    y 0.124880 2.354750 0.153460 
#    z 0.072590 0.153460 2.066060 
# 
# From -- ./inp_files/61518.got.cif
#   From: 2010.05.17/outbox.cif.g08.bks.cpg/sg2_31_cif.got.tgz:61518.got - 2010.06.03 11:33:40.
