data_PCOD9094486
_publ_section_title
;
Structure prediction by ZEFSAII (Michael W. Deem and Ramdas Pophale) SiO2 
 PCOD9094486
Probable space group: P -1
;
_chemical_formula_sum "Si O2"
_cell_formula_units_Z 14
_cell_length_a 7.164953
_cell_length_b 17.022571
_cell_length_c 7.474717
_cell_angle_alpha 58.013344
_cell_angle_beta 77.553891
_cell_angle_gamma 42.648449
_cell_volume 499.248456
_symmetry_space_group_name_H-M "P -1"
_symmetry_group_IT_number 2
_symmetry_cell_setting 'triclinic'
loop_
_space_group_symop_operation_xyz
x,y,z
-x,-y,-z
loop_
_atom_site_type_symbol
_atom_site_label
_atom_site_fract_x
_atom_site_fract_y
_atom_site_fract_z
Si Si1 0.506711 0.659887 0.929798
Si Si2 0.391499 0.098203 0.659903
Si Si3 0.250401 0.524949 0.441684
Si Si4 0.019441 0.364699 0.258825
Si Si5 0.642869 0.219933 0.807212
Si Si6 0.808776 0.120970 0.540591
Si Si7 0.238140 0.192612 0.962620
O O1 0.305056 0.748184 0.697302
O O2 0.750918 0.653090 0.868262
O O3 0.701780 0.497943 0.086564
O O4 0.326597 0.743738 0.048172
O O5 0.561116 0.133586 0.599565
O O6 0.240747 0.139538 0.833463
O O7 0.146934 0.215590 0.427549
O O8 0.628193 0.933044 0.781868
O O9 0.500000 0.500000 0.500000
O O10 0.035583 0.586040 0.581297
O O11 0.416593 0.368689 0.568714
O O12 0.065658 0.641001 0.182978
O O13 0.894662 0.111477 0.739230
O O14 0.478493 0.185035 0.924883
O O15 0.000000 0.000000 0.500000
#
# Coordination Sequence:
#
# PCOD9094486 Si02
#       7
#     2   2   2   2   2   2   2
#     4   9  18  35  60  86 113 153 203 251 288 343
#     4   8  16  32  54  80 111 152 196 243 289 336
#     4  10  20  34  57  91 126 156 194 248 304 359
#     4   8  16  33  54  78 111 149 193 240 286 341
#     4  10  21  38  62  87 113 163 210 239 296 361
#     4  10  21  37  57  87 126 158 194 247 306 365
#     4   9  17  33  58  84 113 154 203 243 284 351
#
# _framework density 28.042148000000001
#
# number of rings (size 3 to 8) (size 9 to 14) (size 15 to 20)
#    0.000    2.857    0.000    1.286    0.000    6.286 
#    0.000    8.571    0.000    5.143    0.000    0.000 
#    0.000    0.000    0.000    0.000    0.000    0.000 
#
# Total GULP energy -78230.457454 kJ/mol
# GULP energy per Si atom -5587.889818 kJ/mol
# Density = 2.797832 g / cm^3
# Si number density = 28.042148 Si / 1000 Ang^3
#
#
#
# Elastic Constant Matrix: (Units=GPa)
#
#
# Indices 1 2 3 4 5 6 
#
# 1 96.7829 15.7547 26.6470 -1.8590 -0.6347 -0.0637
# 2 15.7547 156.1037 65.4052 43.6117 8.8742 -7.8128
# 3 26.6470 65.4052 193.2275 -49.0385 0.8553 12.2782
# 4 -1.8590 43.6117 -49.0385 69.7450 4.3960 -4.0742
# 5 -0.6347 8.8742 0.8553 4.3960 22.0399 -2.1129
# 6 -0.0637 -7.8128 12.2782 -4.0742 -2.1129 34.1479
#
#
#
# Elastic Compliance Matrix: (Units=1/GPa)
#
#
# Indices 1 2 3 4 5 6 
#
# 1 0.010810 -0.000196 -0.001654 -0.000763 0.000656 0.000520
# 2 -0.000196 0.015005 -0.009280 -0.015498 -0.002137 0.004788
# 3 -0.001654 -0.009280 0.012474 0.014249 -0.000109 -0.004918
# 4 -0.000763 -0.015498 0.014249 0.033848 -0.001539 -0.004727
# 5 0.000656 -0.002137 -0.000109 -0.001539 0.046780 0.002262
# 6 0.000520 0.004788 -0.004918 -0.004727 0.002262 0.031725
#
#
# Mechanical properties :
#
#
# Convention : Reuss Voigt Hill
#
# Bulk Modulus (GPa) = 62.39018 73.52531 67.95775
# Shear Modulus (GPa) = 28.05146 47.74037 37.89592
#
# Velocity S-wave (km/s) = 3.16623 4.13055 3.68012
# Velocity P-wave (km/s) = 5.97191 7.00179 6.50726
#
# Compressibility (1/GPa) = 0.01602816
#
# Stress axis : x y z
#
# Youngs Moduli (GPa) = 92.50963 66.64452 80.16925
#
# Poissons Ratio (x) = 0.01307 0.13260
# Poissons Ratio (y) = 0.01814 0.74397
# Poissons Ratio (z) = 0.15301 0.61846
#
# Static dielectric constant tensor:
#      x y z
#    x 2.122240 -0.069140 0.010380 
#    y -0.069140 2.265920 -0.027720 
#    z 0.010380 -0.027720 2.220530 
# 
# From -- ./inp_files/216996.got.cif
#   From: 2010.05.17/outbox.cif.g08.bks.cpg/sg2_109_cif.got.tgz:216996.got - 2010.06.03 11:33:40.
