data_PCOD9094523
_publ_section_title
;
Structure prediction by ZEFSAII (Michael W. Deem and Ramdas Pophale) SiO2 
 PCOD9094523
Probable space group: P -1
;
_chemical_formula_sum "Si O2"
_cell_formula_units_Z 16
_cell_length_a 9.183080
_cell_length_b 12.048822
_cell_length_c 9.816712
_cell_angle_alpha 110.966217
_cell_angle_beta 108.250419
_cell_angle_gamma 39.584680
_cell_volume 645.025779
_symmetry_space_group_name_H-M "P -1"
_symmetry_group_IT_number 2
_symmetry_cell_setting 'triclinic'
loop_
_space_group_symop_operation_xyz
x,y,z
-x,-y,-z
loop_
_atom_site_type_symbol
_atom_site_label
_atom_site_fract_x
_atom_site_fract_y
_atom_site_fract_z
Si Si1 0.180614 0.147192 0.478340
Si Si2 0.501549 0.427918 0.184831
Si Si3 0.134384 0.689230 0.960746
Si Si4 0.424800 0.241678 0.579313
Si Si5 0.958016 0.513402 0.197731
Si Si6 0.301468 0.495139 0.437615
Si Si7 0.674107 0.871938 0.181183
Si Si8 0.695965 0.053596 0.034327
O O1 0.284385 0.206493 0.464813
O O2 0.258292 0.119972 0.646942
O O3 0.906828 0.307953 0.471477
O O4 0.324573 0.949825 0.389932
O O5 0.702827 0.386045 0.153948
O O6 0.439801 0.477897 0.347916
O O7 0.578244 0.247344 0.107053
O O8 0.284883 0.583995 0.094435
O O9 0.987718 0.653829 0.886041
O O10 0.964808 0.897090 0.015507
O O11 0.261540 0.369296 0.712804
O O12 0.438415 0.341422 0.522285
O O13 0.857983 0.659374 0.117474
O O14 0.159223 0.471365 0.307863
O O15 0.674057 0.983447 0.130586
O O16 0.436614 0.940995 0.120203
#
# Coordination Sequence:
#
# PCOD9094523 Si02
#       8
#     2   2   2   2   2   2   2   2
#     4   9  17  32  51  84 112 140 168 225 286 318
#     4  11  24  40  55  79 115 149 186 226 270 331
#     4  11  24  39  56  78 115 153 182 222 277 329
#     4   9  18  33  55  81 115 136 177 227 275 324
#     4  10  20  37  57  87 112 143 181 230 277 322
#     4  10  20  34  58  83 107 141 185 227 270 322
#     4   9  19  32  55  89 111 133 181 238 266 318
#     4  11  21  35  56  83 111 146 185 224 274 326
#
# _framework density 24.805211
#
# number of rings (size 3 to 8) (size 9 to 14) (size 15 to 20)
#    0.000    2.250    1.250    4.125    5.250    1.000 
#    2.250    0.625    0.000    0.750    0.000    0.000 
#    0.000    0.000    0.000    0.000    0.000    0.000 
#
# Total GULP energy -89466.142080 kJ/mol
# GULP energy per Si atom -5591.633880 kJ/mol
# Density = 2.474875 g / cm^3
# Si number density = 24.805211 Si / 1000 Ang^3
#
#
#
# Elastic Constant Matrix: (Units=GPa)
#
#
# Indices 1 2 3 4 5 6 
#
# 1 84.4241 36.7697 20.3517 -3.6752 -30.4960 18.7687
# 2 36.7697 141.0970 29.8339 -0.2296 -11.1946 1.6838
# 3 20.3517 29.8339 83.6446 -15.4660 -27.5601 9.9355
# 4 -3.6752 -0.2296 -15.4660 35.0346 1.9990 -13.1060
# 5 -30.4960 -11.1946 -27.5601 1.9990 35.1719 -0.8016
# 6 18.7687 1.6838 9.9355 -13.1060 -0.8016 34.1844
#
#
#
# Elastic Compliance Matrix: (Units=1/GPa)
#
#
# Indices 1 2 3 4 5 6 
#
# 1 0.024733 -0.005476 0.005041 -0.002188 0.023433 -0.015064
# 2 -0.005476 0.008931 -0.004014 -0.000763 -0.004931 0.003325
# 3 0.005041 -0.004014 0.019992 0.006199 0.018279 -0.005575
# 4 -0.002188 -0.000763 0.006199 0.035943 0.000976 0.013240
# 5 0.023433 -0.004931 0.018279 0.000976 0.061080 -0.016129
# 6 -0.015064 0.003325 -0.005575 0.013240 -0.016129 0.043679
#
#
# Mechanical properties :
#
#
# Convention : Reuss Voigt Hill
#
# Bulk Modulus (GPa) = 22.34235 53.67514 38.00875
# Shear Modulus (GPa) = 22.91749 35.69221 29.30485
#
# Velocity S-wave (km/s) = 3.04287 3.79740 3.44088
# Velocity P-wave (km/s) = 4.62299 6.39630 5.58053
#
# Compressibility (1/GPa) = 0.04475804
#
# Stress axis : x y z
#
# Youngs Moduli (GPa) = 40.43172 111.97119 50.02070
#
# Poissons Ratio (x) = 0.61314 -0.25216
# Poissons Ratio (y) = 0.22140 0.20078
# Poissons Ratio (z) = -0.20382 0.44944
#
# Static dielectric constant tensor:
#      x y z
#    x 1.982690 -0.010960 0.007740 
#    y -0.010960 1.990180 0.048810 
#    z 0.007740 0.048810 2.012170 
# 
# From -- ./inp_files/390215.got.cif
#   From: 2010.05.17/outbox.cif.g08.bks.cpg/sg2_196_cif.got.tgz:390215.got - 2010.06.03 11:33:40.
