data_PCOD9094880
_publ_section_title
;
Structure prediction by ZEFSAII (Michael W. Deem and Ramdas Pophale) SiO2 
 PCOD9094880
Probable space group: P -1
;
_chemical_formula_sum "Si O2"
_cell_formula_units_Z 14
_cell_length_a 12.521091
_cell_length_b 9.133434
_cell_length_c 18.634978
_cell_angle_alpha 134.532631
_cell_angle_beta 28.626811
_cell_angle_gamma 137.009212
_cell_volume 684.660420
_symmetry_space_group_name_H-M "P -1"
_symmetry_group_IT_number 2
_symmetry_cell_setting 'triclinic'
loop_
_space_group_symop_operation_xyz
x,y,z
-x,-y,-z
loop_
_atom_site_type_symbol
_atom_site_label
_atom_site_fract_x
_atom_site_fract_y
_atom_site_fract_z
Si Si1 0.952547 0.887314 0.409609
Si Si2 0.002576 0.124566 0.115692
Si Si3 0.650000 0.036276 0.086889
Si Si4 0.417047 0.173029 0.153516
Si Si5 0.784172 0.413524 0.812970
Si Si6 0.757267 0.454635 0.673256
Si Si7 0.485379 0.946047 0.663104
O O1 0.002894 0.664293 0.313473
O O2 0.704294 0.859134 0.509158
O O3 0.000000 0.000000 0.500000
O O4 0.157405 0.044946 0.293693
O O5 0.196141 0.366405 0.081955
O O6 0.743918 0.143014 0.282708
O O7 0.096766 0.996593 0.076443
O O8 0.000000 0.000000 0.000000
O O9 0.448742 0.798016 0.109452
O O10 0.605913 0.085344 0.211638
O O11 0.598867 0.211621 0.126166
O O12 0.384996 0.382574 0.207318
O O13 0.500000 0.000000 0.000000
O O14 0.809381 0.468617 0.732636
O O15 0.597498 0.203537 0.669238
O O16 0.000000 0.500000 0.500000
#
# Coordination Sequence:
#
# PCOD9094880 Si02
#       7
#     2   2   2   2   2   2   2
#     4  11  18  38  60  87 114 151 202 249 289 350
#     4  10  21  36  55  86 120 150 192 247 299 343
#     4   9  19  37  60  82 115 149 197 242 289 346
#     4  11  21  32  58  92 116 143 198 252 288 338
#     4  10  20  34  63  84 110 156 201 237 288 355
#     4  11  20  36  62  87 114 156 202 239 296 356
#     4  10  20  36  60  84 113 155 195 243 286 356
#
# _framework density 20.448093
#
# number of rings (size 3 to 8) (size 9 to 14) (size 15 to 20)
#    0.000    1.714    5.714    1.286    0.000    6.286 
#    0.000    1.429    0.000    3.429    0.000    0.000 
#    0.000    0.000    0.000    0.000    0.000    0.000 
#
# Total GULP energy -78038.614141 kJ/mol
# GULP energy per Si atom -5574.186724 kJ/mol
# Density = 2.040155 g / cm^3
# Si number density = 20.448093 Si / 1000 Ang^3
#
#
#
# Elastic Constant Matrix: (Units=GPa)
#
#
# Indices 1 2 3 4 5 6 
#
# 1 100.4496 33.8579 43.4039 2.2557 -50.1838 -32.3055
# 2 33.8579 47.4904 7.3115 19.3131 -6.3722 -27.2275
# 3 43.4039 7.3115 77.1139 4.5057 -33.3765 -13.8348
# 4 2.2557 19.3131 4.5057 30.8996 -10.7121 -8.7782
# 5 -50.1838 -6.3722 -33.3765 -10.7121 60.0779 12.1237
# 6 -32.3055 -27.2275 -13.8348 -8.7782 12.1237 38.7989
#
#
#
# Elastic Compliance Matrix: (Units=1/GPa)
#
#
# Indices 1 2 3 4 5 6 
#
# 1 0.041072 -0.033743 -0.007296 0.031481 0.031223 0.005284
# 2 -0.033743 0.073621 0.005969 -0.048093 -0.030552 0.024363
# 3 -0.007296 0.005969 0.018866 -0.003849 0.003770 0.002792
# 4 0.031481 -0.048093 -0.003849 0.071056 0.032318 -0.002932
# 5 0.031223 -0.030552 0.003770 0.032318 0.047682 -0.001686
# 6 0.005284 0.024363 0.002792 -0.002932 -0.001686 0.048130
#
#
# Mechanical properties :
#
#
# Convention : Reuss Voigt Hill
#
# Bulk Modulus (GPa) = 15.76773 43.80004 29.78388
# Shear Modulus (GPa) = 12.76463 35.32066 24.04264
#
# Velocity S-wave (km/s) = 2.50120 4.16063 3.43270
# Velocity P-wave (km/s) = 4.00864 6.67441 5.50531
#
# Compressibility (1/GPa) = 0.06342067
#
# Stress axis : x y z
#
# Youngs Moduli (GPa) = 24.34736 13.58304 53.00525
#
# Poissons Ratio (x) = 0.45833 0.38673
# Poissons Ratio (y) = 0.82154 -0.31639
# Poissons Ratio (z) = 0.17764 -0.08108
#
# Static dielectric constant tensor:
#      x y z
#    x 1.784670 0.002750 -0.044320 
#    y 0.002750 1.720260 0.016620 
#    z -0.044320 0.016620 1.822660 
# 
# From -- ./inp_files/343537.got.cif
#   From: 2010.05.17/outbox.cif.g08.bks.cpg/sg2_172_cif.got.tgz:343537.got - 2010.06.03 11:33:40.
