data_PCOD9094739
_publ_section_title
;
Structure prediction by ZEFSAII (Michael W. Deem and Ramdas Pophale) SiO2 
 PCOD9094739
Probable space group: P -1
;
_chemical_formula_sum "Si O2"
_cell_formula_units_Z 16
_cell_length_a 12.938138
_cell_length_b 11.803928
_cell_length_c 18.727486
_cell_angle_alpha 54.921519
_cell_angle_beta 27.748768
_cell_angle_gamma 74.644423
_cell_volume 837.492453
_symmetry_space_group_name_H-M "P -1"
_symmetry_group_IT_number 2
_symmetry_cell_setting 'triclinic'
loop_
_space_group_symop_operation_xyz
x,y,z
-x,-y,-z
loop_
_atom_site_type_symbol
_atom_site_label
_atom_site_fract_x
_atom_site_fract_y
_atom_site_fract_z
Si Si1 0.677823 0.182568 0.004369
Si Si2 0.994423 0.168149 0.199971
Si Si3 0.058761 0.901522 0.443445
Si Si4 0.282702 0.705216 0.762171
Si Si5 0.653635 0.477489 0.687300
Si Si6 0.874117 0.823315 0.338656
Si Si7 0.390557 0.112237 0.357368
Si Si8 0.045966 0.448800 0.372180
O O1 0.559048 0.138104 0.173624
O O2 0.403148 0.047044 0.168676
O O3 0.813491 0.384920 0.827324
O O4 0.916746 0.160739 0.853130
O O5 0.806299 0.181900 0.255127
O O6 0.012848 0.016271 0.217764
O O7 0.819886 0.090366 0.409133
O O8 0.311335 0.357580 0.942078
O O9 0.829757 0.851382 0.540990
O O10 0.991213 0.719133 0.575270
O O11 0.000000 0.000000 0.500000
O O12 0.554067 0.745906 0.539841
O O13 0.396866 0.763498 0.752654
O O14 0.000000 0.500000 0.000000
O O15 0.815571 0.674989 0.483842
O O16 0.760522 0.485784 0.698270
O O17 0.747960 0.392148 0.606518
#
# Coordination Sequence:
#
# PCOD9094739 Si02
#       8
#     2   2   2   2   2   2   2   2
#     4  10  22  40  59  88 127 154 191 240 299 356
#     4  11  21  38  63  83 116 152 200 248 297 337
#     4  10  21  37  56  85 123 158 193 228 289 360
#     4  11  22  41  62  86 113 150 207 249 291 345
#     4  10  20  34  60  91 115 159 198 243 290 349
#     4  10  20  38  62  87 119 153 196 248 290 348
#     4  10  22  39  58  88 118 154 197 241 292 351
#     4  10  20  35  58  88 124 155 197 238 295 347
#
# _framework density 19.104651
#
# number of rings (size 3 to 8) (size 9 to 14) (size 15 to 20)
#    0.000    1.750    1.250    4.500    0.000    2.000 
#    4.500   10.000    0.000    0.000    0.000    0.000 
#    0.000    0.000    0.000    0.000    0.000    0.000 
#
# Total GULP energy -89212.851330 kJ/mol
# GULP energy per Si atom -5575.803208 kJ/mol
# Density = 1.906117 g / cm^3
# Si number density = 19.104651 Si / 1000 Ang^3
#
#
#
# Elastic Constant Matrix: (Units=GPa)
#
#
# Indices 1 2 3 4 5 6 
#
# 1 82.1206 35.8096 46.5134 19.5907 6.8626 -7.7838
# 2 35.8096 118.8129 40.7761 11.1847 16.6737 -6.8873
# 3 46.5134 40.7761 122.2177 20.2636 2.3053 7.3130
# 4 19.5907 11.1847 20.2636 29.1348 -12.6523 1.0247
# 5 6.8626 16.6737 2.3053 -12.6523 23.7710 0.8293
# 6 -7.7838 -6.8873 7.3130 1.0247 0.8293 21.2128
#
#
#
# Elastic Compliance Matrix: (Units=1/GPa)
#
#
# Indices 1 2 3 4 5 6 
#
# 1 0.022308 -0.000095 -0.005834 -0.018229 -0.015918 0.011669
# 2 -0.000095 0.012424 -0.002757 -0.008767 -0.013291 0.005892
# 3 -0.005834 -0.002757 0.012172 -0.002687 0.001257 -0.007151
# 4 -0.018229 -0.008767 -0.002687 0.074920 0.052047 -0.014263
# 5 -0.015918 -0.013291 0.001257 0.052047 0.084139 -0.016393
# 6 0.011669 0.005892 -0.007151 -0.014263 -0.016393 0.057132
#
#
# Mechanical properties :
#
#
# Convention : Reuss Voigt Hill
#
# Bulk Modulus (GPa) = 33.86197 63.26104 48.56150
# Shear Modulus (GPa) = 17.22298 28.16051 22.69175
#
# Velocity S-wave (km/s) = 3.00577 3.84345 3.45013
# Velocity P-wave (km/s) = 5.45977 7.27193 6.43001
#
# Compressibility (1/GPa) = 0.02953166
#
# Stress axis : x y z
#
# Youngs Moduli (GPa) = 44.82705 80.49199 82.15627
#
# Poissons Ratio (x) = 0.00766 0.47928
# Poissons Ratio (y) = 0.00426 0.22651
# Poissons Ratio (z) = 0.26151 0.22192
#
# Static dielectric constant tensor:
#      x y z
#    x 1.676050 0.001010 -0.007650 
#    y 0.001010 1.702140 -0.004280 
#    z -0.007650 -0.004280 1.680570 
# 
# From -- ./inp_files/464675.got.cif
#   From: 2010.05.17/outbox.cif.g08.bks.cpg/sg2_233_cif.got.tgz:464675.got - 2010.06.03 11:33:40.
