data_PCOD9094345
_publ_section_title
;
Structure prediction by ZEFSAII (Michael W. Deem and Ramdas Pophale) SiO2 
 PCOD9094345
Probable space group: P -1
;
_chemical_formula_sum "Si O2"
_cell_formula_units_Z 16
_cell_length_a 12.652066
_cell_length_b 9.737674
_cell_length_c 18.773012
_cell_angle_alpha 112.887677
_cell_angle_beta 39.283600
_cell_angle_gamma 141.548980
_cell_volume 759.477668
_symmetry_space_group_name_H-M "P -1"
_symmetry_group_IT_number 2
_symmetry_cell_setting 'triclinic'
loop_
_space_group_symop_operation_xyz
x,y,z
-x,-y,-z
loop_
_atom_site_type_symbol
_atom_site_label
_atom_site_fract_x
_atom_site_fract_y
_atom_site_fract_z
Si Si1 0.720742 0.161499 0.482703
Si Si2 0.749448 0.720052 0.312364
Si Si3 0.558242 0.773241 0.296196
Si Si4 0.631766 0.371084 0.796031
Si Si5 0.159278 0.231776 0.019622
Si Si6 0.565996 0.806772 0.908755
Si Si7 0.719726 0.196113 0.820748
Si Si8 0.400758 0.662955 0.598163
O O1 0.695017 0.309073 0.555373
O O2 0.026661 0.334424 0.324557
O O3 0.500000 0.000000 0.500000
O O4 0.590888 0.952513 0.566837
O O5 0.634570 0.689537 0.289449
O O6 0.584394 0.703571 0.452433
O O7 0.654469 0.481842 0.334027
O O8 0.103414 0.992634 0.196027
O O9 0.450845 0.669661 0.251443
O O10 0.886247 0.089862 0.180534
O O11 0.405650 0.309412 0.944211
O O12 0.617644 0.194962 0.799956
O O13 0.351755 0.509628 0.944779
O O14 0.000000 0.000000 0.000000
O O15 0.611100 0.950277 0.846893
O O16 0.410053 0.790729 0.047975
O O17 0.075670 0.458390 0.695132
#
# Coordination Sequence:
#
# PCOD9094345 Si02
#       8
#     2   2   2   2   2   2   2   2
#     4  12  21  36  61  90 113 152 204 245 291 351
#     4  10  20  36  56  83 115 153 190 243 291 348
#     4  11  23  39  56  84 121 157 190 243 302 353
#     4  11  23  39  58  87 124 156 194 243 302 356
#     4  10  23  39  57  87 122 158 197 243 301 356
#     4  10  21  36  62  87 117 153 205 246 295 345
#     4  10  20  37  58  90 117 155 197 250 293 351
#     4  10  20  34  56  86 114 142 199 244 289 338
#
# _framework density 21.067112000000002
#
# number of rings (size 3 to 8) (size 9 to 14) (size 15 to 20)
#    0.000    1.500    2.500    2.625    0.000    1.000 
#    0.000    5.625    0.000    0.000    0.000    0.000 
#    0.000    0.000    0.000    0.000    0.000    0.000 
#
# Total GULP energy -89215.645456 kJ/mol
# GULP energy per Si atom -5575.977841 kJ/mol
# Density = 2.101916 g / cm^3
# Si number density = 21.067112 Si / 1000 Ang^3
#
#
#
# Elastic Constant Matrix: (Units=GPa)
#
#
# Indices 1 2 3 4 5 6 
#
# 1 131.3362 49.6981 14.6000 -17.7344 4.5856 -24.8709
# 2 49.6981 64.3120 13.4515 -16.7284 2.4068 -24.1158
# 3 14.6000 13.4515 112.1144 -9.8009 -26.7695 2.1070
# 4 -17.7344 -16.7284 -9.8009 33.9822 -5.9003 9.0207
# 5 4.5856 2.4068 -26.7695 -5.9003 37.4512 -2.6983
# 6 -24.8709 -24.1158 2.1070 9.0207 -2.6983 30.9744
#
#
#
# Elastic Compliance Matrix: (Units=1/GPa)
#
#
# Indices 1 2 3 4 5 6 
#
# 1 0.011105 -0.006868 -0.000851 0.001125 -0.001119 0.003202
# 2 -0.006868 0.028567 -0.002530 0.005568 -0.000831 0.015205
# 3 -0.000851 -0.002530 0.012007 0.004431 0.009263 -0.003954
# 4 0.001125 0.005568 0.004431 0.036786 0.008102 -0.005071
# 5 -0.001119 -0.000831 0.009263 0.008102 0.034680 -0.001514
# 6 0.003202 0.015205 -0.003954 -0.005071 -0.001514 0.048308
#
#
# Mechanical properties :
#
#
# Convention : Reuss Voigt Hill
#
# Bulk Modulus (GPa) = 32.07250 51.47353 41.77301
# Shear Modulus (GPa) = 24.71024 35.81578 30.26301
#
# Velocity S-wave (km/s) = 3.42852 4.12768 3.79424
# Velocity P-wave (km/s) = 5.56148 6.87045 6.25033
#
# Compressibility (1/GPa) = 0.03117936
#
# Stress axis : x y z
#
# Youngs Moduli (GPa) = 90.04968 35.00538 83.28352
#
# Poissons Ratio (x) = 0.24043 0.07088
# Poissons Ratio (y) = 0.61850 0.21074
# Poissons Ratio (z) = 0.07664 0.08858
#
# Static dielectric constant tensor:
#      x y z
#    x 1.903690 0.118410 0.109280 
#    y 0.118410 2.058880 0.222340 
#    z 0.109280 0.222340 2.017350 
# 
# From -- ./inp_files/216738.got.cif
#   From: 2010.05.17/outbox.cif.g08.bks.cpg/sg2_109_cif.got.tgz:216738.got - 2010.06.03 11:33:40.
