data_PCOD9094107
_publ_section_title
;
Structure prediction by ZEFSAII (Michael W. Deem and Ramdas Pophale) SiO2 
 PCOD9094107
Probable space group: P -1
;
_chemical_formula_sum "Si O2"
_cell_formula_units_Z 16
_cell_length_a 15.353897
_cell_length_b 14.495761
_cell_length_c 10.947776
_cell_angle_alpha 107.109041
_cell_angle_beta 92.461133
_cell_angle_gamma 153.645529
_cell_volume 714.700527
_symmetry_space_group_name_H-M "P -1"
_symmetry_group_IT_number 2
_symmetry_cell_setting 'triclinic'
loop_
_space_group_symop_operation_xyz
x,y,z
-x,-y,-z
loop_
_atom_site_type_symbol
_atom_site_label
_atom_site_fract_x
_atom_site_fract_y
_atom_site_fract_z
Si Si1 0.630722 0.064102 0.845818
Si Si2 0.771226 0.900705 0.461140
Si Si3 0.666319 0.912326 0.674247
Si Si4 0.978785 0.379919 0.530234
Si Si5 0.928505 0.638918 0.691857
Si Si6 0.745841 0.667948 0.500976
Si Si7 0.870599 0.382988 0.743290
Si Si8 0.863729 0.768676 0.829106
O O1 0.661600 0.157410 0.758570
O O2 0.779257 0.118414 0.841076
O O3 0.304147 0.702215 0.714942
O O4 0.818710 0.306360 0.057948
O O5 0.845350 0.056744 0.630774
O O6 0.747533 0.771060 0.473593
O O7 0.451665 0.585023 0.274351
O O8 0.013047 0.144407 0.471481
O O9 0.377394 0.650770 0.493661
O O10 0.551306 0.701821 0.665137
O O11 0.895008 0.211420 0.358772
O O12 0.000000 0.500000 0.500000
O O13 0.810358 0.234101 0.584222
O O14 0.885064 0.500157 0.720665
O O15 0.025687 0.836798 0.848231
O O16 0.817652 0.755375 0.681559
O O17 0.000000 0.000000 0.000000
#
# Coordination Sequence:
#
# PCOD9094107 Si02
#       8
#     2   2   2   2   2   2   2   2
#     4  10  21  33  52  79 105 136 169 212 264 306
#     4   9  18  34  55  76 101 138 172 212 257 303
#     4   9  18  32  50  76 104 135 175 212 252 304
#     4   9  18  34  54  73  99 135 174 212 250 298
#     4   8  18  34  51  74 100 138 176 205 251 305
#     4   9  18  34  54  76 102 134 179 213 251 309
#     4  10  20  35  52  75 109 136 169 216 259 308
#     4  10  20  34  54  79 108 136 167 214 262 304
#
# _framework density 22.386997999999998
#
# number of rings (size 3 to 8) (size 9 to 14) (size 15 to 20)
#    0.000    3.000    0.000    1.875    0.000   10.000 
#    0.000    8.750    0.000    3.000    0.000    0.000 
#    0.000    0.000    0.000    0.000    0.000    0.000 
#
# Total GULP energy -89235.415830 kJ/mol
# GULP energy per Si atom -5577.213489 kJ/mol
# Density = 2.233604 g / cm^3
# Si number density = 22.386998 Si / 1000 Ang^3
#
#
#
# Elastic Constant Matrix: (Units=GPa)
#
#
# Indices 1 2 3 4 5 6 
#
# 1 120.6450 22.5301 27.6523 -17.0262 -31.7161 -0.4654
# 2 22.5301 61.7888 25.9200 -13.6460 -10.5574 9.9961
# 3 27.6523 25.9200 58.4385 -11.1195 -27.9338 10.6980
# 4 -17.0262 -13.6460 -11.1195 21.4318 4.3902 -2.6779
# 5 -31.7161 -10.5574 -27.9338 4.3902 40.9228 -9.1658
# 6 -0.4654 9.9961 10.6980 -2.6779 -9.1658 46.7960
#
#
#
# Elastic Compliance Matrix: (Units=1/GPa)
#
#
# Indices 1 2 3 4 5 6 
#
# 1 0.011848 -0.001805 0.000187 0.006902 0.008676 0.002555
# 2 -0.001805 0.022165 -0.008139 0.008666 -0.002827 -0.002950
# 3 0.000187 -0.008139 0.030862 0.007111 0.018041 -0.001374
# 4 0.006902 0.008666 0.007111 0.060226 0.006261 0.001265
# 5 0.008676 -0.002827 0.018041 0.006261 0.043284 0.005402
# 6 0.002555 -0.002950 -0.001374 0.001265 0.005402 0.023469
#
#
# Mechanical properties :
#
#
# Convention : Reuss Voigt Hill
#
# Bulk Modulus (GPa) = 22.04586 43.67523 32.86054
# Shear Modulus (GPa) = 22.07626 32.81479 27.44553
#
# Velocity S-wave (km/s) = 3.14366 3.83273 3.50517
# Velocity P-wave (km/s) = 4.80060 6.25603 5.57601
#
# Compressibility (1/GPa) = 0.04536000
#
# Stress axis : x y z
#
# Youngs Moduli (GPa) = 84.40417 45.11651 32.40266
#
# Poissons Ratio (x) = 0.08145 -0.00607
# Poissons Ratio (y) = 0.15237 0.26373
# Poissons Ratio (z) = -0.01581 0.36721
#
# Static dielectric constant tensor:
#      x y z
#    x 1.919040 -0.002080 -0.030300 
#    y -0.002080 1.852890 -0.007560 
#    z -0.030300 -0.007560 1.849590 
# 
# From -- ./inp_files/454856.got.cif
#   From: 2010.05.17/outbox.cif.g08.bks.cpg/sg2_228_cif.got.tgz:454856.got - 2010.06.03 11:33:40.
