data_PCOD9094780
_publ_section_title
;
Structure prediction by ZEFSAII (Michael W. Deem and Ramdas Pophale) SiO2 
 PCOD9094780
Probable space group: P -1
;
_chemical_formula_sum "Si O2"
_cell_formula_units_Z 15
_cell_length_a 7.839341
_cell_length_b 9.332546
_cell_length_c 10.616325
_cell_angle_alpha 66.844781
_cell_angle_beta 96.206146
_cell_angle_gamma 121.259781
_cell_volume 605.891364
_symmetry_space_group_name_H-M "P -1"
_symmetry_group_IT_number 2
_symmetry_cell_setting 'triclinic'
loop_
_space_group_symop_operation_xyz
x,y,z
-x,-y,-z
loop_
_atom_site_type_symbol
_atom_site_label
_atom_site_fract_x
_atom_site_fract_y
_atom_site_fract_z
Si Si1 0.242898 0.244175 0.064781
Si Si2 0.933936 0.149329 0.448383
Si Si3 0.500000 0.500000 0.500000
Si Si4 0.171634 0.552177 0.393421
Si Si5 0.327293 0.243925 0.801589
Si Si6 0.758872 0.088976 0.732371
Si Si7 0.322247 0.593183 0.039976
Si Si8 0.285902 0.890011 0.815175
O O1 0.487210 0.339169 0.064651
O O2 0.159412 0.038271 0.170425
O O3 0.211746 0.254634 0.910485
O O4 0.194728 0.375114 0.093940
O O5 0.806755 0.112745 0.578845
O O6 0.812369 0.137383 0.319186
O O7 0.120270 0.359462 0.395459
O O8 0.000000 0.000000 0.500000
O O9 0.390743 0.622242 0.445138
O O10 0.337515 0.361620 0.643084
O O11 0.161572 0.713588 0.267612
O O12 0.000000 0.500000 0.500000
O O13 0.257207 0.036714 0.837781
O O14 0.556615 0.341161 0.842015
O O15 0.524059 0.985307 0.779155
O O16 0.224348 0.707550 0.951471
#
# Coordination Sequence:
#
# PCOD9094780 Si02
#       8
#     2   2   1   2   2   2   2   2
#     4   8  18  36  59  96 130 162 220 280 319 389
#     4  11  25  42  61  98 146 165 218 291 331 397
#     4  12  22  38  72  98 124 182 224 266 348 400
#     4  10  24  44  63  98 137 172 223 282 335 404
#     4  10  20  34  61 102 125 167 230 270 323 412
#     4  10  21  42  68  92 125 181 223 266 341 399
#     4   8  18  35  58  96 131 163 220 284 317 393
#     4  11  20  38  66  97 125 177 219 267 337 396
#
# _framework density 24.756914999999999
#
# number of rings (size 3 to 8) (size 9 to 14) (size 15 to 20)
#    0.800    1.333    1.333    1.600    0.000    4.267 
#    0.000    0.000    0.000   20.000    0.000    0.000 
#    0.000    0.000    0.000    0.000    0.000    0.000 
#
# Total GULP energy -83512.137923 kJ/mol
# GULP energy per Si atom -5567.475862 kJ/mol
# Density = 2.470057 g / cm^3
# Si number density = 24.756915 Si / 1000 Ang^3
#
#
#
# Elastic Constant Matrix: (Units=GPa)
#
#
# Indices 1 2 3 4 5 6 
#
# 1 94.0260 8.6112 18.2862 -4.2573 10.1723 -12.2959
# 2 8.6112 151.6094 69.9228 -35.1235 28.1291 -40.8153
# 3 18.2862 69.9228 108.6446 -17.7121 17.7278 -19.3877
# 4 -4.2573 -35.1235 -17.7121 45.5855 -14.6780 8.0666
# 5 10.1723 28.1291 17.7278 -14.6780 38.7063 -3.5954
# 6 -12.2959 -40.8153 -19.3877 8.0666 -3.5954 29.2611
#
#
#
# Elastic Compliance Matrix: (Units=1/GPa)
#
#
# Indices 1 2 3 4 5 6 
#
# 1 0.012119 0.002919 -0.001986 0.000126 -0.003665 0.007364
# 2 0.002919 0.016416 -0.005956 0.005425 -0.006248 0.017915
# 3 -0.001986 -0.005956 0.013545 0.000121 -0.001342 -0.000365
# 4 0.000126 0.005425 0.000121 0.028212 0.006737 0.000751
# 5 -0.003665 -0.006248 -0.001342 0.006737 0.033686 -0.008863
# 6 0.007364 0.017915 -0.000365 0.000751 -0.008863 0.060721
#
#
# Mechanical properties :
#
#
# Convention : Reuss Voigt Hill
#
# Bulk Modulus (GPa) = 31.21505 60.88005 46.04755
# Shear Modulus (GPa) = 26.96552 39.87456 33.42004
#
# Velocity S-wave (km/s) = 3.30390 4.01764 3.67812
# Velocity P-wave (km/s) = 5.21444 6.79458 6.05627
#
# Compressibility (1/GPa) = 0.03203583
#
# Stress axis : x y z
#
# Youngs Moduli (GPa) = 82.51227 60.91627 73.82785
#
# Poissons Ratio (x) = -0.17783 0.14662
# Poissons Ratio (y) = -0.24087 0.43969
# Poissons Ratio (z) = 0.16387 0.36279
#
# Static dielectric constant tensor:
#      x y z
#    x 2.028910 0.032040 -0.081250 
#    y 0.032040 1.981340 -0.063410 
#    z -0.081250 -0.063410 1.940100 
# 
# From -- ./inp_files/375896.got.cif
#   From: 2010.05.17/outbox.cif.g08.bks.cpg/sg2_188_cif.got.tgz:375896.got - 2010.06.03 11:33:40.
