data_PCOD9094587
_publ_section_title
;
Structure prediction by ZEFSAII (Michael W. Deem and Ramdas Pophale) SiO2 
 PCOD9094587
Probable space group: P -1
;
_chemical_formula_sum "Si O2"
_cell_formula_units_Z 14
_cell_length_a 5.441712
_cell_length_b 14.578979
_cell_length_c 12.410397
_cell_angle_alpha 56.884822
_cell_angle_beta 64.438861
_cell_angle_gamma 69.264541
_cell_volume 734.761819
_symmetry_space_group_name_H-M "P -1"
_symmetry_group_IT_number 2
_symmetry_cell_setting 'triclinic'
loop_
_space_group_symop_operation_xyz
x,y,z
-x,-y,-z
loop_
_atom_site_type_symbol
_atom_site_label
_atom_site_fract_x
_atom_site_fract_y
_atom_site_fract_z
Si Si1 0.825513 0.850619 0.542367
Si Si2 0.464903 0.781835 0.156116
Si Si3 0.030281 0.884772 0.001477
Si Si4 0.618982 0.146111 0.648228
Si Si5 0.782734 0.661840 0.508530
Si Si6 0.388045 0.958443 0.713999
Si Si7 0.624212 0.446505 0.621519
O O1 0.810960 0.733641 0.563289
O O2 0.633647 0.875098 0.666111
O O3 0.148752 0.856598 0.486019
O O4 0.724426 0.949430 0.413035
O O5 0.269442 0.808020 0.073152
O O6 0.288358 0.832072 0.262634
O O7 0.532428 0.649221 0.242935
O O8 0.742479 0.837450 0.074712
O O9 0.149775 0.903524 0.848697
O O10 0.000000 0.000000 0.000000
O O11 0.391723 0.251011 0.595176
O O12 0.507677 0.030962 0.736546
O O13 0.644300 0.552535 0.623937
O O14 0.071510 0.616055 0.426582
O O15 0.500000 0.500000 0.500000
#
# Coordination Sequence:
#
# PCOD9094587 Si02
#       7
#     2   2   2   2   2   2   2
#     4  10  20  38  59  87 118 158 204 259 291 363
#     4  12  24  38  61  89 128 154 203 244 305 369
#     4  12  25  40  59  88 127 172 193 245 298 374
#     4  11  19  35  58  91 118 156 196 255 305 363
#     4  10  20  34  58  91 119 148 199 254 319 347
#     4  10  23  36  58  85 122 162 208 238 307 354
#     4  11  21  35  60  89 120 154 194 264 309 352
#
# _framework density 19.053792999999999
#
# number of rings (size 3 to 8) (size 9 to 14) (size 15 to 20)
#    0.000    1.143    4.286    2.571    4.000    0.000 
#    0.000    0.000    0.000    1.714    0.000    0.000 
#    0.000    0.000    0.000    0.000    0.000    0.000 
#
# Total GULP energy -78157.992496 kJ/mol
# GULP energy per Si atom -5582.713750 kJ/mol
# Density = 1.901043 g / cm^3
# Si number density = 19.053793 Si / 1000 Ang^3
#
#
#
# Elastic Constant Matrix: (Units=GPa)
#
#
# Indices 1 2 3 4 5 6 
#
# 1 72.0513 25.6581 20.6288 -12.0110 -16.9987 -6.0179
# 2 25.6581 97.7516 34.5017 -7.2493 -19.2725 -0.2062
# 3 20.6288 34.5017 75.2097 -1.3197 -23.6284 2.2943
# 4 -12.0110 -7.2493 -1.3197 28.8281 0.3122 -10.9802
# 5 -16.9987 -19.2725 -23.6284 0.3122 35.3420 -6.5895
# 6 -6.0179 -0.2062 2.2943 -10.9802 -6.5895 29.6929
#
#
#
# Elastic Compliance Matrix: (Units=1/GPa)
#
#
# Indices 1 2 3 4 5 6 
#
# 1 0.020124 -0.001906 -0.001847 0.011765 0.009281 0.010618
# 2 -0.001906 0.013244 -0.004393 0.003057 0.003714 0.002000
# 3 -0.001847 -0.004393 0.018686 -0.001219 0.009170 -0.000265
# 4 0.011765 0.003057 -0.001219 0.048906 0.010344 0.022880
# 5 0.009281 0.003714 0.009170 0.010344 0.043563 0.014691
# 6 0.010618 0.002000 -0.000265 0.022880 0.014691 0.047586
#
#
# Mechanical properties :
#
#
# Convention : Reuss Voigt Hill
#
# Bulk Modulus (GPa) = 27.96312 45.17665 36.56988
# Shear Modulus (GPa) = 22.69421 29.72087 26.20754
#
# Velocity S-wave (km/s) = 3.45492 3.95377 3.71273
# Velocity P-wave (km/s) = 5.53381 6.67866 6.13301
#
# Compressibility (1/GPa) = 0.03576139
#
# Stress axis : x y z
#
# Youngs Moduli (GPa) = 49.69180 75.50555 53.51667
#
# Poissons Ratio (x) = 0.14388 0.09886
# Poissons Ratio (y) = 0.09469 0.23512
# Poissons Ratio (z) = 0.09180 0.33172
#
# Static dielectric constant tensor:
#      x y z
#    x 1.769590 0.006980 -0.004440 
#    y 0.006980 1.657770 -0.018700 
#    z -0.004440 -0.018700 1.689480 
# 
# From -- ./inp_files/65557.got.cif
#   From: 2010.05.17/outbox.cif.g08.bks.cpg/sg2_33_cif.got.tgz:65557.got - 2010.06.03 11:33:40.
