data_PCOD9094257
_publ_section_title
;
Structure prediction by ZEFSAII (Michael W. Deem and Ramdas Pophale) SiO2 
 PCOD9094257
Probable space group: P -1
;
_chemical_formula_sum "Si O2"
_cell_formula_units_Z 16
_cell_length_a 9.545307
_cell_length_b 9.183556
_cell_length_c 14.785953
_cell_angle_alpha 114.957944
_cell_angle_beta 101.540483
_cell_angle_gamma 49.003464
_cell_volume 881.308736
_symmetry_space_group_name_H-M "P -1"
_symmetry_group_IT_number 2
_symmetry_cell_setting 'triclinic'
loop_
_space_group_symop_operation_xyz
x,y,z
-x,-y,-z
loop_
_atom_site_type_symbol
_atom_site_label
_atom_site_fract_x
_atom_site_fract_y
_atom_site_fract_z
Si Si1 0.621896 0.133855 0.170361
Si Si2 0.384092 0.503520 0.771079
Si Si3 0.703843 0.376510 0.922716
Si Si4 0.597167 0.172823 0.963855
Si Si5 0.562295 0.873329 0.382949
Si Si6 0.658350 0.842370 0.745915
Si Si7 0.932021 0.511229 0.259196
Si Si8 0.031144 0.343599 0.885490
O O1 0.771500 0.890780 0.152641
O O2 0.668666 0.288741 0.225999
O O3 0.439817 0.233527 0.233877
O O4 0.604368 0.123109 0.056750
O O5 0.545233 0.426940 0.845424
O O6 0.465668 0.300484 0.666698
O O7 0.193929 0.556024 0.795788
O O8 0.733021 0.218540 0.960052
O O9 0.882099 0.310846 0.876781
O O10 0.607281 0.601053 0.015089
O O11 0.635243 0.000475 0.857746
O O12 0.783590 0.727001 0.351325
O O13 0.500000 0.000000 0.500000
O O14 0.451302 0.027908 0.324254
O O15 0.877428 0.661617 0.709221
O O16 0.991976 0.551014 0.184634
O O17 0.000000 0.500000 0.000000
#
# Coordination Sequence:
#
# PCOD9094257 Si02
#       8
#     2   2   2   2   2   2   2   2
#     4  11  22  35  60  88 134 165 208 254 305 367
#     4   9  21  41  59  90 122 159 216 259 309 370
#     4  10  21  34  58  82 133 164 209 255 296 365
#     4  10  20  34  55  89 119 173 205 236 309 364
#     4  10  23  44  69  90 121 161 211 268 320 374
#     4  12  21  41  65  89 127 166 200 265 313 373
#     4  10  23  41  63  90 125 158 217 250 316 377
#     4  12  24  36  58  95 133 177 210 245 306 374
#
# _framework density 18.154819
#
# number of rings (size 3 to 8) (size 9 to 14) (size 15 to 20)
#    0.750    0.750    2.500    3.375    7.000    1.000 
#    0.000    0.625    0.000    1.500    0.000    0.000 
#    0.000    0.000    0.000    0.000    0.000    0.000 
#
# Total GULP energy -89150.942515 kJ/mol
# GULP energy per Si atom -5571.933907 kJ/mol
# Density = 1.811350 g / cm^3
# Si number density = 18.154819 Si / 1000 Ang^3
#
#
#
# Elastic Constant Matrix: (Units=GPa)
#
#
# Indices 1 2 3 4 5 6 
#
# 1 100.6884 24.7820 19.3138 -2.8302 -9.7348 -7.8802
# 2 24.7820 80.9490 35.1475 1.0842 2.8646 -5.9114
# 3 19.3138 35.1475 90.5556 14.3599 -8.0655 -3.5838
# 4 -2.8302 1.0842 14.3599 15.8990 -0.9598 -5.9438
# 5 -9.7348 2.8646 -8.0655 -0.9598 14.5302 2.4894
# 6 -7.8802 -5.9114 -3.5838 -5.9438 2.4894 35.6774
#
#
#
# Elastic Compliance Matrix: (Units=1/GPa)
#
#
# Indices 1 2 3 4 5 6 
#
# 1 0.012076 -0.003342 -0.001242 0.004816 0.007996 0.002233
# 2 -0.003342 0.017181 -0.007620 0.005626 -0.009995 0.002978
# 3 -0.001242 -0.007620 0.017586 -0.016167 0.009905 -0.003155
# 4 0.004816 0.005626 -0.016167 0.083159 -0.003846 0.014494
# 5 0.007996 -0.009995 0.009905 -0.003846 0.082298 -0.005278
# 6 0.002233 0.002978 -0.003155 0.014494 -0.005278 0.031482
#
#
# Mechanical properties :
#
#
# Convention : Reuss Voigt Hill
#
# Bulk Modulus (GPa) = 44.57266 47.85328 46.21297
# Shear Modulus (GPa) = 18.13780 26.08464 22.11122
#
# Velocity S-wave (km/s) = 3.16422 3.79461 3.49367
# Velocity P-wave (km/s) = 6.16072 6.75385 6.46409
#
# Compressibility (1/GPa) = 0.02243528
#
# Stress axis : x y z
#
# Youngs Moduli (GPa) = 82.81183 58.20379 56.86242
#
# Poissons Ratio (x) = 0.19453 0.07060
# Poissons Ratio (y) = 0.27677 0.43330
# Poissons Ratio (z) = 0.10281 0.44352
#
# Static dielectric constant tensor:
#      x y z
#    x 1.679520 0.005200 0.003810 
#    y 0.005200 1.674900 0.000520 
#    z 0.003810 0.000520 1.596990 
# 
# From -- ./inp_files/495459.got.cif
#   From: 2010.05.17/outbox.cif.g08.bks.cpg/sg2_248_cif.got.tgz:495459.got - 2010.06.03 11:33:40.
