data_PCOD9094297
_publ_section_title
;
Structure prediction by ZEFSAII (Michael W. Deem and Ramdas Pophale) SiO2 
 PCOD9094297
Probable space group: P -1
;
_chemical_formula_sum "Si O2"
_cell_formula_units_Z 16
_cell_length_a 11.630425
_cell_length_b 8.318446
_cell_length_c 18.507060
_cell_angle_alpha 139.996233
_cell_angle_beta 45.404720
_cell_angle_gamma 104.645203
_cell_volume 641.414244
_symmetry_space_group_name_H-M "P -1"
_symmetry_group_IT_number 2
_symmetry_cell_setting 'triclinic'
loop_
_space_group_symop_operation_xyz
x,y,z
-x,-y,-z
loop_
_atom_site_type_symbol
_atom_site_label
_atom_site_fract_x
_atom_site_fract_y
_atom_site_fract_z
Si Si1 0.830642 0.202004 0.316723
Si Si2 0.705435 0.637191 0.300226
Si Si3 0.145931 0.585760 0.245610
Si Si4 0.488977 0.714786 0.918580
Si Si5 0.732332 0.735587 0.163574
Si Si6 0.725236 0.787690 0.500440
Si Si7 0.734603 0.092485 0.055857
Si Si8 0.093134 0.849577 0.208367
O O1 0.687859 0.571495 0.487535
O O2 0.745474 0.020572 0.263775
O O3 0.891315 0.130963 0.350231
O O4 0.043669 0.065559 0.133922
O O5 0.802010 0.568747 0.154227
O O6 0.792817 0.663324 0.344714
O O7 0.698548 0.344344 0.217195
O O8 0.500000 0.000000 0.500000
O O9 0.305162 0.547290 0.219163
O O10 0.097246 0.813153 0.278866
O O11 0.924061 0.728554 0.425926
O O12 0.252615 0.218832 0.044327
O O13 0.442744 0.670743 0.842740
O O14 0.286189 0.834642 0.094398
O O15 0.500000 0.000000 0.000000
O O16 0.498862 0.878090 0.295669
O O17 0.863792 0.465054 0.953326
#
# Coordination Sequence:
#
# PCOD9094297 Si02
#       8
#     2   2   2   2   2   2   2   2
#     4  10  20  34  56  81 114 156 183 231 276 337
#     4  10  20  35  54  77 120 149 186 225 283 339
#     4  10  21  35  60  86 110 149 193 238 273 332
#     4   9  18  37  60  85 111 143 189 242 282 322
#     4  11  21  36  53  82 120 152 182 230 284 336
#     4  10  23  36  54  84 120 152 189 223 284 341
#     4   9  19  35  57  87 112 149 192 234 280 331
#     4  11  21  35  60  85 114 142 195 233 281 332
#
# _framework density 24.944877000000002
#
# number of rings (size 3 to 8) (size 9 to 14) (size 15 to 20)
#    0.000    2.000    2.500    2.625    3.500    1.000 
#    0.000    0.625    0.000    0.000    0.000    7.875 
#    0.000    0.000    0.000    0.000    0.000    0.000 
#
# Total GULP energy -89372.624859 kJ/mol
# GULP energy per Si atom -5585.789054 kJ/mol
# Density = 2.488810 g / cm^3
# Si number density = 24.944877 Si / 1000 Ang^3
#
#
#
# Elastic Constant Matrix: (Units=GPa)
#
#
# Indices 1 2 3 4 5 6 
#
# 1 112.7205 15.9536 20.2252 0.8675 -37.6175 2.1233
# 2 15.9536 100.9498 11.5327 17.5204 -10.2382 -3.6172
# 3 20.2252 11.5327 63.1640 20.9935 -10.0429 -6.1705
# 4 0.8675 17.5204 20.9935 31.8603 -3.3115 -7.8852
# 5 -37.6175 -10.2382 -10.0429 -3.3115 39.2157 4.8462
# 6 2.1233 -3.6172 -6.1705 -7.8852 4.8462 47.6229
#
#
#
# Elastic Compliance Matrix: (Units=1/GPa)
#
#
# Indices 1 2 3 4 5 6 
#
# 1 0.013906 -0.001177 -0.003563 0.003464 0.012645 -0.001884
# 2 -0.001177 0.011288 0.000702 -0.006542 0.001474 -0.000232
# 3 -0.003563 0.000702 0.021874 -0.014455 0.001080 0.000543
# 4 0.003464 -0.006542 -0.014455 0.045758 0.001167 0.004933
# 5 0.012645 0.001474 0.001080 0.001167 0.038894 -0.004077
# 6 -0.001884 -0.000232 0.000543 0.004933 -0.004077 0.022367
#
#
# Mechanical properties :
#
#
# Convention : Reuss Voigt Hill
#
# Bulk Modulus (GPa) = 25.64589 41.36193 33.50391
# Shear Modulus (GPa) = 28.54545 39.01462 33.78003
#
# Velocity S-wave (km/s) = 3.38648 3.95908 3.68392
# Velocity P-wave (km/s) = 5.05909 6.12506 5.61742
#
# Compressibility (1/GPa) = 0.03899260
#
# Stress axis : x y z
#
# Youngs Moduli (GPa) = 71.91066 88.58672 45.71715
#
# Poissons Ratio (x) = 0.10426 0.16288
# Poissons Ratio (y) = 0.08463 -0.03209
# Poissons Ratio (z) = 0.25620 -0.06218
#
# Static dielectric constant tensor:
#      x y z
#    x 1.983110 0.051610 0.002140 
#    y 0.051610 2.030240 -0.015730 
#    z 0.002140 -0.015730 2.013550 
# 
# From -- ./inp_files/201930.got.cif
#   From: 2010.05.17/outbox.cif.g08.bks.cpg/sg2_101_cif.got.tgz:201930.got - 2010.06.03 11:33:40.
