data_PCOD9094045
_publ_section_title
;
Structure prediction by ZEFSAII (Michael W. Deem and Ramdas Pophale) SiO2 
 PCOD9094045
Probable space group: P -1
;
_chemical_formula_sum "Si O2"
_cell_formula_units_Z 14
_cell_length_a 5.004765
_cell_length_b 19.461053
_cell_length_c 12.063897
_cell_angle_alpha 29.695874
_cell_angle_beta 85.516189
_cell_angle_gamma 93.996467
_cell_volume 557.329138
_symmetry_space_group_name_H-M "P -1"
_symmetry_group_IT_number 2
_symmetry_cell_setting 'triclinic'
loop_
_space_group_symop_operation_xyz
x,y,z
-x,-y,-z
loop_
_atom_site_type_symbol
_atom_site_label
_atom_site_fract_x
_atom_site_fract_y
_atom_site_fract_z
Si Si1 0.009836 0.532774 0.261140
Si Si2 0.326081 0.131469 0.920022
Si Si3 0.406108 0.355354 0.000203
Si Si4 0.446837 0.827620 0.380630
Si Si5 0.944438 0.797100 0.563310
Si Si6 0.282436 0.041627 0.366627
Si Si7 0.891223 0.276344 0.794197
O O1 0.004942 0.394604 0.529030
O O2 0.041225 0.655883 0.182546
O O3 0.262707 0.577339 0.103402
O O4 0.726644 0.530068 0.212976
O O5 0.417209 0.200012 0.700787
O O6 0.030836 0.149444 0.941081
O O7 0.561833 0.221305 0.868608
O O8 0.350878 0.970012 0.149606
O O9 0.231274 0.299259 0.196217
O O10 0.365162 0.214204 0.120560
O O11 0.698747 0.837801 0.445129
O O12 0.150297 0.730022 0.576318
O O13 0.183504 0.934611 0.416128
O O14 0.500000 0.000000 0.500000
O O15 0.000000 0.000000 0.500000
#
# Coordination Sequence:
#
# PCOD9094045 Si02
#       7
#     2   2   2   2   2   2   2
#     4  11  24  40  64  94 120 165 213 246 316 378
#     4  11  24  43  66  90 124 163 211 270 304 357
#     4  11  22  38  60  90 130 163 196 255 307 378
#     4  11  24  40  65  96 121 166 213 246 320 372
#     4  11  22  38  62  92 132 165 198 254 308 382
#     4  10  20  34  52  86 126 163 195 228 298 374
#     4  11  24  43  65  90 122 163 211 269 308 353
#
# _framework density 25.119804999999999
#
# number of rings (size 3 to 8) (size 9 to 14) (size 15 to 20)
#    0.000    1.143    0.000    7.714    6.000    4.571 
#    0.000    0.000    0.000   17.143    0.000    0.000 
#    0.000    0.000    0.000    0.000    0.000    0.000 
#
# Total GULP energy -78259.815929 kJ/mol
# GULP energy per Si atom -5589.986852 kJ/mol
# Density = 2.506263 g / cm^3
# Si number density = 25.119805 Si / 1000 Ang^3
#
#
#
# Elastic Constant Matrix: (Units=GPa)
#
#
# Indices 1 2 3 4 5 6 
#
# 1 162.8432 30.8479 47.6820 25.0697 9.9730 2.5934
# 2 30.8479 45.9468 24.5526 21.9736 10.1178 -8.6860
# 3 47.6820 24.5526 85.3817 18.2909 -3.9523 -5.0755
# 4 25.0697 21.9736 18.2909 33.2650 -0.9090 -11.2839
# 5 9.9730 10.1178 -3.9523 -0.9090 47.0297 14.1720
# 6 2.5934 -8.6860 -5.0755 -11.2839 14.1720 29.4585
#
#
#
# Elastic Compliance Matrix: (Units=1/GPa)
#
#
# Indices 1 2 3 4 5 6 
#
# 1 0.008252 -0.002348 -0.003306 -0.003952 -0.000636 -0.003196
# 2 -0.002348 0.039752 -0.006210 -0.018143 -0.011818 0.009593
# 3 -0.003306 -0.006210 0.015992 -0.002651 0.003824 -0.001640
# 4 -0.003952 -0.018143 -0.002651 0.051066 0.001469 0.013395
# 5 -0.000636 -0.011818 0.003824 0.001469 0.029186 -0.016248
# 6 -0.003196 0.009593 -0.001640 0.013395 -0.016248 0.049721
#
#
# Mechanical properties :
#
#
# Convention : Reuss Voigt Hill
#
# Bulk Modulus (GPa) = 24.83392 55.59298 40.21345
# Shear Modulus (GPa) = 21.63385 34.68993 28.16189
#
# Velocity S-wave (km/s) = 2.93785 3.72018 3.35192
# Velocity P-wave (km/s) = 4.62770 6.37434 5.56991
#
# Compressibility (1/GPa) = 0.04026751
#
# Stress axis : x y z
#
# Youngs Moduli (GPa) = 121.18446 25.15613 62.53274
#
# Poissons Ratio (x) = 0.05906 0.20674
# Poissons Ratio (y) = 0.28452 0.38833
# Poissons Ratio (z) = 0.40064 0.15622
#
# Static dielectric constant tensor:
#      x y z
#    x 1.904600 -0.029260 -0.008400 
#    y -0.029260 2.144860 -0.052660 
#    z -0.008400 -0.052660 2.001130 
# 
# From -- ./inp_files/369956.got.cif
#   From: 2010.05.17/outbox.cif.g08.bks.cpg/sg2_185_cif.got.tgz:369956.got - 2010.06.03 11:33:40.
