data_PCOD9094009
_publ_section_title
;
Structure prediction by ZEFSAII (Michael W. Deem and Ramdas Pophale) SiO2 
 PCOD9094009
Probable space group: P -1
;
_chemical_formula_sum "Si O2"
_cell_formula_units_Z 14
_cell_length_a 5.649452
_cell_length_b 14.112977
_cell_length_c 7.981752
_cell_angle_alpha 85.578113
_cell_angle_beta 122.963331
_cell_angle_gamma 93.860723
_cell_volume 532.108634
_symmetry_space_group_name_H-M "P -1"
_symmetry_group_IT_number 2
_symmetry_cell_setting 'triclinic'
loop_
_space_group_symop_operation_xyz
x,y,z
-x,-y,-z
loop_
_atom_site_type_symbol
_atom_site_label
_atom_site_fract_x
_atom_site_fract_y
_atom_site_fract_z
Si Si1 0.302783 0.914114 0.506872
Si Si2 0.985513 0.612537 0.458113
Si Si3 0.822782 0.017564 0.175997
Si Si4 0.810417 0.813151 0.824230
Si Si5 0.641197 0.639136 0.980716
Si Si6 0.520844 0.387063 0.550161
Si Si7 0.872292 0.367977 0.030434
O O1 0.210992 0.931310 0.661978
O O2 0.535477 0.833124 0.602166
O O3 0.500000 0.000000 0.500000
O O4 0.008124 0.923261 0.292012
O O5 0.298589 0.649376 0.530624
O O6 0.000000 0.500000 0.500000
O O7 0.810321 0.628170 0.219165
O O8 0.793552 0.651481 0.526712
O O9 0.013068 0.086761 0.119356
O O10 0.500000 0.000000 0.000000
O O11 0.672450 0.751434 0.933051
O O12 0.055335 0.740296 0.885793
O O13 0.329384 0.597963 0.905143
O O14 0.821488 0.588039 0.911510
O O15 0.500000 0.500000 0.500000
O O16 0.695927 0.369293 0.789588
#
# Coordination Sequence:
#
# PCOD9094009 Si02
#       7
#     2   2   2   2   2   2   2
#     4   9  19  34  50  72  97 130 165 206 255 305
#     4   8  12  18  28  45  72 107 148 183 226 277
#     4  10  20  34  52  73  98 129 170 209 251 301
#     4   9  17  27  45  63  94 124 163 201 247 301
#     4   8  14  22  35  55  80 115 154 189 236 285
#     4   8  12  18  28  45  72 107 147 182 225 275
#     4   8  14  22  35  55  80 114 154 188 234 286
#
# _framework density 26.310416
#
# number of rings (size 3 to 8) (size 9 to 14) (size 15 to 20)
#    0.857    2.571    0.000    0.857    0.000    2.286 
#    0.000    0.000    0.000    0.000    0.000    0.000 
#    0.000    0.000    0.000    2.571    4.571   13.714 
#
# Total GULP energy -78049.423007 kJ/mol
# GULP energy per Si atom -5574.958786 kJ/mol
# Density = 2.625053 g / cm^3
# Si number density = 26.310416 Si / 1000 Ang^3
#
#
#
# Elastic Constant Matrix: (Units=GPa)
#
#
# Indices 1 2 3 4 5 6 
#
# 1 276.1746 22.9752 40.0245 1.2078 18.9947 30.6381
# 2 22.9752 94.9957 69.5112 -20.0016 5.6375 21.7960
# 3 40.0245 69.5112 179.0331 -32.5547 30.6553 9.8001
# 4 1.2078 -20.0016 -32.5547 41.3754 -1.7500 4.6043
# 5 18.9947 5.6375 30.6553 -1.7500 63.5191 -3.6627
# 6 30.6381 21.7960 9.8001 4.6043 -3.6627 28.9172
#
#
#
# Elastic Compliance Matrix: (Units=1/GPa)
#
#
# Indices 1 2 3 4 5 6 
#
# 1 0.004317 0.000780 -0.000732 0.000189 -0.001296 -0.005108
# 2 0.000780 0.019098 -0.005685 0.006334 0.000166 -0.014283
# 3 -0.000732 -0.005685 0.009331 0.004380 -0.003616 0.000743
# 4 0.000189 0.006334 0.004380 0.031883 -0.002538 -0.011856
# 5 -0.001296 0.000166 -0.003616 -0.002538 0.018090 0.005169
# 6 -0.005108 -0.014283 0.000743 -0.011856 0.005169 0.053050
#
#
# Mechanical properties :
#
#
# Convention : Reuss Voigt Hill
#
# Bulk Modulus (GPa) = 46.56756 90.58057 68.57407
# Shear Modulus (GPa) = 32.42525 54.60852 43.51689
#
# Velocity S-wave (km/s) = 3.51438 4.56076 4.07133
# Velocity P-wave (km/s) = 5.84855 7.88901 6.94413
#
# Compressibility (1/GPa) = 0.02147418
#
# Stress axis : x y z
#
# Youngs Moduli (GPa) = 231.63552 52.36044 107.16612
#
# Poissons Ratio (x) = -0.04086 0.07847
# Poissons Ratio (y) = -0.18077 0.60919
# Poissons Ratio (z) = 0.16961 0.29764
#
# Static dielectric constant tensor:
#      x y z
#    x 2.171060 -0.028310 0.022760 
#    y -0.028310 1.968080 -0.049750 
#    z 0.022760 -0.049750 2.125670 
# 
# From -- ./inp_files/9724.got.cif
#   From: 2010.05.17/outbox.cif.g08.bks.cpg/sg2_5_cif.got.tgz:9724.got - 2010.06.03 11:33:40.
