data_PCOD9094106
_publ_section_title
;
Structure prediction by ZEFSAII (Michael W. Deem and Ramdas Pophale) SiO2 
 PCOD9094106
Probable space group: P -1
;
_chemical_formula_sum "Si O2"
_cell_formula_units_Z 16
_cell_length_a 15.290805
_cell_length_b 12.343035
_cell_length_c 12.299094
_cell_angle_alpha 154.182477
_cell_angle_beta 45.975200
_cell_angle_gamma 132.334655
_cell_volume 718.357143
_symmetry_space_group_name_H-M "P -1"
_symmetry_group_IT_number 2
_symmetry_cell_setting 'triclinic'
loop_
_space_group_symop_operation_xyz
x,y,z
-x,-y,-z
loop_
_atom_site_type_symbol
_atom_site_label
_atom_site_fract_x
_atom_site_fract_y
_atom_site_fract_z
Si Si1 0.352889 0.508083 0.491084
Si Si2 0.970846 0.018995 0.913849
Si Si3 0.166146 0.539702 0.508504
Si Si4 0.566262 0.750847 0.229812
Si Si5 0.629492 0.611087 0.297237
Si Si6 0.403828 0.003202 0.988847
Si Si7 0.780579 0.099442 0.405653
Si Si8 0.648647 0.130124 0.766909
O O1 0.300219 0.563386 0.468845
O O2 0.500327 0.536299 0.400393
O O3 0.325196 0.731546 0.792858
O O4 0.318031 0.212855 0.271989
O O5 0.891723 0.753072 0.707486
O O6 0.106106 0.015556 0.744268
O O7 0.909462 0.272166 0.188426
O O8 0.000000 0.000000 0.000000
O O9 0.176018 0.657945 0.486405
O O10 0.587440 0.672382 0.265832
O O11 0.500000 0.000000 0.500000
O O12 0.705192 0.881624 0.197537
O O13 0.500000 0.500000 0.000000
O O14 0.692516 0.870283 0.526396
O O15 0.696922 0.373674 0.014583
O O16 0.498712 0.077406 0.869673
O O17 0.500000 0.000000 0.000000
O O18 0.694395 0.175517 0.645262
#
# Coordination Sequence:
#
# PCOD9094106 Si02
#       8
#     2   2   2   2   2   2   2   2
#     4  10  20  34  54  79 107 139 175 219 273 321
#     4  10  22  36  52  75 105 151 200 228 261 308
#     4  11  22  36  54  79 109 147 191 231 267 312
#     4  11  21  29  43  68  98 138 174 204 255 308
#     4   9  18  30  42  67 100 125 162 205 243 315
#     4  10  20  37  57  81 109 137 173 219 270 341
#     4  10  21  36  53  74 112 150 181 227 263 308
#     4   9  19  32  50  75 101 135 174 203 258 321
#
# _framework density 22.273045
#
# number of rings (size 3 to 8) (size 9 to 14) (size 15 to 20)
#    0.000    2.000    0.000    4.875    0.000   13.000 
#    0.000    1.875    0.000    0.000    0.000    5.250 
#    0.000    0.000    0.000    0.000    0.000    0.000 
#
# Total GULP energy -89125.407922 kJ/mol
# GULP energy per Si atom -5570.337995 kJ/mol
# Density = 2.222235 g / cm^3
# Si number density = 22.273045 Si / 1000 Ang^3
#
#
#
# Elastic Constant Matrix: (Units=GPa)
#
#
# Indices 1 2 3 4 5 6 
#
# 1 43.5544 13.0371 23.6781 -3.9825 -2.8995 -3.6359
# 2 13.0371 47.2713 39.6863 -0.5368 1.1880 6.7962
# 3 23.6781 39.6863 209.6827 48.1034 1.7938 2.4291
# 4 -3.9825 -0.5368 48.1034 33.7771 4.7328 7.9385
# 5 -2.8995 1.1880 1.7938 4.7328 21.6282 2.4245
# 6 -3.6359 6.7962 2.4291 7.9385 2.4245 24.4250
#
#
#
# Elastic Compliance Matrix: (Units=1/GPa)
#
#
# Indices 1 2 3 4 5 6 
#
# 1 0.027738 -0.004485 -0.004222 0.008222 0.002190 0.002907
# 2 -0.004485 0.032617 -0.009429 0.017250 -0.003812 -0.014034
# 3 -0.004222 -0.009429 0.011162 -0.018429 0.002314 0.006645
# 4 0.008222 0.017250 -0.018429 0.063502 -0.009813 -0.021408
# 5 0.002190 -0.003812 0.002314 -0.009813 0.048750 -0.000493
# 6 0.002907 -0.014034 0.006645 -0.021408 -0.000493 0.051625
#
#
# Mechanical properties :
#
#
# Convention : Reuss Voigt Hill
#
# Bulk Modulus (GPa) = 28.37353 50.36794 39.37073
# Shear Modulus (GPa) = 17.64207 30.90651 24.27429
#
# Velocity S-wave (km/s) = 2.81745 3.72912 3.30487
# Velocity P-wave (km/s) = 4.83225 6.41909 5.68134
#
# Compressibility (1/GPa) = 0.03524411
#
# Stress axis : x y z
#
# Youngs Moduli (GPa) = 36.05189 30.65894 89.59277
#
# Poissons Ratio (x) = 0.13751 0.37825
# Poissons Ratio (y) = 0.16170 0.84478
# Poissons Ratio (z) = 0.15221 0.28909
#
# Static dielectric constant tensor:
#      x y z
#    x 1.841870 0.008030 -0.010670 
#    y 0.008030 1.955420 0.013940 
#    z -0.010670 0.013940 2.001860 
# 
# From -- ./inp_files/538913.got.cif
#   From: 2010.05.17/outbox.cif.g08.bks.cpg/sg2_270_cif.got.tgz:538913.got - 2010.06.03 11:33:40.
