data_PCOD9094955
_publ_section_title
;
Structure prediction by ZEFSAII (Michael W. Deem and Ramdas Pophale) SiO2 
 PCOD9094955
Probable space group: P -1
;
_chemical_formula_sum "Si O2"
_cell_formula_units_Z 14
_cell_length_a 9.838022
_cell_length_b 9.666363
_cell_length_c 12.950799
_cell_angle_alpha 98.786864
_cell_angle_beta 126.885129
_cell_angle_gamma 121.540897
_cell_volume 611.896462
_symmetry_space_group_name_H-M "P -1"
_symmetry_group_IT_number 2
_symmetry_cell_setting 'triclinic'
loop_
_space_group_symop_operation_xyz
x,y,z
-x,-y,-z
loop_
_atom_site_type_symbol
_atom_site_label
_atom_site_fract_x
_atom_site_fract_y
_atom_site_fract_z
Si Si1 0.535266 0.342629 0.102853
Si Si2 0.740355 0.518156 0.671329
Si Si3 0.044951 0.655886 0.226567
Si Si4 0.262231 0.939573 0.828403
Si Si5 0.192505 0.333129 0.053395
Si Si6 0.325223 0.090911 0.329894
Si Si7 0.297508 0.754267 0.657983
O O1 0.824229 0.522175 0.200925
O O2 0.442159 0.429724 0.114831
O O3 0.532287 0.236002 0.186542
O O4 0.330065 0.143605 0.904031
O O5 0.750323 0.605527 0.794131
O O6 0.449418 0.310745 0.459903
O O7 0.816246 0.404650 0.718003
O O8 0.977152 0.718500 0.724726
O O9 0.900418 0.587866 0.041648
O O10 0.229567 0.912725 0.347489
O O11 0.280898 0.897779 0.715174
O O12 0.500000 0.000000 0.000000
O O13 0.938501 0.066776 0.881931
O O14 0.560823 0.171484 0.377801
O O15 0.000000 0.500000 0.500000
#
# Coordination Sequence:
#
# PCOD9094955 Si02
#       7
#     2   2   2   2   2   2   2
#     4  11  22  43  64  90 130 165 209 262 312 375
#     4  12  20  43  64  97 124 165 211 267 305 375
#     4  10  22  41  66  89 128 167 213 258 309 374
#     4  10  20  34  66  86 123 157 210 249 315 358
#     4  10  25  39  65  93 129 170 204 256 325 370
#     4  10  24  38  65  95 128 157 217 254 320 367
#     4  11  20  39  62  96 121 161 212 260 309 372
#
# _framework density 22.87969
#
# number of rings (size 3 to 8) (size 9 to 14) (size 15 to 20)
#    0.857    0.571    4.286    3.000    0.000    2.286 
#    2.571    2.143    0.000    0.000    0.000    0.000 
#    0.000    0.000    0.000    0.000    0.000    0.000 
#
# Total GULP energy -78190.164720 kJ/mol
# GULP energy per Si atom -5585.011766 kJ/mol
# Density = 2.282761 g / cm^3
# Si number density = 22.879690 Si / 1000 Ang^3
#
#
#
# Elastic Constant Matrix: (Units=GPa)
#
#
# Indices 1 2 3 4 5 6 
#
# 1 82.9697 8.9252 40.6901 4.4971 -22.6329 11.9598
# 2 8.9252 66.4732 15.0536 12.1419 -4.7911 11.4945
# 3 40.6901 15.0536 104.5378 11.7506 -21.9931 11.3489
# 4 4.4971 12.1419 11.7506 40.5074 2.6435 5.6235
# 5 -22.6329 -4.7911 -21.9931 2.6435 34.4468 -4.1617
# 6 11.9598 11.4945 11.3489 5.6235 -4.1617 27.0748
#
#
#
# Elastic Compliance Matrix: (Units=1/GPa)
#
#
# Indices 1 2 3 4 5 6 
#
# 1 0.017034 0.000150 -0.004456 -0.000548 0.007879 -0.004396
# 2 0.000150 0.017134 -0.001148 -0.004103 0.001363 -0.005797
# 3 -0.004456 -0.001148 0.013105 -0.003091 0.005327 -0.001577
# 4 -0.000548 -0.004103 -0.003091 0.027688 -0.005428 -0.003305
# 5 0.007879 0.001363 0.005327 -0.005428 0.038302 0.000723
# 6 -0.004396 -0.005797 -0.001577 -0.003305 0.000723 0.042796
#
#
# Mechanical properties :
#
#
# Convention : Reuss Voigt Hill
#
# Bulk Modulus (GPa) = 27.49904 42.59094 35.04499
# Shear Modulus (GPa) = 27.91931 33.02658 30.47295
#
# Velocity S-wave (km/s) = 3.49702 3.80345 3.65345
# Velocity P-wave (km/s) = 5.32453 6.15986 5.75736
#
# Compressibility (1/GPa) = 0.03636491
#
# Stress axis : x y z
#
# Youngs Moduli (GPa) = 58.70543 58.36422 76.30780
#
# Poissons Ratio (x) = -0.00875 0.33999
# Poissons Ratio (y) = -0.00880 0.08762
# Poissons Ratio (z) = 0.26156 0.06702
#
# Static dielectric constant tensor:
#      x y z
#    x 1.839810 -0.041080 -0.000700 
#    y -0.041080 1.856530 -0.048120 
#    z -0.000700 -0.048120 1.986250 
# 
# From -- ./inp_files/290168.got.cif
#   From: 2010.05.17/outbox.cif.g08.bks.cpg/sg2_146_cif.got.tgz:290168.got - 2010.06.03 11:33:40.
