data_PCOD9094185
_publ_section_title
;
Structure prediction by ZEFSAII (Michael W. Deem and Ramdas Pophale) SiO2 
 PCOD9094185
Probable space group: P -1
;
_chemical_formula_sum "Si O2"
_cell_formula_units_Z 14
_cell_length_a 8.373229
_cell_length_b 18.802770
_cell_length_c 6.834305
_cell_angle_alpha 127.771216
_cell_angle_beta 93.487098
_cell_angle_gamma 124.810560
_cell_volume 540.904080
_symmetry_space_group_name_H-M "P -1"
_symmetry_group_IT_number 2
_symmetry_cell_setting 'triclinic'
loop_
_space_group_symop_operation_xyz
x,y,z
-x,-y,-z
loop_
_atom_site_type_symbol
_atom_site_label
_atom_site_fract_x
_atom_site_fract_y
_atom_site_fract_z
Si Si1 0.630642 0.530596 0.262855
Si Si2 0.639154 0.963847 0.430922
Si Si3 0.384675 0.115316 0.148561
Si Si4 0.917826 0.398812 0.593086
Si Si5 0.876792 0.752579 0.155542
Si Si6 0.851598 0.320847 0.997087
Si Si7 0.909586 0.825734 0.735608
O O1 0.791652 0.687942 0.600736
O O2 0.828856 0.541837 0.242397
O O3 0.500000 0.500000 0.000000
O O4 0.415235 0.395304 0.155988
O O5 0.500000 0.000000 0.500000
O O6 0.620669 0.928164 0.142167
O O7 0.451780 0.815073 0.279664
O O8 0.940532 0.103715 0.716440
O O9 0.677350 0.258000 0.452311
O O10 0.246841 0.152177 0.195455
O O11 0.208593 0.973895 0.027160
O O12 0.875944 0.355721 0.288426
O O13 0.979136 0.529872 0.838546
O O14 0.879215 0.793222 0.444903
O O15 0.020592 0.719213 0.106143
#
# Coordination Sequence:
#
# PCOD9094185 Si02
#       7
#     2   2   2   2   2   2   2
#     4  10  21  36  52  76 110 145 179 217 264 317
#     4   8  15  30  55  79 104 135 172 220 266 312
#     4   9  17  32  55  79 105 139 178 221 265 315
#     4  10  20  34  55  81 106 139 181 221 266 315
#     4   9  17  33  53  76 109 140 172 216 266 319
#     4   9  18  34  56  80 104 135 178 226 268 313
#     4   9  18  33  53  78 108 141 176 216 267 319
#
# _framework density 25.882593
#
# number of rings (size 3 to 8) (size 9 to 14) (size 15 to 20)
#    0.000    2.857    0.000    0.857    0.000    1.143 
#    0.000   12.143    0.000   36.000    0.000    0.000 
#    0.000    0.000    0.000    0.000    0.000    0.000 
#
# Total GULP energy -78306.888564 kJ/mol
# GULP energy per Si atom -5593.349183 kJ/mol
# Density = 2.582368 g / cm^3
# Si number density = 25.882593 Si / 1000 Ang^3
#
#
#
# Elastic Constant Matrix: (Units=GPa)
#
#
# Indices 1 2 3 4 5 6 
#
# 1 77.5624 33.1451 46.3811 23.3989 -7.5272 36.7548
# 2 33.1451 188.2821 58.4787 37.9416 1.9299 39.5276
# 3 46.3811 58.4787 139.6766 22.0820 3.5802 32.9244
# 4 23.3989 37.9416 22.0820 52.0118 24.6413 9.2576
# 5 -7.5272 1.9299 3.5802 24.6413 54.8058 1.9079
# 6 36.7548 39.5276 32.9244 9.2576 1.9079 39.2495
#
#
#
# Elastic Compliance Matrix: (Units=1/GPa)
#
#
# Indices 1 2 3 4 5 6 
#
# 1 0.034756 0.005272 -0.003808 -0.019288 0.014582 -0.030822
# 2 0.005272 0.008780 -0.001729 -0.008365 0.004657 -0.010582
# 3 -0.003808 -0.001729 0.009897 -0.000301 -0.000873 -0.002882
# 4 -0.019288 -0.008365 -0.000301 0.041065 -0.021428 0.018095
# 5 0.014582 0.004657 -0.000873 -0.021428 0.030265 -0.014030
# 6 -0.030822 -0.010582 -0.002882 0.018095 -0.014030 0.063829
#
#
# Mechanical properties :
#
#
# Convention : Reuss Voigt Hill
#
# Bulk Modulus (GPa) = 18.90218 75.72566 47.31392
# Shear Modulus (GPa) = 24.18319 47.04782 35.61550
#
# Velocity S-wave (km/s) = 3.06002 4.26812 3.71353
# Velocity P-wave (km/s) = 4.45015 7.32189 6.05862
#
# Compressibility (1/GPa) = 0.05290395
#
# Stress axis : x y z
#
# Youngs Moduli (GPa) = 28.77168 113.90013 101.04190
#
# Poissons Ratio (x) = -0.60050 0.38473
# Poissons Ratio (y) = -0.15169 0.17470
# Poissons Ratio (z) = 0.10955 0.19693
#
# Static dielectric constant tensor:
#      x y z
#    x 1.905520 -0.036740 0.027920 
#    y -0.036740 2.090280 0.003070 
#    z 0.027920 0.003070 2.135680 
# 
# From -- ./inp_files/226634.got.cif
#   From: 2010.05.17/outbox.cif.g08.bks.cpg/sg2_114_cif.got.tgz:226634.got - 2010.06.03 11:33:40.
