data_PCOD9094318
_publ_section_title
;
Structure prediction by ZEFSAII (Michael W. Deem and Ramdas Pophale) SiO2 
 PCOD9094318
Probable space group: P -1
;
_chemical_formula_sum "Si O2"
_cell_formula_units_Z 14
_cell_length_a 6.959790
_cell_length_b 17.343171
_cell_length_c 11.998895
_cell_angle_alpha 136.276427
_cell_angle_beta 39.695211
_cell_angle_gamma 117.452403
_cell_volume 624.377120
_symmetry_space_group_name_H-M "P -1"
_symmetry_group_IT_number 2
_symmetry_cell_setting 'triclinic'
loop_
_space_group_symop_operation_xyz
x,y,z
-x,-y,-z
loop_
_atom_site_type_symbol
_atom_site_label
_atom_site_fract_x
_atom_site_fract_y
_atom_site_fract_z
Si Si1 0.419054 0.889034 0.366128
Si Si2 0.746319 0.574496 0.271829
Si Si3 0.269441 0.656927 0.879439
Si Si4 0.734197 0.749437 0.634193
Si Si5 0.271223 0.065341 0.346369
Si Si6 0.418609 0.246519 0.643597
Si Si7 0.370034 0.187120 0.024604
O O1 0.094961 0.925593 0.485232
O O2 0.375273 0.802609 0.393941
O O3 0.686342 0.837083 0.103677
O O4 0.500000 0.000000 0.500000
O O5 0.618633 0.478024 0.293963
O O6 0.890731 0.651699 0.375353
O O7 0.528225 0.662212 0.377497
O O8 0.000000 0.500000 0.000000
O O9 0.417431 0.707103 0.760202
O O10 0.406651 0.723236 0.986091
O O11 0.905179 0.694802 0.091789
O O12 0.663686 0.867443 0.722954
O O13 0.855544 0.762789 0.719992
O O14 0.633967 0.861967 0.518001
O O15 0.456342 0.936009 0.134434
#
# Coordination Sequence:
#
# PCOD9094318 Si02
#       7
#     2   2   2   2   2   2   2
#     4  12  22  35  60  84 117 154 191 231 276 338
#     4   9  18  35  62  87 106 148 197 230 282 338
#     4   9  18  35  60  83 113 151 187 228 285 333
#     4   9  20  33  62  80 118 150 182 236 288 334
#     4  11  19  38  56  87 116 148 192 230 283 334
#     4  10  20  36  60  86 113 150 192 236 273 334
#     4  10  20  34  56  83 117 149 186 228 286 330
#
# _framework density 22.422346000000001
#
# number of rings (size 3 to 8) (size 9 to 14) (size 15 to 20)
#    0.857    1.143    2.857    2.143    0.000    0.000 
#    0.000    4.286    0.000    4.286    0.000    0.000 
#    0.000    0.000    0.000    0.000    0.000    0.000 
#
# Total GULP energy -77957.835821 kJ/mol
# GULP energy per Si atom -5568.416844 kJ/mol
# Density = 2.237131 g / cm^3
# Si number density = 22.422346 Si / 1000 Ang^3
#
#
#
# Elastic Constant Matrix: (Units=GPa)
#
#
# Indices 1 2 3 4 5 6 
#
# 1 55.1972 17.9332 33.9103 7.5830 16.5402 -24.6715
# 2 17.9332 134.2060 27.7129 6.0673 11.5172 -9.4431
# 3 33.9103 27.7129 108.9196 3.2995 34.8330 -9.7155
# 4 7.5830 6.0673 3.2995 47.7603 -1.2629 8.6011
# 5 16.5402 11.5172 34.8330 -1.2629 31.5418 -4.7481
# 6 -24.6715 -9.4431 -9.7155 8.6011 -4.7481 24.6320
#
#
#
# Elastic Compliance Matrix: (Units=1/GPa)
#
#
# Indices 1 2 3 4 5 6 
#
# 1 0.052761 0.000094 -0.007117 -0.017940 -0.012441 0.053941
# 2 0.000094 0.008102 -0.001458 -0.001502 -0.001013 0.002954
# 3 -0.007117 -0.001458 0.015766 0.000645 -0.013775 -0.004349
# 4 -0.017940 -0.001502 0.000645 0.028998 0.006311 -0.027200
# 5 -0.012441 -0.001013 -0.013775 0.006311 0.052503 -0.010366
# 6 0.053941 0.002954 -0.004349 -0.027200 -0.010366 0.101542
#
#
# Mechanical properties :
#
#
# Convention : Reuss Voigt Hill
#
# Bulk Modulus (GPa) = 16.75935 50.82618 33.79276
# Shear Modulus (GPa) = 16.86210 35.37125 26.11668
#
# Velocity S-wave (km/s) = 2.74528 3.97608 3.41656
# Velocity P-wave (km/s) = 4.18800 6.61784 5.53783
#
# Compressibility (1/GPa) = 0.05966818
#
# Stress axis : x y z
#
# Youngs Moduli (GPa) = 18.95329 123.41924 63.42962
#
# Poissons Ratio (x) = -0.01154 0.45140
# Poissons Ratio (y) = -0.00177 0.09245
# Poissons Ratio (z) = 0.13488 0.17989
#
# Static dielectric constant tensor:
#      x y z
#    x 1.887900 -0.002240 0.028940 
#    y -0.002240 1.890600 -0.062010 
#    z 0.028940 -0.062010 1.889270 
# 
# From -- ./inp_files/396313.got.cif
#   From: 2010.05.17/outbox.cif.g08.bks.cpg/sg2_199_cif.got.tgz:396313.got - 2010.06.03 11:33:40.
