data_PCOD9094039
_publ_section_title
;
Structure prediction by ZEFSAII (Michael W. Deem and Ramdas Pophale) SiO2 
 PCOD9094039
Probable space group: P -1
;
_chemical_formula_sum "Si O2"
_cell_formula_units_Z 16
_cell_length_a 8.178165
_cell_length_b 15.040840
_cell_length_c 13.092513
_cell_angle_alpha 45.211846
_cell_angle_beta 145.281182
_cell_angle_gamma 117.727003
_cell_volume 624.649185
_symmetry_space_group_name_H-M "P -1"
_symmetry_group_IT_number 2
_symmetry_cell_setting 'triclinic'
loop_
_space_group_symop_operation_xyz
x,y,z
-x,-y,-z
loop_
_atom_site_type_symbol
_atom_site_label
_atom_site_fract_x
_atom_site_fract_y
_atom_site_fract_z
Si Si1 0.087660 0.492801 0.279152
Si Si2 0.849166 0.865160 0.272291
Si Si3 0.104331 0.279902 0.877510
Si Si4 0.722218 0.635234 0.301171
Si Si5 0.649381 0.558185 0.750508
Si Si6 0.250637 0.689934 0.782514
Si Si7 0.774504 0.919622 0.415713
Si Si8 0.728073 0.146219 0.673860
O O1 0.177168 0.427501 0.487020
O O2 0.342590 0.436846 0.373554
O O3 0.021681 0.644823 0.144673
O O4 0.783173 0.456035 0.122201
O O5 0.123625 0.754581 0.556722
O O6 0.042618 0.918572 0.246290
O O7 0.646452 0.788749 0.169269
O O8 0.699163 0.937230 0.240717
O O9 0.048506 0.366484 0.672737
O O10 0.941787 0.172593 0.852807
O O11 0.456734 0.265435 0.079625
O O12 0.491948 0.560790 0.200991
O O13 0.484176 0.705390 0.582750
O O14 0.000000 0.500000 0.000000
O O15 0.979894 0.769886 0.650935
O O16 0.491418 0.932718 0.331403
O O17 0.000000 0.000000 0.500000
#
# Coordination Sequence:
#
# PCOD9094039 Si02
#       8
#     2   2   2   2   2   2   2   2
#     4  11  20  34  54  83 123 162 199 229 287 354
#     4   8  21  37  61  82 116 151 196 239 302 349
#     4  11  22  33  60  86 122 161 190 237 294 354
#     4  10  20  34  52  82 122 157 188 232 287 355
#     4  12  24  32  53  89 124 162 200 234 279 360
#     4   9  20  38  55  87 117 155 198 243 289 351
#     4  10  22  42  66  84 111 152 204 259 305 344
#     4  11  22  39  58  88 120 155 202 238 299 361
#
# _framework density 25.614379
#
# number of rings (size 3 to 8) (size 9 to 14) (size 15 to 20)
#    0.750    1.000    2.500    1.875    7.000    0.500 
#    0.000    0.625    0.000    3.000    0.000    0.000 
#    0.000    0.000    0.000    0.000    0.000    0.000 
#
# Total GULP energy -89152.112305 kJ/mol
# GULP energy per Si atom -5572.007019 kJ/mol
# Density = 2.555608 g / cm^3
# Si number density = 25.614379 Si / 1000 Ang^3
#
#
#
# Elastic Constant Matrix: (Units=GPa)
#
#
# Indices 1 2 3 4 5 6 
#
# 1 108.7256 46.5010 -19.7766 4.4677 12.1541 10.8233
# 2 46.5010 92.6631 27.3304 30.2905 8.6683 22.9223
# 3 -19.7766 27.3304 81.8922 19.7473 13.7120 16.4655
# 4 4.4677 30.2905 19.7473 53.0153 2.5712 17.4087
# 5 12.1541 8.6683 13.7120 2.5712 35.9916 11.9123
# 6 10.8233 22.9223 16.4655 17.4087 11.9123 39.6073
#
#
#
# Elastic Compliance Matrix: (Units=1/GPa)
#
#
# Indices 1 2 3 4 5 6 
#
# 1 0.015495 -0.009985 0.007686 0.002099 -0.005613 -0.000885
# 2 -0.009985 0.021088 -0.007371 -0.007253 0.002983 -0.004121
# 3 0.007686 -0.007371 0.018746 -0.002245 -0.006958 -0.002548
# 4 0.002099 -0.007253 -0.002245 0.026060 0.002570 -0.007670
# 5 -0.005613 0.002983 -0.006958 0.002570 0.034326 -0.008753
# 6 -0.000885 -0.004121 -0.002548 -0.007670 -0.008753 0.034938
#
#
# Mechanical properties :
#
#
# Convention : Reuss Voigt Hill
#
# Bulk Modulus (GPa) = 27.78621 43.48784 35.63702
# Shear Modulus (GPa) = 27.47410 41.00457 34.23933
#
# Velocity S-wave (km/s) = 3.27862 4.00539 3.66009
# Velocity P-wave (km/s) = 5.02035 6.19723 5.63957
#
# Compressibility (1/GPa) = 0.03598908
#
# Stress axis : x y z
#
# Youngs Moduli (GPa) = 64.53508 47.42040 53.34445
#
# Poissons Ratio (x) = 0.47350 -0.41001
# Poissons Ratio (y) = 0.64439 0.39321
# Poissons Ratio (z) = -0.49603 0.34955
#
# Static dielectric constant tensor:
#      x y z
#    x 2.042490 -0.021330 -0.043450 
#    y -0.021330 2.139500 -0.047430 
#    z -0.043450 -0.047430 2.161680 
# 
# From -- ./inp_files/505422.got.cif
#   From: 2010.05.17/outbox.cif.g08.bks.cpg/sg2_253_cif.got.tgz:505422.got - 2010.06.03 11:33:40.
