data_PCOD9094842
_publ_section_title
;
Structure prediction by ZEFSAII (Michael W. Deem and Ramdas Pophale) SiO2 
 PCOD9094842
Probable space group: P -1
;
_chemical_formula_sum "Si O2"
_cell_formula_units_Z 14
_cell_length_a 12.504664
_cell_length_b 11.622056
_cell_length_c 17.491998
_cell_angle_alpha 44.765911
_cell_angle_beta 151.255581
_cell_angle_gamma 114.033262
_cell_volume 664.671839
_symmetry_space_group_name_H-M "P -1"
_symmetry_group_IT_number 2
_symmetry_cell_setting 'triclinic'
loop_
_space_group_symop_operation_xyz
x,y,z
-x,-y,-z
loop_
_atom_site_type_symbol
_atom_site_label
_atom_site_fract_x
_atom_site_fract_y
_atom_site_fract_z
Si Si1 0.235384 0.072790 0.531694
Si Si2 0.156920 0.023214 0.205834
Si Si3 0.466286 0.188702 0.930245
Si Si4 0.890701 0.833057 0.059680
Si Si5 0.991885 0.491867 0.609823
Si Si6 0.049387 0.829057 0.532210
Si Si7 0.847722 0.740702 0.770513
O O1 0.034626 0.177420 0.430942
O O2 0.108210 0.212552 0.309692
O O3 0.546510 0.006932 0.773077
O O4 0.297343 0.847136 0.669346
O O5 0.055695 0.158132 0.000220
O O6 0.061980 0.163682 0.155992
O O7 0.503662 0.869511 0.498873
O O8 0.044582 0.892435 0.183385
O O9 0.229943 0.295727 0.798369
O O10 0.320654 0.373862 0.689213
O O11 0.500000 0.000000 0.000000
O O12 0.779233 0.062092 0.221475
O O13 0.999092 0.604373 0.259542
O O14 0.076937 0.643365 0.595533
O O15 0.000000 0.500000 0.000000
#
# Coordination Sequence:
#
# PCOD9094842 Si02
#       7
#     2   2   2   2   2   2   2
#     4  10  22  40  59  88 129 162 197 257 300 351
#     4   9  22  42  62  89 123 151 204 261 303 352
#     4   9  19  36  53  85 119 149 200 247 290 359
#     4  10  20  41  63  88 121 161 199 255 306 353
#     4  10  20  34  62  85 117 163 202 241 304 362
#     4  10  21  39  57  87 127 163 202 244 298 363
#     4  10  22  42  65  91 117 159 205 248 310 362
#
# _framework density 21.063025
#
# number of rings (size 3 to 8) (size 9 to 14) (size 15 to 20)
#    0.000    2.286    1.429    0.000    2.000    5.143 
#    2.571    2.143    0.000    0.000    0.000    0.000 
#    0.000    0.000    0.000    0.000    0.000    0.000 
#
# Total GULP energy -78063.738147 kJ/mol
# GULP energy per Si atom -5575.981296 kJ/mol
# Density = 2.101509 g / cm^3
# Si number density = 21.063025 Si / 1000 Ang^3
#
#
#
# Elastic Constant Matrix: (Units=GPa)
#
#
# Indices 1 2 3 4 5 6 
#
# 1 63.8965 26.8443 27.6076 -4.2559 -16.8381 1.7732
# 2 26.8443 98.4917 29.0445 12.6739 -4.2254 -7.0799
# 3 27.6076 29.0445 61.5436 -5.8385 -17.9193 -4.1708
# 4 -4.2559 12.6739 -5.8385 33.4273 2.7708 -4.9908
# 5 -16.8381 -4.2254 -17.9193 2.7708 26.4386 -2.3002
# 6 1.7732 -7.0799 -4.1708 -4.9908 -2.3002 32.2936
#
#
#
# Elastic Compliance Matrix: (Units=1/GPa)
#
#
# Indices 1 2 3 4 5 6 
#
# 1 0.022600 -0.004786 -0.004859 0.002756 0.009891 -0.001787
# 2 -0.004786 0.014042 -0.006251 -0.006489 -0.004253 0.001228
# 3 -0.004859 -0.006251 0.026093 0.005818 0.013340 0.004116
# 4 0.002756 -0.006489 0.005818 0.034306 0.001465 0.004584
# 5 0.009891 -0.004253 0.013340 0.001465 0.052698 0.004227
# 6 -0.001787 0.001228 0.004116 0.004584 0.004227 0.032874
#
#
# Mechanical properties :
#
#
# Convention : Reuss Voigt Hill
#
# Bulk Modulus (GPa) = 32.31699 43.43608 37.87654
# Shear Modulus (GPa) = 22.24997 27.79426 25.02212
#
# Velocity S-wave (km/s) = 3.25368 3.63654 3.45042
# Velocity P-wave (km/s) = 5.43061 6.18864 5.82198
#
# Compressibility (1/GPa) = 0.03094348
#
# Stress axis : x y z
#
# Youngs Moduli (GPa) = 44.24779 71.21716 38.32400
#
# Poissons Ratio (x) = 0.34081 0.18623
# Poissons Ratio (y) = 0.21175 0.23955
# Poissons Ratio (z) = 0.21502 0.44516
#
# Static dielectric constant tensor:
#      x y z
#    x 1.764520 0.005660 -0.018370 
#    y 0.005660 1.829860 0.055060 
#    z -0.018370 0.055060 1.805090 
# 
# From -- ./inp_files/568618.got.cif
#   From: 2010.05.17/outbox.cif.g08.bks.cpg/sg2_285_cif.got.tgz:568618.got - 2010.06.03 11:33:40.
