data_PCOD9094283
_publ_section_title
;
Structure prediction by ZEFSAII (Michael W. Deem and Ramdas Pophale) SiO2 
 PCOD9094283
Probable space group: P -1
;
_chemical_formula_sum "Si O2"
_cell_formula_units_Z 16
_cell_length_a 9.438740
_cell_length_b 8.895580
_cell_length_c 23.252112
_cell_angle_alpha 57.450416
_cell_angle_beta 117.464022
_cell_angle_gamma 148.355192
_cell_volume 863.376749
_symmetry_space_group_name_H-M "P -1"
_symmetry_group_IT_number 2
_symmetry_cell_setting 'triclinic'
loop_
_space_group_symop_operation_xyz
x,y,z
-x,-y,-z
loop_
_atom_site_type_symbol
_atom_site_label
_atom_site_fract_x
_atom_site_fract_y
_atom_site_fract_z
Si Si1 0.008403 0.630249 0.319757
Si Si2 0.791742 0.045990 0.046040
Si Si3 0.423967 0.009688 0.682209
Si Si4 0.912817 0.767749 0.170965
Si Si5 0.470289 0.118513 0.168247
Si Si6 0.727717 0.853131 0.461208
Si Si7 0.769517 0.254574 0.460867
Si Si8 0.716635 0.335946 0.043564
O O1 0.845033 0.345366 0.307639
O O2 0.846009 0.470099 0.381926
O O3 0.317679 0.837548 0.336908
O O4 0.984045 0.790661 0.246408
O O5 0.769257 0.186214 0.058857
O O6 0.882096 0.945504 0.113059
O O7 0.009946 0.306407 0.986149
O O8 0.505243 0.773016 0.016969
O O9 0.502725 0.038113 0.756695
O O10 0.343749 0.130926 0.618591
O O11 0.160782 0.901846 0.155103
O O12 0.639116 0.420753 0.172474
O O13 0.599051 0.219914 0.109046
O O14 0.500000 0.500000 0.500000
O O15 0.751212 0.053001 0.463366
O O16 0.000000 0.000000 0.500000
O O17 0.000000 0.500000 0.500000
O O18 0.500000 0.000000 0.500000
#
# Coordination Sequence:
#
# PCOD9094283 Si02
#       8
#     2   2   2   2   2   2   2   2
#     4   9  18  34  54  77 106 140 173 216 273 319
#     4  10  21  36  52  74 108 143 169 206 268 323
#     4   9  18  34  54  77 106 140 173 216 273 319
#     4  10  20  34  56  80 101 133 181 224 257 305
#     4  10  20  34  56  80 101 133 181 224 257 305
#     4  11  21  36  57  81 110 144 181 223 272 325
#     4  11  21  36  57  81 110 144 181 223 272 325
#     4  10  21  36  52  74 108 143 169 206 268 323
#
# _framework density 18.531887999999999
#
# number of rings (size 3 to 8) (size 9 to 14) (size 15 to 20)
#    0.000    2.000    0.000    5.250    0.000    3.000 
#    0.000    2.500    0.000    3.000    0.000    0.000 
#    0.000    0.000    0.000    0.000    0.000    0.000 
#
# Total GULP energy -89086.703605 kJ/mol
# GULP energy per Si atom -5567.918975 kJ/mol
# Density = 1.848971 g / cm^3
# Si number density = 18.531888 Si / 1000 Ang^3
#
#
#
# Elastic Constant Matrix: (Units=GPa)
#
#
# Indices 1 2 3 4 5 6 
#
# 1 55.6624 11.6167 64.5349 2.7513 1.9673 15.8885
# 2 11.6167 88.2743 6.5487 -6.7080 8.1099 16.4297
# 3 64.5349 6.5487 157.6640 4.6817 10.7701 8.7644
# 4 2.7513 -6.7080 4.6817 21.7743 8.5384 -3.2226
# 5 1.9673 8.1099 10.7701 8.5384 35.7859 2.1010
# 6 15.8885 16.4297 8.7644 -3.2226 2.1010 26.9973
#
#
#
# Elastic Compliance Matrix: (Units=1/GPa)
#
#
# Indices 1 2 3 4 5 6 
#
# 1 0.044273 -0.001871 -0.017076 -0.008039 0.006270 -0.020821
# 2 -0.001871 0.013446 0.000690 0.004818 -0.003924 -0.006425
# 3 -0.017076 0.000690 0.013191 0.001977 -0.004005 0.005896
# 4 -0.008039 0.004818 0.001977 0.055174 -0.014932 0.008905
# 5 0.006270 -0.003924 -0.004005 -0.014932 0.033515 -0.004392
# 6 -0.020821 -0.006425 0.005896 0.008905 -0.004392 0.052695
#
#
# Mechanical properties :
#
#
# Convention : Reuss Voigt Hill
#
# Bulk Modulus (GPa) = 29.07482 51.88905 40.48194
# Shear Modulus (GPa) = 19.21048 31.50485 25.35766
#
# Velocity S-wave (km/s) = 3.22315 4.12762 3.70310
# Velocity P-wave (km/s) = 5.43826 7.12580 6.33844
#
# Compressibility (1/GPa) = 0.03439403
#
# Stress axis : x y z
#
# Youngs Moduli (GPa) = 22.58697 74.37216 75.81035
#
# Poissons Ratio (x) = 0.13916 1.29457
# Poissons Ratio (y) = 0.04226 -0.05228
# Poissons Ratio (z) = 0.38570 -0.05128
#
# Static dielectric constant tensor:
#      x y z
#    x 1.673440 -0.008820 -0.021910 
#    y -0.008820 1.640390 0.020520 
#    z -0.021910 0.020520 1.709220 
# 
# From -- ./inp_files/51940.got.cif
#   From: 2010.05.17/outbox.cif.g08.bks.cpg/sg2_26_cif.got.tgz:51940.got - 2010.06.03 11:33:40.
