data_PCOD9094602
_publ_section_title
;
Structure prediction by ZEFSAII (Michael W. Deem and Ramdas Pophale) SiO2 
 PCOD9094602
Probable space group: P -1
;
_chemical_formula_sum "Si O2"
_cell_formula_units_Z 16
_cell_length_a 14.062884
_cell_length_b 9.369243
_cell_length_c 9.120919
_cell_angle_alpha 149.416943
_cell_angle_beta 102.444326
_cell_angle_gamma 79.558235
_cell_volume 597.051970
_symmetry_space_group_name_H-M "P -1"
_symmetry_group_IT_number 2
_symmetry_cell_setting 'triclinic'
loop_
_space_group_symop_operation_xyz
x,y,z
-x,-y,-z
loop_
_atom_site_type_symbol
_atom_site_label
_atom_site_fract_x
_atom_site_fract_y
_atom_site_fract_z
Si Si1 0.595287 0.171181 0.850615
Si Si2 0.844977 0.009249 0.400530
Si Si3 0.464500 0.285197 0.170512
Si Si4 0.302205 0.245254 0.662672
Si Si5 0.976320 0.234863 0.906683
Si Si6 0.705593 0.769051 0.758576
Si Si7 0.095755 0.314370 0.498154
Si Si8 0.820032 0.268400 0.321434
O O1 0.505870 0.299002 0.030651
O O2 0.658993 0.438469 0.057145
O O3 0.608226 0.960342 0.529919
O O4 0.642664 0.956424 0.794350
O O5 0.748898 0.861700 0.301043
O O6 0.919649 0.790674 0.157932
O O7 0.899337 0.158298 0.686149
O O8 0.829819 0.233761 0.466262
O O9 0.500000 0.500000 0.500000
O O10 0.348675 0.268182 0.137611
O O11 0.500000 0.000000 0.000000
O O12 0.207232 0.236285 0.513285
O O13 0.963703 0.974460 0.785646
O O14 0.949121 0.514660 0.228875
O O15 0.722881 0.454573 0.431992
O O16 0.802384 0.958021 0.979003
O O17 0.103758 0.535813 0.564416
#
# Coordination Sequence:
#
# PCOD9094602 Si02
#       8
#     2   2   2   2   2   2   2   2
#     4  11  19  36  62  90 118 159 206 250 292 357
#     4  10  26  43  61  94 122 170 204 258 311 379
#     4  10  20  34  58  93 128 156 201 253 307 352
#     4  11  21  36  63  87 122 158 211 247 294 362
#     4  10  24  44  65  84 123 162 219 252 307 367
#     4  11  21  38  60  94 128 161 194 263 313 361
#     4  11  21  39  65  90 117 164 200 273 305 361
#     4  12  24  38  64  92 131 157 205 256 325 361
#
# _framework density 26.798335000000002
#
# number of rings (size 3 to 8) (size 9 to 14) (size 15 to 20)
#    0.000    1.250    2.500    5.250    0.000   10.500 
#    0.000    0.000    0.000    4.500    0.000    0.000 
#    0.000    0.000    0.000    0.000    0.000    0.000 
#
# Total GULP energy -89473.802628 kJ/mol
# GULP energy per Si atom -5592.112664 kJ/mol
# Density = 2.673734 g / cm^3
# Si number density = 26.798335 Si / 1000 Ang^3
#
#
#
# Elastic Constant Matrix: (Units=GPa)
#
#
# Indices 1 2 3 4 5 6 
#
# 1 90.7826 38.7922 26.8346 4.4902 -30.4093 43.8353
# 2 38.7922 152.1378 17.5842 0.4322 5.2927 38.0065
# 3 26.8346 17.5842 144.2676 21.5415 -22.7311 9.9417
# 4 4.4902 0.4322 21.5415 35.0902 9.7630 2.6855
# 5 -30.4093 5.2927 -22.7311 9.7630 35.7631 -3.4391
# 6 43.8353 38.0065 9.9417 2.6855 -3.4391 46.0592
#
#
#
# Elastic Compliance Matrix: (Units=1/GPa)
#
#
# Indices 1 2 3 4 5 6 
#
# 1 0.041934 -0.004110 0.003671 -0.016079 0.039775 -0.033403
# 2 -0.004110 0.009070 -0.001825 0.003909 -0.007445 -0.003962
# 3 0.003671 -0.001825 0.010039 -0.009797 0.012189 -0.002673
# 4 -0.016079 0.003909 -0.009797 0.044659 -0.031783 0.009215
# 5 0.039775 -0.007445 0.012189 -0.031783 0.076735 -0.026760
# 6 -0.033403 -0.003962 -0.002673 0.009215 -0.026760 0.054812
#
#
# Mechanical properties :
#
#
# Convention : Reuss Voigt Hill
#
# Bulk Modulus (GPa) = 17.69459 61.51224 39.60341
# Shear Modulus (GPa) = 19.18538 43.64764 31.41651
#
# Velocity S-wave (km/s) = 2.67857 4.04015 3.42765
# Velocity P-wave (km/s) = 4.02287 6.69084 5.52045
#
# Compressibility (1/GPa) = 0.05651446
#
# Stress axis : x y z
#
# Youngs Moduli (GPa) = 23.84689 110.25815 99.61372
#
# Poissons Ratio (x) = 0.45318 -0.36566
# Poissons Ratio (y) = 0.09802 0.18176
# Poissons Ratio (z) = -0.08754 0.20118
#
# Static dielectric constant tensor:
#      x y z
#    x 2.246220 -0.028790 -0.027420 
#    y -0.028790 2.168770 -0.073710 
#    z -0.027420 -0.073710 2.045880 
# 
# From -- ./inp_files/329727.got.cif
#   From: 2010.05.17/outbox.cif.g08.bks.cpg/sg2_165_cif.got.tgz:329727.got - 2010.06.03 11:33:40.
