data_PCOD9094126
_publ_section_title
;
Structure prediction by ZEFSAII (Michael W. Deem and Ramdas Pophale) SiO2 
 PCOD9094126
Probable space group: P -1
;
_chemical_formula_sum "Si O2"
_cell_formula_units_Z 16
_cell_length_a 14.000456
_cell_length_b 11.745493
_cell_length_c 12.148060
_cell_angle_alpha 116.325800
_cell_angle_beta 133.343430
_cell_angle_gamma 28.529376
_cell_volume 616.335401
_symmetry_space_group_name_H-M "P -1"
_symmetry_group_IT_number 2
_symmetry_cell_setting 'triclinic'
loop_
_space_group_symop_operation_xyz
x,y,z
-x,-y,-z
loop_
_atom_site_type_symbol
_atom_site_label
_atom_site_fract_x
_atom_site_fract_y
_atom_site_fract_z
Si Si1 0.361327 0.297355 0.476905
Si Si2 0.679669 0.104917 0.465077
Si Si3 0.524506 0.780847 0.003045
Si Si4 0.304403 0.517673 0.721900
Si Si5 0.470079 0.596660 0.721858
Si Si6 0.095944 0.275567 0.259570
Si Si7 0.916510 0.960070 0.002542
Si Si8 0.684669 0.787264 0.907530
O O1 0.284914 0.405458 0.585418
O O2 0.143825 0.378184 0.302543
O O3 0.443562 0.332724 0.467923
O O4 0.651152 0.974177 0.570113
O O5 0.993144 0.825601 0.640145
O O6 0.682352 0.211710 0.420264
O O7 0.548552 0.088182 0.296908
O O8 0.432808 0.731473 0.849947
O O9 0.630321 0.769542 0.975073
O O10 0.794824 0.524868 0.181325
O O11 0.342974 0.036783 0.032590
O O12 0.373627 0.554561 0.690527
O O13 0.598117 0.265929 0.915501
O O14 0.795422 0.301867 0.815696
O O15 0.103059 0.158415 0.125445
O O16 0.000000 0.000000 0.000000
O O17 0.000000 0.500000 0.000000
#
# Coordination Sequence:
#
# PCOD9094126 Si02
#       8
#     2   2   2   2   2   2   2   2
#     4  10  21  35  54  82 119 149 183 235 285 337
#     4  11  22  35  56  86 114 147 191 234 285 341
#     4   9  18  35  56  76 106 144 187 232 278 332
#     4  10  20  38  60  82 115 154 190 234 284 334
#     4   9  19  36  60  85 111 151 194 233 285 337
#     4   9  17  35  57  79 111 151 186 231 287 333
#     4   8  16  34  61  82 107 152 193 229 280 336
#     4  10  20  34  54  81 111 144 184 232 284 336
#
# _framework density 25.959890000000001
#
# number of rings (size 3 to 8) (size 9 to 14) (size 15 to 20)
#    0.000    2.500    0.000    1.875    0.000    2.500 
#    0.000   17.500    0.000   28.500    0.000    0.000 
#    0.000    0.000    0.000    0.000    0.000    0.000 
#
# Total GULP energy -89243.841080 kJ/mol
# GULP energy per Si atom -5577.740068 kJ/mol
# Density = 2.590080 g / cm^3
# Si number density = 25.959890 Si / 1000 Ang^3
#
#
#
# Elastic Constant Matrix: (Units=GPa)
#
#
# Indices 1 2 3 4 5 6 
#
# 1 24.8572 -5.5786 -3.0127 -3.6512 14.4886 -5.9721
# 2 -5.5786 90.4434 4.6883 -15.3630 0.0125 6.4273
# 3 -3.0127 4.6883 58.4622 -20.9299 -1.1491 2.3868
# 4 -3.6512 -15.3630 -20.9299 42.9111 3.2233 6.0646
# 5 14.4886 0.0125 -1.1491 3.2233 39.5630 -10.7811
# 6 -5.9721 6.4273 2.3868 6.0646 -10.7811 36.2532
#
#
#
# Elastic Compliance Matrix: (Units=1/GPa)
#
#
# Indices 1 2 3 4 5 6 
#
# 1 0.056146 0.005075 0.006091 0.011211 -0.021377 -0.000284
# 2 0.005075 0.012649 0.001667 0.006532 -0.003327 -0.003598
# 3 0.006091 0.001667 0.021895 0.012630 -0.003700 -0.003947
# 4 0.011211 0.006532 0.012630 0.034639 -0.008902 -0.008585
# 5 -0.021377 -0.003327 -0.003700 -0.008902 0.036342 0.009609
# 6 -0.000284 -0.003598 -0.003947 -0.008585 0.009609 0.032728
#
#
# Mechanical properties :
#
#
# Convention : Reuss Voigt Hill
#
# Bulk Modulus (GPa) = 8.59423 18.43965 13.51694
# Shear Modulus (GPa) = 24.09428 35.58985 29.84207
#
# Velocity S-wave (km/s) = 3.04984 3.70666 3.39417
# Velocity P-wave (km/s) = 3.96482 5.04357 4.53638
#
# Compressibility (1/GPa) = 0.11635717
#
# Stress axis : x y z
#
# Youngs Moduli (GPa) = 17.81080 79.05795 45.67155
#
# Poissons Ratio (x) = -0.40121 -0.27821
# Poissons Ratio (y) = -0.09039 -0.07614
# Poissons Ratio (z) = -0.10849 -0.13180
#
# Static dielectric constant tensor:
#      x y z
#    x 2.241230 -0.052680 -0.040090 
#    y -0.052680 2.107040 0.014460 
#    z -0.040090 0.014460 2.055860 
# 
# From -- ./inp_files/538837.got.cif
#   From: 2010.05.17/outbox.cif.g08.bks.cpg/sg2_270_cif.got.tgz:538837.got - 2010.06.03 11:33:40.
