data_PCOD9094807
_publ_section_title
;
Structure prediction by ZEFSAII (Michael W. Deem and Ramdas Pophale) SiO2 
 PCOD9094807
Probable space group: P -1
;
_chemical_formula_sum "Si O2"
_cell_formula_units_Z 16
_cell_length_a 9.267509
_cell_length_b 9.353221
_cell_length_c 14.826365
_cell_angle_alpha 99.852895
_cell_angle_beta 38.491592
_cell_angle_gamma 83.732018
_cell_volume 723.507961
_symmetry_space_group_name_H-M "P -1"
_symmetry_group_IT_number 2
_symmetry_cell_setting 'triclinic'
loop_
_space_group_symop_operation_xyz
x,y,z
-x,-y,-z
loop_
_atom_site_type_symbol
_atom_site_label
_atom_site_fract_x
_atom_site_fract_y
_atom_site_fract_z
Si Si1 0.979996 0.199909 0.617944
Si Si2 0.856460 0.560736 0.345430
Si Si3 0.871383 0.005761 0.793836
Si Si4 0.256208 0.722779 0.657797
Si Si5 0.082991 0.356657 0.873400
Si Si6 0.493228 0.059303 0.151336
Si Si7 0.409156 0.863915 0.316359
Si Si8 0.816695 0.183424 0.094932
O O1 0.042819 0.351282 0.620667
O O2 0.775911 0.212378 0.642156
O O3 0.227759 0.038299 0.459983
O O4 0.872685 0.157840 0.759028
O O5 0.554314 0.650521 0.493708
O O6 0.882418 0.382457 0.328668
O O7 0.966532 0.579036 0.196475
O O8 0.776984 0.914544 0.754251
O O9 0.140120 0.894610 0.688994
O O10 0.680385 0.035889 0.973479
O O11 0.200760 0.731711 0.792514
O O12 0.379792 0.247028 0.731712
O O13 0.000000 0.500000 0.000000
O O14 0.927740 0.253949 0.969056
O O15 0.544327 0.185925 0.201234
O O16 0.556388 0.903035 0.164656
O O17 0.000000 0.000000 0.000000
#
# Coordination Sequence:
#
# PCOD9094807 Si02
#       8
#     2   2   2   2   2   2   2   2
#     4  10  22  40  65  89 116 155 206 245 300 354
#     4  11  25  40  59  89 121 162 198 246 304 359
#     4  10  20  37  59  87 117 150 193 250 288 350
#     4  11  23  41  58  85 127 156 196 249 300 353
#     4  12  24  41  60  90 128 157 197 252 304 355
#     4  10  20  34  61  89 114 147 200 241 292 345
#     4  10  21  40  64  89 120 154 198 254 292 357
#     4  12  21  38  65  88 116 162 201 244 295 357
#
# _framework density 22.114477000000001
#
# number of rings (size 3 to 8) (size 9 to 14) (size 15 to 20)
#    0.000    1.250    3.750    2.250    0.000    1.000 
#    2.250    0.625    0.000    5.250    0.000    0.000 
#    0.000    0.000    0.000    0.000    0.000    0.000 
#
# Total GULP energy -89386.109878 kJ/mol
# GULP energy per Si atom -5586.631867 kJ/mol
# Density = 2.206414 g / cm^3
# Si number density = 22.114477 Si / 1000 Ang^3
#
#
#
# Elastic Constant Matrix: (Units=GPa)
#
#
# Indices 1 2 3 4 5 6 
#
# 1 63.7894 13.6193 -9.8414 0.3106 -1.0338 31.0637
# 2 13.6193 56.0927 4.0208 -14.0159 0.5907 32.6039
# 3 -9.8414 4.0208 59.7068 -13.1737 11.6192 8.1591
# 4 0.3106 -14.0159 -13.1737 27.2086 2.2258 1.5310
# 5 -1.0338 0.5907 11.6192 2.2258 23.5806 -1.9759
# 6 31.0637 32.6039 8.1591 1.5310 -1.9759 49.8074
#
#
#
# Elastic Compliance Matrix: (Units=1/GPa)
#
#
# Indices 1 2 3 4 5 6 
#
# 1 0.029278 0.013371 0.013312 0.015474 -0.009589 -0.030049
# 2 0.013371 0.048597 0.016135 0.036489 -0.015758 -0.044541
# 3 0.013312 0.016135 0.030953 0.026193 -0.019683 -0.025521
# 4 0.015474 0.036489 0.026193 0.072275 -0.023398 -0.040977
# 5 -0.009589 -0.015758 -0.019683 -0.023398 0.056172 0.022468
# 6 -0.030049 -0.044541 -0.025521 -0.040977 0.022468 0.074306
#
#
# Mechanical properties :
#
#
# Convention : Reuss Voigt Hill
#
# Bulk Modulus (GPa) = 5.14233 21.68737 13.41485
# Shear Modulus (GPa) = 17.19589 31.57198 24.38394
#
# Velocity S-wave (km/s) = 2.79155 3.78254 3.32418
# Velocity P-wave (km/s) = 3.56661 5.37633 4.56211
#
# Compressibility (1/GPa) = 0.19446430
#
# Stress axis : x y z
#
# Youngs Moduli (GPa) = 34.15530 20.57727 32.30673
#
# Poissons Ratio (x) = -0.27513 -0.43007
# Poissons Ratio (y) = -0.45668 -0.52128
# Poissons Ratio (z) = -0.45468 -0.33202
#
# Static dielectric constant tensor:
#      x y z
#    x 1.844760 0.033530 0.025540 
#    y 0.033530 1.803820 -0.014590 
#    z 0.025540 -0.014590 1.845580 
# 
# From -- ./inp_files/392899.got.cif
#   From: 2010.05.17/outbox.cif.g08.bks.cpg/sg2_197_cif.got.tgz:392899.got - 2010.06.03 11:33:40.
