data_PCOD9094782
_publ_section_title
;
Structure prediction by ZEFSAII (Michael W. Deem and Ramdas Pophale) SiO2 
 PCOD9094782
Probable space group: P -1
;
_chemical_formula_sum "Si O2"
_cell_formula_units_Z 16
_cell_length_a 18.539138
_cell_length_b 9.512335
_cell_length_c 8.139697
_cell_angle_alpha 112.496037
_cell_angle_beta 54.042194
_cell_angle_gamma 74.849243
_cell_volume 815.883820
_symmetry_space_group_name_H-M "P -1"
_symmetry_group_IT_number 2
_symmetry_cell_setting 'triclinic'
loop_
_space_group_symop_operation_xyz
x,y,z
-x,-y,-z
loop_
_atom_site_type_symbol
_atom_site_label
_atom_site_fract_x
_atom_site_fract_y
_atom_site_fract_z
Si Si1 0.577822 0.619406 0.073941
Si Si2 0.028217 0.104406 0.633194
Si Si3 0.255254 0.993487 0.218291
Si Si4 0.376909 0.156428 0.137537
Si Si5 0.869007 0.140248 0.296465
Si Si6 0.627206 0.433799 0.267752
Si Si7 0.666529 0.196957 0.619046
Si Si8 0.214156 0.547139 0.702430
O O1 0.621260 0.554903 0.173743
O O2 0.437118 0.760276 0.324666
O O3 0.606976 0.732935 0.974999
O O4 0.624842 0.412230 0.830235
O O5 0.113485 0.145070 0.475454
O O6 0.114152 0.921761 0.565563
O O7 0.000000 0.000000 0.500000
O O8 0.906742 0.302309 0.963920
O O9 0.305657 0.925209 0.307037
O O10 0.324165 0.061752 0.087611
O O11 0.292772 0.797994 0.989921
O O12 0.278609 0.318707 0.474765
O O13 0.500000 0.000000 0.000000
O O14 0.786692 0.097332 0.318252
O O15 0.817689 0.351505 0.389183
O O16 0.000000 0.000000 0.000000
O O17 0.500000 0.500000 0.500000
O O18 0.686600 0.457251 0.348390
#
# Coordination Sequence:
#
# PCOD9094782 Si02
#       8
#     2   2   2   2   2   2   2   2
#     4  10  20  34  61  80 123 164 203 248 305 362
#     4  10  20  39  64  92 118 157 209 261 302 350
#     4  10  21  37  61  88 122 159 200 255 306 365
#     4  12  23  39  60  90 131 165 200 246 320 368
#     4   9  18  32  58  90 112 147 206 256 294 347
#     4  11  22  37  62  93 118 160 213 254 301 362
#     4   9  16  33  56  85 106 156 209 240 291 358
#     4  11  22  37  62  90 123 157 205 257 299 370
#
# _framework density 19.610637000000001
#
# number of rings (size 3 to 8) (size 9 to 14) (size 15 to 20)
#    0.000    1.750    3.750    1.500    1.750    0.500 
#    0.000    2.500    0.000    3.000    0.000    0.000 
#    0.000    0.000    0.000    0.000    0.000    0.000 
#
# Total GULP energy -89080.886216 kJ/mol
# GULP energy per Si atom -5567.555388 kJ/mol
# Density = 1.956600 g / cm^3
# Si number density = 19.610637 Si / 1000 Ang^3
#
#
#
# Elastic Constant Matrix: (Units=GPa)
#
#
# Indices 1 2 3 4 5 6 
#
# 1 79.9628 26.9664 11.0612 -0.5745 -19.6288 -0.2046
# 2 26.9664 101.1268 11.9688 -9.4148 -7.9927 1.7476
# 3 11.0612 11.9688 74.1952 -1.0382 -29.3442 0.4984
# 4 -0.5745 -9.4148 -1.0382 23.5731 6.2609 -6.7592
# 5 -19.6288 -7.9927 -29.3442 6.2609 35.1454 -6.7546
# 6 -0.2046 1.7476 0.4984 -6.7592 -6.7546 25.6146
#
#
#
# Elastic Compliance Matrix: (Units=1/GPa)
#
#
# Indices 1 2 3 4 5 6 
#
# 1 0.016345 -0.004137 0.002745 -0.003495 0.011582 0.002491
# 2 -0.004137 0.011522 -0.002102 0.005011 -0.002352 -0.000076
# 3 0.002745 -0.002102 0.021406 -0.004094 0.020437 0.004058
# 4 -0.003495 0.005011 -0.004094 0.049989 -0.011225 0.009941
# 5 0.011582 -0.002352 0.020437 -0.011225 0.055675 0.011575
# 6 0.002491 -0.000076 0.004058 0.009941 0.011575 0.044662
#
#
# Mechanical properties :
#
#
# Convention : Reuss Voigt Hill
#
# Bulk Modulus (GPa) = 23.64721 39.47530 31.56125
# Shear Modulus (GPa) = 22.65710 30.55250 26.60480
#
# Velocity S-wave (km/s) = 3.40273 3.95138 3.68727
# Velocity P-wave (km/s) = 5.24620 6.40243 5.85293
#
# Compressibility (1/GPa) = 0.04228829
#
# Stress axis : x y z
#
# Youngs Moduli (GPa) = 61.17950 86.78782 46.71566
#
# Poissons Ratio (x) = 0.35901 -0.12826
# Poissons Ratio (y) = 0.25307 0.09818
# Poissons Ratio (z) = -0.16797 0.18239
#
# Static dielectric constant tensor:
#      x y z
#    x 1.718460 -0.070050 -0.010720 
#    y -0.070050 1.863940 -0.122860 
#    z -0.010720 -0.122860 1.841970 
# 
# From -- ./inp_files/222658.got.cif
#   From: 2010.05.17/outbox.cif.g08.bks.cpg/sg2_112_cif.got.tgz:222658.got - 2010.06.03 11:33:40.
