data_PCOD9094332
_publ_section_title
;
Structure prediction by ZEFSAII (Michael W. Deem and Ramdas Pophale) SiO2 
 PCOD9094332
Probable space group: P -1
;
_chemical_formula_sum "Si O2"
_cell_formula_units_Z 15
_cell_length_a 10.543144
_cell_length_b 12.601257
_cell_length_c 11.678056
_cell_angle_alpha 147.682016
_cell_angle_beta 124.304528
_cell_angle_gamma 43.503172
_cell_volume 565.834632
_symmetry_space_group_name_H-M "P -1"
_symmetry_group_IT_number 2
_symmetry_cell_setting 'triclinic'
loop_
_space_group_symop_operation_xyz
x,y,z
-x,-y,-z
loop_
_atom_site_type_symbol
_atom_site_label
_atom_site_fract_x
_atom_site_fract_y
_atom_site_fract_z
Si Si1 0.796095 0.751435 0.147092
Si Si2 0.473907 0.730861 0.861288
Si Si3 0.513249 0.387979 0.740311
Si Si4 0.729395 0.645526 0.563779
Si Si5 0.240092 0.700364 0.539723
Si Si6 0.016889 0.205731 0.145026
Si Si7 0.000000 0.000000 0.500000
Si Si8 0.246951 0.520049 0.934929
O O1 0.752163 0.688462 0.191130
O O2 0.845422 0.943499 0.334629
O O3 0.622124 0.799016 0.023171
O O4 0.000000 0.500000 0.000000
O O5 0.418965 0.654458 0.880302
O O6 0.307405 0.832706 0.776868
O O7 0.609509 0.464182 0.630112
O O8 0.465436 0.247166 0.500820
O O9 0.414142 0.402090 0.820858
O O10 0.715380 0.331843 0.817834
O O11 0.754212 0.497289 0.554194
O O12 0.876484 0.442132 0.364847
O O13 0.782790 0.834048 0.782169
O O14 0.050675 0.846178 0.506589
O O15 0.935437 0.291757 0.055683
O O16 0.000000 0.000000 0.000000
#
# Coordination Sequence:
#
# PCOD9094332 Si02
#       8
#     2   2   2   2   2   2   1   2
#     4  11  22  38  59  90 122 159 194 248 299 352
#     4   9  19  38  65  83 118 161 196 239 311 349
#     4   8  16  35  64  80 102 157 191 231 292 353
#     4   9  19  37  57  79 117 149 185 237 295 333
#     4  10  20  38  61  87 118 160 196 247 296 355
#     4  10  20  34  56  85 112 150 191 232 285 352
#     4  12  24  36  60  92 122 152 208 238 292 362
#     4   9  18  35  61  82 115 150 190 239 297 337
#
# _framework density 26.509511
#
# number of rings (size 3 to 8) (size 9 to 14) (size 15 to 20)
#    0.000    2.400    1.333    0.800    0.000    1.600 
#    0.000    0.667   41.067    0.000    0.000    0.000 
#    0.000    0.000    0.000    0.000    0.000    0.000 
#
# Total GULP energy -83607.615415 kJ/mol
# GULP energy per Si atom -5573.841028 kJ/mol
# Density = 2.644917 g / cm^3
# Si number density = 26.509511 Si / 1000 Ang^3
#
#
#
# Elastic Constant Matrix: (Units=GPa)
#
#
# Indices 1 2 3 4 5 6 
#
# 1 83.3394 25.2726 29.0282 -7.4412 41.7909 12.4985
# 2 25.2726 118.7021 43.2919 -26.2381 15.5360 16.3132
# 3 29.0282 43.2919 153.0234 -12.2988 62.0934 18.9589
# 4 -7.4412 -26.2381 -12.2988 39.6054 -6.7348 -3.9882
# 5 41.7909 15.5360 62.0934 -6.7348 63.3224 -0.1075
# 6 12.4985 16.3132 18.9589 -3.9882 -0.1075 43.8779
#
#
#
# Elastic Compliance Matrix: (Units=1/GPa)
#
#
# Indices 1 2 3 4 5 6 
#
# 1 0.021528 -0.003117 0.005236 -0.000297 -0.018621 -0.007308
# 2 -0.003117 0.011462 -0.003211 0.006392 0.003071 -0.001398
# 3 0.005236 -0.003211 0.013803 -0.000255 -0.016241 -0.006325
# 4 -0.000297 0.006392 -0.000255 0.029749 0.002043 0.000527
# 5 -0.018621 0.003071 -0.016241 0.002043 0.043491 0.011472
# 6 -0.007308 -0.001398 -0.006325 0.000527 0.011472 0.028201
#
#
# Mechanical properties :
#
#
# Convention : Reuss Voigt Hill
#
# Bulk Modulus (GPa) = 22.41680 61.13894 41.77787
# Shear Modulus (GPa) = 30.25026 46.52595 38.38811
#
# Velocity S-wave (km/s) = 3.38170 4.19390 3.80950
# Velocity P-wave (km/s) = 4.87056 6.82384 5.92820
#
# Compressibility (1/GPa) = 0.04460940
#
# Stress axis : x y z
#
# Youngs Moduli (GPa) = 46.45164 87.24335 72.44606
#
# Poissons Ratio (x) = 0.27194 -0.37930
# Poissons Ratio (y) = 0.14479 0.23259
# Poissons Ratio (z) = -0.24320 0.28010
#
# Static dielectric constant tensor:
#      x y z
#    x 1.263610 -0.066520 0.137310 
#    y -0.066520 2.075750 0.010300 
#    z 0.137310 0.010300 2.174560 
# 
# From -- ./inp_files/424593.got.cif
#   From: 2010.05.17/outbox.cif.g08.bks.cpg/sg2_213_cif.got.tgz:424593.got - 2010.06.03 11:33:40.
