data_PCOD9094707
_publ_section_title
;
Structure prediction by ZEFSAII (Michael W. Deem and Ramdas Pophale) SiO2 
 PCOD9094707
Probable space group: P -1
;
_chemical_formula_sum "Si O2"
_cell_formula_units_Z 16
_cell_length_a 21.920587
_cell_length_b 18.811561
_cell_length_c 16.662464
_cell_angle_alpha 34.151460
_cell_angle_beta 26.511893
_cell_angle_gamma 17.682153
_cell_volume 915.596361
_symmetry_space_group_name_H-M "P -1"
_symmetry_group_IT_number 2
_symmetry_cell_setting 'triclinic'
loop_
_space_group_symop_operation_xyz
x,y,z
-x,-y,-z
loop_
_atom_site_type_symbol
_atom_site_label
_atom_site_fract_x
_atom_site_fract_y
_atom_site_fract_z
Si Si1 0.295876 0.718074 0.476485
Si Si2 0.197520 0.663396 0.311776
Si Si3 0.178229 0.745681 0.423716
Si Si4 0.843096 0.003869 0.977222
Si Si5 0.248283 0.889003 0.832889
Si Si6 0.088081 0.237853 0.592437
Si Si7 0.324934 0.325511 0.206537
Si Si8 0.365861 0.455502 0.887890
O O1 0.500000 0.500000 0.500000
O O2 0.209175 0.688541 0.535190
O O3 0.443436 0.710427 0.257269
O O4 0.046938 0.972528 0.573099
O O5 0.125925 0.693219 0.461351
O O6 0.495619 0.395044 0.200808
O O7 0.038922 0.711448 0.387446
O O8 0.150857 0.849544 0.179107
O O9 0.457424 0.589243 0.223876
O O10 0.115708 0.725016 0.900475
O O11 0.787837 0.025447 0.116162
O O12 0.614574 0.123713 0.082727
O O13 0.258973 0.992823 0.658678
O O14 0.000000 0.000000 0.000000
O O15 0.242990 0.244942 0.389164
O O16 0.863014 0.445690 0.727883
O O17 0.297584 0.393617 0.083432
#
# Coordination Sequence:
#
# PCOD9094707 Si02
#       8
#     2   2   2   2   2   2   2   2
#     4   9  18  34  57  88 118 138 176 243 296 329
#     4  12  22  35  57  83 115 152 185 236 282 332
#     4   9  20  33  55  90 113 137 185 234 285 338
#     4  12  20  33  58  81 111 152 190 231 280 325
#     4  12  22  33  53  83 113 149 194 233 277 328
#     4  11  25  38  54  78 119 160 195 229 275 330
#     4  11  23  40  53  80 117 158 196 230 270 340
#     4  10  20  34  60  85 114 147 187 232 283 340
#
# _framework density 17.47495
#
# number of rings (size 3 to 8) (size 9 to 14) (size 15 to 20)
#    0.750    0.500    5.000    2.625    0.000    1.500 
#    0.000    0.000    0.000    0.750    0.000    2.625 
#    0.000    0.000    0.000    0.000    0.000    0.000 
#
# Total GULP energy -89153.789144 kJ/mol
# GULP energy per Si atom -5572.111822 kJ/mol
# Density = 1.743518 g / cm^3
# Si number density = 17.474950 Si / 1000 Ang^3
#
#
#
# Elastic Constant Matrix: (Units=GPa)
#
#
# Indices 1 2 3 4 5 6 
#
# 1 87.9203 15.5163 18.5214 -3.5041 -0.6344 -14.0051
# 2 15.5163 78.2776 34.9368 7.1333 -13.4981 -23.1867
# 3 18.5214 34.9368 63.4979 -1.7340 -6.5828 -0.7634
# 4 -3.5041 7.1333 -1.7340 26.5080 -2.1241 1.7367
# 5 -0.6344 -13.4981 -6.5828 -2.1241 22.8322 3.6421
# 6 -14.0051 -23.1867 -0.7634 1.7367 3.6421 25.6282
#
#
#
# Elastic Compliance Matrix: (Units=1/GPa)
#
#
# Indices 1 2 3 4 5 6 
#
# 1 0.013574 0.002153 -0.005164 0.000156 -0.001322 0.009389
# 2 0.002153 0.029967 -0.016252 -0.010012 0.007792 0.027376
# 3 -0.005164 -0.016252 0.026296 0.006646 0.001218 -0.017366
# 4 0.000156 -0.010012 0.006646 0.041794 0.001782 -0.011860
# 5 -0.001322 0.007792 0.001218 0.001782 0.049000 -0.000721
# 6 0.009389 0.027376 -0.017366 -0.011860 -0.000721 0.069307
#
#
# Mechanical properties :
#
#
# Convention : Reuss Voigt Hill
#
# Bulk Modulus (GPa) = 31.93811 40.84940 36.39375
# Shear Modulus (GPa) = 17.92750 25.70843 21.81797
#
# Velocity S-wave (km/s) = 3.20644 3.83973 3.53729
# Velocity P-wave (km/s) = 5.65902 6.56390 6.12818
#
# Compressibility (1/GPa) = 0.03131056
#
# Stress axis : x y z
#
# Youngs Moduli (GPa) = 73.66962 33.37000 38.02867
#
# Poissons Ratio (x) = -0.07185 0.19638
# Poissons Ratio (y) = -0.15862 0.61806
# Poissons Ratio (z) = 0.38042 0.54234
#
# Static dielectric constant tensor:
#      x y z
#    x 1.633470 -0.017440 0.035210 
#    y -0.017440 1.589500 0.004240 
#    z 0.035210 0.004240 1.599930 
# 
# From -- ./inp_files/331483.got.cif
#   From: 2010.05.17/outbox.cif.g08.bks.cpg/sg2_166_cif.got.tgz:331483.got - 2010.06.03 11:33:40.
