data_PCOD9094249
_publ_section_title
;
Structure prediction by ZEFSAII (Michael W. Deem and Ramdas Pophale) SiO2 
 PCOD9094249
Probable space group: P -1
;
_chemical_formula_sum "Si O2"
_cell_formula_units_Z 15
_cell_length_a 11.578243
_cell_length_b 12.977229
_cell_length_c 8.077174
_cell_angle_alpha 44.355512
_cell_angle_beta 137.153201
_cell_angle_gamma 125.068148
_cell_volume 573.742489
_symmetry_space_group_name_H-M "P -1"
_symmetry_group_IT_number 2
_symmetry_cell_setting 'triclinic'
loop_
_space_group_symop_operation_xyz
x,y,z
-x,-y,-z
loop_
_atom_site_type_symbol
_atom_site_label
_atom_site_fract_x
_atom_site_fract_y
_atom_site_fract_z
Si Si1 0.423191 0.265179 0.850674
Si Si2 0.500000 0.500000 0.500000
Si Si3 0.367912 0.013720 0.657485
Si Si4 0.808866 0.133278 0.664901
Si Si5 0.731141 0.115707 0.960810
Si Si6 0.842273 0.674122 0.231081
Si Si7 0.140211 0.568801 0.196488
Si Si8 0.646288 0.449061 0.091317
O O1 0.362447 0.333616 0.542998
O O2 0.306563 0.261229 0.892598
O O3 0.525691 0.129837 0.084885
O O4 0.559408 0.417408 0.856275
O O5 0.334901 0.574462 0.333806
O O6 0.252721 0.984849 0.407090
O O7 0.529469 0.137491 0.690722
O O8 0.270616 0.987066 0.759798
O O9 0.785160 0.059489 0.903884
O O10 0.707612 0.285927 0.381730
O O11 0.999408 0.204872 0.754222
O O12 0.863487 0.258939 0.966325
O O13 0.881638 0.535265 0.546099
O O14 0.784797 0.589598 0.097950
O O15 0.000000 0.500000 0.000000
O O16 0.500000 0.500000 0.000000
#
# Coordination Sequence:
#
# PCOD9094249 Si02
#       8
#     2   1   2   2   2   2   2   2
#     4   9  19  35  57  81 120 160 197 248 303 357
#     4  10  20  36  58  86 124 158 196 252 312 354
#     4  10  22  40  61  83 114 162 208 243 289 367
#     4  11  21  37  59  86 121 155 195 250 304 357
#     4  11  22  38  63  85 117 160 204 245 300 364
#     4  10  20  34  55  88 121 151 190 255 312 355
#     4  11  22  36  61  93 124 155 203 253 311 367
#     4   9  18  31  51  83 118 152 189 237 303 362
#
# _framework density 26.144133
#
# number of rings (size 3 to 8) (size 9 to 14) (size 15 to 20)
#    0.000    1.867    2.667    1.600    1.867    0.000 
#    0.000    0.667    2.933    3.200    0.000    0.000 
#    0.000    0.000    0.000    0.000    0.000    0.000 
#
# Total GULP energy -83609.045812 kJ/mol
# GULP energy per Si atom -5573.936387 kJ/mol
# Density = 2.608463 g / cm^3
# Si number density = 26.144133 Si / 1000 Ang^3
#
#
#
# Elastic Constant Matrix: (Units=GPa)
#
#
# Indices 1 2 3 4 5 6 
#
# 1 145.6246 30.2999 37.4521 7.9586 -30.3618 17.4340
# 2 30.2999 168.5113 37.5850 38.1150 -23.1727 5.1101
# 3 37.4521 37.5850 75.2138 9.8881 -13.0394 -7.5252
# 4 7.9586 38.1150 9.8881 43.6639 -13.7685 2.6849
# 5 -30.3618 -23.1727 -13.0394 -13.7685 43.7280 -4.2352
# 6 17.4340 5.1101 -7.5252 2.6849 -4.2352 34.5181
#
#
#
# Elastic Compliance Matrix: (Units=1/GPa)
#
#
# Indices 1 2 3 4 5 6 
#
# 1 0.009732 -0.000160 -0.004578 0.001379 0.005223 -0.005356
# 2 -0.000160 0.008228 -0.003140 -0.005951 0.001323 -0.001196
# 3 -0.004578 -0.003140 0.018093 -0.000623 0.001025 0.006896
# 4 0.001379 -0.005951 -0.000623 0.030288 0.007014 -0.001447
# 5 0.005223 0.001323 0.001025 0.007014 0.029758 0.000495
# 6 -0.005356 -0.001196 0.006896 -0.001447 0.000495 0.033529
#
#
# Mechanical properties :
#
#
# Convention : Reuss Voigt Hill
#
# Bulk Modulus (GPa) = 49.26568 66.66930 57.96749
# Shear Modulus (GPa) = 32.86228 43.31619 38.08923
#
# Velocity S-wave (km/s) = 3.54922 4.07482 3.82107
# Velocity P-wave (km/s) = 5.97333 6.90615 6.45661
#
# Compressibility (1/GPa) = 0.02029811
#
# Stress axis : x y z
#
# Youngs Moduli (GPa) = 102.74854 121.54118 55.26889
#
# Poissons Ratio (x) = 0.01946 0.25301
# Poissons Ratio (y) = 0.01645 0.17353
# Poissons Ratio (z) = 0.47037 0.38160
#
# Static dielectric constant tensor:
#      x y z
#    x 2.055970 -0.034180 0.013980 
#    y -0.034180 2.240160 0.011400 
#    z 0.013980 0.011400 2.189350 
# 
# From -- ./inp_files/215534.got.cif
#   From: 2010.05.17/outbox.cif.g08.bks.cpg/sg2_108_cif.got.tgz:215534.got - 2010.06.03 11:33:40.
