data_PCOD9094339
_publ_section_title
;
Structure prediction by ZEFSAII (Michael W. Deem and Ramdas Pophale) SiO2 
 PCOD9094339
Probable space group: P -1
;
_chemical_formula_sum "Si O2"
_cell_formula_units_Z 16
_cell_length_a 16.123950
_cell_length_b 12.418355
_cell_length_c 11.586280
_cell_angle_alpha 23.513874
_cell_angle_beta 63.886865
_cell_angle_gamma 65.777524
_cell_volume 830.971784
_symmetry_space_group_name_H-M "P -1"
_symmetry_group_IT_number 2
_symmetry_cell_setting 'triclinic'
loop_
_space_group_symop_operation_xyz
x,y,z
-x,-y,-z
loop_
_atom_site_type_symbol
_atom_site_label
_atom_site_fract_x
_atom_site_fract_y
_atom_site_fract_z
Si Si1 0.206688 0.176516 0.704066
Si Si2 0.472091 0.378255 0.012442
Si Si3 0.950629 0.950879 0.258401
Si Si4 0.075320 0.458478 0.688752
Si Si5 0.162307 0.097089 0.392249
Si Si6 0.897861 0.422909 0.180161
Si Si7 0.323358 0.684057 0.073925
Si Si8 0.349027 0.861292 0.618929
O O1 0.128209 0.086229 0.751250
O O2 0.155118 0.323507 0.696310
O O3 0.266986 0.910371 0.957162
O O4 0.272957 0.399384 0.388526
O O5 0.570501 0.346513 0.921162
O O6 0.424200 0.095054 0.339525
O O7 0.500000 0.500000 0.000000
O O8 0.397456 0.594087 0.798098
O O9 0.033826 0.739341 0.389407
O O10 0.906864 0.881784 0.477230
O O11 0.991002 0.248808 0.946057
O O12 0.108316 0.512684 0.744828
O O13 0.120721 0.886084 0.534329
O O14 0.258267 0.974771 0.500228
O O15 0.168903 0.385078 0.044094
O O16 0.000000 0.500000 0.000000
O O17 0.323704 0.790223 0.836772
#
# Coordination Sequence:
#
# PCOD9094339 Si02
#       8
#     2   2   2   2   2   2   2   2
#     4  12  24  37  57  87 116 158 193 228 280 350
#     4  10  20  34  56  85 120 152 175 227 292 357
#     4  12  22  38  58  81 119 152 193 234 289 335
#     4  12  25  40  57  79 118 158 201 237 273 333
#     4  12  23  36  62  84 112 154 189 238 291 332
#     4  12  23  40  57  83 110 155 200 241 285 320
#     4  11  21  36  58  85 120 152 183 226 293 349
#     4  11  21  36  56  88 119 146 187 231 287 350
#
# _framework density 19.254564999999999
#
# number of rings (size 3 to 8) (size 9 to 14) (size 15 to 20)
#    0.000    0.500    3.750    7.875    1.750    0.000 
#    0.000    0.000    0.000    0.000    0.000   17.500 
#    0.000    0.000    0.000    0.000    0.000    0.000 
#
# Total GULP energy -89520.424411 kJ/mol
# GULP energy per Si atom -5595.026526 kJ/mol
# Density = 1.921074 g / cm^3
# Si number density = 19.254565 Si / 1000 Ang^3
#
#
#
# Elastic Constant Matrix: (Units=GPa)
#
#
# Indices 1 2 3 4 5 6 
#
# 1 59.6654 21.2765 -1.4142 -1.6015 7.0027 -17.7098
# 2 21.2765 89.1692 -2.2540 -16.0454 -2.9003 -3.6397
# 3 -1.4142 -2.2540 67.6312 -12.8500 -1.7924 -2.2747
# 4 -1.6015 -16.0454 -12.8500 27.6263 -8.2364 3.9872
# 5 7.0027 -2.9003 -1.7924 -8.2364 32.7345 -12.6433
# 6 -17.7098 -3.6397 -2.2747 3.9872 -12.6433 25.8596
#
#
#
# Elastic Compliance Matrix: (Units=1/GPa)
#
#
# Indices 1 2 3 4 5 6 
#
# 1 0.023397 -0.005767 -0.000039 -0.004445 -0.000614 0.015593
# 2 -0.005767 0.014792 0.002595 0.011123 0.005165 -0.000829
# 3 -0.000039 0.002595 0.017084 0.010515 0.004813 0.002573
# 4 -0.004445 0.011123 0.010515 0.051972 0.015139 -0.001165
# 5 -0.000614 0.005165 0.004813 0.015139 0.042644 0.019245
# 6 0.015593 -0.000829 0.002573 -0.001165 0.019245 0.059048
#
#
# Mechanical properties :
#
#
# Convention : Reuss Voigt Hill
#
# Bulk Modulus (GPa) = 20.47112 27.96473 24.21792
# Shear Modulus (GPa) = 21.58501 30.50126 26.04314
#
# Velocity S-wave (km/s) = 3.35182 3.98440 3.68172
# Velocity P-wave (km/s) = 5.06305 5.97683 5.53881
#
# Compressibility (1/GPa) = 0.04884931
#
# Stress axis : x y z
#
# Youngs Moduli (GPa) = 42.74097 67.60420 58.53562
#
# Poissons Ratio (x) = 0.38987 0.00230
# Poissons Ratio (y) = 0.24649 -0.15189
# Poissons Ratio (z) = 0.00168 -0.17542
#
# Static dielectric constant tensor:
#      x y z
#    x 1.687230 -0.037570 0.024370 
#    y -0.037570 1.685680 -0.006050 
#    z 0.024370 -0.006050 1.675500 
# 
# From -- ./inp_files/433902.got.cif
#   From: 2010.05.17/outbox.cif.g08.bks.cpg/sg2_217_cif.got.tgz:433902.got - 2010.06.03 11:33:40.
