data_PCOD9094512
_publ_section_title
;
Structure prediction by ZEFSAII (Michael W. Deem and Ramdas Pophale) SiO2 
 PCOD9094512
Probable space group: P -1
;
_chemical_formula_sum "Si O2"
_cell_formula_units_Z 12
_cell_length_a 7.114181
_cell_length_b 14.493121
_cell_length_c 14.313000
_cell_angle_alpha 159.553140
_cell_angle_beta 110.709621
_cell_angle_gamma 59.662777
_cell_volume 408.420879
_symmetry_space_group_name_H-M "P -1"
_symmetry_group_IT_number 2
_symmetry_cell_setting 'triclinic'
loop_
_space_group_symop_operation_xyz
x,y,z
-x,-y,-z
loop_
_atom_site_type_symbol
_atom_site_label
_atom_site_fract_x
_atom_site_fract_y
_atom_site_fract_z
Si Si1 0.624570 0.296567 0.736932
Si Si2 0.713694 0.637738 0.795052
Si Si3 0.789435 0.441750 0.432065
Si Si4 0.119081 0.764422 0.936156
Si Si5 0.037626 0.981615 0.318841
Si Si6 0.340012 0.162675 0.834705
O O1 0.833063 0.999203 0.549382
O O2 0.531783 0.134979 0.495580
O O3 0.500000 0.500000 0.000000
O O4 0.689738 0.522351 0.910363
O O5 0.621181 0.656359 0.690777
O O6 0.953821 0.636507 0.815145
O O7 0.564378 0.880846 0.082021
O O8 0.824595 0.300415 0.541249
O O9 0.703385 0.416804 0.290253
O O10 0.000000 0.500000 0.500000
O O11 0.932770 0.100018 0.178232
O O12 0.203726 0.819887 0.102961
O O13 0.915661 0.796708 0.156071
#
# Coordination Sequence:
#
# PCOD9094512 Si02
#       6
#     2   2   2   2   2   2
#     4  12  26  39  54  78 110 146 183 228 275 319
#     4   9  17  29  52  81 106 137 179 219 271 311
#     4   8  13  25  42  75 115 136 162 215 272 313
#     4   8  15  25  46  76 112 137 168 215 271 312
#     4  10  20  34  58  80 108 142 186 223 266 320
#     4  11  22  39  57  79 105 143 185 228 268 322
#
# _framework density 29.381454000000002
#
# number of rings (size 3 to 8) (size 9 to 14) (size 15 to 20)
#    0.000    2.333    1.667    1.500    4.667    0.000 
#    0.000    0.000    0.000    0.000    0.000    2.333 
#    0.000    2.667    0.000    0.000    0.000    0.000 
#
# Total GULP energy -67102.652611 kJ/mol
# GULP energy per Si atom -5591.887718 kJ/mol
# Density = 2.931458 g / cm^3
# Si number density = 29.381454 Si / 1000 Ang^3
#
#
#
# Elastic Constant Matrix: (Units=GPa)
#
#
# Indices 1 2 3 4 5 6 
#
# 1 71.1048 51.4954 37.6352 2.8556 10.2634 -3.5065
# 2 51.4954 208.1970 94.0365 -61.5958 3.2101 32.6058
# 3 37.6352 94.0365 214.2904 -41.8799 -11.6786 17.8329
# 4 2.8556 -61.5958 -41.8799 89.1474 13.2154 1.4640
# 5 10.2634 3.2101 -11.6786 13.2154 54.7748 -10.9672
# 6 -3.5065 32.6058 17.8329 1.4640 -10.9672 41.0218
#
#
#
# Elastic Compliance Matrix: (Units=1/GPa)
#
#
# Indices 1 2 3 4 5 6 
#
# 1 0.022109 -0.007979 -0.002680 -0.007561 -0.000514 0.009529
# 2 -0.007979 0.011553 -0.001365 0.008300 -0.003583 -0.010525
# 3 -0.002680 -0.001365 0.006322 0.001973 0.001121 -0.001663
# 4 -0.007561 0.008300 0.001973 0.019074 -0.005293 -0.010197
# 5 -0.000514 -0.003583 0.001121 -0.005293 0.021745 0.008319
# 6 0.009529 -0.010525 -0.001663 -0.010197 0.008319 0.036869
#
#
# Mechanical properties :
#
#
# Convention : Reuss Voigt Hill
#
# Bulk Modulus (GPa) = 62.76054 95.54738 79.15396
# Shear Modulus (GPa) = 34.00644 57.68380 45.84512
#
# Velocity S-wave (km/s) = 3.40577 4.43569 3.95440
# Velocity P-wave (km/s) = 6.07228 7.66968 6.91725
#
# Compressibility (1/GPa) = 0.01593358
#
# Stress axis : x y z
#
# Youngs Moduli (GPa) = 45.23085 86.55893 158.18848
#
# Poissons Ratio (x) = 0.69067 0.42396
# Poissons Ratio (y) = 0.36091 0.21601
# Poissons Ratio (z) = 0.12122 0.11820
#
# Static dielectric constant tensor:
#      x y z
#    x 2.395050 -0.015300 -0.118420 
#    y -0.015300 2.231050 -0.128240 
#    z -0.118420 -0.128240 2.522400 
# 
# From -- ./inp_files/31696.got.cif
#   From: 2010.05.17/outbox.cif.g08.bks.cpg/sg2_16_cif.got.tgz:31696.got - 2010.06.03 11:33:40.
