data_PCOD9094596
_publ_section_title
;
Structure prediction by ZEFSAII (Michael W. Deem and Ramdas Pophale) SiO2 
 PCOD9094596
Probable space group: P -1
;
_chemical_formula_sum "Si O2"
_cell_formula_units_Z 12
_cell_length_a 9.957264
_cell_length_b 13.365816
_cell_length_c 9.444964
_cell_angle_alpha 41.843198
_cell_angle_beta 45.019944
_cell_angle_gamma 32.092885
_cell_volume 435.221694
_symmetry_space_group_name_H-M "P -1"
_symmetry_group_IT_number 2
_symmetry_cell_setting 'triclinic'
loop_
_space_group_symop_operation_xyz
x,y,z
-x,-y,-z
loop_
_atom_site_type_symbol
_atom_site_label
_atom_site_fract_x
_atom_site_fract_y
_atom_site_fract_z
Si Si1 0.604461 0.837298 0.756258
Si Si2 0.122612 0.273844 0.614238
Si Si3 0.689274 0.756975 0.096348
Si Si4 0.651382 0.333515 0.889197
Si Si5 0.751018 0.217357 0.611457
Si Si6 0.883375 0.263449 0.171156
O O1 0.813259 0.768249 0.556915
O O2 0.716422 0.726496 0.939107
O O3 0.402523 0.082098 0.672156
O O4 0.432907 0.789359 0.877444
O O5 0.000000 0.500000 0.500000
O O6 0.915509 0.259339 0.828576
O O7 0.955582 0.672698 0.051782
O O8 0.519012 0.708875 0.323749
O O9 0.500000 0.000000 0.000000
O O10 0.694152 0.305294 0.717080
O O11 0.403691 0.571764 0.848643
O O12 0.858154 0.267420 0.357585
O O13 0.955156 0.971564 0.736631
#
# Coordination Sequence:
#
# PCOD9094596 Si02
#       6
#     2   2   2   2   2   2
#     4  10  24  44  64  91 126 163 207 256 305 365
#     4  11  26  44  65  89 120 167 214 258 305 360
#     4   9  19  37  62  90 124 160 195 245 306 366
#     4  11  23  39  63  91 122 160 206 256 307 363
#     4   9  20  35  55  88 128 161 196 246 301 366
#     4  10  20  34  58  92 125 160 197 243 306 368
#
# _framework density 27.572154999999999
#
# number of rings (size 3 to 8) (size 9 to 14) (size 15 to 20)
#    0.000    2.000    0.000    2.000    0.000   15.333 
#    0.000    0.000    0.000    0.000    0.000    0.000 
#    0.000    0.000    0.000    0.000    0.000    0.000 
#
# Total GULP energy -67331.179850 kJ/mol
# GULP energy per Si atom -5610.931654 kJ/mol
# Density = 2.750940 g / cm^3
# Si number density = 27.572155 Si / 1000 Ang^3
#
#
#
# Elastic Constant Matrix: (Units=GPa)
#
#
# Indices 1 2 3 4 5 6 
#
# 1 84.8557 25.1706 20.5237 11.9585 -8.4791 -10.1664
# 2 25.1706 193.4525 32.8299 0.7117 2.3397 -8.7267
# 3 20.5237 32.8299 124.3086 16.2967 -10.0416 -7.7672
# 4 11.9585 0.7117 16.2967 48.8655 -7.2983 0.0146
# 5 -8.4791 2.3397 -10.0416 -7.2983 43.6068 9.1151
# 6 -10.1664 -8.7267 -7.7672 0.0146 9.1151 34.9908
#
#
#
# Elastic Compliance Matrix: (Units=1/GPa)
#
#
# Indices 1 2 3 4 5 6 
#
# 1 0.013348 -0.001409 -0.001194 -0.002648 0.001344 0.002913
# 2 -0.001409 0.005635 -0.001350 0.000565 -0.000992 0.000954
# 3 -0.001194 -0.001350 0.009097 -0.002528 0.001304 0.000997
# 4 -0.002648 0.000565 -0.002528 0.022401 0.003038 -0.001990
# 5 0.001344 -0.000992 0.001304 0.003038 0.025345 -0.006171
# 6 0.002913 0.000954 0.000997 -0.001990 -0.006171 0.031493
#
#
# Mechanical properties :
#
#
# Convention : Reuss Voigt Hill
#
# Bulk Modulus (GPa) = 49.56991 62.18501 55.87746
# Shear Modulus (GPa) = 41.00025 47.09879 44.04952
#
# Velocity S-wave (km/s) = 3.86037 4.13752 4.00135
# Velocity P-wave (km/s) = 6.15526 6.74003 6.45427
#
# Compressibility (1/GPa) = 0.02017353
#
# Stress axis : x y z
#
# Youngs Moduli (GPa) = 74.91791 177.47296 109.92482
#
# Poissons Ratio (x) = 0.25010 0.13124
# Poissons Ratio (y) = 0.10558 0.14840
# Poissons Ratio (z) = 0.08944 0.23958
#
# Static dielectric constant tensor:
#      x y z
#    x 2.186940 0.011080 0.021040 
#    y 0.011080 2.119930 0.014770 
#    z 0.021040 0.014770 2.065030 
# 
# From -- ./inp_files/430879.got.cif
#   From: 2010.05.17/outbox.cif.g08.bks.cpg/sg2_216_cif.got.tgz:430879.got - 2010.06.03 11:33:40.
