data_PCOD9094632
_publ_section_title
;
Structure prediction by ZEFSAII (Michael W. Deem and Ramdas Pophale) SiO2 
 PCOD9094632
Probable space group: P -1
;
_chemical_formula_sum "Si O2"
_cell_formula_units_Z 14
_cell_length_a 7.223819
_cell_length_b 23.031909
_cell_length_c 14.473310
_cell_angle_alpha 27.949045
_cell_angle_beta 143.645288
_cell_angle_gamma 122.455004
_cell_volume 520.030389
_symmetry_space_group_name_H-M "P -1"
_symmetry_group_IT_number 2
_symmetry_cell_setting 'triclinic'
loop_
_space_group_symop_operation_xyz
x,y,z
-x,-y,-z
loop_
_atom_site_type_symbol
_atom_site_label
_atom_site_fract_x
_atom_site_fract_y
_atom_site_fract_z
Si Si1 0.110140 0.336809 0.811389
Si Si2 0.510031 0.290292 0.725879
Si Si3 0.390398 0.679688 0.603312
Si Si4 0.713989 0.571520 0.086971
Si Si5 0.444159 0.974882 0.816973
Si Si6 0.398221 0.023628 0.314313
Si Si7 0.512807 0.834731 0.284345
O O1 0.759921 0.336343 0.712574
O O2 0.000000 0.500000 0.500000
O O3 0.389342 0.298622 0.064456
O O4 0.323632 0.190584 0.033615
O O5 0.294039 0.265512 0.591290
O O6 0.193189 0.434946 0.461041
O O7 0.726181 0.122129 0.101917
O O8 0.420347 0.530524 0.793267
O O9 0.609610 0.710126 0.576366
O O10 0.561344 0.642966 0.825340
O O11 0.929395 0.839078 0.198919
O O12 0.352345 0.067964 0.551667
O O13 0.373799 0.068228 0.753072
O O14 0.500000 0.000000 0.500000
O O15 0.968702 0.059743 0.078576
#
# Coordination Sequence:
#
# PCOD9094632 Si02
#       7
#     2   2   2   2   2   2   2
#     4  11  22  38  62  85 121 164 201 246 313 363
#     4  10  21  38  58  88 122 158 199 248 302 358
#     4   9  19  35  57  89 112 155 202 244 291 354
#     4  10  20  34  59  85 123 151 201 247 296 355
#     4  10  20  38  64  84 123 160 198 250 301 349
#     4  10  22  37  61  93 119 156 211 248 291 364
#     4  10  20  36  61  83 122 160 200 237 306 355
#
# _framework density 26.921505
#
# number of rings (size 3 to 8) (size 9 to 14) (size 15 to 20)
#    0.000    2.000    0.000    6.000    4.000    0.571 
#    0.000    4.286    9.429    0.000    0.000    0.000 
#    0.000    0.000    0.000    0.000    0.000    0.000 
#
# Total GULP energy -78218.279024 kJ/mol
# GULP energy per Si atom -5587.019930 kJ/mol
# Density = 2.686023 g / cm^3
# Si number density = 26.921505 Si / 1000 Ang^3
#
#
#
# Elastic Constant Matrix: (Units=GPa)
#
#
# Indices 1 2 3 4 5 6 
#
# 1 107.1352 31.0203 22.9119 -4.2404 -22.5159 9.3353
# 2 31.0203 170.3396 34.3701 6.3254 -13.4469 -10.7018
# 3 22.9119 34.3701 70.6769 8.1144 -17.1925 7.4154
# 4 -4.2404 6.3254 8.1144 34.5328 -4.4219 -18.3243
# 5 -22.5159 -13.4469 -17.1925 -4.4219 33.5243 -7.3206
# 6 9.3353 -10.7018 7.4154 -18.3243 -7.3206 43.3281
#
#
#
# Elastic Compliance Matrix: (Units=1/GPa)
#
#
# Indices 1 2 3 4 5 6 
#
# 1 0.011645 -0.001348 -0.001799 0.002851 0.006691 -0.000198
# 2 -0.001348 0.007006 -0.003167 0.001166 0.001144 0.003249
# 3 -0.001799 -0.003167 0.018813 -0.006259 0.005168 -0.005388
# 4 0.002851 0.001166 -0.006259 0.042503 0.009207 0.020276
# 5 0.006691 0.001144 0.005168 0.009207 0.040547 0.008701
# 6 -0.000198 0.003249 -0.005388 0.020276 0.008701 0.034892
#
#
# Mechanical properties :
#
#
# Convention : Reuss Voigt Hill
#
# Bulk Modulus (GPa) = 40.26065 58.30627 49.28346
# Shear Modulus (GPa) = 28.35888 39.60032 33.97960
#
# Velocity S-wave (km/s) = 3.24912 3.83946 3.55656
# Velocity P-wave (km/s) = 5.39101 6.43119 5.93394
#
# Compressibility (1/GPa) = 0.02483815
#
# Stress axis : x y z
#
# Youngs Moduli (GPa) = 85.87192 142.73081 53.15526
#
# Poissons Ratio (x) = 0.19238 0.09561
# Poissons Ratio (y) = 0.11575 0.16832
# Poissons Ratio (z) = 0.15445 0.45197
#
# Static dielectric constant tensor:
#      x y z
#    x 2.099600 0.026700 -0.016160 
#    y 0.026700 2.090690 0.011260 
#    z -0.016160 0.011260 2.242630 
# 
# From -- ./inp_files/320070.got.cif
#   From: 2010.05.17/outbox.cif.g08.bks.cpg/sg2_161_cif.got.tgz:320070.got - 2010.06.03 11:33:40.
