data_PCOD9094605
_publ_section_title
;
Structure prediction by ZEFSAII (Michael W. Deem and Ramdas Pophale) SiO2 
 PCOD9094605
Probable space group: P -1
;
_chemical_formula_sum "Si O2"
_cell_formula_units_Z 16
_cell_length_a 10.819319
_cell_length_b 8.717225
_cell_length_c 11.940675
_cell_angle_alpha 62.199278
_cell_angle_beta 51.174275
_cell_angle_gamma 45.327661
_cell_volume 623.254983
_symmetry_space_group_name_H-M "P -1"
_symmetry_group_IT_number 2
_symmetry_cell_setting 'triclinic'
loop_
_space_group_symop_operation_xyz
x,y,z
-x,-y,-z
loop_
_atom_site_type_symbol
_atom_site_label
_atom_site_fract_x
_atom_site_fract_y
_atom_site_fract_z
Si Si1 0.411322 0.720116 0.174829
Si Si2 0.145263 0.118333 0.846353
Si Si3 0.744728 0.990502 0.594147
Si Si4 0.987339 0.147720 0.329497
Si Si5 0.822911 0.289018 0.134526
Si Si6 0.514903 0.070102 0.120121
Si Si7 0.787534 0.732971 0.445144
Si Si8 0.255499 0.486151 0.276886
O O1 0.188762 0.902841 0.284118
O O2 0.599749 0.502929 0.197617
O O3 0.345338 0.613612 0.159956
O O4 0.488640 0.842178 0.028623
O O5 0.254169 0.189958 0.683931
O O6 0.156178 0.931183 0.833109
O O7 0.273350 0.024209 0.917610
O O8 0.930388 0.298989 0.959177
O O9 0.556858 0.075053 0.751919
O O10 0.715218 0.915445 0.518104
O O11 0.808758 0.141749 0.471640
O O12 0.933311 0.795456 0.627834
O O13 0.930007 0.258656 0.203042
O O14 0.363227 0.282939 0.205358
O O15 0.714631 0.598929 0.582278
O O16 0.022630 0.616749 0.351918
#
# Coordination Sequence:
#
# PCOD9094605 Si02
#       8
#     2   2   2   2   2   2   2   2
#     4  12  22  40  65  94 128 166 206 261 317 370
#     4  11  21  37  61  98 132 157 206 263 321 378
#     4  10  23  42  66  88 125 178 209 254 311 368
#     4  11  23  46  68  86 128 173 216 252 305 375
#     4  11  23  38  65  98 124 165 211 258 316 376
#     4  11  23  37  64  96 129 165 202 264 322 370
#     4  10  20  37  62  90 131 164 201 260 321 369
#     4  10  20  34  58  94 125 160 203 254 324 377
#
# _framework density 25.671676999999999
#
# number of rings (size 3 to 8) (size 9 to 14) (size 15 to 20)
#    0.000    1.250    5.000    1.125    1.750    3.500 
#    0.000    3.125   11.000    0.000    0.000    0.000 
#    0.000    0.000    0.000    0.000    0.000    0.000 
#
# Total GULP energy -89247.834033 kJ/mol
# GULP energy per Si atom -5577.989627 kJ/mol
# Density = 2.561325 g / cm^3
# Si number density = 25.671677 Si / 1000 Ang^3
#
#
#
# Elastic Constant Matrix: (Units=GPa)
#
#
# Indices 1 2 3 4 5 6 
#
# 1 44.8015 11.8300 6.8712 -11.3732 -13.0607 -13.2075
# 2 11.8300 77.4515 29.0355 14.3279 1.3956 -11.6554
# 3 6.8712 29.0355 178.8057 2.4957 5.7476 2.7036
# 4 -11.3732 14.3279 2.4957 33.0892 -2.2519 -2.4844
# 5 -13.0607 1.3956 5.7476 -2.2519 42.3393 -11.8643
# 6 -13.2075 -11.6554 2.7036 -2.4844 -11.8643 27.4489
#
#
#
# Elastic Compliance Matrix: (Units=1/GPa)
#
#
# Indices 1 2 3 4 5 6 
#
# 1 0.048127 -0.006092 -0.002555 0.023738 0.026276 0.034328
# 2 -0.006092 0.016882 -0.002365 -0.009133 -0.001797 0.002867
# 3 -0.002555 -0.002365 0.006237 -0.000821 -0.002753 -0.004112
# 4 0.023738 -0.009133 -0.000821 0.044805 0.015237 0.018266
# 5 0.026276 -0.001797 -0.002753 0.015237 0.041825 0.031608
# 6 0.034328 0.002867 -0.004112 0.018266 0.031608 0.069886
#
#
# Mechanical properties :
#
#
# Convention : Reuss Voigt Hill
#
# Bulk Modulus (GPa) = 20.31660 44.05912 32.18786
# Shear Modulus (GPa) = 18.78327 37.46362 28.12345
#
# Velocity S-wave (km/s) = 2.70788 3.82427 3.31343
# Velocity P-wave (km/s) = 4.20809 6.05804 5.21574
#
# Compressibility (1/GPa) = 0.04922083
#
# Stress axis : x y z
#
# Youngs Moduli (GPa) = 20.77833 59.23541 160.33136
#
# Poissons Ratio (x) = 0.36086 0.40967
# Poissons Ratio (y) = 0.12658 0.37924
# Poissons Ratio (z) = 0.05309 0.14011
#
# Static dielectric constant tensor:
#      x y z
#    x 2.141640 0.011620 0.057920 
#    y 0.011620 2.086570 -0.028300 
#    z 0.057920 -0.028300 2.055740 
# 
# From -- ./inp_files/427714.got.cif
#   From: 2010.05.17/outbox.cif.g08.bks.cpg/sg2_214_cif.got.tgz:427714.got - 2010.06.03 11:33:40.
