data_PCOD9094724
_publ_section_title
;
Structure prediction by ZEFSAII (Michael W. Deem and Ramdas Pophale) SiO2 
 PCOD9094724
Probable space group: P -1
;
_chemical_formula_sum "Si O2"
_cell_formula_units_Z 15
_cell_length_a 9.051784
_cell_length_b 16.337889
_cell_length_c 11.777572
_cell_angle_alpha 126.966995
_cell_angle_beta 92.334570
_cell_angle_gamma 43.719676
_cell_volume 674.087816
_symmetry_space_group_name_H-M "P -1"
_symmetry_group_IT_number 2
_symmetry_cell_setting 'triclinic'
loop_
_space_group_symop_operation_xyz
x,y,z
-x,-y,-z
loop_
_atom_site_type_symbol
_atom_site_label
_atom_site_fract_x
_atom_site_fract_y
_atom_site_fract_z
Si Si1 0.901738 0.443993 0.931869
Si Si2 0.525808 0.550177 0.713598
Si Si3 0.800030 0.799573 0.484720
Si Si4 0.756477 0.206812 0.311670
Si Si5 0.236560 0.656490 0.029299
Si Si6 0.376968 0.859959 0.555027
Si Si7 0.000000 0.000000 0.500000
Si Si8 0.692901 0.087936 0.771165
O O1 0.122033 0.253360 0.690481
O O2 0.903518 0.371093 0.981356
O O3 0.575800 0.667006 0.047796
O O4 0.000000 0.500000 0.000000
O O5 0.596795 0.400639 0.527866
O O6 0.324614 0.738020 0.776445
O O7 0.349292 0.623938 0.883805
O O8 0.859003 0.399420 0.617070
O O9 0.610580 0.811412 0.514675
O O10 0.623514 0.008978 0.694321
O O11 0.624705 0.190165 0.363436
O O12 0.110327 0.006246 0.189801
O O13 0.500000 0.500000 0.000000
O O14 0.979630 0.889415 0.264578
O O15 0.363285 0.791942 0.391279
O O16 0.918268 0.968500 0.572386
#
# Coordination Sequence:
#
# PCOD9094724 Si02
#       8
#     2   2   2   2   2   2   1   2
#     4  12  25  38  62  98 135 168 213 265 331 385
#     4  10  23  44  67  92 129 166 220 274 315 389
#     4  11  24  42  62  98 134 167 211 272 326 381
#     4   9  22  43  69  90 122 175 221 261 325 386
#     4  12  24  40  63  99 126 164 218 265 318 391
#     4  11  24  39  65  94 128 172 210 265 330 380
#     4  10  20  34  60  88 122 164 210 250 312 382
#     4  10  22  40  64  92 126 172 216 264 321 383
#
# _framework density 22.252295
#
# number of rings (size 3 to 8) (size 9 to 14) (size 15 to 20)
#    0.000    1.333    1.333    4.000   11.200    2.667 
#    0.000    0.000    0.000    3.200    0.000    0.000 
#    0.000    0.000    0.000    0.000    0.000    0.000 
#
# Total GULP energy -83588.016860 kJ/mol
# GULP energy per Si atom -5572.534457 kJ/mol
# Density = 2.220165 g / cm^3
# Si number density = 22.252295 Si / 1000 Ang^3
#
#
#
# Elastic Constant Matrix: (Units=GPa)
#
#
# Indices 1 2 3 4 5 6 
#
# 1 149.3705 36.9584 7.9099 -15.4228 -21.4535 16.0632
# 2 36.9584 156.0587 24.3449 -20.4036 -23.1674 12.5476
# 3 7.9099 24.3449 76.6228 -4.5320 -2.9751 -1.9182
# 4 -15.4228 -20.4036 -4.5320 34.8690 -0.1242 0.5727
# 5 -21.4535 -23.1674 -2.9751 -0.1242 29.8787 -0.1586
# 6 16.0632 12.5476 -1.9182 0.5727 -0.1586 25.4374
#
#
#
# Elastic Compliance Matrix: (Units=1/GPa)
#
#
# Indices 1 2 3 4 5 6 
#
# 1 0.008592 -0.000131 -0.000526 0.003766 0.006002 -0.005448
# 2 -0.000131 0.008760 -0.002344 0.004860 0.006461 -0.004484
# 3 -0.000526 -0.002344 0.013891 0.000157 -0.000797 0.002527
# 4 0.003766 0.004860 0.000157 0.033322 0.006597 -0.005472
# 5 0.006002 0.006461 -0.000797 0.006597 0.042699 -0.006919
# 6 -0.005448 -0.004484 0.002527 -0.005472 -0.006919 0.045235
#
#
# Mechanical properties :
#
#
# Convention : Reuss Voigt Hill
#
# Bulk Modulus (GPa) = 39.61759 57.83094 48.72427
# Shear Modulus (GPa) = 29.95571 38.89295 34.42433
#
# Velocity S-wave (km/s) = 3.67302 4.18523 3.93746
# Velocity P-wave (km/s) = 5.98586 7.02851 6.52804
#
# Compressibility (1/GPa) = 0.02524131
#
# Stress axis : x y z
#
# Youngs Moduli (GPa) = 116.39033 114.16155 71.98693
#
# Poissons Ratio (x) = 0.01500 0.03785
# Poissons Ratio (y) = 0.01529 0.16870
# Poissons Ratio (z) = 0.06120 0.26754
#
# Static dielectric constant tensor:
#      x y z
#    x 1.810540 0.037420 -0.159930 
#    y 0.037420 1.836770 0.126020 
#    z -0.159930 0.126020 1.681130 
# 
# From -- ./inp_files/222489.got.cif
#   From: 2010.05.17/outbox.cif.g08.bks.cpg/sg2_112_cif.got.tgz:222489.got - 2010.06.03 11:33:40.
