data_PCOD9094794
_publ_section_title
;
Structure prediction by ZEFSAII (Michael W. Deem and Ramdas Pophale) SiO2 
 PCOD9094794
Probable space group: P -1
;
_chemical_formula_sum "Si O2"
_cell_formula_units_Z 16
_cell_length_a 9.744087
_cell_length_b 10.292631
_cell_length_c 6.233394
_cell_angle_alpha 94.255096
_cell_angle_beta 80.019345
_cell_angle_gamma 86.809886
_cell_volume 612.507695
_symmetry_space_group_name_H-M "P -1"
_symmetry_group_IT_number 2
_symmetry_cell_setting 'triclinic'
loop_
_space_group_symop_operation_xyz
x,y,z
-x,-y,-z
loop_
_atom_site_type_symbol
_atom_site_label
_atom_site_fract_x
_atom_site_fract_y
_atom_site_fract_z
Si Si1 0.525487 0.901380 0.780406
Si Si2 0.071263 0.356842 0.527203
Si Si3 0.397194 0.260614 0.892001
Si Si4 0.074635 0.851698 0.698183
Si Si5 0.729736 0.954383 0.349500
Si Si6 0.667226 0.294915 0.628127
Si Si7 0.293047 0.490686 0.684401
Si Si8 0.865936 0.315623 0.955894
O O1 0.377082 0.930065 0.707171
O O2 0.654068 0.926094 0.591492
O O3 0.561155 0.765799 0.877960
O O4 0.500000 0.000000 0.000000
O O5 0.050450 0.235308 0.357630
O O6 0.995145 0.328691 0.767129
O O7 0.000000 0.500000 0.500000
O O8 0.229736 0.384786 0.532923
O O9 0.532648 0.219298 0.705348
O O10 0.367279 0.409018 0.845352
O O11 0.281507 0.167029 0.825629
O O12 0.112087 0.001285 0.673047
O O13 0.198480 0.785135 0.510489
O O14 0.108021 0.816246 0.931490
O O15 0.634446 0.408973 0.477305
O O16 0.727719 0.332198 0.847893
O O17 0.163573 0.574452 0.841874
#
# Coordination Sequence:
#
# PCOD9094794 Si02
#       8
#     2   2   2   2   2   2   2   2
#     4   9  18  34  57  78 111 150 196 224 268 327
#     4  11  20  39  59  86 109 143 195 241 276 328
#     4  11  23  36  55  85 123 154 183 223 282 348
#     4  10  20  34  61  87 106 144 196 238 274 325
#     4  10  20  37  58  81 114 151 189 233 277 326
#     4  10  20  35  55  85 117 147 185 231 278 338
#     4  11  23  37  55  85 120 151 185 231 286 335
#     4  10  20  35  63  82 111 143 192 234 290 323
#
# _framework density 26.122121
#
# number of rings (size 3 to 8) (size 9 to 14) (size 15 to 20)
#    0.000    1.750    3.750    3.750    0.000    5.500 
#    0.000    0.625    0.000    1.500    0.000    0.000 
#    0.000    0.000    0.000    0.000    0.000    0.000 
#
# Total GULP energy -89354.592005 kJ/mol
# GULP energy per Si atom -5584.662000 kJ/mol
# Density = 2.606267 g / cm^3
# Si number density = 26.122121 Si / 1000 Ang^3
#
#
#
# Elastic Constant Matrix: (Units=GPa)
#
#
# Indices 1 2 3 4 5 6 
#
# 1 39.8599 25.5218 19.5551 -4.4679 10.7455 2.8927
# 2 25.5218 74.8096 42.1997 -16.8175 5.8931 13.1696
# 3 19.5551 42.1997 136.2508 -30.6428 5.8174 4.3916
# 4 -4.4679 -16.8175 -30.6428 52.2293 -2.1027 2.1494
# 5 10.7455 5.8931 5.8174 -2.1027 34.3029 -1.9970
# 6 2.8927 13.1696 4.3916 2.1494 -1.9970 39.1463
#
#
#
# Elastic Compliance Matrix: (Units=1/GPa)
#
#
# Indices 1 2 3 4 5 6 
#
# 1 0.035000 -0.010849 -0.001745 -0.001918 -0.008869 0.000912
# 2 -0.010849 0.021217 -0.003968 0.003839 0.000307 -0.006086
# 3 -0.001745 -0.003968 0.009790 0.004305 -0.000161 0.000121
# 4 -0.001918 0.003839 0.004305 0.022880 0.000447 -0.002866
# 5 -0.008869 0.000307 -0.000161 0.000447 0.032059 0.002181
# 6 0.000912 -0.006086 0.000121 -0.002866 0.002181 0.027780
#
#
# Mechanical properties :
#
#
# Convention : Reuss Voigt Hill
#
# Bulk Modulus (GPa) = 30.41112 47.27483 38.84297
# Shear Modulus (GPa) = 25.93193 36.04527 30.98860
#
# Velocity S-wave (km/s) = 3.15416 3.71870 3.44800
# Velocity P-wave (km/s) = 4.99321 6.04774 5.54560
#
# Compressibility (1/GPa) = 0.03288271
#
# Stress axis : x y z
#
# Youngs Moduli (GPa) = 28.57113 47.13215 102.14428
#
# Poissons Ratio (x) = 0.51135 0.17826
# Poissons Ratio (y) = 0.30998 0.40530
# Poissons Ratio (z) = 0.04986 0.18702
#
# Static dielectric constant tensor:
#      x y z
#    x 2.122390 -0.006060 0.108520 
#    y -0.006060 2.178170 -0.009530 
#    z 0.108520 -0.009530 2.024660 
# 
# From -- ./inp_files/66256.got.cif
#   From: 2010.05.17/outbox.cif.g08.bks.cpg/sg2_34_cif.got.tgz:66256.got - 2010.06.03 11:33:40.
