data_PCOD9094305
_publ_section_title
;
Structure prediction by ZEFSAII (Michael W. Deem and Ramdas Pophale) SiO2 
 PCOD9094305
Probable space group: P -1
;
_chemical_formula_sum "Si O2"
_cell_formula_units_Z 16
_cell_length_a 16.097241
_cell_length_b 10.586851
_cell_length_c 10.174426
_cell_angle_alpha 65.486683
_cell_angle_beta 130.464287
_cell_angle_gamma 145.758856
_cell_volume 711.705252
_symmetry_space_group_name_H-M "P -1"
_symmetry_group_IT_number 2
_symmetry_cell_setting 'triclinic'
loop_
_space_group_symop_operation_xyz
x,y,z
-x,-y,-z
loop_
_atom_site_type_symbol
_atom_site_label
_atom_site_fract_x
_atom_site_fract_y
_atom_site_fract_z
Si Si1 0.653905 0.524595 0.970294
Si Si2 0.259378 0.871216 0.656359
Si Si3 0.299972 0.011923 0.904731
Si Si4 0.275691 0.089462 0.118301
Si Si5 0.358806 0.228736 0.433128
Si Si6 0.174389 0.498699 0.636392
Si Si7 0.140540 0.251030 0.185846
Si Si8 0.083843 0.230001 0.428100
O O1 0.769795 0.535441 0.168388
O O2 0.443423 0.270477 0.885468
O O3 0.679031 0.706821 0.967572
O O4 0.725695 0.584026 0.869815
O O5 0.282940 0.754017 0.650630
O O6 0.042115 0.686265 0.506548
O O7 0.310680 0.905059 0.849012
O O8 0.357966 0.102626 0.589345
O O9 0.329462 0.036002 0.081988
O O10 0.096333 0.863308 0.745169
O O11 0.370493 0.177801 0.320039
O O12 0.052983 0.874339 0.991989
O O13 0.500000 0.500000 0.500000
O O14 0.157792 0.100534 0.277834
O O15 0.206454 0.434133 0.572075
O O16 0.184552 0.330065 0.348141
O O17 0.000000 0.000000 0.500000
#
# Coordination Sequence:
#
# PCOD9094305 Si02
#       8
#     2   2   2   2   2   2   2   2
#     4  11  20  34  55  84 112 144 187 236 288 331
#     4  10  20  38  55  81 115 153 193 227 286 347
#     4  10  21  35  54  80 113 145 185 235 280 334
#     4  10  20  35  55  82 112 145 186 233 284 335
#     4  11  21  34  57  85 115 147 187 240 286 331
#     4  10  21  35  59  82 113 154 189 233 281 347
#     4  10  20  34  56  82 112 145 186 234 282 337
#     4  10  20  37  58  84 114 149 191 233 282 340
#
# _framework density 22.481214999999999
#
# number of rings (size 3 to 8) (size 9 to 14) (size 15 to 20)
#    0.000    1.750    0.000    7.875    0.000    1.500 
#    0.000    1.250    0.000    9.750    0.000    0.000 
#    0.000    0.000    0.000    0.000    0.000    0.000 
#
# Total GULP energy -89190.503437 kJ/mol
# GULP energy per Si atom -5574.406465 kJ/mol
# Density = 2.243005 g / cm^3
# Si number density = 22.481215 Si / 1000 Ang^3
#
#
#
# Elastic Constant Matrix: (Units=GPa)
#
#
# Indices 1 2 3 4 5 6 
#
# 1 97.6970 39.0064 64.2601 -3.9895 -42.5632 -7.2500
# 2 39.0064 52.2580 28.0937 30.0696 -34.1076 14.0241
# 3 64.2601 28.0937 135.6467 2.9599 -55.8386 -2.5576
# 4 -3.9895 30.0696 2.9599 -7.7702 10.7930 -23.0435
# 5 -42.5632 -34.1076 -55.8386 10.7930 43.3548 18.5209
# 6 -7.2500 14.0241 -2.5576 -23.0435 18.5209 4.8399
#
#
#
# Elastic Compliance Matrix: (Units=1/GPa)
#
#
# Indices 1 2 3 4 5 6 
#
# 1 0.019354 -0.004170 -0.003070 0.001374 0.012955 -0.003582
# 2 -0.004170 0.012667 -0.002444 0.008227 -0.004478 0.012066
# 3 -0.003070 -0.002444 0.013329 0.006349 0.009974 0.001586
# 4 0.001374 0.008227 0.006349 0.016926 0.023271 -0.026891
# 5 0.012955 -0.004478 0.009974 0.023271 0.037974 0.003134
# 6 -0.003582 0.012066 0.001586 -0.026891 0.003134 0.027104
#
#
# Mechanical properties :
#
#
# Convention : Reuss Voigt Hill
#
# Bulk Modulus (GPa) = 38.48484 60.92467 49.70476
# Shear Modulus (GPa) = 32.17873 18.36765 25.27319
#
# Velocity S-wave (km/s) = 3.78744 2.86146 3.35653
# Velocity P-wave (km/s) = 6.02346 6.17061 6.09748
#
# Compressibility (1/GPa) = 0.02598426
#
# Stress axis : x y z
#
# Youngs Moduli (GPa) = 51.66934 78.94463 75.02227
#
# Poissons Ratio (x) = 0.32919 0.23030
# Poissons Ratio (y) = 0.21545 0.18332
# Poissons Ratio (z) = 0.15861 0.19290
#
# Static dielectric constant tensor:
#      x y z
#    x 1.910570 0.019290 -0.027500 
#    y 0.019290 1.843660 0.056990 
#    z -0.027500 0.056990 1.905400 
# 
# From -- ./inp_files/331861.got.cif
#   From: 2010.05.17/outbox.cif.g08.bks.cpg/sg2_166_cif.got.tgz:331861.got - 2010.06.03 11:33:40.
