data_PCOD9094179
_publ_section_title
;
Structure prediction by ZEFSAII (Michael W. Deem and Ramdas Pophale) SiO2 
 PCOD9094179
Probable space group: P -1
;
_chemical_formula_sum "Si O2"
_cell_formula_units_Z 16
_cell_length_a 7.938780
_cell_length_b 8.989693
_cell_length_c 14.963691
_cell_angle_alpha 110.920295
_cell_angle_beta 104.697457
_cell_angle_gamma 55.164226
_cell_volume 817.029666
_symmetry_space_group_name_H-M "P -1"
_symmetry_group_IT_number 2
_symmetry_cell_setting 'triclinic'
loop_
_space_group_symop_operation_xyz
x,y,z
-x,-y,-z
loop_
_atom_site_type_symbol
_atom_site_label
_atom_site_fract_x
_atom_site_fract_y
_atom_site_fract_z
Si Si1 0.774049 0.430490 0.476503
Si Si2 0.224906 0.190621 0.451168
Si Si3 0.269266 0.921432 0.108517
Si Si4 0.371646 0.505225 0.343065
Si Si5 0.536000 0.104699 0.214241
Si Si6 0.378378 0.100010 0.645566
Si Si7 0.790404 0.174604 0.120835
Si Si8 0.523041 0.613625 0.223645
O O1 0.731726 0.640389 0.507860
O O2 0.589242 0.425977 0.406013
O O3 0.788946 0.390881 0.576427
O O4 0.984616 0.288244 0.424970
O O5 0.278597 0.102708 0.538844
O O6 0.375957 0.035886 0.368564
O O7 0.386239 0.741809 0.150846
O O8 0.404636 0.016321 0.147362
O O9 0.254074 0.858836 0.993470
O O10 0.036252 0.066015 0.140805
O O11 0.380700 0.322252 0.267838
O O12 0.377816 0.623064 0.286862
O O13 0.687674 0.098587 0.158456
O O14 0.663174 0.989348 0.294508
O O15 0.343323 0.301072 0.706424
O O16 0.673612 0.396802 0.171836
#
# Coordination Sequence:
#
# PCOD9094179 Si02
#       8
#     2   2   2   2   2   2   2   2
#     4  10  20  34  55  78 113 158 193 234 287 333
#     4  10  20  34  55  78 113 158 193 234 287 333
#     4  10  22  41  64  89 117 151 190 237 298 358
#     4  10  20  36  54  84 116 149 194 239 279 337
#     4  10  21  37  61  86 119 152 190 245 289 343
#     4  10  20  36  54  84 116 149 194 239 279 337
#     4  10  22  41  64  89 117 151 190 237 298 358
#     4  10  21  37  61  86 119 152 190 245 289 343
#
# _framework density 19.583133
#
# number of rings (size 3 to 8) (size 9 to 14) (size 15 to 20)
#    0.000    2.000    2.500    0.750    0.000    6.000 
#    0.000    5.000    0.000   13.500    0.000    0.000 
#    0.000    0.000    0.000    0.000    0.000    0.000 
#
# Total GULP energy -89346.192744 kJ/mol
# GULP energy per Si atom -5584.137047 kJ/mol
# Density = 1.953856 g / cm^3
# Si number density = 19.583133 Si / 1000 Ang^3
#
#
#
# Elastic Constant Matrix: (Units=GPa)
#
#
# Indices 1 2 3 4 5 6 
#
# 1 69.7751 41.3593 26.3985 6.0555 -18.8536 3.1268
# 2 41.3593 81.9127 31.1273 -1.9875 -19.0543 13.3213
# 3 26.3985 31.1273 73.5020 -8.3416 -23.8704 5.6122
# 4 6.0555 -1.9875 -8.3416 29.7810 4.2476 -10.5642
# 5 -18.8536 -19.0543 -23.8704 4.2476 25.0987 -1.0855
# 6 3.1268 13.3213 5.6122 -10.5642 -1.0855 28.2222
#
#
#
# Elastic Compliance Matrix: (Units=1/GPa)
#
#
# Indices 1 2 3 4 5 6 
#
# 1 0.023996 -0.008941 -0.002325 -0.007773 0.010321 -0.000488
# 2 -0.008941 0.020615 -0.003154 -0.001521 0.005826 -0.008458
# 3 -0.002325 -0.003154 0.021247 0.003861 0.015394 -0.000441
# 4 -0.007773 -0.001521 0.003861 0.043485 -0.009957 0.016705
# 5 0.010321 0.005826 0.015394 -0.009957 0.067995 -0.008067
# 6 -0.000488 -0.008458 -0.000441 0.016705 -0.008067 0.045510
#
#
# Mechanical properties :
#
#
# Convention : Reuss Voigt Hill
#
# Bulk Modulus (GPa) = 27.01334 46.99554 37.00444
# Shear Modulus (GPa) = 18.93741 25.04070 21.98905
#
# Velocity S-wave (km/s) = 3.11308 3.57975 3.35454
# Velocity P-wave (km/s) = 5.17164 6.41375 5.82589
#
# Compressibility (1/GPa) = 0.03701874
#
# Stress axis : x y z
#
# Youngs Moduli (GPa) = 41.67286 48.50848 47.06590
#
# Poissons Ratio (x) = 0.43372 0.10943
# Poissons Ratio (y) = 0.37260 0.14843
# Poissons Ratio (z) = 0.09689 0.15298
#
# Static dielectric constant tensor:
#      x y z
#    x 1.670620 0.013120 -0.010140 
#    y 0.013120 1.682420 -0.014070 
#    z -0.010140 -0.014070 1.692380 
# 
# From -- ./inp_files/208515.got.cif
#   From: 2010.05.17/outbox.cif.g08.bks.cpg/sg2_105_cif.got.tgz:208515.got - 2010.06.03 11:33:40.
