data_PCOD9094554
_publ_section_title
;
Structure prediction by ZEFSAII (Michael W. Deem and Ramdas Pophale) SiO2 
 PCOD9094554
Probable space group: P -1
;
_chemical_formula_sum "Si O2"
_cell_formula_units_Z 14
_cell_length_a 19.550221
_cell_length_b 5.215627
_cell_length_c 9.769270
_cell_angle_alpha 124.582513
_cell_angle_beta 138.971552
_cell_angle_gamma 63.272814
_cell_volume 537.933384
_symmetry_space_group_name_H-M "P -1"
_symmetry_group_IT_number 2
_symmetry_cell_setting 'triclinic'
loop_
_space_group_symop_operation_xyz
x,y,z
-x,-y,-z
loop_
_atom_site_type_symbol
_atom_site_label
_atom_site_fract_x
_atom_site_fract_y
_atom_site_fract_z
Si Si1 0.892844 0.509304 0.736791
Si Si2 0.163979 0.795481 0.172988
Si Si3 0.588526 0.727951 0.575963
Si Si4 0.266923 0.963184 0.629332
Si Si5 0.754557 0.163845 0.968152
Si Si6 0.907426 0.453786 0.450006
Si Si7 0.420535 0.347228 0.132700
O O1 0.890020 0.878196 0.852542
O O2 0.952216 0.419050 0.659594
O O3 0.903869 0.373262 0.865527
O O4 0.781903 0.350997 0.481417
O O5 0.265168 0.894497 0.443328
O O6 0.200757 0.659084 0.042952
O O7 0.539337 0.448827 0.331211
O O8 0.591620 0.677139 0.728549
O O9 0.500000 0.000000 0.500000
O O10 0.702525 0.846213 0.746983
O O11 0.174394 0.241286 0.587770
O O12 0.370728 0.065332 0.891600
O O13 0.657322 0.366405 0.942032
O O14 0.843810 0.159592 0.213710
O O15 0.000000 0.500000 0.500000
#
# Coordination Sequence:
#
# PCOD9094554 Si02
#       7
#     2   2   2   2   2   2   2
#     4   9  19  39  55  80 117 157 185 233 288 344
#     4   9  20  36  59  82 117 155 191 230 295 342
#     4   9  18  30  52  83 115 139 194 234 291 325
#     4   8  18  35  57  78 115 154 186 225 294 335
#     4  10  20  34  58  87 109 154 191 244 281 341
#     4  10  20  37  61  88 113 148 199 240 281 344
#     4   9  17  33  55  82 110 151 188 241 276 345
#
# _framework density 26.025528000000001
#
# number of rings (size 3 to 8) (size 9 to 14) (size 15 to 20)
#    0.857    2.000    0.000    0.857    2.000    1.714 
#    0.000    4.286    0.000    8.571    0.000    0.000 
#    0.000    0.000    0.000    0.000    0.000    0.000 
#
# Total GULP energy -78088.578440 kJ/mol
# GULP energy per Si atom -5577.755603 kJ/mol
# Density = 2.596629 g / cm^3
# Si number density = 26.025528 Si / 1000 Ang^3
#
#
#
# Elastic Constant Matrix: (Units=GPa)
#
#
# Indices 1 2 3 4 5 6 
#
# 1 91.3340 20.2125 46.5812 1.0239 -6.0315 18.0792
# 2 20.2125 89.8531 20.8403 -1.0917 11.7753 10.0933
# 3 46.5812 20.8403 143.7209 -23.4483 -11.4939 -0.4126
# 4 1.0239 -1.0917 -23.4483 27.3917 2.6372 1.9019
# 5 -6.0315 11.7753 -11.4939 2.6372 37.7270 -0.5867
# 6 18.0792 10.0933 -0.4126 1.9019 -0.5867 40.1957
#
#
#
# Elastic Compliance Matrix: (Units=1/GPa)
#
#
# Indices 1 2 3 4 5 6 
#
# 1 0.015573 -0.001788 -0.005505 -0.005082 0.001627 -0.006348
# 2 -0.001788 0.012841 -0.001718 -0.000253 -0.004838 -0.002497
# 3 -0.005505 -0.001718 0.010624 0.008826 0.002317 0.002633
# 4 -0.005082 -0.000253 0.008826 0.044330 -0.001138 0.000326
# 5 0.001627 -0.004838 0.002317 -0.001138 0.029077 0.000985
# 6 -0.006348 -0.002497 0.002633 0.000326 0.000985 0.028386
#
#
# Mechanical properties :
#
#
# Convention : Reuss Voigt Hill
#
# Bulk Modulus (GPa) = 47.58277 55.57511 51.57894
# Shear Modulus (GPa) = 30.14579 36.88114 33.51346
#
# Velocity S-wave (km/s) = 3.40710 3.76854 3.59237
# Velocity P-wave (km/s) = 5.81382 6.35109 6.08838
#
# Compressibility (1/GPa) = 0.02101601
#
# Stress axis : x y z
#
# Youngs Moduli (GPa) = 64.21232 77.87304 94.12452
#
# Poissons Ratio (x) = 0.13926 0.51819
# Poissons Ratio (y) = 0.11483 0.16169
# Poissons Ratio (z) = 0.35352 0.13377
#
# Static dielectric constant tensor:
#      x y z
#    x 2.061850 -0.008410 0.023950 
#    y -0.008410 2.149170 0.061860 
#    z 0.023950 0.061860 2.163320 
# 
# From -- ./inp_files/468205.got.cif
#   From: 2010.05.17/outbox.cif.g08.bks.cpg/sg2_235_cif.got.tgz:468205.got - 2010.06.03 11:33:40.
