data_PCOD9094140
_publ_section_title
;
Structure prediction by ZEFSAII (Michael W. Deem and Ramdas Pophale) SiO2 
 PCOD9094140
Probable space group: P -1
;
_chemical_formula_sum "Si O2"
_cell_formula_units_Z 16
_cell_length_a 5.163472
_cell_length_b 13.098768
_cell_length_c 17.932954
_cell_angle_alpha 48.699902
_cell_angle_beta 53.141233
_cell_angle_gamma 61.516649
_cell_volume 722.419810
_symmetry_space_group_name_H-M "P -1"
_symmetry_group_IT_number 2
_symmetry_cell_setting 'triclinic'
loop_
_space_group_symop_operation_xyz
x,y,z
-x,-y,-z
loop_
_atom_site_type_symbol
_atom_site_label
_atom_site_fract_x
_atom_site_fract_y
_atom_site_fract_z
Si Si1 0.223548 0.914219 0.733238
Si Si2 0.120277 0.804698 0.289275
Si Si3 0.412006 0.709084 0.435999
Si Si4 0.679222 0.608788 0.001211
Si Si5 0.884223 0.463640 0.308519
Si Si6 0.085361 0.993049 0.403428
Si Si7 0.576550 0.354947 0.815674
Si Si8 0.382817 0.341561 0.172897
O O1 0.952348 0.033142 0.755831
O O2 0.564861 0.953135 0.687027
O O3 0.176160 0.930465 0.644929
O O4 0.280911 0.753289 0.818954
O O5 0.772166 0.745718 0.374397
O O6 0.342983 0.716918 0.355520
O O7 0.290929 0.775061 0.194662
O O8 0.323410 0.587681 0.562495
O O9 0.145520 0.835746 0.445567
O O10 0.600495 0.678333 0.061042
O O11 0.408132 0.504059 0.089588
O O12 0.678510 0.694782 0.884539
O O13 0.000000 0.500000 0.000000
O O14 0.660884 0.542656 0.245039
O O15 0.124372 0.562430 0.254600
O O16 0.106637 0.338516 0.285591
O O17 0.000000 0.000000 0.500000
#
# Coordination Sequence:
#
# PCOD9094140 Si02
#       8
#     2   2   2   2   2   2   2   2
#     4  10  22  36  58  82 116 155 187 233 284 341
#     4  10  22  40  55  82 120 160 191 227 275 342
#     4  10  21  36  55  83 121 155 194 229 277 333
#     4  10  21  40  62  86 114 144 185 250 306 339
#     4  11  22  35  59  89 112 152 193 239 284 337
#     4  10  20  34  54  82 117 157 193 232 277 330
#     4  11  23  38  60  83 115 152 194 237 290 341
#     4  10  22  38  60  90 116 143 191 244 299 345
#
# _framework density 22.147787000000001
#
# number of rings (size 3 to 8) (size 9 to 14) (size 15 to 20)
#    0.000    1.750    1.250    2.625    1.750    7.000 
#    0.000    0.625    0.000    0.750    0.000    0.000 
#    0.000    0.000    0.000    0.000    0.000    0.000 
#
# Total GULP energy -89271.117376 kJ/mol
# GULP energy per Si atom -5579.444836 kJ/mol
# Density = 2.209738 g / cm^3
# Si number density = 22.147787 Si / 1000 Ang^3
#
#
#
# Elastic Constant Matrix: (Units=GPa)
#
#
# Indices 1 2 3 4 5 6 
#
# 1 102.0418 8.2147 15.8394 -9.9274 31.6338 -9.3734
# 2 8.2147 104.1586 45.4628 15.1275 29.2011 3.6164
# 3 15.8394 45.4628 75.0019 20.8232 32.2693 7.5244
# 4 -9.9274 15.1275 20.8232 40.2339 5.1588 13.8076
# 5 31.6338 29.2011 32.2693 5.1588 42.8880 0.8812
# 6 -9.3734 3.6164 7.5244 13.8076 0.8812 26.7203
#
#
#
# Elastic Compliance Matrix: (Units=1/GPa)
#
#
# Indices 1 2 3 4 5 6 
#
# 1 0.013976 0.001677 -0.000122 0.003216 -0.011816 0.003438
# 2 0.001677 0.013921 -0.005881 -0.001437 -0.006145 0.001305
# 3 -0.000122 -0.005881 0.025534 -0.008733 -0.014037 -0.001462
# 4 0.003216 -0.001437 -0.008733 0.035580 0.001198 -0.014643
# 5 -0.011816 -0.006145 -0.014037 0.001198 0.046665 -0.001518
# 6 0.003438 0.001305 -0.001462 -0.014643 -0.001518 0.046483
#
#
# Mechanical properties :
#
#
# Convention : Reuss Voigt Hill
#
# Bulk Modulus (GPa) = 22.33177 46.69290 34.51233
# Shear Modulus (GPa) = 24.30288 36.08081 30.19185
#
# Velocity S-wave (km/s) = 3.31615 4.04058 3.69616
# Velocity P-wave (km/s) = 4.97669 6.54955 5.81653
#
# Compressibility (1/GPa) = 0.04477926
#
# Stress axis : x y z
#
# Youngs Moduli (GPa) = 71.55377 71.83146 39.16294
#
# Poissons Ratio (x) = -0.12048 0.00479
# Poissons Ratio (y) = -0.12001 0.23032
# Poissons Ratio (z) = 0.00875 0.42244
#
# Static dielectric constant tensor:
#      x y z
#    x 1.845390 0.053410 -0.027170 
#    y 0.053410 1.892100 -0.014820 
#    z -0.027170 -0.014820 1.895230 
# 
# From -- ./inp_files/550090.got.cif
#   From: 2010.05.17/outbox.cif.g08.bks.cpg/sg2_276_cif.got.tgz:550090.got - 2010.06.03 11:33:40.
