data_PCOD9094672
_publ_section_title
;
Structure prediction by ZEFSAII (Michael W. Deem and Ramdas Pophale) SiO2 
 PCOD9094672
Probable space group: P -1
;
_chemical_formula_sum "Si O2"
_cell_formula_units_Z 16
_cell_length_a 8.871471
_cell_length_b 8.582761
_cell_length_c 14.371643
_cell_angle_alpha 73.107866
_cell_angle_beta 39.357108
_cell_angle_gamma 92.576636
_cell_volume 594.846097
_symmetry_space_group_name_H-M "P -1"
_symmetry_group_IT_number 2
_symmetry_cell_setting 'triclinic'
loop_
_space_group_symop_operation_xyz
x,y,z
-x,-y,-z
loop_
_atom_site_type_symbol
_atom_site_label
_atom_site_fract_x
_atom_site_fract_y
_atom_site_fract_z
Si Si1 0.368035 0.585915 0.386923
Si Si2 0.233269 0.867046 0.312508
Si Si3 0.762080 0.955510 0.460921
Si Si4 0.392940 0.512365 0.892014
Si Si5 0.088184 0.700909 0.226679
Si Si6 0.144360 0.345305 0.214968
Si Si7 0.694356 0.170703 0.160243
Si Si8 0.159949 0.098851 0.782468
O O1 0.189746 0.682960 0.418469
O O2 0.501176 0.535850 0.244344
O O3 0.189175 0.412513 0.564771
O O4 0.596080 0.737501 0.312931
O O5 0.288755 0.825797 0.187609
O O6 0.471631 0.030841 0.221079
O O7 0.979231 0.906890 0.417105
O O8 0.869818 0.170591 0.388402
O O9 0.477843 0.850174 0.660010
O O10 0.770097 0.924231 0.353340
O O11 0.647770 0.647600 0.807654
O O12 0.217795 0.621273 0.942824
O O13 0.248068 0.344752 0.060951
O O14 0.057624 0.826581 0.140316
O O15 0.143749 0.538864 0.192013
O O16 0.894848 0.086110 0.104839
#
# Coordination Sequence:
#
# PCOD9094672 Si02
#       8
#     2   2   2   2   2   2   2   2
#     4  11  22  39  65  94 131 166 212 256 316 373
#     4  10  20  34  59  92 119 164 212 258 296 370
#     4  11  22  39  65  94 131 166 212 256 316 373
#     4  11  24  42  65  97 129 162 208 269 323 365
#     4  11  22  39  65  94 131 166 212 256 316 373
#     4  11  24  42  65  97 129 162 208 269 323 365
#     4  11  22  39  65  94 131 166 212 256 316 373
#     4  10  24  40  59  94 127 170 208 260 308 376
#
# _framework density 26.897711999999999
#
# number of rings (size 3 to 8) (size 9 to 14) (size 15 to 20)
#    0.000    1.250    2.500    4.500    3.500    1.000 
#    0.000   10.000    0.000    0.000    0.000    0.000 
#    0.000    0.000    0.000    0.000    0.000    0.000 
#
# Total GULP energy -89737.998950 kJ/mol
# GULP energy per Si atom -5608.624934 kJ/mol
# Density = 2.683649 g / cm^3
# Si number density = 26.897712 Si / 1000 Ang^3
#
#
#
# Elastic Constant Matrix: (Units=GPa)
#
#
# Indices 1 2 3 4 5 6 
#
# 1 147.7845 70.0831 9.5584 -0.8996 15.9517 -23.2824
# 2 70.0831 132.7184 20.7133 25.8278 9.1310 -17.1500
# 3 9.5584 20.7133 84.4122 6.8395 20.3216 3.1561
# 4 -0.8996 25.8278 6.8395 36.3739 -2.5070 -5.4662
# 5 15.9517 9.1310 20.3216 -2.5070 24.9176 4.2114
# 6 -23.2824 -17.1500 3.1561 -5.4662 4.2114 57.2883
#
#
#
# Elastic Compliance Matrix: (Units=1/GPa)
#
#
# Indices 1 2 3 4 5 6 
#
# 1 0.010606 -0.005779 0.001125 0.004262 -0.005726 0.003346
# 2 -0.005779 0.012689 -0.001623 -0.008779 -0.000636 0.000748
# 3 0.001125 -0.001623 0.015461 -0.002648 -0.012971 -0.000179
# 4 0.004262 -0.008779 -0.002648 0.035055 0.005809 0.002168
# 5 -0.005726 -0.000636 -0.012971 0.005809 0.056103 -0.005373
# 6 0.003346 0.000748 -0.000179 0.002168 -0.005373 0.019651
#
#
# Mechanical properties :
#
#
# Convention : Reuss Voigt Hill
#
# Bulk Modulus (GPa) = 38.16430 62.84719 50.50575
# Shear Modulus (GPa) = 29.26509 41.35331 35.30920
#
# Velocity S-wave (km/s) = 3.30208 3.92526 3.62708
# Velocity P-wave (km/s) = 5.36263 6.63020 6.02982
#
# Compressibility (1/GPa) = 0.02620250
#
# Stress axis : x y z
#
# Youngs Moduli (GPa) = 94.29001 78.81035 64.67707
#
# Poissons Ratio (x) = 0.45546 -0.07278
# Poissons Ratio (y) = 0.54492 0.10495
# Poissons Ratio (z) = -0.10610 0.12788
#
# Static dielectric constant tensor:
#      x y z
#    x 2.094380 -0.035980 0.026570 
#    y -0.035980 2.089160 0.064190 
#    z 0.026570 0.064190 2.088700 
# 
# From -- ./inp_files/494802.got.cif
#   From: 2010.05.17/outbox.cif.g08.bks.cpg/sg2_248_cif.got.tgz:494802.got - 2010.06.03 11:33:40.
