data_PCOD9094727
_publ_section_title
;
Structure prediction by ZEFSAII (Michael W. Deem and Ramdas Pophale) SiO2 
 PCOD9094727
Probable space group: P -1
;
_chemical_formula_sum "Si O2"
_cell_formula_units_Z 15
_cell_length_a 11.637803
_cell_length_b 11.236291
_cell_length_c 4.816937
_cell_angle_alpha 92.136334
_cell_angle_beta 95.773886
_cell_angle_gamma 109.219727
_cell_volume 590.101074
_symmetry_space_group_name_H-M "P -1"
_symmetry_group_IT_number 2
_symmetry_cell_setting 'triclinic'
loop_
_space_group_symop_operation_xyz
x,y,z
-x,-y,-z
loop_
_atom_site_type_symbol
_atom_site_label
_atom_site_fract_x
_atom_site_fract_y
_atom_site_fract_z
Si Si1 0.670919 0.665779 0.379396
Si Si2 0.500000 0.000000 0.000000
Si Si3 0.591440 0.425308 0.713569
Si Si4 0.340911 0.065760 0.484456
Si Si5 0.955710 0.350994 0.251813
Si Si6 0.825350 0.535597 0.086496
Si Si7 0.403944 0.785507 0.707942
Si Si8 0.827710 0.196618 0.679085
O O1 0.636166 0.566609 0.615801
O O2 0.540880 0.622736 0.179805
O O3 0.692913 0.808462 0.481181
O O4 0.776896 0.635809 0.236756
O O5 0.387313 0.023744 0.777481
O O6 0.409175 0.844665 0.018051
O O7 0.701017 0.428189 0.943390
O O8 0.573272 0.334142 0.432655
O O9 0.463578 0.093799 0.316737
O O10 0.225175 0.954313 0.331496
O O11 0.899543 0.464929 0.280158
O O12 0.871177 0.262764 0.985572
O O13 0.942350 0.264960 0.509934
O O14 0.088450 0.406807 0.148273
O O15 0.281668 0.777189 0.515172
#
# Coordination Sequence:
#
# PCOD9094727 Si02
#       8
#     2   1   2   2   2   2   2   2
#     4  10  23  41  63  99 132 177 219 280 344 417
#     4  10  20  34  60  88 130 172 214 270 330 402
#     4  10  21  40  66  96 133 172 219 281 345 409
#     4  10  24  38  64  95 137 175 226 278 348 400
#     4  11  27  42  74  99 136 177 241 275 342 386
#     4  11  24  43  68  96 134 176 224 287 334 404
#     4  10  21  36  62  96 133 170 222 278 345 400
#     4  11  23  43  65 102 130 181 224 286 330 408
#
# _framework density 25.419376
#
# number of rings (size 3 to 8) (size 9 to 14) (size 15 to 20)
#    0.000    1.600    1.333    2.800    9.333    6.400 
#    0.000    1.333    0.000    0.000    0.000    0.000 
#    0.000    0.000    0.000    0.000    0.000    0.000 
#
# Total GULP energy -83761.809559 kJ/mol
# GULP energy per Si atom -5584.120637 kJ/mol
# Density = 2.536152 g / cm^3
# Si number density = 25.419376 Si / 1000 Ang^3
#
#
#
# Elastic Constant Matrix: (Units=GPa)
#
#
# Indices 1 2 3 4 5 6 
#
# 1 140.7061 53.5958 33.6653 16.0668 -25.8414 5.3163
# 2 53.5958 154.1487 30.7737 20.9499 -36.5761 -10.7941
# 3 33.6653 30.7737 107.0456 5.6360 -15.0080 1.2869
# 4 16.0668 20.9499 5.6360 44.1686 7.7015 -11.5210
# 5 -25.8414 -36.5761 -15.0080 7.7015 45.2185 7.9970
# 6 5.3163 -10.7941 1.2869 -11.5210 7.9970 44.7422
#
#
#
# Elastic Compliance Matrix: (Units=1/GPa)
#
#
# Indices 1 2 3 4 5 6 
#
# 1 0.009632 -0.001441 -0.001613 -0.004434 0.005180 -0.003513
# 2 -0.001441 0.009712 -0.000982 -0.005344 0.007652 -0.000201
# 3 -0.001613 -0.000982 0.010482 -0.000896 0.002083 -0.000950
# 4 -0.004434 -0.005344 -0.000896 0.032044 -0.014395 0.010088
# 5 0.005180 0.007652 0.002083 -0.014395 0.035994 -0.008970
# 6 -0.003513 -0.000201 -0.000950 0.010088 -0.008970 0.026947
#
#
# Mechanical properties :
#
#
# Convention : Reuss Voigt Hill
#
# Bulk Modulus (GPa) = 45.96923 70.88553 58.42738
# Shear Modulus (GPa) = 35.67950 45.75023 40.71486
#
# Velocity S-wave (km/s) = 3.75057 4.24703 4.00650
# Velocity P-wave (km/s) = 6.07284 7.21087 6.66618
#
# Compressibility (1/GPa) = 0.02175368
#
# Stress axis : x y z
#
# Youngs Moduli (GPa) = 103.81671 102.96202 95.40030
#
# Poissons Ratio (x) = 0.14840 0.15388
# Poissons Ratio (y) = 0.14964 0.09370
# Poissons Ratio (z) = 0.16746 0.10113
#
# Static dielectric constant tensor:
#      x y z
#    x 2.104860 -0.077900 -0.042200 
#    y -0.077900 2.221260 0.031320 
#    z -0.042200 0.031320 2.409140 
# 
# From -- ./inp_files/71199.got.cif
#   From: 2010.05.17/outbox.cif.g08.bks.cpg/sg2_36_cif.got.tgz:71199.got - 2010.06.03 11:33:40.
