data_PCOD9094472
_publ_section_title
;
Structure prediction by ZEFSAII (Michael W. Deem and Ramdas Pophale) SiO2 
 PCOD9094472
Probable space group: P -1
;
_chemical_formula_sum "Si O2"
_cell_formula_units_Z 16
_cell_length_a 11.182408
_cell_length_b 11.163835
_cell_length_c 7.409450
_cell_angle_alpha 112.202106
_cell_angle_beta 124.788460
_cell_angle_gamma 76.410065
_cell_volume 703.105190
_symmetry_space_group_name_H-M "P -1"
_symmetry_group_IT_number 2
_symmetry_cell_setting 'triclinic'
loop_
_space_group_symop_operation_xyz
x,y,z
-x,-y,-z
loop_
_atom_site_type_symbol
_atom_site_label
_atom_site_fract_x
_atom_site_fract_y
_atom_site_fract_z
Si Si1 0.158869 0.599497 0.594265
Si Si2 0.869017 0.687118 0.571305
Si Si3 0.325919 0.277034 0.918110
Si Si4 0.834528 0.957039 0.323952
Si Si5 0.375414 0.543127 0.060102
Si Si6 0.574271 0.176049 0.599847
Si Si7 0.633643 0.187092 0.235721
Si Si8 0.738221 0.937554 0.647108
O O1 0.135083 0.453667 0.417145
O O2 0.268139 0.686848 0.627025
O O3 0.009344 0.676121 0.554857
O O4 0.232584 0.577687 0.840619
O O5 0.735074 0.693786 0.317916
O O6 0.851700 0.822398 0.742953
O O7 0.211406 0.184650 0.863331
O O8 0.349397 0.420397 0.096469
O O9 0.483750 0.206097 0.009079
O O10 0.784089 0.951530 0.485701
O O11 0.734112 0.063949 0.198583
O O12 0.000000 0.000000 0.500000
O O13 0.418635 0.673994 0.264859
O O14 0.500000 0.500000 0.000000
O O15 0.587960 0.165887 0.390325
O O16 0.419702 0.121096 0.490790
O O17 0.704511 0.088358 0.754593
#
# Coordination Sequence:
#
# PCOD9094472 Si02
#       8
#     2   2   2   2   2   2   2   2
#     4  10  20  35  63  93 114 159 209 245 293 357
#     4   9  19  37  62  84 123 163 206 242 294 355
#     4  10  20  34  57  88 120 149 200 250 289 350
#     4  10  20  37  63  87 118 159 201 249 298 353
#     4  11  20  38  61  89 116 159 198 250 297 357
#     4  10  22  37  60  88 127 155 195 251 309 352
#     4  11  21  34  59  96 118 155 200 252 300 350
#     4   9  19  38  60  80 118 167 193 238 304 355
#
# _framework density 22.756195999999999
#
# number of rings (size 3 to 8) (size 9 to 14) (size 15 to 20)
#    0.000    2.000    1.250    4.125    0.000    0.500 
#    2.250    0.625    8.250    8.250    0.000    0.000 
#    0.000    0.000    0.000    0.000    0.000    0.000 
#
# Total GULP energy -89191.381439 kJ/mol
# GULP energy per Si atom -5574.461340 kJ/mol
# Density = 2.270440 g / cm^3
# Si number density = 22.756196 Si / 1000 Ang^3
#
#
#
# Elastic Constant Matrix: (Units=GPa)
#
#
# Indices 1 2 3 4 5 6 
#
# 1 122.0623 59.1396 30.6585 -2.0379 28.4121 10.4809
# 2 59.1396 164.6122 30.8978 22.1461 23.4804 -10.5478
# 3 30.6585 30.8978 34.7554 -1.6221 19.4127 -1.0775
# 4 -2.0379 22.1461 -1.6221 36.6983 2.5614 11.3529
# 5 28.4121 23.4804 19.4127 2.5614 31.6397 0.1093
# 6 10.4809 -10.5478 -1.0775 11.3529 0.1093 42.4209
#
#
#
# Elastic Compliance Matrix: (Units=1/GPa)
#
#
# Indices 1 2 3 4 5 6 
#
# 1 0.013464 -0.004157 -0.004341 0.005357 -0.006756 -0.005887
# 2 -0.004157 0.010062 -0.005739 -0.008322 0.000441 0.005609
# 3 -0.004341 -0.005739 0.051426 0.007476 -0.023997 -0.000987
# 4 0.005357 -0.008322 0.007476 0.037416 -0.006204 -0.013200
# 5 -0.006756 0.000441 -0.023997 -0.006204 0.052562 0.002694
# 6 -0.005887 0.005609 -0.000987 -0.013200 0.002694 0.029923
#
#
# Mechanical properties :
#
#
# Convention : Reuss Voigt Hill
#
# Bulk Modulus (GPa) = 21.51539 62.53576 42.02558
# Shear Modulus (GPa) = 20.93644 35.53403 28.23524
#
# Velocity S-wave (km/s) = 3.03649 3.95588 3.52628
# Velocity P-wave (km/s) = 4.66573 6.95742 5.92346
#
# Compressibility (1/GPa) = 0.04647836
#
# Stress axis : x y z
#
# Youngs Moduli (GPa) = 74.27113 99.38789 19.44557
#
# Poissons Ratio (x) = 0.41312 0.08441
# Poissons Ratio (y) = 0.30872 0.11160
# Poissons Ratio (z) = 0.32238 0.57041
#
# Static dielectric constant tensor:
#      x y z
#    x 1.829310 -0.020000 0.004690 
#    y -0.020000 1.999160 0.068910 
#    z 0.004690 0.068910 1.922370 
# 
# From -- ./inp_files/263183.got.cif
#   From: 2010.05.17/outbox.cif.g08.bks.cpg/sg2_132_cif.got.tgz:263183.got - 2010.06.03 11:33:40.
