data_PCOD9095771
_publ_section_title
;
Structure prediction by ZEFSAII (Michael W. Deem and Ramdas Pophale) SiO2 
 PCOD9095771
Probable space group: P -1
;
_chemical_formula_sum "Si O2"
_cell_formula_units_Z 16
_cell_length_a 13.239754
_cell_length_b 12.588011
_cell_length_c 5.622457
_cell_angle_alpha 69.852594
_cell_angle_beta 68.755960
_cell_angle_gamma 40.216244
_cell_volume 560.330374
_symmetry_space_group_name_H-M "P -1"
_symmetry_group_IT_number 2
_symmetry_cell_setting 'triclinic'
loop_
_space_group_symop_operation_xyz
x,y,z
-x,-y,-z
loop_
_atom_site_type_symbol
_atom_site_label
_atom_site_fract_x
_atom_site_fract_y
_atom_site_fract_z
Si Si1 0.837321 0.199253 0.839800
Si Si2 0.882492 0.841573 0.338581
Si Si3 0.199072 0.318057 0.688433
Si Si4 0.812144 0.207807 0.354433
Si Si5 0.533050 0.574597 0.683632
Si Si6 0.797546 0.472732 0.206333
Si Si7 0.583432 0.740464 0.822609
Si Si8 0.716283 0.954732 0.900603
O O1 0.852282 0.123307 0.636644
O O2 0.658389 0.389194 0.830364
O O3 0.953046 0.219290 0.719215
O O4 0.861678 0.118993 0.130660
O O5 0.900072 0.694415 0.375706
O O6 0.799852 0.941216 0.081421
O O7 0.777757 0.938060 0.595914
O O8 0.126733 0.487999 0.726974
O O9 0.354960 0.225404 0.466228
O O10 0.248050 0.204924 0.961920
O O11 0.622452 0.351164 0.371877
O O12 0.871338 0.293015 0.242772
O O13 0.637164 0.562550 0.411736
O O14 0.497548 0.697385 0.813816
O O15 0.743116 0.568981 0.934235
O O16 0.466758 0.880368 0.011450
#
# Coordination Sequence:
#
# PCOD9095771 Si02
#       8
#     2   2   2   2   2   2   2   2
#     4  11  21  41  66  88 124 162 203 248 305 372
#     4  10  23  41  61  89 122 174 200 241 300 370
#     4   9  22  37  60  92 123 162 207 246 303 357
#     4  11  23  40  65  95 120 157 202 259 311 356
#     4  10  23  38  63  99 118 156 202 258 317 354
#     4  10  20  35  59  96 128 148 198 255 314 356
#     4  11  21  37  64  93 125 156 203 265 299 355
#     4  10  23  40  63  87 127 162 210 243 302 355
#
# _framework density 28.554582
#
# number of rings (size 3 to 8) (size 9 to 14) (size 15 to 20)
#    0.750    1.000    1.250    3.750    5.250    1.000 
#    0.000    6.250    0.000    4.500    0.000    0.000 
#    0.000    0.000    0.000    0.000    0.000    0.000 
#
# Total GULP energy -89583.892875 kJ/mol
# GULP energy per Si atom -5598.993305 kJ/mol
# Density = 2.848959 g / cm^3
# Si number density = 28.554582 Si / 1000 Ang^3
#
#
#
# Elastic Constant Matrix: (Units=GPa)
#
#
# Indices 1 2 3 4 5 6 
#
# 1 170.1405 49.9120 55.3332 1.3970 24.6372 11.1049
# 2 49.9120 99.1428 41.2101 14.7055 2.0846 13.5345
# 3 55.3332 41.2101 223.3972 8.8865 22.3528 -7.1671
# 4 1.3970 14.7055 8.8865 47.5350 1.0776 -2.0390
# 5 24.6372 2.0846 22.3528 1.0776 55.5165 2.4789
# 6 11.1049 13.5345 -7.1671 -2.0390 2.4789 45.7830
#
#
#
# Elastic Compliance Matrix: (Units=1/GPa)
#
#
# Indices 1 2 3 4 5 6 
#
# 1 0.007678 -0.003411 -0.001057 0.001056 -0.002838 -0.000819
# 2 -0.003411 0.013628 -0.001830 -0.003980 0.001985 -0.003773
# 3 -0.001057 -0.001830 0.005309 -0.000284 -0.001671 0.001706
# 4 0.001056 -0.003980 -0.000284 0.022389 -0.000725 0.001912
# 5 -0.002838 0.001985 -0.001671 -0.000725 0.019941 -0.001272
# 6 -0.000819 -0.003773 0.001706 0.001912 -0.001272 0.023577
#
#
# Mechanical properties :
#
#
# Convention : Reuss Voigt Hill
#
# Bulk Modulus (GPa) = 71.33631 87.28791 79.31211
# Shear Modulus (GPa) = 45.54102 52.84858 49.19480
#
# Velocity S-wave (km/s) = 3.99792 4.30675 4.15521
# Velocity P-wave (km/s) = 6.80793 7.44083 7.13140
#
# Compressibility (1/GPa) = 0.01401811
#
# Stress axis : x y z
#
# Youngs Moduli (GPa) = 130.25070 73.37672 188.36207
#
# Poissons Ratio (x) = 0.25030 0.19905
# Poissons Ratio (y) = 0.44431 0.34478
# Poissons Ratio (z) = 0.13764 0.13431
#
# Static dielectric constant tensor:
#      x y z
#    x 2.189540 -0.025780 -0.011110 
#    y -0.025780 2.233890 0.027480 
#    z -0.011110 0.027480 2.257850 
# 
# From -- ./inp_files/96888.got.cif
#   From: 2010.05.17/outbox.cif.g08.bks.cpg/sg2_49_cif.got.tgz:96888.got - 2010.06.03 11:33:40.
