data_PCOD9095068
_publ_section_title
;
Structure prediction by ZEFSAII (Michael W. Deem and Ramdas Pophale) SiO2 
 PCOD9095068
Probable space group: P -1
;
_chemical_formula_sum "Si O2"
_cell_formula_units_Z 16
_cell_length_a 7.784862
_cell_length_b 15.273471
_cell_length_c 11.429121
_cell_angle_alpha 68.517737
_cell_angle_beta 64.790199
_cell_angle_gamma 35.633583
_cell_volume 715.794500
_symmetry_space_group_name_H-M "P -1"
_symmetry_group_IT_number 2
_symmetry_cell_setting 'triclinic'
loop_
_space_group_symop_operation_xyz
x,y,z
-x,-y,-z
loop_
_atom_site_type_symbol
_atom_site_label
_atom_site_fract_x
_atom_site_fract_y
_atom_site_fract_z
Si Si1 0.971147 0.950898 0.877255
Si Si2 0.081583 0.110355 0.849105
Si Si3 0.708799 0.736666 0.480415
Si Si4 0.832628 0.984931 0.630385
Si Si5 0.713651 0.830689 0.683346
Si Si6 0.692021 0.638714 0.867084
Si Si7 0.675190 0.552763 0.675076
Si Si8 0.503463 0.547361 0.103687
O O1 0.329715 0.791058 0.870384
O O2 0.890606 0.968556 0.758727
O O3 0.810528 0.946516 0.020480
O O4 0.910315 0.080874 0.872459
O O5 0.830258 0.288080 0.839569
O O6 0.376514 0.992348 0.741547
O O7 0.517659 0.855400 0.374258
O O8 0.564971 0.691017 0.578891
O O9 0.053901 0.588180 0.415504
O O10 0.697119 0.803090 0.568199
O O11 0.902495 0.852752 0.630813
O O12 0.000000 0.000000 0.500000
O O13 0.805144 0.702897 0.796214
O O14 0.812709 0.536680 0.767583
O O15 0.699581 0.566178 0.012513
O O16 0.440034 0.561043 0.771460
O O17 0.500000 0.500000 0.000000
#
# Coordination Sequence:
#
# PCOD9095068 Si02
#       8
#     2   2   2   2   2   2   2   2
#     4   9  19  34  57  85 111 136 174 228 278 324
#     4   9  17  35  58  81 106 139 180 222 274 328
#     4  10  21  36  56  80 111 152 187 217 263 322
#     4  12  23  34  52  81 115 145 178 227 278 321
#     4  10  20  35  54  78 110 144 181 223 270 323
#     4   8  16  34  57  82 107 138 180 225 273 322
#     4   9  17  32  56  81 106 144 192 222 250 320
#     4   9  16  28  55  85 104 131 178 227 263 310
#
# _framework density 22.352784
#
# number of rings (size 3 to 8) (size 9 to 14) (size 15 to 20)
#    0.000    2.500    0.000    4.125    0.000    1.500 
#    0.000    0.000    0.000   30.750    0.000   56.000 
#    0.000    0.000    0.000    0.000    0.000    0.125 
#
# Total GULP energy -89221.612530 kJ/mol
# GULP energy per Si atom -5576.350783 kJ/mol
# Density = 2.230191 g / cm^3
# Si number density = 22.352784 Si / 1000 Ang^3
#
#
#
# Elastic Constant Matrix: (Units=GPa)
#
#
# Indices 1 2 3 4 5 6 
#
# 1 82.7327 37.1086 46.7846 -13.8388 -9.4758 26.7604
# 2 37.1086 98.3174 49.8377 13.1931 6.7574 27.7721
# 3 46.7846 49.8377 105.3582 -0.3360 3.2059 14.8967
# 4 -13.8388 13.1931 -0.3360 55.6185 10.4438 -6.7033
# 5 -9.4758 6.7574 3.2059 10.4438 32.4807 -8.8541
# 6 26.7604 27.7721 14.8967 -6.7033 -8.8541 23.8045
#
#
#
# Elastic Compliance Matrix: (Units=1/GPa)
#
#
# Indices 1 2 3 4 5 6 
#
# 1 0.023739 0.000556 -0.007807 0.003009 0.000806 -0.021302
# 2 0.000556 0.023274 -0.006876 -0.007117 -0.009635 -0.029062
# 3 -0.007807 -0.006876 0.015204 0.000772 -0.000613 0.007274
# 4 0.003009 -0.007117 0.000772 0.022004 -0.002108 0.009850
# 5 0.000806 -0.009635 -0.000613 -0.002108 0.040647 0.025243
# 6 -0.021302 -0.029062 0.007274 0.009850 0.025243 0.107473
#
#
# Mechanical properties :
#
#
# Convention : Reuss Voigt Hill
#
# Bulk Modulus (GPa) = 29.44604 61.54113 45.49358
# Shear Modulus (GPa) = 18.38807 32.55923 25.47365
#
# Velocity S-wave (km/s) = 2.87126 3.82069 3.37949
# Velocity P-wave (km/s) = 4.91875 6.85967 5.96864
#
# Compressibility (1/GPa) = 0.03396042
#
# Stress axis : x y z
#
# Youngs Moduli (GPa) = 42.12549 42.96711 65.77424
#
# Poissons Ratio (x) = -0.02388 0.51351
# Poissons Ratio (y) = -0.02341 0.45228
# Poissons Ratio (z) = 0.32888 0.29545
#
# Static dielectric constant tensor:
#      x y z
#    x 1.866090 0.008680 -0.075120 
#    y 0.008680 1.831120 -0.032320 
#    z -0.075120 -0.032320 1.868180 
# 
# From -- ./inp_files/395732.got.cif
#   From: 2010.05.17/outbox.cif.g08.bks.cpg/sg2_198_cif.got.tgz:395732.got - 2010.06.03 11:33:40.
