data_PCOD9095404
_publ_section_title
;
Structure prediction by ZEFSAII (Michael W. Deem and Ramdas Pophale) SiO2 
 PCOD9095404
Probable space group: P -1
;
_chemical_formula_sum "Si O2"
_cell_formula_units_Z 16
_cell_length_a 18.199116
_cell_length_b 9.662103
_cell_length_c 9.340271
_cell_angle_alpha 49.333478
_cell_angle_beta 53.731139
_cell_angle_gamma 32.788950
_cell_volume 670.817100
_symmetry_space_group_name_H-M "P -1"
_symmetry_group_IT_number 2
_symmetry_cell_setting 'triclinic'
loop_
_space_group_symop_operation_xyz
x,y,z
-x,-y,-z
loop_
_atom_site_type_symbol
_atom_site_label
_atom_site_fract_x
_atom_site_fract_y
_atom_site_fract_z
Si Si1 0.134267 0.916796 0.932033
Si Si2 0.158418 0.240495 0.528776
Si Si3 0.715720 0.436464 0.366243
Si Si4 0.851293 0.449210 0.427066
Si Si5 0.424533 0.555951 0.262914
Si Si6 0.989324 0.885020 0.782113
Si Si7 0.565685 0.081590 0.632827
Si Si8 0.408749 0.378509 0.099179
O O1 0.172066 0.010845 0.710553
O O2 0.265383 0.603944 0.029962
O O3 0.089522 0.087247 0.015857
O O4 0.000000 0.000000 0.000000
O O5 0.179837 0.345413 0.567005
O O6 0.279947 0.109593 0.367650
O O7 0.000000 0.500000 0.500000
O O8 0.724202 0.578037 0.388062
O O9 0.696778 0.283552 0.588580
O O10 0.860986 0.257392 0.249797
O O11 0.574744 0.667956 0.287037
O O12 0.972272 0.298906 0.272610
O O13 0.904817 0.188428 0.623721
O O14 0.478813 0.674223 0.082759
O O15 0.539429 0.259858 0.409639
O O16 0.392804 0.507335 0.181618
O O17 0.558625 0.879947 0.741043
#
# Coordination Sequence:
#
# PCOD9095404 Si02
#       8
#     2   2   2   2   2   2   2   2
#     4  12  24  39  60  87 120 157 210 251 293 371
#     4  12  24  39  59  88 122 160 205 249 306 356
#     4   8  17  34  56  85 120 152 190 242 301 349
#     4   9  19  35  61  87 117 164 190 247 301 351
#     4   9  19  31  54  87 116 150 192 243 299 346
#     4   9  19  37  59  89 116 161 198 242 306 356
#     4  10  20  35  57  85 124 150 198 250 296 353
#     4  11  20  33  57  89 116 157 199 251 298 344
#
# _framework density 23.851510000000001
#
# number of rings (size 3 to 8) (size 9 to 14) (size 15 to 20)
#    1.500    0.500    1.250    4.125    1.750    0.500 
#    0.000    1.250    0.000    9.750    0.000    0.000 
#    0.000    0.000    0.000    0.000    0.000    0.000 
#
# Total GULP energy -89180.249722 kJ/mol
# GULP energy per Si atom -5573.765608 kJ/mol
# Density = 2.379722 g / cm^3
# Si number density = 23.851510 Si / 1000 Ang^3
#
#
#
# Elastic Constant Matrix: (Units=GPa)
#
#
# Indices 1 2 3 4 5 6 
#
# 1 69.2459 24.5616 12.3233 -5.6713 -10.5005 -1.7139
# 2 24.5616 95.9412 15.0523 5.1389 -3.5366 -34.0096
# 3 12.3233 15.0523 53.6297 2.1999 -23.3009 -10.5628
# 4 -5.6713 5.1389 2.1999 38.5536 -6.9220 1.6738
# 5 -10.5005 -3.5366 -23.3009 -6.9220 25.7714 -0.1086
# 6 -1.7139 -34.0096 -10.5628 1.6738 -0.1086 47.6400
#
#
#
# Elastic Compliance Matrix: (Units=1/GPa)
#
#
# Indices 1 2 3 4 5 6 
#
# 1 0.018057 -0.005927 -0.000011 0.005022 0.007867 -0.003742
# 2 -0.005927 0.016312 -0.002301 -0.003984 -0.003280 0.011054
# 3 -0.000011 -0.002301 0.033921 0.003751 0.031381 0.005818
# 4 0.005022 -0.003984 0.003751 0.029411 0.012779 -0.002836
# 5 0.007867 -0.003280 0.031381 0.012779 0.073383 0.004618
# 6 -0.003742 0.011054 0.005818 -0.002836 0.004618 0.030148
#
#
# Mechanical properties :
#
#
# Convention : Reuss Voigt Hill
#
# Bulk Modulus (GPa) = 19.29983 35.85460 27.57722
# Shear Modulus (GPa) = 21.27839 33.51829 27.39834
#
# Velocity S-wave (km/s) = 2.99008 3.75279 3.39293
# Velocity P-wave (km/s) = 4.47549 5.81747 5.19003
#
# Compressibility (1/GPa) = 0.05181391
#
# Stress axis : x y z
#
# Youngs Moduli (GPa) = 55.38012 61.30343 29.48008
#
# Poissons Ratio (x) = 0.36332 0.00031
# Poissons Ratio (y) = 0.32821 0.06784
# Poissons Ratio (z) = 0.00059 0.14107
#
# Static dielectric constant tensor:
#      x y z
#    x 1.969870 -0.026040 0.052600 
#    y -0.026040 1.960480 0.043020 
#    z 0.052600 0.043020 1.895480 
# 
# From -- ./inp_files/470286.got.cif
#   From: 2010.05.17/outbox.cif.g08.bks.cpg/sg2_236_cif.got.tgz:470286.got - 2010.06.03 11:33:40.
