data_PCOD9095790
_publ_section_title
;
Structure prediction by ZEFSAII (Michael W. Deem and Ramdas Pophale) SiO2 
 PCOD9095790
Probable space group: P -1
;
_chemical_formula_sum "Si O2"
_cell_formula_units_Z 16
_cell_length_a 8.635444
_cell_length_b 7.472692
_cell_length_c 13.466971
_cell_angle_alpha 109.878584
_cell_angle_beta 100.325515
_cell_angle_gamma 51.393690
_cell_volume 637.994900
_symmetry_space_group_name_H-M "P -1"
_symmetry_group_IT_number 2
_symmetry_cell_setting 'triclinic'
loop_
_space_group_symop_operation_xyz
x,y,z
-x,-y,-z
loop_
_atom_site_type_symbol
_atom_site_label
_atom_site_fract_x
_atom_site_fract_y
_atom_site_fract_z
Si Si1 0.167704 0.572829 0.841092
Si Si2 0.783191 0.575442 0.966584
Si Si3 0.333243 0.786385 0.533490
Si Si4 0.279038 0.004743 0.083874
Si Si5 0.959654 0.507882 0.656952
Si Si6 0.527293 0.878498 0.730036
Si Si7 0.550657 0.335279 0.147268
Si Si8 0.048146 0.144400 0.426243
O O1 0.265500 0.452907 0.934135
O O2 0.324345 0.572470 0.794118
O O3 0.955343 0.836086 0.886177
O O4 0.103457 0.427353 0.751255
O O5 0.696211 0.819724 0.945029
O O6 0.685185 0.480037 0.870145
O O7 0.000000 0.500000 0.000000
O O8 0.500000 0.500000 0.500000
O O9 0.422167 0.908953 0.619779
O O10 0.141778 0.852643 0.585991
O O11 0.248704 0.888835 0.432735
O O12 0.404942 0.966254 0.189677
O O13 0.350828 0.799377 0.972950
O O14 0.742435 0.621159 0.692351
O O15 0.948951 0.724230 0.644383
O O16 0.022751 0.311884 0.545895
O O17 0.414655 0.845317 0.796976
#
# Coordination Sequence:
#
# PCOD9095790 Si02
#       8
#     2   2   2   2   2   2   2   2
#     4  10  20  35  60  84 126 159 204 257 303 366
#     4   9  18  33  52  79 111 157 195 245 297 353
#     4  11  22  42  68  94 124 160 208 265 321 378
#     4   9  20  36  58  83 121 162 207 247 306 367
#     4  10  21  41  59  90 127 164 213 253 312 386
#     4  10  20  36  61  84 122 164 205 257 310 378
#     4  11  20  35  59  86 122 162 204 255 302 362
#     4  10  23  41  66  91 126 166 204 266 320 368
#
# _framework density 25.078572999999999
#
# number of rings (size 3 to 8) (size 9 to 14) (size 15 to 20)
#    0.000    2.000    1.250    3.750    0.000    2.500 
#    0.000    0.000   24.750    0.000    0.000    0.000 
#    0.000    0.000    0.000    0.000    0.000    0.000 
#
# Total GULP energy -89233.327675 kJ/mol
# GULP energy per Si atom -5577.082980 kJ/mol
# Density = 2.502149 g / cm^3
# Si number density = 25.078573 Si / 1000 Ang^3
#
#
#
# Elastic Constant Matrix: (Units=GPa)
#
#
# Indices 1 2 3 4 5 6 
#
# 1 108.8467 11.9787 5.4821 -10.2674 16.6678 -12.8231
# 2 11.9787 66.2800 2.6009 -3.2125 2.1971 -10.1806
# 3 5.4821 2.6009 72.6447 -17.9983 12.4327 -8.0735
# 4 -10.2674 -3.2125 -17.9983 27.5497 -9.2281 -1.7026
# 5 16.6678 2.1971 12.4327 -9.2281 44.6653 -11.5823
# 6 -12.8231 -10.1806 -8.0735 -1.7026 -11.5823 31.5017
#
#
#
# Elastic Compliance Matrix: (Units=1/GPa)
#
#
# Indices 1 2 3 4 5 6 
#
# 1 0.010395 -0.001126 0.000992 0.003790 -0.002426 0.003435
# 2 -0.001126 0.016211 0.000534 0.002661 0.001477 0.005604
# 3 0.000992 0.000534 0.017368 0.011586 -0.001516 0.005096
# 4 0.003790 0.002661 0.011586 0.049027 0.008223 0.011045
# 5 -0.002426 0.001477 -0.001516 0.008223 0.027883 0.009798
# 6 0.003435 0.005604 0.005096 0.011045 0.009798 0.040459
#
#
# Mechanical properties :
#
#
# Convention : Reuss Voigt Hill
#
# Bulk Modulus (GPa) = 22.33482 31.98832 27.16157
# Shear Modulus (GPa) = 28.49536 35.92398 32.20967
#
# Velocity S-wave (km/s) = 3.37448 3.78889 3.58767
# Velocity P-wave (km/s) = 4.91000 5.65012 5.29301
#
# Compressibility (1/GPa) = 0.04477313
#
# Stress axis : x y z
#
# Youngs Moduli (GPa) = 96.20156 61.68703 57.57755
#
# Poissons Ratio (x) = 0.06945 -0.05711
# Poissons Ratio (y) = 0.10831 -0.03073
# Poissons Ratio (z) = -0.09542 -0.03293
#
# Static dielectric constant tensor:
#      x y z
#    x 2.022750 -0.041480 0.023720 
#    y -0.041480 2.063560 0.044450 
#    z 0.023720 0.044450 2.022900 
# 
# From -- ./inp_files/495488.got.cif
#   From: 2010.05.17/outbox.cif.g08.bks.cpg/sg2_248_cif.got.tgz:495488.got - 2010.06.03 11:33:40.
