data_PCOD9095224
_publ_section_title
;
Structure prediction by ZEFSAII (Michael W. Deem and Ramdas Pophale) SiO2 
 PCOD9095224
Probable space group: P -1
;
_chemical_formula_sum "Si O2"
_cell_formula_units_Z 16
_cell_length_a 19.982984
_cell_length_b 5.416104
_cell_length_c 10.543917
_cell_angle_alpha 89.381178
_cell_angle_beta 137.861950
_cell_angle_gamma 100.939833
_cell_volume 736.950244
_symmetry_space_group_name_H-M "P -1"
_symmetry_group_IT_number 2
_symmetry_cell_setting 'triclinic'
loop_
_space_group_symop_operation_xyz
x,y,z
-x,-y,-z
loop_
_atom_site_type_symbol
_atom_site_label
_atom_site_fract_x
_atom_site_fract_y
_atom_site_fract_z
Si Si1 0.601307 0.091260 0.729215
Si Si2 0.280542 0.331714 0.716242
Si Si3 0.317809 0.865022 0.910377
Si Si4 0.874714 0.368690 0.173642
Si Si5 0.925178 0.741210 0.437304
Si Si6 0.623658 0.611644 0.665881
Si Si7 0.118690 0.625756 0.121380
Si Si8 0.761436 0.794981 0.629035
O O1 0.663218 0.368399 0.761806
O O2 0.500000 0.000000 0.500000
O O3 0.652986 0.857461 0.795137
O O4 0.589799 0.130724 0.861083
O O5 0.310071 0.626680 0.805146
O O6 0.159613 0.235754 0.582378
O O7 0.283851 0.279252 0.573141
O O8 0.333142 0.137874 0.863824
O O9 0.212287 0.807985 0.851425
O O10 0.867687 0.634589 0.224977
O O11 0.994580 0.389012 0.379467
O O12 0.871626 0.334219 0.018596
O O13 0.000000 0.000000 0.500000
O O14 0.500000 0.500000 0.500000
O O15 0.664925 0.727575 0.589518
O O16 0.174735 0.408412 0.241900
O O17 0.172040 0.907178 0.257983
O O18 0.000000 0.500000 0.000000
#
# Coordination Sequence:
#
# PCOD9095224 Si02
#       8
#     2   2   2   2   2   2   2   2
#     4  10  21  39  68  98 126 154 203 269 336 386
#     4  11  24  38  60  88 126 169 212 256 316 381
#     4  11  21  38  61  92 120 163 211 262 306 386
#     4  10  22  35  57  87 117 163 218 259 308 362
#     4  10  20  35  56  80 121 163 208 257 306 359
#     4  10  21  40  68  96 122 161 211 267 330 393
#     4  12  27  41  62  93 134 177 221 268 318 387
#     4  12  25  43  64  91 133 176 214 271 331 381
#
# _framework density 21.711099999999998
#
# number of rings (size 3 to 8) (size 9 to 14) (size 15 to 20)
#    0.000    1.250    1.250    4.875    3.500    1.000 
#    0.000    0.000    0.000   18.000    0.000    0.000 
#    0.000    0.000    0.000    0.000    0.000    0.000 
#
# Total GULP energy -89087.292119 kJ/mol
# GULP energy per Si atom -5567.955757 kJ/mol
# Density = 2.166168 g / cm^3
# Si number density = 21.711100 Si / 1000 Ang^3
#
#
#
# Elastic Constant Matrix: (Units=GPa)
#
#
# Indices 1 2 3 4 5 6 
#
# 1 71.5460 33.5113 31.8311 19.8442 -13.1874 1.9641
# 2 33.5113 137.4457 29.6922 13.9164 -9.4856 -11.3255
# 3 31.8311 29.6922 113.2455 9.6864 -24.0818 -7.3776
# 4 19.8442 13.9164 9.6864 26.7500 -5.3973 -7.7843
# 5 -13.1874 -9.4856 -24.0818 -5.3973 39.6859 1.1528
# 6 1.9641 -11.3255 -7.3776 -7.7843 1.1528 14.0981
#
#
#
# Elastic Compliance Matrix: (Units=1/GPa)
#
#
# Indices 1 2 3 4 5 6 
#
# 1 0.024783 -0.004527 -0.005008 -0.019877 0.002016 -0.020850
# 2 -0.004527 0.009082 -0.000634 0.001325 0.000221 0.008308
# 3 -0.005008 -0.000634 0.011817 0.003109 0.005556 0.007635
# 4 -0.019877 0.001325 0.003109 0.062462 0.002940 0.039709
# 5 0.002016 0.000221 0.005556 0.002940 0.029634 0.002004
# 6 -0.020850 0.008308 0.007635 0.039709 0.002004 0.106267
#
#
# Mechanical properties :
#
#
# Convention : Reuss Voigt Hill
#
# Bulk Modulus (GPa) = 39.45769 56.92296 48.19033
# Shear Modulus (GPa) = 18.32639 31.25364 24.79002
#
# Velocity S-wave (km/s) = 2.90850 3.79822 3.38274
# Velocity P-wave (km/s) = 5.43071 6.74615 6.12385
#
# Compressibility (1/GPa) = 0.02534360
#
# Stress axis : x y z
#
# Youngs Moduli (GPa) = 40.35081 110.10902 84.62138
#
# Poissons Ratio (x) = 0.49844 0.42382
# Poissons Ratio (y) = 0.18266 0.05365
# Poissons Ratio (z) = 0.20209 0.06981
#
# Static dielectric constant tensor:
#      x y z
#    x 3.530360 -0.458950 1.331110 
#    y -0.458950 1.972000 -0.288240 
#    z 1.331110 -0.288240 2.770970 
# 
# From -- ./inp_files/90437.got.cif
#   From: 2010.05.17/outbox.cif.g08.bks.cpg/sg2_46_cif.got.tgz:90437.got - 2010.06.03 11:33:40.
