data_PCOD9095991
_publ_section_title
;
Structure prediction by ZEFSAII (Michael W. Deem and Ramdas Pophale) SiO2 
 PCOD9095991
Probable space group: P -1
;
_chemical_formula_sum "Si O2"
_cell_formula_units_Z 16
_cell_length_a 23.659468
_cell_length_b 14.044748
_cell_length_c 9.295437
_cell_angle_alpha 27.490140
_cell_angle_beta 34.858641
_cell_angle_gamma 28.078878
_cell_volume 660.812048
_symmetry_space_group_name_H-M "P -1"
_symmetry_group_IT_number 2
_symmetry_cell_setting 'triclinic'
loop_
_space_group_symop_operation_xyz
x,y,z
-x,-y,-z
loop_
_atom_site_type_symbol
_atom_site_label
_atom_site_fract_x
_atom_site_fract_y
_atom_site_fract_z
Si Si1 0.013839 0.741665 0.277294
Si Si2 0.965091 0.835308 0.929461
Si Si3 0.706121 0.644574 0.719058
Si Si4 0.825277 0.674486 0.911491
Si Si5 0.244372 0.069358 0.978267
Si Si6 0.581797 0.497388 0.701942
Si Si7 0.746886 0.286491 0.880403
Si Si8 0.361837 0.999717 0.385397
O O1 0.154080 0.514724 0.309735
O O2 0.979064 0.731266 0.200745
O O3 0.927871 0.715214 0.594300
O O4 0.000000 0.000000 0.000000
O O5 0.873294 0.862253 0.961650
O O6 0.101820 0.630137 0.860654
O O7 0.889069 0.129497 0.750025
O O8 0.686025 0.843572 0.375832
O O9 0.699556 0.440971 0.920102
O O10 0.628501 0.804151 0.803250
O O11 0.711287 0.855283 0.800142
O O12 0.794171 0.778770 0.997486
O O13 0.339277 0.764991 0.198882
O O14 0.679923 0.478233 0.629828
O O15 0.495569 0.736046 0.461233
O O16 0.500000 0.500000 0.000000
O O17 0.715405 0.080930 0.251817
#
# Coordination Sequence:
#
# PCOD9095991 Si02
#       8
#     2   2   2   2   2   2   2   2
#     4  12  21  35  59  90 115 154 200 233 281 354
#     4  11  19  37  57  80 120 154 190 233 284 349
#     4  12  20  35  63  87 116 152 198 237 289 350
#     4  12  22  36  59  85 122 156 188 239 296 346
#     4  11  23  37  57  87 117 157 193 237 301 342
#     4   9  19  40  61  84 113 149 204 244 283 345
#     4  10  20  35  61  91 110 144 204 246 275 339
#     4  11  20  39  62  84 113 156 198 244 286 337
#
# _framework density 24.212633
#
# number of rings (size 3 to 8) (size 9 to 14) (size 15 to 20)
#    0.000    1.000    8.750    0.750    0.000    1.000 
#    0.000    3.750    0.000    0.750    0.000    0.000 
#    0.000    0.000    0.000    0.000    0.000    0.000 
#
# Total GULP energy -89196.486772 kJ/mol
# GULP energy per Si atom -5574.780423 kJ/mol
# Density = 2.415752 g / cm^3
# Si number density = 24.212633 Si / 1000 Ang^3
#
#
#
# Elastic Constant Matrix: (Units=GPa)
#
#
# Indices 1 2 3 4 5 6 
#
# 1 84.0261 63.0253 13.3585 -19.4306 21.2253 10.4087
# 2 63.0253 138.1835 25.2793 -37.7286 11.9672 9.4879
# 3 13.3585 25.2793 34.8051 -7.7057 -0.0225 0.8454
# 4 -19.4306 -37.7286 -7.7057 45.1428 -4.3302 12.8965
# 5 21.2253 11.9672 -0.0225 -4.3302 29.1855 -11.1136
# 6 10.4087 9.4879 0.8454 12.8965 -11.1136 53.0720
#
#
#
# Elastic Compliance Matrix: (Units=1/GPa)
#
#
# Indices 1 2 3 4 5 6 
#
# 1 0.024083 -0.007213 -0.002818 0.004527 -0.016948 -0.008038
# 2 -0.007213 0.014175 -0.005527 0.008677 -0.000521 -0.003249
# 3 -0.002818 -0.005527 0.033738 -0.000188 0.005122 0.002122
# 4 0.004527 0.008677 -0.000188 0.034157 -0.006380 -0.012072
# 5 -0.016948 -0.000521 0.005122 -0.006380 0.051856 0.015745
# 6 -0.008038 -0.003249 0.002122 -0.012072 0.015745 0.027196
#
#
# Mechanical properties :
#
#
# Convention : Reuss Voigt Hill
#
# Bulk Modulus (GPa) = 24.46227 51.14898 37.80562
# Shear Modulus (GPa) = 21.74401 35.83683 28.79042
#
# Velocity S-wave (km/s) = 2.99999 3.85136 3.45202
# Velocity P-wave (km/s) = 4.70372 6.39907 5.61574
#
# Compressibility (1/GPa) = 0.04087929
#
# Stress axis : x y z
#
# Youngs Moduli (GPa) = 41.52284 70.54636 29.64046
#
# Poissons Ratio (x) = 0.50885 0.08352
# Poissons Ratio (y) = 0.29950 0.16384
# Poissons Ratio (z) = 0.11701 0.38994
#
# Static dielectric constant tensor:
#      x y z
#    x 1.987750 -0.041800 -0.057320 
#    y -0.041800 1.998280 -0.043850 
#    z -0.057320 -0.043850 2.034910 
# 
# From -- ./inp_files/353328.got.cif
#   From: 2010.05.17/outbox.cif.g08.bks.cpg/sg2_177_cif.got.tgz:353328.got - 2010.06.03 11:33:40.
