data_PCOD9095379
_publ_section_title
;
Structure prediction by ZEFSAII (Michael W. Deem and Ramdas Pophale) SiO2 
 PCOD9095379
Probable space group: P -1
;
_chemical_formula_sum "Si O2"
_cell_formula_units_Z 16
_cell_length_a 21.759986
_cell_length_b 6.851406
_cell_length_c 12.007547
_cell_angle_alpha 125.471124
_cell_angle_beta 29.004567
_cell_angle_gamma 133.093246
_cell_volume 633.111130
_symmetry_space_group_name_H-M "P -1"
_symmetry_group_IT_number 2
_symmetry_cell_setting 'triclinic'
loop_
_space_group_symop_operation_xyz
x,y,z
-x,-y,-z
loop_
_atom_site_type_symbol
_atom_site_label
_atom_site_fract_x
_atom_site_fract_y
_atom_site_fract_z
Si Si1 0.348378 0.305063 0.119967
Si Si2 0.797459 0.372415 0.667218
Si Si3 0.226238 0.861470 0.591215
Si Si4 0.450170 0.197700 0.711029
Si Si5 0.800275 0.909867 0.083270
Si Si6 0.276792 0.411916 0.487199
Si Si7 0.897328 0.495731 0.029914
Si Si8 0.121516 0.532488 0.193285
O O1 0.277917 0.454309 0.204799
O O2 0.254929 0.221222 0.353239
O O3 0.500000 0.500000 0.000000
O O4 0.377666 0.120840 0.923417
O O5 0.742766 0.124632 0.584241
O O6 0.780724 0.320103 0.807867
O O7 0.969810 0.537971 0.439392
O O8 0.250470 0.104183 0.713599
O O9 0.292384 0.685921 0.490071
O O10 0.057935 0.679411 0.805397
O O11 0.582675 0.479094 0.624420
O O12 0.500000 0.000000 0.500000
O O13 0.338027 0.227291 0.818052
O O14 0.873457 0.219693 0.033957
O O15 0.901452 0.772391 0.857345
O O16 0.154294 0.348000 0.750128
O O17 0.819807 0.408172 0.005389
#
# Coordination Sequence:
#
# PCOD9095379 Si02
#       8
#     2   2   2   2   2   2   2   2
#     4   9  18  31  57  83 107 151 194 229 285 341
#     4   9  18  36  53  81 119 149 187 232 287 344
#     4   9  18  33  58  81 114 151 189 231 285 338
#     4  11  18  31  56  86 107 144 199 231 281 337
#     4  11  20  35  59  83 113 151 194 239 279 336
#     4   9  17  32  54  81 111 148 187 237 278 337
#     4  10  20  35  57  84 118 148 196 231 287 340
#     4  10  21  36  59  82 120 151 190 236 283 347
#
# _framework density 25.272024999999999
#
# number of rings (size 3 to 8) (size 9 to 14) (size 15 to 20)
#    0.000    2.250    3.750    1.500    0.000    2.000 
#    0.000    6.250   11.000    0.000    0.000    4.375 
#    0.000    0.000    0.000    0.000    0.000    0.000 
#
# Total GULP energy -89288.899154 kJ/mol
# GULP energy per Si atom -5580.556197 kJ/mol
# Density = 2.521450 g / cm^3
# Si number density = 25.272025 Si / 1000 Ang^3
#
#
#
# Elastic Constant Matrix: (Units=GPa)
#
#
# Indices 1 2 3 4 5 6 
#
# 1 204.7186 39.5045 72.0918 7.7988 35.8165 32.1529
# 2 39.5045 56.4587 33.9743 24.9934 12.5588 19.0455
# 3 72.0918 33.9743 140.5843 33.3094 22.7890 6.1212
# 4 7.7988 24.9934 33.3094 30.9016 19.4730 7.9868
# 5 35.8165 12.5588 22.7890 19.4730 63.0438 5.4631
# 6 32.1529 19.0455 6.1212 7.9868 5.4631 43.6079
#
#
#
# Elastic Compliance Matrix: (Units=1/GPa)
#
#
# Indices 1 2 3 4 5 6 
#
# 1 0.009212 -0.006175 -0.005211 0.013230 -0.005767 -0.005064
# 2 -0.006175 0.035770 0.001099 -0.030710 0.006022 -0.006353
# 3 -0.005211 0.001099 0.012701 -0.016081 0.002755 0.004179
# 4 0.013230 -0.030710 -0.016081 0.086783 -0.021762 -0.007253
# 5 -0.005767 0.006022 0.002755 -0.021762 0.023467 0.002282
# 6 -0.005064 -0.006353 0.004179 -0.007253 0.002282 0.029896
#
#
# Mechanical properties :
#
#
# Convention : Reuss Voigt Hill
#
# Bulk Modulus (GPa) = 26.94733 76.98919 51.96826
# Shear Modulus (GPa) = 21.66632 44.59005 33.12818
#
# Velocity S-wave (km/s) = 2.93119 4.20504 3.62451
# Velocity P-wave (km/s) = 4.70551 7.35573 6.17449
#
# Compressibility (1/GPa) = 0.03710943
#
# Stress axis : x y z
#
# Youngs Moduli (GPa) = 108.55773 27.95622 78.73290
#
# Poissons Ratio (x) = 0.17264 0.41025
# Poissons Ratio (y) = 0.67039 -0.08654
# Poissons Ratio (z) = 0.56565 -0.03073
#
# Static dielectric constant tensor:
#      x y z
#    x 2.031510 -0.008450 0.039970 
#    y -0.008450 2.037380 -0.001830 
#    z 0.039970 -0.001830 2.097190 
# 
# From -- ./inp_files/470108.got.cif
#   From: 2010.05.17/outbox.cif.g08.bks.cpg/sg2_236_cif.got.tgz:470108.got - 2010.06.03 11:33:40.
