data_PCOD9095610
_publ_section_title
;
Structure prediction by ZEFSAII (Michael W. Deem and Ramdas Pophale) SiO2 
 PCOD9095610
Probable space group: P -1
;
_chemical_formula_sum "Si O2"
_cell_formula_units_Z 16
_cell_length_a 15.112500
_cell_length_b 19.737154
_cell_length_c 11.620117
_cell_angle_alpha 149.584735
_cell_angle_beta 127.421755
_cell_angle_gamma 30.241081
_cell_volume 744.578944
_symmetry_space_group_name_H-M "P -1"
_symmetry_group_IT_number 2
_symmetry_cell_setting 'triclinic'
loop_
_space_group_symop_operation_xyz
x,y,z
-x,-y,-z
loop_
_atom_site_type_symbol
_atom_site_label
_atom_site_fract_x
_atom_site_fract_y
_atom_site_fract_z
Si Si1 0.820555 0.698579 0.008121
Si Si2 0.113663 0.176023 0.566969
Si Si3 0.883007 0.191255 0.294563
Si Si4 0.115124 0.528473 0.623321
Si Si5 0.457001 0.873241 0.198704
Si Si6 0.607380 0.704282 0.712453
Si Si7 0.766687 0.627371 0.265698
Si Si8 0.707685 0.105664 0.115821
O O1 0.633617 0.815744 0.966992
O O2 0.922102 0.475059 0.836514
O O3 0.008150 0.543440 0.841994
O O4 0.779828 0.871734 0.304895
O O5 0.028975 0.113045 0.391391
O O6 0.274401 0.026516 0.369725
O O7 0.759263 0.437982 0.498201
O O8 0.739599 0.229534 0.302220
O O9 0.000000 0.000000 0.000000
O O10 0.302346 0.353029 0.424319
O O11 0.198761 0.480685 0.745639
O O12 0.000000 0.500000 0.500000
O O13 0.934185 0.809933 0.848918
O O14 0.669290 0.650332 0.112716
O O15 0.399169 0.083326 0.423151
O O16 0.435342 0.804201 0.969219
O O17 0.385720 0.860393 0.790242
#
# Coordination Sequence:
#
# PCOD9095610 Si02
#       8
#     2   2   2   2   2   2   2   2
#     4   9  18  34  55  90 124 156 196 262 321 368
#     4   9  18  32  59  88 122 156 199 264 322 360
#     4  11  20  41  65  92 128 171 217 271 316 369
#     4  12  22  43  61  93 140 173 202 263 339 384
#     4  10  20  35  58  94 122 162 213 256 310 378
#     4  11  24  39  65  98 125 169 222 262 318 389
#     4  10  21  36  58  88 132 164 200 260 321 380
#     4  12  24  40  67  95 127 171 219 265 317 384
#
# _framework density 21.488654
#
# number of rings (size 3 to 8) (size 9 to 14) (size 15 to 20)
#    0.000    1.500    5.000    1.125    8.750    0.500 
#    2.250    0.000    0.000    3.750    0.000    0.000 
#    0.000    0.000    0.000    0.000    0.000    0.000 
#
# Total GULP energy -89340.685424 kJ/mol
# GULP energy per Si atom -5583.792839 kJ/mol
# Density = 2.143974 g / cm^3
# Si number density = 21.488654 Si / 1000 Ang^3
#
#
#
# Elastic Constant Matrix: (Units=GPa)
#
#
# Indices 1 2 3 4 5 6 
#
# 1 141.6460 51.6919 40.1748 -18.5797 -17.6985 -15.1488
# 2 51.6919 72.8457 27.2945 -12.9819 6.0877 -3.2959
# 3 40.1748 27.2945 84.5720 -17.0087 -2.1025 -4.9794
# 4 -18.5797 -12.9819 -17.0087 32.9152 -0.6485 2.8796
# 5 -17.6985 6.0877 -2.1025 -0.6485 36.0342 -3.3261
# 6 -15.1488 -3.2959 -4.9794 2.8796 -3.3261 30.2702
#
#
#
# Elastic Compliance Matrix: (Units=1/GPa)
#
#
# Indices 1 2 3 4 5 6 
#
# 1 0.012571 -0.008016 -0.002377 0.002366 0.007957 0.005677
# 2 -0.008016 0.021519 -0.003020 0.002531 -0.008007 -0.003286
# 3 -0.002377 -0.003020 0.015009 0.005187 0.000358 0.000497
# 4 0.002366 0.002531 0.005187 0.035505 0.001594 -0.000889
# 5 0.007957 -0.008007 0.000358 0.001594 0.033682 0.006718
# 6 0.005677 -0.003286 0.000497 -0.000889 0.006718 0.036423
#
#
# Mechanical properties :
#
#
# Convention : Reuss Voigt Hill
#
# Bulk Modulus (GPa) = 44.89774 59.70955 52.30364
# Shear Modulus (GPa) = 26.46049 31.83742 29.14896
#
# Velocity S-wave (km/s) = 3.51290 3.85332 3.68704
# Velocity P-wave (km/s) = 6.11498 6.90249 6.52063
#
# Compressibility (1/GPa) = 0.02227283
#
# Stress axis : x y z
#
# Youngs Moduli (GPa) = 79.54751 46.46955 66.62528
#
# Poissons Ratio (x) = 0.37252 0.15834
# Poissons Ratio (y) = 0.63769 0.20124
# Poissons Ratio (z) = 0.18905 0.14036
#
# Static dielectric constant tensor:
#      x y z
#    x 1.826030 -0.014500 -0.038130 
#    y -0.014500 1.846780 0.000080 
#    z -0.038130 0.000080 1.800420 
# 
# From -- ./inp_files/457553.got.cif
#   From: 2010.05.17/outbox.cif.g08.bks.cpg/sg2_229_cif.got.tgz:457553.got - 2010.06.03 11:33:40.
