data_PCOD9095845
_publ_section_title
;
Structure prediction by ZEFSAII (Michael W. Deem and Ramdas Pophale) SiO2 
 PCOD9095845
Probable space group: P -1
;
_chemical_formula_sum "Si O2"
_cell_formula_units_Z 12
_cell_length_a 14.380689
_cell_length_b 12.718540
_cell_length_c 18.197623
_cell_angle_alpha 149.671541
_cell_angle_beta 20.278939
_cell_angle_gamma 149.532489
_cell_volume 555.919568
_symmetry_space_group_name_H-M "P -1"
_symmetry_group_IT_number 2
_symmetry_cell_setting 'triclinic'
loop_
_space_group_symop_operation_xyz
x,y,z
-x,-y,-z
loop_
_atom_site_type_symbol
_atom_site_label
_atom_site_fract_x
_atom_site_fract_y
_atom_site_fract_z
Si Si1 0.352357 0.223720 0.914857
Si Si2 0.692081 0.276498 0.543966
Si Si3 0.749123 0.246035 0.324258
Si Si4 0.638507 0.062656 0.856050
Si Si5 0.743205 0.731011 0.831884
Si Si6 0.246846 0.366665 0.553958
O O1 0.510017 0.244198 0.732700
O O2 0.335887 0.970911 0.793086
O O3 0.434066 0.341147 0.004215
O O4 0.057998 0.257669 0.130886
O O5 0.576936 0.216313 0.511086
O O6 0.789903 0.540902 0.630521
O O7 0.942506 0.171769 0.311194
O O8 0.759458 0.460774 0.401229
O O9 0.933624 0.261338 0.757552
O O10 0.688925 0.846080 0.654507
O O11 0.413892 0.132629 0.014939
O O12 0.500000 0.000000 0.000000
O O13 0.500000 0.500000 0.500000
#
# Coordination Sequence:
#
# PCOD9095845 Si02
#       6
#     2   2   2   2   2   2
#     4  10  20  36  60  88 122 158 196 253 314 370
#     4  10  20  35  60  89 119 156 199 252 311 373
#     4  10  21  37  58  89 122 157 203 252 309 370
#     4  11  25  44  66  92 126 170 216 261 311 372
#     4  10  21  36  58  89 119 155 205 252 307 370
#     4  11  25  44  65  92 128 170 214 262 312 369
#
# _framework density 21.585857000000001
#
# number of rings (size 3 to 8) (size 9 to 14) (size 15 to 20)
#    0.000    1.667    0.000    4.000    0.000    7.333 
#    0.000    1.667    0.000    0.000    0.000    0.000 
#    0.000    0.000    0.000    0.000    0.000    0.000 
#
# Total GULP energy -66837.924144 kJ/mol
# GULP energy per Si atom -5569.827012 kJ/mol
# Density = 2.153673 g / cm^3
# Si number density = 21.585857 Si / 1000 Ang^3
#
#
#
# Elastic Constant Matrix: (Units=GPa)
#
#
# Indices 1 2 3 4 5 6 
#
# 1 138.5033 57.6372 68.5789 -2.4563 11.2852 -27.7017
# 2 57.6372 86.5302 47.7110 -2.1197 -5.8640 -4.8037
# 3 68.5789 47.7110 114.3931 -3.8483 3.3744 -22.3278
# 4 -2.4563 -2.1197 -3.8483 38.9219 -11.6082 4.6994
# 5 11.2852 -5.8640 3.3744 -11.6082 35.1799 12.3842
# 6 -27.7017 -4.8037 -22.3278 4.6994 12.3842 39.6825
#
#
#
# Elastic Compliance Matrix: (Units=1/GPa)
#
#
# Indices 1 2 3 4 5 6 
#
# 1 0.016183 -0.009366 -0.003047 -0.005169 -0.012757 0.013042
# 2 -0.009366 0.021369 -0.005838 0.005346 0.013100 -0.011958
# 3 -0.003047 -0.005838 0.014389 -0.001113 -0.004092 0.006671
# 4 -0.005169 0.005346 -0.001113 0.032480 0.017964 -0.013041
# 5 -0.012757 0.013100 -0.004092 0.017964 0.050730 -0.027581
# 6 0.013042 -0.011958 0.006671 -0.013041 -0.027581 0.046762
#
#
# Mechanical properties :
#
#
# Convention : Reuss Voigt Hill
#
# Bulk Modulus (GPa) = 64.77607 76.36454 70.57031
# Shear Modulus (GPa) = 22.36510 33.79014 28.07762
#
# Velocity S-wave (km/s) = 3.22234 3.96078 3.61049
# Velocity P-wave (km/s) = 6.62709 7.50806 7.08129
#
# Compressibility (1/GPa) = 0.01543780
#
# Stress axis : x y z
#
# Youngs Moduli (GPa) = 61.79415 46.79573 69.49824
#
# Poissons Ratio (x) = 0.43830 0.21177
# Poissons Ratio (y) = 0.57878 0.40575
# Poissons Ratio (z) = 0.18829 0.27321
#
# Static dielectric constant tensor:
#      x y z
#    x 1.778170 0.001920 0.057300 
#    y 0.001920 1.990480 -0.067110 
#    z 0.057300 -0.067110 1.809080 
# 
# From -- ./inp_files/570571.got.cif
#   From: 2010.05.17/outbox.cif.g08.bks.cpg/sg2_286_cif.got.tgz:570571.got - 2010.06.03 11:33:40.
