data_PCOD9095173
_publ_section_title
;
Structure prediction by ZEFSAII (Michael W. Deem and Ramdas Pophale) SiO2 
 PCOD9095173
Probable space group: P -1
;
_chemical_formula_sum "Si O2"
_cell_formula_units_Z 16
_cell_length_a 14.550762
_cell_length_b 8.675968
_cell_length_c 9.657980
_cell_angle_alpha 107.064955
_cell_angle_beta 44.406583
_cell_angle_gamma 87.934154
_cell_volume 758.593630
_symmetry_space_group_name_H-M "P -1"
_symmetry_group_IT_number 2
_symmetry_cell_setting 'triclinic'
loop_
_space_group_symop_operation_xyz
x,y,z
-x,-y,-z
loop_
_atom_site_type_symbol
_atom_site_label
_atom_site_fract_x
_atom_site_fract_y
_atom_site_fract_z
Si Si1 0.616081 0.026497 0.191026
Si Si2 0.045787 0.426324 0.639229
Si Si3 0.731359 0.443438 0.481360
Si Si4 0.306673 0.084598 0.610226
Si Si5 0.093828 0.208277 0.274715
Si Si6 0.082416 0.941376 0.749828
Si Si7 0.433383 0.589633 0.741459
Si Si8 0.803958 0.504452 0.114083
O O1 0.665179 0.012111 0.296071
O O2 0.459323 0.022541 0.357338
O O3 0.606671 0.207873 0.184783
O O4 0.738203 0.874774 0.942720
O O5 0.961758 0.615806 0.711224
O O6 0.202214 0.424430 0.492451
O O7 0.046139 0.275297 0.497277
O O8 0.962684 0.431393 0.870761
O O9 0.805384 0.255236 0.415495
O O10 0.563243 0.513517 0.686047
O O11 0.784222 0.424602 0.259959
O O12 0.257022 0.288875 0.747892
O O13 0.181353 0.052213 0.655731
O O14 0.028989 0.072095 0.247134
O O15 0.000000 0.000000 0.000000
O O16 0.500000 0.500000 0.500000
O O17 0.296688 0.542127 0.899270
#
# Coordination Sequence:
#
# PCOD9095173 Si02
#       8
#     2   2   2   2   2   2   2   2
#     4  11  20  36  57  87 114 150 189 234 283 334
#     4  10  21  40  58  84 112 157 192 231 284 343
#     4  10  21  37  57  86 117 148 185 238 293 331
#     4  11  20  32  60  92 112 142 196 239 279 333
#     4  10  22  39  60  80 119 152 191 235 285 335
#     4  11  21  35  59  88 114 147 188 242 283 331
#     4  10  20  35  55  84 120 148 179 239 293 331
#     4  11  20  36  60  89 114 148 190 238 286 338
#
# _framework density 21.091661999999999
#
# number of rings (size 3 to 8) (size 9 to 14) (size 15 to 20)
#    0.000    1.500    5.000    2.625    1.750    0.000 
#    0.000    2.500    0.000    4.500    0.000    0.000 
#    0.000    0.000    0.000    0.000    0.000    0.000 
#
# Total GULP energy -89381.344077 kJ/mol
# GULP energy per Si atom -5586.334005 kJ/mol
# Density = 2.104366 g / cm^3
# Si number density = 21.091662 Si / 1000 Ang^3
#
#
#
# Elastic Constant Matrix: (Units=GPa)
#
#
# Indices 1 2 3 4 5 6 
#
# 1 41.4316 14.5188 28.2085 -0.9087 -15.4737 18.3310
# 2 14.5188 57.5215 22.5158 -5.5813 -16.8441 19.5155
# 3 28.2085 22.5158 81.0340 5.3976 -13.7880 16.0540
# 4 -0.9087 -5.5813 5.3976 15.8604 0.5613 -9.1353
# 5 -15.4737 -16.8441 -13.7880 0.5613 28.6161 -3.8494
# 6 18.3310 19.5155 16.0540 -9.1353 -3.8494 32.6612
#
#
#
# Elastic Compliance Matrix: (Units=1/GPa)
#
#
# Indices 1 2 3 4 5 6 
#
# 1 0.047014 0.005549 -0.008864 -0.007446 0.021210 -0.024928
# 2 0.005549 0.027306 -0.004128 0.002142 0.015021 -0.015032
# 3 -0.008864 -0.004128 0.018398 -0.010852 0.001251 -0.004490
# 4 -0.007446 0.002142 -0.010852 0.085393 -0.005435 0.031477
# 5 0.021210 0.015021 0.001251 -0.005435 0.053721 -0.016683
# 6 -0.024928 -0.015032 -0.004490 0.031477 -0.016683 0.062635
#
#
# Mechanical properties :
#
#
# Convention : Reuss Voigt Hill
#
# Bulk Modulus (GPa) = 12.84809 34.49702 23.67256
# Shear Modulus (GPa) = 14.91215 23.07715 18.99465
#
# Velocity S-wave (km/s) = 2.66186 3.31136 3.00422
# Velocity P-wave (km/s) = 3.94362 5.56879 4.82512
#
# Compressibility (1/GPa) = 0.07783259
#
# Stress axis : x y z
#
# Youngs Moduli (GPa) = 21.27022 36.62168 54.35294
#
# Poissons Ratio (x) = -0.20322 0.48180
# Poissons Ratio (y) = -0.11803 0.22435
# Poissons Ratio (z) = 0.18855 0.15116
#
# Static dielectric constant tensor:
#      x y z
#    x 1.830260 0.018670 -0.024180 
#    y 0.018670 1.786320 -0.021880 
#    z -0.024180 -0.021880 1.718240 
# 
# From -- ./inp_files/401628.got.cif
#   From: 2010.05.17/outbox.cif.g08.bks.cpg/sg2_201_cif.got.tgz:401628.got - 2010.06.03 11:33:40.
