data_PCOD9095937
_publ_section_title
;
Structure prediction by ZEFSAII (Michael W. Deem and Ramdas Pophale) SiO2 
 PCOD9095937
Probable space group: P -1
;
_chemical_formula_sum "Si O2"
_cell_formula_units_Z 16
_cell_length_a 5.595452
_cell_length_b 21.074545
_cell_length_c 8.968888
_cell_angle_alpha 138.613209
_cell_angle_beta 105.418200
_cell_angle_gamma 70.868676
_cell_volume 660.280628
_symmetry_space_group_name_H-M "P -1"
_symmetry_group_IT_number 2
_symmetry_cell_setting 'triclinic'
loop_
_space_group_symop_operation_xyz
x,y,z
-x,-y,-z
loop_
_atom_site_type_symbol
_atom_site_label
_atom_site_fract_x
_atom_site_fract_y
_atom_site_fract_z
Si Si1 0.562545 0.634034 0.810378
Si Si2 0.660285 0.155884 0.999309
Si Si3 0.822240 0.855965 0.985838
Si Si4 0.858496 0.500954 0.134422
Si Si5 0.009807 0.619867 0.638132
Si Si6 0.408129 0.148870 0.390773
Si Si7 0.093673 0.899247 0.750473
Si Si8 0.475876 0.640600 0.143468
O O1 0.460222 0.746909 0.940569
O O2 0.808110 0.597911 0.686930
O O3 0.307155 0.593698 0.674058
O O4 0.612547 0.620166 0.969866
O O5 0.424765 0.103373 0.885954
O O6 0.756584 0.171809 0.215710
O O7 0.922492 0.104061 0.877497
O O8 0.924058 0.738200 0.817217
O O9 0.715680 0.859505 0.806914
O O10 0.976297 0.562135 0.381878
O O11 0.594736 0.576956 0.191486
O O12 0.790759 0.395991 0.980527
O O13 0.000000 0.500000 0.000000
O O14 0.690745 0.084357 0.301875
O O15 0.488822 0.250718 0.623175
O O16 0.159109 0.132601 0.412455
O O17 0.000000 0.000000 0.000000
#
# Coordination Sequence:
#
# PCOD9095937 Si02
#       8
#     2   2   2   2   2   2   2   2
#     4  10  23  39  64  89 123 171 219 257 313 383
#     4   8  16  30  53  81 114 146 193 243 294 359
#     4   8  14  29  51  78 101 150 192 236 288 348
#     4  11  27  42  64  89 130 170 221 276 319 374
#     4  10  21  40  61  83 121 165 215 265 311 359
#     4  10  20  35  61  85 125 163 200 255 313 376
#     4  10  20  35  62  97 123 154 207 263 313 376
#     4  11  26  42  60  95 127 172 219 263 324 381
#
# _framework density 24.232122
#
# number of rings (size 3 to 8) (size 9 to 14) (size 15 to 20)
#    0.000    2.250    1.250    0.375    7.000    2.000 
#    0.000    0.000    0.000    1.500    0.000    0.000 
#    0.000    0.000    0.000    0.000    0.000    0.000 
#
# Total GULP energy -89104.923018 kJ/mol
# GULP energy per Si atom -5569.057689 kJ/mol
# Density = 2.417697 g / cm^3
# Si number density = 24.232122 Si / 1000 Ang^3
#
#
#
# Elastic Constant Matrix: (Units=GPa)
#
#
# Indices 1 2 3 4 5 6 
#
# 1 233.9925 17.2448 26.1803 4.0108 5.3742 11.1697
# 2 17.2448 73.6935 11.3845 -1.6525 5.3822 5.4338
# 3 26.1803 11.3845 71.2023 4.4848 9.4647 0.9994
# 4 4.0108 -1.6525 4.4848 25.9136 4.6393 3.3960
# 5 5.3742 5.3822 9.4647 4.6393 25.4734 0.2050
# 6 11.1697 5.4338 0.9994 3.3960 0.2050 41.8580
#
#
#
# Elastic Compliance Matrix: (Units=1/GPa)
#
#
# Indices 1 2 3 4 5 6 
#
# 1 0.004556 -0.000751 -0.001496 -0.000324 -0.000179 -0.001055
# 2 -0.000751 0.014386 -0.001785 0.002036 -0.002574 -0.001777
# 3 -0.001496 -0.001785 0.015623 -0.001784 -0.004791 0.000426
# 4 -0.000324 0.002036 -0.001784 0.040797 -0.007102 -0.003410
# 5 -0.000179 -0.002574 -0.004791 -0.007102 0.042905 0.000862
# 6 -0.001055 -0.001777 0.000426 -0.003410 0.000862 0.024665
#
#
# Mechanical properties :
#
#
# Convention : Reuss Voigt Hill
#
# Bulk Modulus (GPa) = 37.73523 54.27860 46.00692
# Shear Modulus (GPa) = 31.28305 40.25425 35.76865
#
# Velocity S-wave (km/s) = 3.59691 4.08020 3.84615
# Velocity P-wave (km/s) = 5.73206 6.68172 6.22503
#
# Compressibility (1/GPa) = 0.02650043
#
# Stress axis : x y z
#
# Youngs Moduli (GPa) = 219.46807 69.51190 64.00732
#
# Poissons Ratio (x) = 0.05224 0.09577
# Poissons Ratio (y) = 0.16492 0.11425
# Poissons Ratio (z) = 0.32837 0.12408
#
# Static dielectric constant tensor:
#      x y z
#    x 2.154700 -0.020520 0.024550 
#    y -0.020520 2.079250 0.013490 
#    z 0.024550 0.013490 1.898470 
# 
# From -- ./inp_files/142427.got.cif
#   From: 2010.05.17/outbox.cif.g08.bks.cpg/sg2_72_cif.got.tgz:142427.got - 2010.06.03 11:33:40.
