data_PCOD9095197
_publ_section_title
;
Structure prediction by ZEFSAII (Michael W. Deem and Ramdas Pophale) SiO2 
 PCOD9095197
Probable space group: P -1
;
_chemical_formula_sum "Si O2"
_cell_formula_units_Z 14
_cell_length_a 22.293555
_cell_length_b 14.512307
_cell_length_c 6.894696
_cell_angle_alpha 76.710355
_cell_angle_beta 89.021182
_cell_angle_gamma 157.096639
_cell_volume 673.238419
_symmetry_space_group_name_H-M "P -1"
_symmetry_group_IT_number 2
_symmetry_cell_setting 'triclinic'
loop_
_space_group_symop_operation_xyz
x,y,z
-x,-y,-z
loop_
_atom_site_type_symbol
_atom_site_label
_atom_site_fract_x
_atom_site_fract_y
_atom_site_fract_z
Si Si1 0.333107 0.096799 0.283518
Si Si2 0.089220 0.735656 0.822738
Si Si3 0.808190 0.300872 0.708279
Si Si4 0.943025 0.202451 0.808051
Si Si5 0.273857 0.424483 0.959823
Si Si6 0.900302 0.762499 0.323218
Si Si7 0.589570 0.237356 0.909458
O O1 0.551862 0.388553 0.107581
O O2 0.288337 0.031402 0.547758
O O3 0.195732 0.808198 0.338159
O O4 0.245242 0.054663 0.191974
O O5 0.945737 0.548200 0.747965
O O6 0.093507 0.809255 0.971850
O O7 0.000000 0.500000 0.000000
O O8 0.865413 0.456766 0.454045
O O9 0.603528 0.990046 0.980454
O O10 0.994912 0.170340 0.814873
O O11 0.221750 0.363046 0.768735
O O12 0.331918 0.612885 0.957489
O O13 0.077244 0.091826 0.227698
O O14 0.754555 0.507332 0.617115
O O15 0.500000 0.000000 0.000000
#
# Coordination Sequence:
#
# PCOD9095197 Si02
#       7
#     2   2   2   2   2   2   2
#     4  10  21  38  58  89 123 158 206 251 304 370
#     4  11  19  32  59  87 126 161 191 253 318 355
#     4  10  20  35  55  95 127 150 200 254 315 363
#     4  11  21  36  60  91 122 160 203 252 304 366
#     4  10  26  45  62  89 128 169 208 251 310 371
#     4  11  25  44  63  89 128 170 207 252 307 373
#     4  11  23  40  67  95 122 159 210 261 313 364
#
# _framework density 20.795010999999999
#
# number of rings (size 3 to 8) (size 9 to 14) (size 15 to 20)
#    0.000    1.429    4.286    1.286    4.000    1.143 
#    0.000    0.714    0.000    0.000    0.000    0.000 
#    0.000    0.000    0.000    0.000    0.000    0.000 
#
# Total GULP energy -77941.752989 kJ/mol
# GULP energy per Si atom -5567.268071 kJ/mol
# Density = 2.074768 g / cm^3
# Si number density = 20.795011 Si / 1000 Ang^3
#
#
#
# Elastic Constant Matrix: (Units=GPa)
#
#
# Indices 1 2 3 4 5 6 
#
# 1 56.8237 16.1708 8.1596 5.0713 -10.1953 4.2991
# 2 16.1708 91.4288 38.3956 -14.1779 -10.9689 9.7628
# 3 8.1596 38.3956 105.1022 2.6483 -23.2385 4.9364
# 4 5.0713 -14.1779 2.6483 30.7109 -5.8948 -2.7400
# 5 -10.1953 -10.9689 -23.2385 -5.8948 25.2031 0.2718
# 6 4.2991 9.7628 4.9364 -2.7400 0.2718 29.5850
#
#
#
# Elastic Compliance Matrix: (Units=1/GPa)
#
#
# Indices 1 2 3 4 5 6 
#
# 1 0.020263 -0.003777 0.001590 -0.004080 0.007091 -0.002407
# 2 -0.003777 0.015635 -0.004868 0.008531 0.002816 -0.003034
# 3 0.001590 -0.004868 0.013634 -0.001735 0.010703 -0.001159
# 4 -0.004080 0.008531 -0.001735 0.039319 0.009642 0.001620
# 5 0.007091 0.002816 0.010703 0.009642 0.055931 -0.003366
# 6 -0.002407 -0.003034 -0.001159 0.001620 -0.003366 0.035526
#
#
# Mechanical properties :
#
#
# Convention : Reuss Voigt Hill
#
# Bulk Modulus (GPa) = 28.23063 42.08967 35.16015
# Shear Modulus (GPa) = 24.24534 29.80837 27.02686
#
# Velocity S-wave (km/s) = 3.41826 3.79019 3.60902
# Velocity P-wave (km/s) = 5.40227 6.27999 5.85759
#
# Compressibility (1/GPa) = 0.03542252
#
# Stress axis : x y z
#
# Youngs Moduli (GPa) = 49.35042 63.96068 73.34600
#
# Poissons Ratio (x) = 0.24157 -0.11664
# Poissons Ratio (y) = 0.18639 0.35706
# Poissons Ratio (z) = -0.07848 0.31137
#
# Static dielectric constant tensor:
#      x y z
#    x 1.883600 0.041530 -0.027500 
#    y 0.041530 1.785500 0.001390 
#    z -0.027500 0.001390 1.794300 
# 
# From -- ./inp_files/60330.got.cif
#   From: 2010.05.17/outbox.cif.g08.bks.cpg/sg2_31_cif.got.tgz:60330.got - 2010.06.03 11:33:40.
