data_PCOD9095750
_publ_section_title
;
Structure prediction by ZEFSAII (Michael W. Deem and Ramdas Pophale) SiO2 
 PCOD9095750
Probable space group: P -1
;
_chemical_formula_sum "Si O2"
_cell_formula_units_Z 14
_cell_length_a 9.423345
_cell_length_b 11.561114
_cell_length_c 12.657309
_cell_angle_alpha 110.597781
_cell_angle_beta 143.737540
_cell_angle_gamma 88.725047
_cell_volume 673.025266
_symmetry_space_group_name_H-M "P -1"
_symmetry_group_IT_number 2
_symmetry_cell_setting 'triclinic'
loop_
_space_group_symop_operation_xyz
x,y,z
-x,-y,-z
loop_
_atom_site_type_symbol
_atom_site_label
_atom_site_fract_x
_atom_site_fract_y
_atom_site_fract_z
Si Si1 0.625411 0.149298 0.253208
Si Si2 0.248575 0.328151 0.356044
Si Si3 0.880164 0.494396 0.808750
Si Si4 0.057061 0.919941 0.753952
Si Si5 0.704879 0.594529 0.062839
Si Si6 0.271162 0.549121 0.610384
Si Si7 0.911755 0.076325 0.561145
O O1 0.855993 0.158474 0.310274
O O2 0.661657 0.300782 0.346299
O O3 0.655044 0.080480 0.356675
O O4 0.339214 0.052362 0.997063
O O5 0.568904 0.374034 0.566010
O O6 0.140294 0.366067 0.195449
O O7 0.226617 0.436189 0.459764
O O8 0.075728 0.177747 0.256788
O O9 0.079813 0.461725 0.845985
O O10 0.000000 0.500000 0.000000
O O11 0.876771 0.983564 0.613209
O O12 0.862492 0.760965 0.236407
O O13 0.500000 0.500000 0.000000
O O14 0.519689 0.569689 0.840802
O O15 0.000000 0.500000 0.500000
O O16 0.000000 0.000000 0.500000
#
# Coordination Sequence:
#
# PCOD9095750 Si02
#       7
#     2   2   2   2   2   2   2
#     4  10  20  35  59  91 135 167 210 273 324 382
#     4  11  24  42  68  94 133 179 220 272 335 400
#     4  11  25  45  67  98 136 174 223 278 336 396
#     4  10  21  37  58  93 129 171 215 263 329 396
#     4  12  25  41  69 101 133 171 228 280 327 395
#     4  12  21  38  65  99 133 168 222 274 325 386
#     4  10  22  38  61  95 134 169 212 274 332 385
#
# _framework density 20.801596
#
# number of rings (size 3 to 8) (size 9 to 14) (size 15 to 20)
#    0.000    1.143    4.286    2.571    2.000    1.143 
#    0.000    0.714    0.000    8.571    0.000    0.000 
#    0.000    0.000    0.000    0.000    0.000    0.000 
#
# Total GULP energy -78199.469875 kJ/mol
# GULP energy per Si atom -5585.676420 kJ/mol
# Density = 2.075425 g / cm^3
# Si number density = 20.801596 Si / 1000 Ang^3
#
#
#
# Elastic Constant Matrix: (Units=GPa)
#
#
# Indices 1 2 3 4 5 6 
#
# 1 78.1884 21.8299 15.9258 -6.4649 19.8182 2.6814
# 2 21.8299 115.4089 17.6442 -26.5003 -0.8643 14.1025
# 3 15.9258 17.6442 53.7189 -33.1196 -7.7136 -6.2489
# 4 -6.4649 -26.5003 -33.1196 48.5367 -1.4060 -5.7945
# 5 19.8182 -0.8643 -7.7136 -1.4060 32.6349 -7.9759
# 6 2.6814 14.1025 -6.2489 -5.7945 -7.9759 31.9680
#
#
#
# Elastic Compliance Matrix: (Units=1/GPa)
#
#
# Indices 1 2 3 4 5 6 
#
# 1 0.021929 -0.003146 -0.017770 -0.012902 -0.020965 -0.011494
# 2 -0.003146 0.010812 0.000976 0.005880 0.002009 -0.002748
# 3 -0.017770 0.000976 0.057049 0.041381 0.032908 0.027923
# 4 -0.012902 0.005880 0.041381 0.053787 0.025643 0.022724
# 5 -0.020965 0.002009 0.032908 0.025643 0.058818 0.026628
# 6 -0.011494 -0.002748 0.027923 0.022724 0.026628 0.049678
#
#
# Mechanical properties :
#
#
# Convention : Reuss Voigt Hill
#
# Bulk Modulus (GPa) = 20.03636 39.79067 29.91351
# Shear Modulus (GPa) = 16.20273 35.42235 25.81254
#
# Velocity S-wave (km/s) = 2.79394 4.13106 3.52645
# Velocity P-wave (km/s) = 4.47897 6.47490 5.56711
#
# Compressibility (1/GPa) = 0.04990926
#
# Stress axis : x y z
#
# Youngs Moduli (GPa) = 45.60210 92.49201 17.52869
#
# Poissons Ratio (x) = 0.29099 0.31148
# Poissons Ratio (y) = 0.14347 -0.01710
# Poissons Ratio (z) = 0.81033 -0.09023
#
# Static dielectric constant tensor:
#      x y z
#    x 1.773080 0.009280 -0.029310 
#    y 0.009280 1.825470 -0.048310 
#    z -0.029310 -0.048310 1.745120 
# 
# From -- ./inp_files/314677.got.cif
#   From: 2010.05.17/outbox.cif.g08.bks.cpg/sg2_158_cif.got.tgz:314677.got - 2010.06.03 11:33:40.
