data_PCOD9095481
_publ_section_title
;
Structure prediction by ZEFSAII (Michael W. Deem and Ramdas Pophale) SiO2 
 PCOD9095481
Probable space group: P -1
;
_chemical_formula_sum "Si O2"
_cell_formula_units_Z 16
_cell_length_a 13.118151
_cell_length_b 9.240262
_cell_length_c 7.688212
_cell_angle_alpha 47.707884
_cell_angle_beta 87.763232
_cell_angle_gamma 67.113193
_cell_volume 600.239275
_symmetry_space_group_name_H-M "P -1"
_symmetry_group_IT_number 2
_symmetry_cell_setting 'triclinic'
loop_
_space_group_symop_operation_xyz
x,y,z
-x,-y,-z
loop_
_atom_site_type_symbol
_atom_site_label
_atom_site_fract_x
_atom_site_fract_y
_atom_site_fract_z
Si Si1 0.635441 0.418642 0.336691
Si Si2 0.750793 0.253958 0.840634
Si Si3 0.880251 0.360468 0.320265
Si Si4 0.360360 0.277979 0.375493
Si Si5 0.763324 0.976650 0.528795
Si Si6 0.935994 0.103379 0.200767
Si Si7 0.227134 0.163305 0.974218
Si Si8 0.533760 0.876209 0.884141
O O1 0.684398 0.346121 0.586610
O O2 0.744703 0.435748 0.234715
O O3 0.642742 0.211326 0.394015
O O4 0.524812 0.666796 0.135657
O O5 0.676446 0.465661 0.798082
O O6 0.767362 0.004819 0.037353
O O7 0.880194 0.201568 0.939517
O O8 0.937442 0.286534 0.185038
O O9 0.866243 0.574590 0.251923
O O10 0.944715 0.131488 0.610471
O O11 0.430145 0.201775 0.253345
O O12 0.259740 0.209932 0.406263
O O13 0.429733 0.126596 0.659224
O O14 0.846242 0.035161 0.360367
O O15 0.807038 0.893659 0.788738
O O16 0.359485 0.116057 0.032991
#
# Coordination Sequence:
#
# PCOD9095481 Si02
#       8
#     2   2   2   2   2   2   2   2
#     4   9  19  36  54  77 111 141 169 217 273 316
#     4  11  22  34  52  79 110 142 178 217 260 316
#     4   9  19  38  59  77 105 142 177 219 268 312
#     4  10  20  35  58  82 103 138 184 221 257 313
#     4   9  18  34  54  77 108 140 174 217 264 312
#     4  10  20  35  58  82 103 138 184 221 257 313
#     4   9  19  36  54  77 111 141 169 217 273 316
#     4   9  19  38  59  77 105 142 177 219 268 312
#
# _framework density 26.656034999999999
#
# number of rings (size 3 to 8) (size 9 to 14) (size 15 to 20)
#    0.000    2.500    0.000    3.000    0.000    5.000 
#    0.000    5.000    0.000    0.000    0.000    0.000 
#    0.000    0.000    0.000    0.000    0.000    0.000 
#
# Total GULP energy -89274.945298 kJ/mol
# GULP energy per Si atom -5579.684081 kJ/mol
# Density = 2.659537 g / cm^3
# Si number density = 26.656035 Si / 1000 Ang^3
#
#
#
# Elastic Constant Matrix: (Units=GPa)
#
#
# Indices 1 2 3 4 5 6 
#
# 1 39.8463 25.8532 3.9164 4.6858 -2.6566 8.4988
# 2 25.8532 192.8322 52.2689 -34.1959 11.4745 17.7854
# 3 3.9164 52.2689 124.2644 -12.4070 19.3768 -4.4817
# 4 4.6858 -34.1959 -12.4070 57.9103 -6.9490 -6.9848
# 5 -2.6566 11.4745 19.3768 -6.9490 30.9214 1.2701
# 6 8.4988 17.7854 -4.4817 -6.9848 1.2701 19.8579
#
#
#
# Elastic Compliance Matrix: (Units=1/GPa)
#
#
# Indices 1 2 3 4 5 6 
#
# 1 0.031540 -0.004174 -0.000924 -0.006239 0.003946 -0.012416
# 2 -0.004174 0.007566 -0.002776 0.003639 -0.000432 -0.004309
# 3 -0.000924 -0.002776 0.010405 0.000690 -0.005654 0.005834
# 4 -0.006239 0.003639 0.000690 0.021157 0.002153 0.006870
# 5 0.003946 -0.000432 -0.005654 0.002153 0.037039 -0.004189
# 6 -0.012416 -0.004309 0.005834 0.006870 -0.004189 0.063532
#
#
# Mechanical properties :
#
#
# Convention : Reuss Voigt Hill
#
# Bulk Modulus (GPa) = 29.61776 57.89111 43.75444
# Shear Modulus (GPa) = 25.22169 40.06488 32.64329
#
# Velocity S-wave (km/s) = 3.07936 3.88110 3.50324
# Velocity P-wave (km/s) = 4.87632 6.46907 5.72832
#
# Compressibility (1/GPa) = 0.03376352
#
# Stress axis : x y z
#
# Youngs Moduli (GPa) = 31.70532 132.16285 96.10742
#
# Poissons Ratio (x) = 0.55168 0.08883
# Poissons Ratio (y) = 0.13234 0.26677
# Poissons Ratio (z) = 0.02930 0.36685
#
# Static dielectric constant tensor:
#      x y z
#    x 2.155970 -0.019720 -0.028830 
#    y -0.019720 2.093020 -0.052540 
#    z -0.028830 -0.052540 2.165310 
# 
# From -- ./inp_files/201900.got.cif
#   From: 2010.05.17/outbox.cif.g08.bks.cpg/sg2_101_cif.got.tgz:201900.got - 2010.06.03 11:33:40.
