data_PCOD9095238
_publ_section_title
;
Structure prediction by ZEFSAII (Michael W. Deem and Ramdas Pophale) SiO2 
 PCOD9095238
Probable space group: P -1
;
_chemical_formula_sum "Si O2"
_cell_formula_units_Z 16
_cell_length_a 11.468252
_cell_length_b 14.238333
_cell_length_c 26.884510
_cell_angle_alpha 30.179854
_cell_angle_beta 20.714841
_cell_angle_gamma 33.701160
_cell_volume 773.841281
_symmetry_space_group_name_H-M "P -1"
_symmetry_group_IT_number 2
_symmetry_cell_setting 'triclinic'
loop_
_space_group_symop_operation_xyz
x,y,z
-x,-y,-z
loop_
_atom_site_type_symbol
_atom_site_label
_atom_site_fract_x
_atom_site_fract_y
_atom_site_fract_z
Si Si1 0.240256 0.314747 0.696921
Si Si2 0.886026 0.439845 0.885264
Si Si3 0.832577 0.088451 0.710288
Si Si4 0.034810 0.903778 0.477960
Si Si5 0.902941 0.973403 0.993202
Si Si6 0.996938 0.414921 0.416723
Si Si7 0.001803 0.332252 0.615585
Si Si8 0.213240 0.776990 0.646067
O O1 0.589339 0.198903 0.626145
O O2 0.248856 0.454694 0.582590
O O3 0.071301 0.411636 0.770105
O O4 0.029786 0.152447 0.835772
O O5 0.930117 0.237840 0.987535
O O6 0.052355 0.587795 0.785211
O O7 0.500000 0.500000 0.000000
O O8 0.484375 0.024389 0.863189
O O9 0.881232 0.264252 0.572449
O O10 0.837125 0.172916 0.725196
O O11 0.109651 0.904165 0.678038
O O12 0.817053 0.737609 0.626246
O O13 0.000000 0.000000 0.500000
O O14 0.952771 0.075239 0.395396
O O15 0.000000 0.000000 0.000000
O O16 0.151111 0.565597 0.320344
O O17 0.392105 0.261708 0.500854
O O18 0.000000 0.500000 0.500000
#
# Coordination Sequence:
#
# PCOD9095238 Si02
#       8
#     2   2   2   2   2   2   2   2
#     4  11  21  36  56  86 120 154 190 236 291 352
#     4  11  20  33  55  83 118 157 190 232 294 361
#     4  10  21  37  57  84 113 152 198 243 291 344
#     4  11  21  33  54  88 123 151 183 237 299 350
#     4  10  20  36  55  80 115 149 188 235 289 352
#     4  10  20  35  56  81 114 150 191 238 288 340
#     4  10  20  36  56  80 110 152 200 246 289 340
#     4  11  19  32  54  82 111 147 194 241 285 345
#
# _framework density 20.676075000000001
#
# number of rings (size 3 to 8) (size 9 to 14) (size 15 to 20)
#    0.000    1.500    0.000    9.750    0.000    0.000 
#    0.000    0.625    0.000    0.000    0.000   13.125 
#    0.000    0.000    0.000    0.000    0.000    0.000 
#
# Total GULP energy -89094.491584 kJ/mol
# GULP energy per Si atom -5568.405724 kJ/mol
# Density = 2.062902 g / cm^3
# Si number density = 20.676075 Si / 1000 Ang^3
#
#
#
# Elastic Constant Matrix: (Units=GPa)
#
#
# Indices 1 2 3 4 5 6 
#
# 1 85.0089 34.1107 11.7889 -11.9514 -12.9596 37.4178
# 2 34.1107 125.9569 38.8795 -15.2800 -3.2058 23.6718
# 3 11.7889 38.8795 70.9076 -8.0809 -19.1570 3.3794
# 4 -11.9514 -15.2800 -8.0809 35.8942 7.0228 -5.8058
# 5 -12.9596 -3.2058 -19.1570 7.0228 24.9174 -12.5050
# 6 37.4178 23.6718 3.3794 -5.8058 -12.5050 45.9887
#
#
#
# Elastic Compliance Matrix: (Units=1/GPa)
#
#
# Indices 1 2 3 4 5 6 
#
# 1 0.019460 -0.002031 -0.000727 0.002904 0.001472 -0.013967
# 2 -0.002031 0.012568 -0.008629 0.003708 -0.010402 -0.006543
# 3 -0.000727 -0.008629 0.024366 -0.001296 0.022183 0.009111
# 4 0.002904 0.003708 -0.001296 0.031483 -0.009245 -0.002715
# 5 0.001472 -0.010402 0.022183 -0.009245 0.069369 0.020221
# 6 -0.013967 -0.006543 0.009111 -0.002715 0.020221 0.040963
#
#
# Mechanical properties :
#
#
# Convention : Reuss Voigt Hill
#
# Bulk Modulus (GPa) = 29.74513 50.15908 39.95210
# Shear Modulus (GPa) = 21.53415 34.49970 28.01692
#
# Velocity S-wave (km/s) = 3.23073 4.08926 3.68508
# Velocity P-wave (km/s) = 5.32300 6.82702 6.12138
#
# Compressibility (1/GPa) = 0.03361895
#
# Stress axis : x y z
#
# Youngs Moduli (GPa) = 51.38776 79.57013 41.04002
#
# Poissons Ratio (x) = 0.16158 0.02986
# Poissons Ratio (y) = 0.10435 0.35415
# Poissons Ratio (z) = 0.03738 0.68663
#
# Static dielectric constant tensor:
#      x y z
#    x 1.974300 0.220380 0.131360 
#    y 0.220380 1.948800 0.128650 
#    z 0.131360 0.128650 1.891330 
# 
# From -- ./inp_files/623121.got.cif
#   From: 2010.05.17/outbox.cif.g08.bks.cpg/sg2_312_cif.got.tgz:623121.got - 2010.06.03 11:33:40.
