data_PCOD9095635
_publ_section_title
;
Structure prediction by ZEFSAII (Michael W. Deem and Ramdas Pophale) SiO2 
 PCOD9095635
Probable space group: P -1
;
_chemical_formula_sum "Si O2"
_cell_formula_units_Z 16
_cell_length_a 8.409362
_cell_length_b 14.995916
_cell_length_c 12.006087
_cell_angle_alpha 47.048645
_cell_angle_beta 122.529354
_cell_angle_gamma 126.099633
_cell_volume 871.304536
_symmetry_space_group_name_H-M "P -1"
_symmetry_group_IT_number 2
_symmetry_cell_setting 'triclinic'
loop_
_space_group_symop_operation_xyz
x,y,z
-x,-y,-z
loop_
_atom_site_type_symbol
_atom_site_label
_atom_site_fract_x
_atom_site_fract_y
_atom_site_fract_z
Si Si1 0.167498 0.636086 0.414115
Si Si2 0.095099 0.189457 0.453979
Si Si3 0.461105 0.451774 0.398727
Si Si4 0.728920 0.177682 0.899252
Si Si5 0.072443 0.832499 0.365002
Si Si6 0.365160 0.035607 0.152867
Si Si7 0.384286 0.256481 0.821776
Si Si8 0.804566 0.064767 0.257386
O O1 0.376940 0.613996 0.510115
O O2 0.138899 0.696817 0.231942
O O3 0.165964 0.737015 0.422670
O O4 0.000000 0.500000 0.500000
O O5 0.246957 0.338573 0.393467
O O6 0.923422 0.167628 0.501250
O O7 0.995766 0.150744 0.329070
O O8 0.195020 0.082469 0.616343
O O9 0.500000 0.500000 0.500000
O O10 0.512249 0.590879 0.240176
O O11 0.535955 0.211983 0.839380
O O12 0.677545 0.061570 0.888211
O O13 0.807841 0.127508 0.082572
O O14 0.834560 0.778215 0.288087
O O15 0.200979 0.970207 0.240853
O O16 0.598378 0.059910 0.244175
O O17 0.347769 0.168642 0.991925
#
# Coordination Sequence:
#
# PCOD9095635 Si02
#       8
#     2   2   2   2   2   2   2   2
#     4  11  20  34  56  88 116 144 181 242 291 334
#     4  11  22  39  60  85 115 155 196 230 283 344
#     4  12  21  36  60  85 116 151 195 232 282 344
#     4  10  20  35  59  83 114 145 197 239 276 332
#     4  11  20  33  57  88 117 147 187 237 293 334
#     4  10  21  35  57  88 115 145 192 244 287 328
#     4  11  19  33  56  83 115 148 188 237 281 333
#     4  10  22  40  60  83 113 156 197 237 276 332
#
# _framework density 18.363268999999999
#
# number of rings (size 3 to 8) (size 9 to 14) (size 15 to 20)
#    0.000    1.250    3.750    4.875    0.000    1.500 
#    0.000    2.500    0.000    0.750    0.000    0.000 
#    0.000    0.000    0.000    0.000    0.000    0.000 
#
# Total GULP energy -89256.752716 kJ/mol
# GULP energy per Si atom -5578.547045 kJ/mol
# Density = 1.832147 g / cm^3
# Si number density = 18.363269 Si / 1000 Ang^3
#
#
#
# Elastic Constant Matrix: (Units=GPa)
#
#
# Indices 1 2 3 4 5 6 
#
# 1 54.8295 11.9038 29.1600 -3.0404 -5.7983 0.7202
# 2 11.9038 100.4373 51.4430 -19.7443 -9.7127 16.9406
# 3 29.1600 51.4430 94.3083 -18.8384 -6.1833 8.2807
# 4 -3.0404 -19.7443 -18.8384 33.3092 8.9217 -6.1722
# 5 -5.7983 -9.7127 -6.1833 8.9217 23.9342 -14.3409
# 6 0.7202 16.9406 8.2807 -6.1722 -14.3409 27.4053
#
#
#
# Elastic Compliance Matrix: (Units=1/GPa)
#
#
# Indices 1 2 3 4 5 6 
#
# 1 0.022942 0.000715 -0.008035 -0.003243 0.007826 0.004748
# 2 0.000715 0.015510 -0.007312 0.004134 -0.001219 -0.007104
# 3 -0.008035 -0.007312 0.018127 0.005800 -0.002997 -0.001008
# 4 -0.003243 0.004134 0.005800 0.038605 -0.013578 -0.002633
# 5 0.007826 -0.001219 -0.002997 -0.013578 0.067751 0.033849
# 6 0.004748 -0.007104 -0.001008 -0.002633 0.033849 0.058180
#
#
# Mechanical properties :
#
#
# Convention : Reuss Voigt Hill
#
# Bulk Modulus (GPa) = 36.61027 48.28765 42.44896
# Shear Modulus (GPa) = 19.26903 27.40096 23.33500
#
# Velocity S-wave (km/s) = 3.24284 3.86704 3.56862
# Velocity P-wave (km/s) = 5.83107 6.80379 6.33612
#
# Compressibility (1/GPa) = 0.02731474
#
# Stress axis : x y z
#
# Youngs Moduli (GPa) = 43.58839 64.47639 55.16638
#
# Poissons Ratio (x) = -0.04610 0.44327
# Poissons Ratio (y) = -0.03116 0.40336
# Poissons Ratio (z) = 0.35024 0.47143
#
# Static dielectric constant tensor:
#      x y z
#    x 1.668600 0.037460 -0.004000 
#    y 0.037460 1.683200 -0.022870 
#    z -0.004000 -0.022870 1.687480 
# 
# From -- ./inp_files/398660.got.cif
#   From: 2010.05.17/outbox.cif.g08.bks.cpg/sg2_200_cif.got.tgz:398660.got - 2010.06.03 11:33:40.
