data_PCOD9095977
_publ_section_title
;
Structure prediction by ZEFSAII (Michael W. Deem and Ramdas Pophale) SiO2 
 PCOD9095977
Probable space group: P -1
;
_chemical_formula_sum "Si O2"
_cell_formula_units_Z 16
_cell_length_a 12.027536
_cell_length_b 9.152256
_cell_length_c 20.583863
_cell_angle_alpha 34.945809
_cell_angle_beta 39.220865
_cell_angle_gamma 38.545367
_cell_volume 749.947481
_symmetry_space_group_name_H-M "P -1"
_symmetry_group_IT_number 2
_symmetry_cell_setting 'triclinic'
loop_
_space_group_symop_operation_xyz
x,y,z
-x,-y,-z
loop_
_atom_site_type_symbol
_atom_site_label
_atom_site_fract_x
_atom_site_fract_y
_atom_site_fract_z
Si Si1 0.662869 0.822804 0.235917
Si Si2 0.351458 0.733889 0.570709
Si Si3 0.111269 0.998848 0.016523
Si Si4 0.209253 0.013866 0.752169
Si Si5 0.058935 0.020963 0.390479
Si Si6 0.364366 0.271332 0.335593
Si Si7 0.286916 0.377300 0.195636
Si Si8 0.716047 0.614229 0.524415
O O1 0.583200 0.585765 0.361088
O O2 0.782151 0.805353 0.254024
O O3 0.499053 0.133555 0.191364
O O4 0.786226 0.797331 0.123505
O O5 0.485211 0.725688 0.574510
O O6 0.121649 0.856696 0.621752
O O7 0.396912 0.949395 0.426671
O O8 0.259105 0.676223 0.073495
O O9 0.966037 0.067289 0.118478
O O10 0.000000 0.000000 0.000000
O O11 0.206042 0.198039 0.623462
O O12 0.417918 0.750203 0.752522
O O13 0.163646 0.233040 0.268221
O O14 0.186904 0.706275 0.424949
O O15 0.000000 0.000000 0.500000
O O16 0.236906 0.433699 0.274306
O O17 0.261057 0.359181 0.419087
#
# Coordination Sequence:
#
# PCOD9095977 Si02
#       8
#     2   2   2   2   2   2   2   2
#     4  10  20  35  61  89 123 163 205 268 303 355
#     4  11  21  38  60  91 128 162 207 245 319 362
#     4  10  20  37  58  93 121 157 215 264 309 361
#     4   9  19  34  59  85 121 163 204 253 306 363
#     4  12  22  35  60  94 125 161 204 254 307 371
#     4  10  23  39  62  90 130 168 197 253 321 380
#     4  11  21  38  60  97 124 161 208 262 314 370
#     4  11  23  41  60  92 134 167 201 250 315 382
#
# _framework density 21.334828999999999
#
# number of rings (size 3 to 8) (size 9 to 14) (size 15 to 20)
#    0.000    1.500    2.500    4.875    0.000    2.500 
#    2.250    0.000    0.000    3.750    6.500    0.000 
#    0.000    0.000    0.000    0.000    0.000    0.000 
#
# Total GULP energy -89172.355649 kJ/mol
# GULP energy per Si atom -5573.272228 kJ/mol
# Density = 2.128627 g / cm^3
# Si number density = 21.334829 Si / 1000 Ang^3
#
#
#
# Elastic Constant Matrix: (Units=GPa)
#
#
# Indices 1 2 3 4 5 6 
#
# 1 70.3169 20.5385 32.8434 5.5572 17.2751 -3.3909
# 2 20.5385 88.6659 35.9597 2.0330 12.7315 -4.0541
# 3 32.8434 35.9597 104.1516 9.5840 16.2666 14.4943
# 4 5.5572 2.0330 9.5840 34.1840 -7.7370 3.5626
# 5 17.2751 12.7315 16.2666 -7.7370 21.7900 -2.7342
# 6 -3.3909 -4.0541 14.4943 3.5626 -2.7342 27.7969
#
#
#
# Elastic Compliance Matrix: (Units=1/GPa)
#
#
# Indices 1 2 3 4 5 6 
#
# 1 0.020471 -0.000772 -0.003914 -0.005849 -0.014463 0.003753
# 2 -0.000772 0.014045 -0.004454 -0.000793 -0.004051 0.003980
# 3 -0.003914 -0.004454 0.015427 -0.004374 -0.008550 -0.009451
# 4 -0.005849 -0.000793 -0.004374 0.036381 0.021141 -0.001132
# 5 -0.014463 -0.004051 -0.008550 0.021141 0.074458 0.006717
# 6 0.003753 0.003980 -0.009451 -0.001132 0.006717 0.042748
#
#
# Mechanical properties :
#
#
# Convention : Reuss Voigt Hill
#
# Bulk Modulus (GPa) = 31.58280 49.09085 40.33683
# Shear Modulus (GPa) = 21.51792 28.34037 24.92914
#
# Velocity S-wave (km/s) = 3.17926 3.64862 3.42200
# Velocity P-wave (km/s) = 5.32095 6.38824 5.87886
#
# Compressibility (1/GPa) = 0.03166280
#
# Stress axis : x y z
#
# Youngs Moduli (GPa) = 48.84868 71.19744 64.82303
#
# Poissons Ratio (x) = 0.05498 0.25372
# Poissons Ratio (y) = 0.03772 0.28872
# Poissons Ratio (z) = 0.19120 0.31712
#
# Static dielectric constant tensor:
#      x y z
#    x 1.832170 -0.059330 -0.031960 
#    y -0.059330 1.818820 0.063360 
#    z -0.031960 0.063360 1.819400 
# 
# From -- ./inp_files/204204.got.cif
#   From: 2010.05.17/outbox.cif.g08.bks.cpg/sg2_103_cif.got.tgz:204204.got - 2010.06.03 11:33:40.
