data_PCOD9095589
_publ_section_title
;
Structure prediction by ZEFSAII (Michael W. Deem and Ramdas Pophale) SiO2 
 PCOD9095589
Probable space group: P -1
;
_chemical_formula_sum "Si O2"
_cell_formula_units_Z 16
_cell_length_a 14.690408
_cell_length_b 12.487696
_cell_length_c 14.163520
_cell_angle_alpha 111.761581
_cell_angle_beta 46.291830
_cell_angle_gamma 149.150267
_cell_volume 770.368945
_symmetry_space_group_name_H-M "P -1"
_symmetry_group_IT_number 2
_symmetry_cell_setting 'triclinic'
loop_
_space_group_symop_operation_xyz
x,y,z
-x,-y,-z
loop_
_atom_site_type_symbol
_atom_site_label
_atom_site_fract_x
_atom_site_fract_y
_atom_site_fract_z
Si Si1 0.170670 0.465170 0.753074
Si Si2 0.680991 0.031844 0.102256
Si Si3 0.784140 0.850287 0.019867
Si Si4 0.232111 0.099817 0.475656
Si Si5 0.677208 0.170845 0.331944
Si Si6 0.150202 0.984157 0.286562
Si Si7 0.294730 0.599132 0.092133
Si Si8 0.821630 0.704025 0.782725
O O1 0.435423 0.610246 0.651791
O O2 0.294778 0.676287 0.677168
O O3 0.003117 0.247487 0.729199
O O4 0.950286 0.310091 0.945908
O O5 0.574681 0.011612 0.263661
O O6 0.770007 0.975453 0.052861
O O7 0.438121 0.813764 0.126047
O O8 0.460503 0.534028 0.159563
O O9 0.862499 0.852027 0.865351
O O10 0.000000 0.000000 0.000000
O O11 0.042513 0.060001 0.602940
O O12 0.184829 0.999986 0.377870
O O13 0.098758 0.912542 0.591365
O O14 0.004759 0.402035 0.189462
O O15 0.500000 0.000000 0.500000
O O16 0.463602 0.246325 0.102180
O O17 0.222301 0.433111 0.156706
#
# Coordination Sequence:
#
# PCOD9095589 Si02
#       8
#     2   2   2   2   2   2   2   2
#     4  11  24  41  62  88 123 163 203 246 297 358
#     4  10  23  41  62  88 118 163 205 245 301 353
#     4  10  20  35  61  89 121 159 200 243 295 361
#     4  11  22  38  61  93 130 153 192 248 296 359
#     4  12  26  42  63  89 117 157 207 257 304 351
#     4  10  23  39  62  92 121 162 195 238 304 357
#     4  10  22  43  63  86 123 157 203 247 291 365
#     4  10  20  35  58  90 119 155 196 242 299 349
#
# _framework density 20.769268
#
# number of rings (size 3 to 8) (size 9 to 14) (size 15 to 20)
#    0.000    1.500    0.000    6.000    0.000    8.500 
#    0.000    0.000    0.000    0.000    0.000    0.000 
#    0.000    0.000    0.000    0.000    0.000    0.000 
#
# Total GULP energy -89352.689254 kJ/mol
# GULP energy per Si atom -5584.543078 kJ/mol
# Density = 2.072200 g / cm^3
# Si number density = 20.769268 Si / 1000 Ang^3
#
#
#
# Elastic Constant Matrix: (Units=GPa)
#
#
# Indices 1 2 3 4 5 6 
#
# 1 23.7419 22.8583 -2.9681 15.2721 2.4776 -20.3994
# 2 22.8583 75.8912 32.1487 12.6684 13.5686 -9.9420
# 3 -2.9681 32.1487 76.0645 25.5569 29.1077 -18.7298
# 4 15.2721 12.6684 25.5569 14.9216 8.6778 11.5721
# 5 2.4776 13.5686 29.1077 8.6778 41.0680 -9.8862
# 6 -20.3994 -9.9420 -18.7298 11.5721 -9.8862 29.6192
#
#
#
# Elastic Compliance Matrix: (Units=1/GPa)
#
#
# Indices 1 2 3 4 5 6 
#
# 1 0.007417 -0.004455 -0.013247 0.033747 -0.001129 -0.018325
# 2 -0.004455 0.018356 -0.002167 -0.012286 -0.000102 0.006489
# 3 -0.013247 -0.002167 0.011009 0.012354 -0.011695 -0.011619
# 4 0.033747 -0.012286 0.012354 0.002612 -0.001139 0.025530
# 5 -0.001129 -0.000102 -0.011695 -0.001139 0.033831 0.003530
# 6 -0.018325 0.006489 -0.011619 0.025530 0.003530 0.007175
#
#
# Mechanical properties :
#
#
# Convention : Reuss Voigt Hill
#
# Bulk Modulus (GPa) = -338.42897 31.08616 -153.67141
# Shear Modulus (GPa) = 41.96256 25.36568 33.66412
#
# Velocity S-wave (km/s) = 4.49978 3.49851 4.03036
# Velocity P-wave (km/s) = 11.67490 5.59637 7.24514
#
# Compressibility (1/GPa) = -0.00295483
#
# Stress axis : x y z
#
# Youngs Moduli (GPa) = 134.82021 54.47903 90.83106
#
# Poissons Ratio (x) = 0.24269 1.20321
# Poissons Ratio (y) = 0.60058 0.19685
# Poissons Ratio (z) = 1.78592 0.11807
#
# Static dielectric constant tensor:
#      x y z
#    x 1.792390 -0.005840 -0.029390 
#    y -0.005840 1.733340 -0.012260 
#    z -0.029390 -0.012260 1.758020 
# 
# From -- ./inp_files/532596.got.cif
#   From: 2010.05.17/outbox.cif.g08.bks.cpg/sg2_267_cif.got.tgz:532596.got - 2010.06.03 11:33:40.
