data_PCOD9095436
_publ_section_title
;
Structure prediction by ZEFSAII (Michael W. Deem and Ramdas Pophale) SiO2 
 PCOD9095436
Probable space group: P -1
;
_chemical_formula_sum "Si O2"
_cell_formula_units_Z 16
_cell_length_a 14.102119
_cell_length_b 11.072908
_cell_length_c 14.004662
_cell_angle_alpha 122.425632
_cell_angle_beta 40.724139
_cell_angle_gamma 151.138021
_cell_volume 629.704949
_symmetry_space_group_name_H-M "P -1"
_symmetry_group_IT_number 2
_symmetry_cell_setting 'triclinic'
loop_
_space_group_symop_operation_xyz
x,y,z
-x,-y,-z
loop_
_atom_site_type_symbol
_atom_site_label
_atom_site_fract_x
_atom_site_fract_y
_atom_site_fract_z
Si Si1 0.736252 0.150818 0.782650
Si Si2 0.744038 0.853296 0.576140
Si Si3 0.984355 0.061652 0.290084
Si Si4 0.551999 0.904042 0.485122
Si Si5 0.318683 0.766458 0.330265
Si Si6 0.163395 0.285523 0.882784
Si Si7 0.462356 0.616573 0.271679
Si Si8 0.103094 0.552016 0.050195
O O1 0.691463 0.239198 0.778282
O O2 0.811126 0.077205 0.631662
O O3 0.437932 0.849937 0.921724
O O4 0.957467 0.384919 0.792817
O O5 0.753050 0.827273 0.446351
O O6 0.450430 0.565082 0.724666
O O7 0.000000 0.000000 0.500000
O O8 0.859994 0.090720 0.337786
O O9 0.032136 0.965681 0.146698
O O10 0.237342 0.324090 0.272388
O O11 0.408578 0.652074 0.430004
O O12 0.500000 0.000000 0.500000
O O13 0.526993 0.960470 0.631890
O O14 0.468077 0.754189 0.253737
O O15 0.000000 0.500000 0.500000
O O16 0.272664 0.262219 0.865531
O O17 0.046327 0.339499 0.027623
O O18 0.000000 0.500000 0.000000
#
# Coordination Sequence:
#
# PCOD9095436 Si02
#       8
#     2   2   2   2   2   2   2   2
#     4  10  23  43  66  92 127 164 217 260 309 379
#     4  11  20  34  57  94 124 158 200 260 330 382
#     4  11  19  35  53  87 129 162 193 251 325 373
#     4   9  19  32  50  83 129 162 192 233 298 391
#     4  11  19  38  62  98 134 163 195 255 329 389
#     4  10  23  37  59  86 121 164 215 260 306 375
#     4  10  20  35  57  88 123 164 195 248 316 380
#     4  10  24  47  65  87 120 175 227 262 299 359
#
# _framework density 25.408726000000001
#
# number of rings (size 3 to 8) (size 9 to 14) (size 15 to 20)
#    0.000    1.750    3.750    0.375    1.750    1.000 
#    9.000    0.625    0.000    1.500    0.000    0.000 
#    0.000    0.000    0.000    0.000    0.000    0.000 
#
# Total GULP energy -89339.100868 kJ/mol
# GULP energy per Si atom -5583.693804 kJ/mol
# Density = 2.535089 g / cm^3
# Si number density = 25.408726 Si / 1000 Ang^3
#
#
#
# Elastic Constant Matrix: (Units=GPa)
#
#
# Indices 1 2 3 4 5 6 
#
# 1 131.6248 33.8566 29.4338 33.7946 -7.5923 4.5214
# 2 33.8566 167.3112 41.4073 25.4353 4.3920 28.4776
# 3 29.4338 41.4073 57.4263 24.0283 -2.5005 2.3264
# 4 33.7946 25.4353 24.0283 54.4014 -2.2698 9.2780
# 5 -7.5923 4.3920 -2.5005 -2.2698 27.7471 14.4889
# 6 4.5214 28.4776 2.3264 9.2780 14.4889 39.3253
#
#
#
# Elastic Compliance Matrix: (Units=1/GPa)
#
#
# Indices 1 2 3 4 5 6 
#
# 1 0.009599 -0.000672 -0.002479 -0.004412 0.002292 -0.000274
# 2 -0.000672 0.008490 -0.005460 -0.000036 0.001207 -0.006184
# 3 -0.002479 -0.005460 0.025811 -0.008174 -0.000718 0.004905
# 4 -0.004412 -0.000036 -0.008174 0.025992 0.003541 -0.006420
# 5 0.002292 0.001207 -0.000718 0.003541 0.046692 -0.019133
# 6 -0.000274 -0.006184 0.004905 -0.006420 -0.019133 0.038213
#
#
# Mechanical properties :
#
#
# Convention : Reuss Voigt Hill
#
# Bulk Modulus (GPa) = 37.48111 62.86195 50.17153
# Shear Modulus (GPa) = 27.63805 41.07240 34.35522
#
# Velocity S-wave (km/s) = 3.30167 4.02489 3.68108
# Velocity P-wave (km/s) = 5.41461 6.81129 6.15271
#
# Compressibility (1/GPa) = 0.02668011
#
# Stress axis : x y z
#
# Youngs Moduli (GPa) = 104.18094 117.78032 38.74307
#
# Poissons Ratio (x) = 0.07912 0.09603
# Poissons Ratio (y) = 0.06999 0.21152
# Poissons Ratio (z) = 0.25823 0.64303
#
# Static dielectric constant tensor:
#      x y z
#    x 2.022150 -0.021250 0.021450 
#    y -0.021250 2.141800 -0.123600 
#    z 0.021450 -0.123600 2.155400 
# 
# From -- ./inp_files/531942.got.cif
#   From: 2010.05.17/outbox.cif.g08.bks.cpg/sg2_266_cif.got.tgz:531942.got - 2010.06.03 11:33:40.
