data_PCOD9095799
_publ_section_title
;
Structure prediction by ZEFSAII (Michael W. Deem and Ramdas Pophale) SiO2 
 PCOD9095799
Probable space group: P -1
;
_chemical_formula_sum "Si O2"
_cell_formula_units_Z 14
_cell_length_a 10.130606
_cell_length_b 22.453222
_cell_length_c 9.228984
_cell_angle_alpha 127.849743
_cell_angle_beta 76.644214
_cell_angle_gamma 148.179029
_cell_volume 626.357508
_symmetry_space_group_name_H-M "P -1"
_symmetry_group_IT_number 2
_symmetry_cell_setting 'triclinic'
loop_
_space_group_symop_operation_xyz
x,y,z
-x,-y,-z
loop_
_atom_site_type_symbol
_atom_site_label
_atom_site_fract_x
_atom_site_fract_y
_atom_site_fract_z
Si Si1 0.728006 0.332084 0.121846
Si Si2 0.917226 0.913165 0.242716
Si Si3 0.639025 0.817492 0.725209
Si Si4 0.443191 0.061220 0.615586
Si Si5 0.350934 0.332894 0.654310
Si Si6 0.573526 0.461544 0.110812
Si Si7 0.842316 0.354897 0.713999
O O1 0.628542 0.286298 0.245762
O O2 0.077671 0.555537 0.319067
O O3 0.407239 0.209511 0.934573
O O4 0.702384 0.233704 0.923152
O O5 0.774299 0.756901 0.072937
O O6 0.000000 0.000000 0.500000
O O7 0.240348 0.079532 0.299896
O O8 0.570626 0.696790 0.512100
O O9 0.000000 0.000000 0.000000
O O10 0.531983 0.153702 0.582984
O O11 0.500000 0.000000 0.500000
O O12 0.051012 0.874060 0.495527
O O13 0.411651 0.442869 0.724625
O O14 0.575786 0.448522 0.917340
O O15 0.896223 0.581868 0.273418
O O16 0.000000 0.500000 0.000000
#
# Coordination Sequence:
#
# PCOD9095799 Si02
#       7
#     2   2   2   2   2   2   2
#     4   9  19  33  51  79 109 140 186 226 273 319
#     4  10  16  30  52  80 107 136 180 224 275 317
#     4  10  18  33  54  79 115 140 181 233 271 332
#     4  11  18  32  53  80 108 148 185 224 271 327
#     4  11  20  33  54  85 112 140 180 231 284 316
#     4  10  20  33  51  86 111 135 186 231 273 313
#     4   9  19  33  53  78 111 141 184 225 262 334
#
# _framework density 22.351451999999998
#
# number of rings (size 3 to 8) (size 9 to 14) (size 15 to 20)
#    0.000    2.000    5.714    0.000    0.000    0.000 
#    0.000    7.857    0.000    3.429    0.000    6.000 
#    0.000    0.000    0.000    0.000    0.000    0.000 
#
# Total GULP energy -78151.342795 kJ/mol
# GULP energy per Si atom -5582.238771 kJ/mol
# Density = 2.230058 g / cm^3
# Si number density = 22.351452 Si / 1000 Ang^3
#
#
#
# Elastic Constant Matrix: (Units=GPa)
#
#
# Indices 1 2 3 4 5 6 
#
# 1 85.5561 50.9863 50.3051 6.8381 -46.8325 -14.6834
# 2 50.9863 207.5924 66.7939 12.1377 -22.7794 -11.5384
# 3 50.3051 66.7939 91.3550 -1.5401 -33.6415 -15.7787
# 4 6.8381 12.1377 -1.5401 55.6110 -5.7170 1.4622
# 5 -46.8325 -22.7794 -33.6415 -5.7170 43.7288 14.2704
# 6 -14.6834 -11.5384 -15.7787 1.4622 14.2704 41.8339
#
#
#
# Elastic Compliance Matrix: (Units=1/GPa)
#
#
# Indices 1 2 3 4 5 6 
#
# 1 0.032658 -0.003240 -0.004820 -0.000317 0.030021 -0.001479
# 2 -0.003240 0.006765 -0.004503 -0.001596 -0.003736 0.000361
# 3 -0.004820 -0.004503 0.020114 0.002875 0.007716 0.001920
# 4 -0.000317 -0.001596 0.002875 0.018899 0.003999 -0.001492
# 5 0.030021 -0.003736 0.007716 0.003999 0.062481 -0.009037
# 6 -0.001479 0.000361 0.001920 -0.001492 -0.009037 0.027344
#
#
# Mechanical properties :
#
#
# Convention : Reuss Voigt Hill
#
# Bulk Modulus (GPa) = 29.05946 80.07490 54.56718
# Shear Modulus (GPa) = 24.40738 42.66262 33.53500
#
# Velocity S-wave (km/s) = 3.30810 4.37363 3.87764
# Velocity P-wave (km/s) = 5.25554 7.83632 6.67191
#
# Compressibility (1/GPa) = 0.03441221
#
# Stress axis : x y z
#
# Youngs Moduli (GPa) = 30.62077 147.81979 49.71652
#
# Poissons Ratio (x) = 0.47886 0.23963
# Poissons Ratio (y) = 0.09920 0.22386
# Poissons Ratio (z) = 0.14759 0.66559
#
# Static dielectric constant tensor:
#      x y z
#    x 2.027630 0.054620 0.095550 
#    y 0.054620 1.887210 0.019290 
#    z 0.095550 0.019290 1.947480 
# 
# From -- ./inp_files/284118.got.cif
#   From: 2010.05.17/outbox.cif.g08.bks.cpg/sg2_143_cif.got.tgz:284118.got - 2010.06.03 11:33:40.
