data_PCOD9095824
_publ_section_title
;
Structure prediction by ZEFSAII (Michael W. Deem and Ramdas Pophale) SiO2 
 PCOD9095824
Probable space group: P -1
;
_chemical_formula_sum "Si O2"
_cell_formula_units_Z 12
_cell_length_a 10.599799
_cell_length_b 4.938726
_cell_length_c 19.245574
_cell_angle_alpha 101.944059
_cell_angle_beta 139.147264
_cell_angle_gamma 101.347531
_cell_volume 537.593506
_symmetry_space_group_name_H-M "P -1"
_symmetry_group_IT_number 2
_symmetry_cell_setting 'triclinic'
loop_
_space_group_symop_operation_xyz
x,y,z
-x,-y,-z
loop_
_atom_site_type_symbol
_atom_site_label
_atom_site_fract_x
_atom_site_fract_y
_atom_site_fract_z
Si Si1 0.678690 0.830995 0.002260
Si Si2 0.213085 0.640445 0.647654
Si Si3 0.591328 0.102526 0.621013
Si Si4 0.182929 0.203261 0.209123
Si Si5 0.633030 0.912085 0.146733
Si Si6 0.554516 0.730441 0.303914
O O1 0.716180 0.893427 0.103966
O O2 0.473450 0.449976 0.884867
O O3 0.917624 0.919097 0.074360
O O4 0.582826 0.048069 0.948549
O O5 0.274256 0.367592 0.656795
O O6 0.000000 0.500000 0.500000
O O7 0.180985 0.770610 0.714175
O O8 0.425023 0.989240 0.721923
O O9 0.802170 0.488435 0.729180
O O10 0.402901 0.109271 0.592364
O O11 0.500000 0.000000 0.500000
O O12 0.678210 0.905032 0.690403
O O13 0.314302 0.382221 0.201535
#
# Coordination Sequence:
#
# PCOD9095824 Si02
#       6
#     2   2   2   2   2   2
#     4  10  21  42  65  92 120 158 212 257 302 356
#     4  12  24  42  63  88 127 168 202 246 315 374
#     4  10  20  35  60  87 123 162 198 256 299 350
#     4  10  20  38  63  87 125 154 198 263 308 357
#     4  10  23  40  64  90 124 160 208 258 294 365
#     4  10  22  40  58  88 128 152 204 254 298 379
#
# _framework density 22.321698999999999
#
# number of rings (size 3 to 8) (size 9 to 14) (size 15 to 20)
#    1.000    0.667    1.667    3.000    0.000    2.667 
#    0.000    5.000    0.000    0.000    0.000    0.000 
#    0.000    0.000    0.000    0.000    0.000    0.000 
#
# Total GULP energy -66865.513673 kJ/mol
# GULP energy per Si atom -5572.126139 kJ/mol
# Density = 2.227089 g / cm^3
# Si number density = 22.321699 Si / 1000 Ang^3
#
#
#
# Elastic Constant Matrix: (Units=GPa)
#
#
# Indices 1 2 3 4 5 6 
#
# 1 37.1510 4.5732 22.6321 2.7993 -13.8299 -3.8310
# 2 4.5732 107.0205 -6.5183 5.9188 5.3423 -2.2887
# 3 22.6321 -6.5183 69.4247 1.2353 -19.0129 6.0183
# 4 2.7993 5.9188 1.2353 19.1719 -4.5348 -6.5360
# 5 -13.8299 5.3423 -19.0129 -4.5348 36.1015 4.5203
# 6 -3.8310 -2.2887 6.0183 -6.5360 4.5203 23.5000
#
#
#
# Elastic Compliance Matrix: (Units=1/GPa)
#
#
# Indices 1 2 3 4 5 6 
#
# 1 0.037635 -0.002549 -0.010893 0.000391 0.008204 0.007207
# 2 -0.002549 0.009815 0.001247 -0.003349 -0.002156 -0.000296
# 3 -0.010893 0.001247 0.020950 -0.001365 0.007614 -0.008864
# 4 0.000391 -0.003349 -0.001365 0.059868 0.005483 0.015684
# 5 0.008204 -0.002156 0.007614 0.005483 0.036655 -0.006348
# 6 0.007207 -0.000296 -0.008864 0.015684 -0.006348 0.051553
#
#
# Mechanical properties :
#
#
# Convention : Reuss Voigt Hill
#
# Bulk Modulus (GPa) = 22.72123 28.33003 25.52563
# Shear Modulus (GPa) = 19.56674 28.61529 24.09102
#
# Velocity S-wave (km/s) = 2.96392 3.58432 3.28878
# Velocity P-wave (km/s) = 4.68126 5.46343 5.08740
#
# Compressibility (1/GPa) = 0.04401170
#
# Stress axis : x y z
#
# Youngs Moduli (GPa) = 26.57121 101.88073 47.73211
#
# Poissons Ratio (x) = 0.25967 0.51994
# Poissons Ratio (y) = 0.06772 -0.05954
# Poissons Ratio (z) = 0.28944 -0.12708
#
# Static dielectric constant tensor:
#      x y z
#    x 1.880550 0.041500 -0.021120 
#    y 0.041500 1.808680 0.033020 
#    z -0.021120 0.033020 1.861020 
# 
# From -- ./inp_files/65003.got.cif
#   From: 2010.05.17/outbox.cif.g08.bks.cpg/sg2_33_cif.got.tgz:65003.got - 2010.06.03 11:33:40.
