data_PCOD9095792
_publ_section_title
;
Structure prediction by ZEFSAII (Michael W. Deem and Ramdas Pophale) SiO2 
 PCOD9095792
Probable space group: P -1
;
_chemical_formula_sum "Si O2"
_cell_formula_units_Z 12
_cell_length_a 8.963621
_cell_length_b 12.999586
_cell_length_c 20.622753
_cell_angle_alpha 155.966000
_cell_angle_beta 149.082476
_cell_angle_gamma 32.506208
_cell_volume 481.889964
_symmetry_space_group_name_H-M "P -1"
_symmetry_group_IT_number 2
_symmetry_cell_setting 'triclinic'
loop_
_space_group_symop_operation_xyz
x,y,z
-x,-y,-z
loop_
_atom_site_type_symbol
_atom_site_label
_atom_site_fract_x
_atom_site_fract_y
_atom_site_fract_z
Si Si1 0.402248 0.369783 0.489462
Si Si2 0.060384 0.285597 0.673734
Si Si3 0.723587 0.060469 0.025508
Si Si4 0.165385 0.869496 0.755739
Si Si5 0.475757 0.938216 0.381120
Si Si6 0.624379 0.131862 0.883596
O O1 0.152483 0.637785 0.568635
O O2 0.444642 0.190708 0.467508
O O3 0.356585 0.174937 0.303656
O O4 0.711826 0.450877 0.639102
O O5 0.237237 0.272242 0.664316
O O6 0.316029 0.293821 0.826822
O O7 0.000000 0.000000 0.500000
O O8 0.781146 0.224671 0.203775
O O9 0.053604 0.851919 0.014871
O O10 0.448078 0.960887 0.890436
O O11 0.625265 0.183418 0.989548
O O12 0.854659 0.104488 0.774405
O O13 0.500000 0.000000 0.500000
#
# Coordination Sequence:
#
# PCOD9095792 Si02
#       6
#     2   2   2   2   2   2
#     4  10  21  38  61  85 111 144 198 240 262 323
#     4   8  17  35  56  79 110 147 186 228 276 328
#     4  10  21  35  58  80 122 152 180 220 302 338
#     4  11  22  37  58  89 114 142 192 240 274 327
#     4  10  20  35  60  85 112 147 188 234 283 327
#     4   9  18  38  59  80 110 160 186 218 285 347
#
# _framework density 24.901948999999998
#
# number of rings (size 3 to 8) (size 9 to 14) (size 15 to 20)
#    0.000    2.667    3.333    0.500    7.000    0.667 
#    0.000    1.667    0.000    0.000    0.000    0.000 
#    0.000    0.000    0.000    0.000    0.000    0.000 
#
# Total GULP energy -66945.024193 kJ/mol
# GULP energy per Si atom -5578.752016 kJ/mol
# Density = 2.484527 g / cm^3
# Si number density = 24.901949 Si / 1000 Ang^3
#
#
#
# Elastic Constant Matrix: (Units=GPa)
#
#
# Indices 1 2 3 4 5 6 
#
# 1 174.3037 49.3223 62.2274 -29.4161 -2.6889 -18.4832
# 2 49.3223 49.8384 27.1616 -14.3665 0.1786 -15.1634
# 3 62.2274 27.1616 115.6594 -28.4080 9.9540 3.4163
# 4 -29.4161 -14.3665 -28.4080 36.9437 -3.1831 2.4187
# 5 -2.6889 0.1786 9.9540 -3.1831 54.7642 -21.6327
# 6 -18.4832 -15.1634 3.4163 2.4187 -21.6327 37.6290
#
#
#
# Elastic Compliance Matrix: (Units=1/GPa)
#
#
# Indices 1 2 3 4 5 6 
#
# 1 0.009497 -0.005335 -0.003584 0.002704 0.003035 0.004412
# 2 -0.005335 0.034005 -0.004983 0.004739 0.006785 0.015131
# 3 -0.003584 -0.004983 0.013987 0.006037 -0.005815 -0.008770
# 4 0.002704 0.004739 0.006037 0.035759 0.001621 0.001323
# 5 0.003035 0.006785 -0.005815 0.001621 0.027655 0.020548
# 6 0.004412 0.015131 -0.008770 0.001323 0.020548 0.047364
#
#
# Mechanical properties :
#
#
# Convention : Reuss Voigt Hill
#
# Bulk Modulus (GPa) = 33.68575 68.58044 51.13310
# Shear Modulus (GPa) = 24.27592 39.27339 31.77466
#
# Velocity S-wave (km/s) = 3.12566 3.97561 3.57598
# Velocity P-wave (km/s) = 5.15588 6.97667 6.13421
#
# Compressibility (1/GPa) = 0.02968614
#
# Stress axis : x y z
#
# Youngs Moduli (GPa) = 105.29381 29.40731 71.49541
#
# Poissons Ratio (x) = 0.15687 0.25626
# Poissons Ratio (y) = 0.56170 0.35624
# Poissons Ratio (z) = 0.37741 0.14653
#
# Static dielectric constant tensor:
#      x y z
#    x 1.956320 -0.034980 0.024560 
#    y -0.034980 2.084440 0.031760 
#    z 0.024560 0.031760 2.026670 
# 
# From -- ./inp_files/191331.got.cif
#   From: 2010.05.17/outbox.cif.g08.bks.cpg/sg2_96_cif.got.tgz:191331.got - 2010.06.03 11:33:40.
