data_PCOD9095541
_publ_section_title
;
Structure prediction by ZEFSAII (Michael W. Deem and Ramdas Pophale) SiO2 
 PCOD9095541
Probable space group: P -1
;
_chemical_formula_sum "Si O2"
_cell_formula_units_Z 14
_cell_length_a 9.079151
_cell_length_b 7.453989
_cell_length_c 13.804586
_cell_angle_alpha 51.617771
_cell_angle_beta 69.573681
_cell_angle_gamma 104.348814
_cell_volume 531.655781
_symmetry_space_group_name_H-M "P -1"
_symmetry_group_IT_number 2
_symmetry_cell_setting 'triclinic'
loop_
_space_group_symop_operation_xyz
x,y,z
-x,-y,-z
loop_
_atom_site_type_symbol
_atom_site_label
_atom_site_fract_x
_atom_site_fract_y
_atom_site_fract_z
Si Si1 0.042322 0.942588 0.404114
Si Si2 0.546377 0.782988 0.509631
Si Si3 0.237954 0.479306 0.524457
Si Si4 0.983212 0.380238 0.212750
Si Si5 0.542279 0.794037 0.856578
Si Si6 0.812059 0.123231 0.854307
Si Si7 0.256503 0.460923 0.869954
O O1 0.259537 0.028519 0.316512
O O2 0.048115 0.173428 0.254566
O O3 0.000000 0.000000 0.500000
O O4 0.875014 0.600338 0.527259
O O5 0.406864 0.746415 0.465601
O O6 0.648165 0.650121 0.486945
O O7 0.410000 0.605317 0.694275
O O8 0.744067 0.112354 0.382726
O O9 0.034138 0.292848 0.697707
O O10 0.943835 0.570787 0.092559
O O11 0.146695 0.629377 0.166601
O O12 0.352641 0.668814 0.873987
O O13 0.626424 0.996503 0.864834
O O14 0.500000 0.500000 0.000000
O O15 0.776280 0.839206 0.004265
#
# Coordination Sequence:
#
# PCOD9095541 Si02
#       7
#     2   2   2   2   2   2   2
#     4  10  21  41  61  84 120 164 193 240 303 358
#     4  10  20  35  58  86 120 153 196 246 294 342
#     4   9  19  36  58  83 120 156 193 241 297 350
#     4  11  22  37  63  94 117 153 206 248 291 356
#     4   9  20  40  61  82 120 162 194 238 299 352
#     4  10  21  39  62  87 123 159 197 244 301 354
#     4  11  21  38  66  88 120 159 199 246 299 349
#
# _framework density 26.332826000000001
#
# number of rings (size 3 to 8) (size 9 to 14) (size 15 to 20)
#    0.000    2.000    1.429    2.571    0.000    0.000 
#    2.571   16.429    0.000    0.000    0.000    0.000 
#    0.000    0.000    0.000    0.000    0.000    0.000 
#
# Total GULP energy -77991.514447 kJ/mol
# GULP energy per Si atom -5570.822460 kJ/mol
# Density = 2.627289 g / cm^3
# Si number density = 26.332826 Si / 1000 Ang^3
#
#
#
# Elastic Constant Matrix: (Units=GPa)
#
#
# Indices 1 2 3 4 5 6 
#
# 1 108.4439 38.5800 11.7897 -10.8646 -2.3096 11.7058
# 2 38.5800 123.7361 14.4622 -31.9713 -2.4287 41.0349
# 3 11.7897 14.4622 85.5735 -26.0565 3.5235 9.1623
# 4 -10.8646 -31.9713 -26.0565 26.1732 -6.7029 -5.4985
# 5 -2.3096 -2.4287 3.5235 -6.7029 36.4098 -13.6674
# 6 11.7058 41.0349 9.1623 -5.4985 -13.6674 47.4249
#
#
#
# Elastic Compliance Matrix: (Units=1/GPa)
#
#
# Indices 1 2 3 4 5 6 
#
# 1 0.010479 -0.003676 -0.001262 -0.001024 0.000699 0.000921
# 2 -0.003676 0.020367 0.006907 0.027038 -0.000184 -0.014968
# 3 -0.001262 0.006907 0.019231 0.026053 0.001041 -0.006060
# 4 -0.001024 0.027038 0.026053 0.096995 0.012019 -0.013466
# 5 0.000699 -0.000184 0.001041 0.012019 0.033697 0.010891
# 6 0.000921 -0.014968 -0.006060 -0.013466 0.010891 0.036558
#
#
# Mechanical properties :
#
#
# Convention : Reuss Voigt Hill
#
# Bulk Modulus (GPa) = 18.51280 49.71303 34.11292
# Shear Modulus (GPa) = 21.60816 38.86302 30.23559
#
# Velocity S-wave (km/s) = 2.86768 3.84583 3.39220
# Velocity P-wave (km/s) = 4.24386 6.21613 5.32215
#
# Compressibility (1/GPa) = 0.05401668
#
# Stress axis : x y z
#
# Youngs Moduli (GPa) = 95.42688 49.09910 51.99886
#
# Poissons Ratio (x) = 0.18049 0.06561
# Poissons Ratio (y) = 0.35080 -0.35918
# Poissons Ratio (z) = 0.12040 -0.33915
#
# Static dielectric constant tensor:
#      x y z
#    x 2.081470 0.036330 0.077000 
#    y 0.036330 2.221070 -0.004090 
#    z 0.077000 -0.004090 2.197080 
# 
# From -- ./inp_files/512839.got.cif
#   From: 2010.05.17/outbox.cif.g08.bks.cpg/sg2_257_cif.got.tgz:512839.got - 2010.06.03 11:33:40.
