data_PCOD9095719
_publ_section_title
;
Structure prediction by ZEFSAII (Michael W. Deem and Ramdas Pophale) SiO2 
 PCOD9095719
Probable space group: P -1
;
_chemical_formula_sum "Si O2"
_cell_formula_units_Z 14
_cell_length_a 15.971340
_cell_length_b 11.280113
_cell_length_c 6.919990
_cell_angle_alpha 95.358873
_cell_angle_beta 119.020773
_cell_angle_gamma 38.065284
_cell_volume 567.783156
_symmetry_space_group_name_H-M "P -1"
_symmetry_group_IT_number 2
_symmetry_cell_setting 'triclinic'
loop_
_space_group_symop_operation_xyz
x,y,z
-x,-y,-z
loop_
_atom_site_type_symbol
_atom_site_label
_atom_site_fract_x
_atom_site_fract_y
_atom_site_fract_z
Si Si1 0.615723 0.536552 0.791846
Si Si2 0.467626 0.848932 0.996653
Si Si3 0.971176 0.909831 0.700501
Si Si4 0.603483 0.283527 0.811293
Si Si5 0.107854 0.259604 0.453791
Si Si6 0.186029 0.419644 0.496018
Si Si7 0.970751 0.170452 0.711521
O O1 0.565932 0.463107 0.826509
O O2 0.510682 0.639441 0.488694
O O3 0.554773 0.715265 0.872083
O O4 0.836344 0.303709 0.005720
O O5 0.452267 0.743624 0.083466
O O6 0.600094 0.795813 0.251961
O O7 0.266889 0.107957 0.768001
O O8 0.863765 0.902520 0.622582
O O9 0.009490 0.861993 0.505220
O O10 0.888052 0.129234 0.672632
O O11 0.824491 0.041046 0.006581
O O12 0.128441 0.349904 0.349285
O O13 0.922180 0.456629 0.400392
O O14 0.128881 0.597474 0.338876
#
# Coordination Sequence:
#
# PCOD9095719 Si02
#       7
#     2   2   2   2   2   2   2
#     4  10  21  36  58  92 127 156 197 250 300 356
#     4  12  20  36  64  88 113 166 203 238 301 366
#     4   9  16  33  58  83 115 155 194 242 296 348
#     4  10  21  36  58  92 127 156 197 250 300 356
#     4  10  20  35  59  89 120 158 202 247 296 356
#     4  10  20  35  59  89 120 158 202 247 296 356
#     4   9  16  33  58  83 115 155 194 242 296 348
#
# _framework density 24.657301
#
# number of rings (size 3 to 8) (size 9 to 14) (size 15 to 20)
#    0.000    2.000    5.714    0.857    0.000    1.143 
#    0.000    1.429    0.000   14.571    0.000    0.000 
#    0.000    0.000    0.000    0.000    0.000    0.000 
#
# Total GULP energy -78278.476516 kJ/mol
# GULP energy per Si atom -5591.319751 kJ/mol
# Density = 2.460118 g / cm^3
# Si number density = 24.657301 Si / 1000 Ang^3
#
#
#
# Elastic Constant Matrix: (Units=GPa)
#
#
# Indices 1 2 3 4 5 6 
#
# 1 92.3296 51.5646 34.4280 2.6657 18.5736 52.4362
# 2 51.5646 70.7299 32.0399 2.1974 -5.7351 34.7316
# 3 34.4280 32.0399 128.8250 -23.8992 10.9126 19.2707
# 4 2.6657 2.1974 -23.8992 18.7539 1.0361 8.0890
# 5 18.5736 -5.7351 10.9126 1.0361 39.1993 1.1593
# 6 52.4362 34.7316 19.2707 8.0890 1.1593 47.7557
#
#
#
# Elastic Compliance Matrix: (Units=1/GPa)
#
#
# Indices 1 2 3 4 5 6 
#
# 1 0.053061 -0.019842 0.004975 0.023922 -0.028607 -0.049195
# 2 -0.019842 0.031834 -0.006475 -0.011240 0.016077 0.002761
# 3 0.004975 -0.006475 0.014659 0.023684 -0.007701 -0.010494
# 4 0.023922 -0.011240 0.023684 0.101716 -0.020949 -0.044370
# 5 -0.028607 0.016077 -0.007701 -0.020949 0.043366 0.025321
# 6 -0.049195 0.002761 -0.010494 -0.044370 0.025321 0.084084
#
#
# Mechanical properties :
#
#
# Convention : Reuss Voigt Hill
#
# Bulk Modulus (GPa) = 17.58407 58.66105 38.12256
# Shear Modulus (GPa) = 12.80865 32.73190 22.77027
#
# Velocity S-wave (km/s) = 2.28165 3.64740 3.04216
# Velocity P-wave (km/s) = 3.75342 6.44827 5.27581
#
# Compressibility (1/GPa) = 0.05686966
#
# Stress axis : x y z
#
# Youngs Moduli (GPa) = 18.84637 31.41307 68.21667
#
# Poissons Ratio (x) = 0.62331 -0.33937
# Poissons Ratio (y) = 0.37395 0.44168
# Poissons Ratio (z) = -0.09376 0.20339
#
# Static dielectric constant tensor:
#      x y z
#    x 2.002830 0.036570 0.012180 
#    y 0.036570 1.968580 -0.009090 
#    z 0.012180 -0.009090 1.920070 
# 
# From -- ./inp_files/196108.got.cif
#   From: 2010.05.17/outbox.cif.g08.bks.cpg/sg2_99_cif.got.tgz:196108.got - 2010.06.03 11:33:40.
