data_PCOD9095273
_publ_section_title
;
Structure prediction by ZEFSAII (Michael W. Deem and Ramdas Pophale) SiO2 
 PCOD9095273
Probable space group: P -1
;
_chemical_formula_sum "Si O2"
_cell_formula_units_Z 16
_cell_length_a 14.453431
_cell_length_b 12.031044
_cell_length_c 8.330313
_cell_angle_alpha 97.025325
_cell_angle_beta 88.510038
_cell_angle_gamma 32.558526
_cell_volume 750.767487
_symmetry_space_group_name_H-M "P -1"
_symmetry_group_IT_number 2
_symmetry_cell_setting 'triclinic'
loop_
_space_group_symop_operation_xyz
x,y,z
-x,-y,-z
loop_
_atom_site_type_symbol
_atom_site_label
_atom_site_fract_x
_atom_site_fract_y
_atom_site_fract_z
Si Si1 0.095249 0.159961 0.423233
Si Si2 0.860437 0.728631 0.964522
Si Si3 0.112166 0.949332 0.622097
Si Si4 0.433117 0.010340 0.719617
Si Si5 0.087720 0.695069 0.056700
Si Si6 0.762664 0.392700 0.293010
Si Si7 0.824828 0.569845 0.715779
Si Si8 0.447906 0.881620 0.371866
O O1 0.942257 0.258390 0.342181
O O2 0.982266 0.372110 0.556201
O O3 0.169417 0.999817 0.530508
O O4 0.279858 0.005229 0.307142
O O5 0.841120 0.680878 0.792326
O O6 0.943515 0.765513 0.984162
O O7 0.000000 0.500000 0.000000
O O8 0.683657 0.905146 0.109969
O O9 0.246685 0.722500 0.654703
O O10 0.995922 0.119164 0.802200
O O11 0.000000 0.000000 0.500000
O O12 0.632739 0.760735 0.680529
O O13 0.366876 0.029420 0.557098
O O14 0.443746 0.134039 0.729763
O O15 0.171403 0.521868 0.151454
O O16 0.209778 0.622765 0.901921
O O17 0.587546 0.644655 0.379042
#
# Coordination Sequence:
#
# PCOD9095273 Si02
#       8
#     2   2   2   2   2   2   2   2
#     4  10  22  41  62  91 122 160 207 248 302 361
#     4  10  20  35  56  83 123 160 200 237 297 356
#     4   9  20  40  68  88 115 159 203 253 309 359
#     4  11  22  37  55  91 125 164 203 248 293 359
#     4  10  21  38  63  90 120 158 204 247 303 363
#     4  11  22  40  63  90 122 159 202 256 307 346
#     4  10  20  38  59  85 123 167 197 243 299 358
#     4  11  23  37  60  91 126 157 209 247 296 363
#
# _framework density 21.311526000000001
#
# number of rings (size 3 to 8) (size 9 to 14) (size 15 to 20)
#    0.000    1.750    1.250    4.500    1.750    2.000 
#    0.000    0.000    0.000    3.750    0.000    0.000 
#    0.000    0.000    0.000    0.000    0.000    0.000 
#
# Total GULP energy -89250.683054 kJ/mol
# GULP energy per Si atom -5578.167691 kJ/mol
# Density = 2.126302 g / cm^3
# Si number density = 21.311526 Si / 1000 Ang^3
#
#
#
# Elastic Constant Matrix: (Units=GPa)
#
#
# Indices 1 2 3 4 5 6 
#
# 1 45.2564 27.8011 11.9817 17.1582 1.7859 1.5963
# 2 27.8011 124.3809 4.0690 5.6150 -9.6158 14.0569
# 3 11.9817 4.0690 55.0357 6.0818 4.4560 19.4078
# 4 17.1582 5.6150 6.0818 24.3688 2.2883 3.0046
# 5 1.7859 -9.6158 4.4560 2.2883 16.8590 -5.2731
# 6 1.5963 14.0569 19.4078 3.0046 -5.2731 35.6465
#
#
#
# Elastic Compliance Matrix: (Units=1/GPa)
#
#
# Indices 1 2 3 4 5 6 
#
# 1 0.037809 -0.008057 -0.007554 -0.023697 -0.001061 0.007437
# 2 -0.008057 0.010496 0.001809 0.002903 0.004615 -0.004325
# 3 -0.007554 0.001809 0.026085 0.001360 -0.010320 -0.016218
# 4 -0.023697 0.002903 0.001360 0.058109 -0.006155 -0.006632
# 5 -0.001061 0.004615 -0.010320 -0.006155 0.070239 0.014756
# 6 0.007437 -0.004325 -0.016218 -0.006632 0.014756 0.040998
#
#
# Mechanical properties :
#
#
# Convention : Reuss Voigt Hill
#
# Bulk Modulus (GPa) = 21.37320 34.70852 28.04086
# Shear Modulus (GPa) = 17.42555 27.42961 22.42758
#
# Velocity S-wave (km/s) = 2.86257 3.59148 3.24754
# Velocity P-wave (km/s) = 4.58001 5.78964 5.21998
#
# Compressibility (1/GPa) = 0.04678757
#
# Stress axis : x y z
#
# Youngs Moduli (GPa) = 26.44846 95.27456 38.33573
#
# Poissons Ratio (x) = 0.76759 0.28957
# Poissons Ratio (y) = 0.21309 -0.06934
# Poissons Ratio (z) = 0.19978 -0.17232
#
# Static dielectric constant tensor:
#      x y z
#    x 1.825070 0.019760 -0.052090 
#    y 0.019760 1.759590 0.044550 
#    z -0.052090 0.044550 1.221800 
# 
# From -- ./inp_files/207185.got.cif
#   From: 2010.05.17/outbox.cif.g08.bks.cpg/sg2_104_cif.got.tgz:207185.got - 2010.06.03 11:33:40.
