data_PCOD9095464
_publ_section_title
;
Structure prediction by ZEFSAII (Michael W. Deem and Ramdas Pophale) SiO2 
 PCOD9095464
Probable space group: P -1
;
_chemical_formula_sum "Si O2"
_cell_formula_units_Z 16
_cell_length_a 9.257917
_cell_length_b 8.978172
_cell_length_c 10.440478
_cell_angle_alpha 66.758629
_cell_angle_beta 61.564365
_cell_angle_gamma 62.767121
_cell_volume 660.963071
_symmetry_space_group_name_H-M "P -1"
_symmetry_group_IT_number 2
_symmetry_cell_setting 'triclinic'
loop_
_space_group_symop_operation_xyz
x,y,z
-x,-y,-z
loop_
_atom_site_type_symbol
_atom_site_label
_atom_site_fract_x
_atom_site_fract_y
_atom_site_fract_z
Si Si1 0.283517 0.441117 0.156849
Si Si2 0.256905 0.078274 0.738093
Si Si3 0.403396 0.522417 0.354693
Si Si4 0.865715 0.043889 0.401886
Si Si5 0.464865 0.766762 0.416781
Si Si6 0.571292 0.123629 0.011847
Si Si7 0.029489 0.696047 0.582556
Si Si8 0.894199 0.185736 0.913084
O O1 0.375228 0.472009 0.239823
O O2 0.417446 0.295166 0.062709
O O3 0.120548 0.383163 0.293145
O O4 0.218070 0.626766 0.048650
O O5 0.386510 0.172385 0.607437
O O6 0.068265 0.219842 0.784534
O O7 0.223657 0.944297 0.700488
O O8 0.354183 0.980827 0.853970
O O9 0.476589 0.679557 0.302312
O O10 0.541648 0.371140 0.427227
O O11 0.216170 0.571341 0.493161
O O12 0.713555 0.077950 0.559621
O O13 0.949182 0.189837 0.343151
O O14 0.976030 0.846595 0.446586
O O15 0.754610 0.151561 0.885748
O O16 0.500000 0.000000 0.000000
O O17 0.000000 0.000000 0.000000
#
# Coordination Sequence:
#
# PCOD9095464 Si02
#       8
#     2   2   2   2   2   2   2   2
#     4  12  22  41  72  92 133 182 217 273 347 391
#     4  11  21  40  68  87 132 181 212 273 343 382
#     4  10  21  35  59  98 138 164 211 257 318 420
#     4  10  20  35  60  98 142 171 215 256 318 414
#     4  10  20  35  57  97 134 169 209 256 321 410
#     4  11  27  45  67  94 125 171 240 292 327 388
#     4  10  21  35  61 105 135 173 214 256 323 415
#     4  10  25  46  65  92 124 168 231 292 332 381
#
# _framework density 24.207101000000002
#
# number of rings (size 3 to 8) (size 9 to 14) (size 15 to 20)
#    0.000    1.500    0.000    4.875    3.500    0.000 
#    0.000    2.500    0.000    0.000    0.000    0.000 
#    0.000    0.000    0.000    0.000    0.000    0.000 
#
# Total GULP energy -89146.881180 kJ/mol
# GULP energy per Si atom -5571.680074 kJ/mol
# Density = 2.415200 g / cm^3
# Si number density = 24.207101 Si / 1000 Ang^3
#
#
#
# Elastic Constant Matrix: (Units=GPa)
#
#
# Indices 1 2 3 4 5 6 
#
# 1 147.1786 71.0621 30.5192 7.2483 16.0657 10.3130
# 2 71.0621 154.1174 35.4484 8.3537 17.6955 -12.4756
# 3 30.5192 35.4484 42.4094 1.0954 3.4020 5.8972
# 4 7.2483 8.3537 1.0954 23.2990 3.9799 0.1835
# 5 16.0657 17.6955 3.4020 3.9799 42.0215 15.9918
# 6 10.3130 -12.4756 5.8972 0.1835 15.9918 45.5593
#
#
#
# Elastic Compliance Matrix: (Units=1/GPa)
#
#
# Indices 1 2 3 4 5 6 
#
# 1 0.009600 -0.003684 -0.003390 -0.001354 -0.000779 -0.002464
# 2 -0.003684 0.010981 -0.006989 -0.001666 -0.004964 0.006494
# 3 -0.003390 -0.006989 0.032442 0.001395 0.004059 -0.006776
# 4 -0.001354 -0.001666 0.001395 0.044441 -0.003358 0.000669
# 5 -0.000779 -0.004964 0.004059 -0.003358 0.030955 -0.012560
# 6 -0.002464 0.006494 -0.006776 0.000669 -0.012560 0.029569
#
#
# Mechanical properties :
#
#
# Convention : Reuss Voigt Hill
#
# Bulk Modulus (GPa) = 40.16463 68.64055 54.40259
# Shear Modulus (GPa) = 25.71870 35.95434 30.83652
#
# Velocity S-wave (km/s) = 3.26305 3.85811 3.57299
# Velocity P-wave (km/s) = 5.55201 6.94722 6.28843
#
# Compressibility (1/GPa) = 0.02489753
#
# Stress axis : x y z
#
# Youngs Moduli (GPa) = 104.16376 91.07021 30.82471
#
# Poissons Ratio (x) = 0.33547 0.10448
# Poissons Ratio (y) = 0.38370 0.21544
# Poissons Ratio (z) = 0.35307 0.63651
#
# Static dielectric constant tensor:
#      x y z
#    x 1.946850 0.059150 -0.076540 
#    y 0.059150 1.999010 -0.053250 
#    z -0.076540 -0.053250 2.172110 
# 
# From -- ./inp_files/378220.got.cif
#   From: 2010.05.17/outbox.cif.g08.bks.cpg/sg2_190_cif.got.tgz:378220.got - 2010.06.03 11:33:40.
