data_PCOD9095580
_publ_section_title
;
Structure prediction by ZEFSAII (Michael W. Deem and Ramdas Pophale) SiO2 
 PCOD9095580
Probable space group: P -1
;
_chemical_formula_sum "Si O2"
_cell_formula_units_Z 14
_cell_length_a 21.049514
_cell_length_b 9.332268
_cell_length_c 8.168983
_cell_angle_alpha 32.329174
_cell_angle_beta 126.488310
_cell_angle_gamma 129.736074
_cell_volume 654.112111
_symmetry_space_group_name_H-M "P -1"
_symmetry_group_IT_number 2
_symmetry_cell_setting 'triclinic'
loop_
_space_group_symop_operation_xyz
x,y,z
-x,-y,-z
loop_
_atom_site_type_symbol
_atom_site_label
_atom_site_fract_x
_atom_site_fract_y
_atom_site_fract_z
Si Si1 0.468884 0.765638 0.898113
Si Si2 0.427140 0.631900 0.582258
Si Si3 0.811149 0.951416 0.450593
Si Si4 0.774364 0.159496 0.637086
Si Si5 0.058714 0.816167 0.304651
Si Si6 0.759418 0.401420 0.733603
Si Si7 0.298078 0.410187 0.075888
O O1 0.432504 0.699785 0.720274
O O2 0.504136 0.099409 0.652132
O O3 0.545311 0.641453 0.141920
O O4 0.393620 0.598533 0.060555
O O5 0.335837 0.603054 0.409348
O O6 0.815377 0.723947 0.540675
O O7 0.747599 0.756549 0.674692
O O8 0.897088 0.100466 0.532325
O O9 0.776631 0.191117 0.096154
O O10 0.863167 0.135283 0.744491
O O11 0.775573 0.281140 0.700907
O O12 0.709595 0.844273 0.819767
O O13 0.749537 0.378614 0.268146
O O14 0.000000 0.500000 0.500000
O O15 0.000000 0.000000 0.000000
#
# Coordination Sequence:
#
# PCOD9095580 Si02
#       7
#     2   2   2   2   2   2   2
#     4  10  20  35  58  89 119 167 225 261 296 344
#     4  10  21  34  57  89 125 165 208 272 305 345
#     4  11  25  41  65  92 131 164 199 261 325 372
#     4  11  23  39  69  94 121 167 214 251 302 382
#     4  11  23  46  70  94 122 160 206 251 306 384
#     4  12  23  42  60  97 132 164 206 260 321 368
#     4  11  21  41  62  92 122 172 225 256 292 377
#
# _framework density 21.403058000000001
#
# number of rings (size 3 to 8) (size 9 to 14) (size 15 to 20)
#    0.000    1.143    1.429    6.857    4.000    0.000 
#    0.000    8.571    0.000    0.000    0.000    0.000 
#    0.000    0.000    0.000    0.000    0.000    0.000 
#
# Total GULP energy -78356.305511 kJ/mol
# GULP energy per Si atom -5596.878965 kJ/mol
# Density = 2.135434 g / cm^3
# Si number density = 21.403058 Si / 1000 Ang^3
#
#
#
# Elastic Constant Matrix: (Units=GPa)
#
#
# Indices 1 2 3 4 5 6 
#
# 1 43.3457 25.4248 16.0269 10.3317 14.0544 6.9537
# 2 25.4248 105.8550 46.7472 -4.6067 15.7016 3.8286
# 3 16.0269 46.7472 160.7919 14.1425 26.5901 14.3040
# 4 10.3317 -4.6067 14.1425 45.0176 11.2132 5.2355
# 5 14.0544 15.7016 26.5901 11.2132 27.6954 -4.6630
# 6 6.9537 3.8286 14.3040 5.2355 -4.6630 27.8837
#
#
#
# Elastic Compliance Matrix: (Units=1/GPa)
#
#
# Indices 1 2 3 4 5 6 
#
# 1 0.033939 -0.006669 0.002522 -0.004013 -0.016052 -0.010773
# 2 -0.006669 0.013016 -0.003051 0.004526 -0.002879 0.000110
# 3 0.002522 -0.003051 0.008930 -0.000783 -0.008837 -0.006122
# 4 -0.004013 0.004526 -0.000783 0.027584 -0.012025 -0.006409
# 5 -0.016052 -0.002879 -0.008837 -0.012025 0.062893 0.021707
# 6 -0.010773 0.000110 -0.006122 -0.006409 0.021707 0.046508
#
#
# Mechanical properties :
#
#
# Convention : Reuss Voigt Hill
#
# Bulk Modulus (GPa) = 24.10329 54.04337 39.07333
# Shear Modulus (GPa) = 22.61448 34.90559 28.76003
#
# Velocity S-wave (km/s) = 3.25407 4.04278 3.66968
# Velocity P-wave (km/s) = 5.04030 6.86274 6.02088
#
# Compressibility (1/GPa) = 0.04148811
#
# Stress axis : x y z
#
# Youngs Moduli (GPa) = 29.46437 76.82685 111.98556
#
# Poissons Ratio (x) = 0.51239 -0.28242
# Poissons Ratio (y) = 0.19651 0.34168
# Poissons Ratio (z) = -0.07431 0.23441
#
# Static dielectric constant tensor:
#      x y z
#    x 1.783040 -0.040630 -0.023590 
#    y -0.040630 1.803140 0.003020 
#    z -0.023590 0.003020 1.744050 
# 
# From -- ./inp_files/343237.got.cif
#   From: 2010.05.17/outbox.cif.g08.bks.cpg/sg2_172_cif.got.tgz:343237.got - 2010.06.03 11:33:40.
