data_PCOD9095507
_publ_section_title
;
Structure prediction by ZEFSAII (Michael W. Deem and Ramdas Pophale) SiO2 
 PCOD9095507
Probable space group: P -1
;
_chemical_formula_sum "Si O2"
_cell_formula_units_Z 16
_cell_length_a 16.387516
_cell_length_b 20.166263
_cell_length_c 7.874646
_cell_angle_alpha 34.563370
_cell_angle_beta 137.217937
_cell_angle_gamma 146.810607
_cell_volume 799.730565
_symmetry_space_group_name_H-M "P -1"
_symmetry_group_IT_number 2
_symmetry_cell_setting 'triclinic'
loop_
_space_group_symop_operation_xyz
x,y,z
-x,-y,-z
loop_
_atom_site_type_symbol
_atom_site_label
_atom_site_fract_x
_atom_site_fract_y
_atom_site_fract_z
Si Si1 0.064719 0.199430 0.562125
Si Si2 0.156582 0.356027 0.921118
Si Si3 0.614637 0.241475 0.099587
Si Si4 0.707077 0.060769 0.808956
Si Si5 0.990671 0.077205 0.081288
Si Si6 0.357775 0.494801 0.242758
Si Si7 0.882367 0.255146 0.965538
Si Si8 0.139767 0.550079 0.234275
O O1 0.215537 0.359792 0.415391
O O2 0.052208 0.145054 0.846169
O O3 0.924309 0.200354 0.305898
O O4 0.049227 0.081929 0.656528
O O5 0.145087 0.423309 0.587846
O O6 0.116281 0.198654 0.146180
O O7 0.024620 0.328358 0.900948
O O8 0.307817 0.455846 0.051455
O O9 0.691501 0.173540 0.446243
O O10 0.446081 0.101847 0.094593
O O11 0.616783 0.355571 0.984211
O O12 0.711046 0.334043 0.888077
O O13 0.842504 0.064027 0.931275
O O14 0.746497 0.122248 0.931112
O O15 0.500000 0.500000 0.500000
O O16 0.865015 0.372322 0.768741
O O17 0.000000 0.500000 0.000000
#
# Coordination Sequence:
#
# PCOD9095507 Si02
#       8
#     2   2   2   2   2   2   2   2
#     4  10  21  36  59  87 113 148 193 231 281 341
#     4  10  21  36  59  86 112 147 194 232 279 340
#     4  11  23  38  58  83 114 149 191 231 284 344
#     4  10  22  39  58  82 113 151 188 234 286 334
#     4  10  20  38  59  83 114 147 188 238 280 333
#     4  11  23  40  59  82 117 154 188 234 284 337
#     4  10  20  35  58  84 112 147 189 235 281 333
#     4  12  21  36  61  88 118 148 185 237 285 332
#
# _framework density 20.006739
#
# number of rings (size 3 to 8) (size 9 to 14) (size 15 to 20)
#    0.000    1.500    0.000    7.125    0.000    6.000 
#    0.000    6.250    0.000    0.000    0.000    0.000 
#    0.000    0.000    0.000    0.000    0.000    0.000 
#
# Total GULP energy -89364.509706 kJ/mol
# GULP energy per Si atom -5585.281857 kJ/mol
# Density = 1.996120 g / cm^3
# Si number density = 20.006739 Si / 1000 Ang^3
#
#
#
# Elastic Constant Matrix: (Units=GPa)
#
#
# Indices 1 2 3 4 5 6 
#
# 1 44.2990 18.4245 2.7556 -11.9786 0.4047 -16.9080
# 2 18.4245 119.2181 31.2913 -11.6128 9.0515 -19.8117
# 3 2.7556 31.2913 56.2117 -11.2148 -1.3173 -3.9067
# 4 -11.9786 -11.6128 -11.2148 33.8324 -11.2609 7.1592
# 5 0.4047 9.0515 -1.3173 -11.2609 43.8442 -6.4904
# 6 -16.9080 -19.8117 -3.9067 7.1592 -6.4904 27.4641
#
#
#
# Elastic Compliance Matrix: (Units=1/GPa)
#
#
# Indices 1 2 3 4 5 6 
#
# 1 0.032687 -0.002384 0.003036 0.009848 0.005409 0.017547
# 2 -0.002384 0.011330 -0.005993 -0.000747 -0.001859 0.005608
# 3 0.003036 -0.005993 0.022613 0.007877 0.003856 -0.000380
# 4 0.009848 -0.000747 0.007877 0.039017 0.010154 -0.001126
# 5 0.005409 -0.001859 0.003856 0.010154 0.026787 0.006221
# 6 0.017547 0.005608 -0.000380 -0.001126 0.006221 0.052969
#
#
# Mechanical properties :
#
#
# Convention : Reuss Voigt Hill
#
# Bulk Modulus (GPa) = 17.87379 36.07462 26.97420
# Shear Modulus (GPa) = 23.28463 32.17863 27.73163
#
# Velocity S-wave (km/s) = 3.41521 4.01482 3.72709
# Velocity P-wave (km/s) = 4.95023 6.28984 5.65981
#
# Compressibility (1/GPa) = 0.05594785
#
# Stress axis : x y z
#
# Youngs Moduli (GPa) = 30.59279 88.26373 44.22311
#
# Poissons Ratio (x) = 0.21041 -0.13425
# Poissons Ratio (y) = 0.07293 0.26502
# Poissons Ratio (z) = -0.09287 0.52895
#
# Static dielectric constant tensor:
#      x y z
#    x 1.687210 -0.025490 -0.002030 
#    y -0.025490 1.721520 0.006480 
#    z -0.002030 0.006480 1.727160 
# 
# From -- ./inp_files/338042.got.cif
#   From: 2010.05.17/outbox.cif.g08.bks.cpg/sg2_170_cif.got.tgz:338042.got - 2010.06.03 11:33:40.
