data_PCOD9095923
_publ_section_title
;
Structure prediction by ZEFSAII (Michael W. Deem and Ramdas Pophale) SiO2 
 PCOD9095923
Probable space group: P -1
;
_chemical_formula_sum "Si O2"
_cell_formula_units_Z 16
_cell_length_a 8.171490
_cell_length_b 10.661051
_cell_length_c 16.177125
_cell_angle_alpha 32.926234
_cell_angle_beta 67.296468
_cell_angle_gamma 79.848151
_cell_volume 675.324108
_symmetry_space_group_name_H-M "P -1"
_symmetry_group_IT_number 2
_symmetry_cell_setting 'triclinic'
loop_
_space_group_symop_operation_xyz
x,y,z
-x,-y,-z
loop_
_atom_site_type_symbol
_atom_site_label
_atom_site_fract_x
_atom_site_fract_y
_atom_site_fract_z
Si Si1 0.479857 0.241185 0.690513
Si Si2 0.888576 0.367673 0.518646
Si Si3 0.437092 0.948308 0.706183
Si Si4 0.580882 0.470089 0.182656
Si Si5 0.792135 0.825580 0.503526
Si Si6 0.024369 0.684095 0.176424
Si Si7 0.256863 0.117606 0.967508
Si Si8 0.185690 0.767283 0.606836
O O1 0.500000 0.500000 0.500000
O O2 0.687709 0.227033 0.665834
O O3 0.395838 0.237895 0.799665
O O4 0.387378 0.015029 0.771795
O O5 0.000000 0.500000 0.500000
O O6 0.026335 0.228129 0.534906
O O7 0.879899 0.571789 0.340507
O O8 0.700713 0.357219 0.284663
O O9 0.313177 0.066008 0.606581
O O10 0.654894 0.101668 0.563463
O O11 0.371189 0.384389 0.305290
O O12 0.667732 0.754873 0.031020
O O13 0.586306 0.323304 0.176286
O O14 0.860017 0.028335 0.446236
O O15 0.938896 0.831995 0.045878
O O16 0.001206 0.435004 0.271004
O O17 0.203834 0.836079 0.107486
#
# Coordination Sequence:
#
# PCOD9095923 Si02
#       8
#     2   2   2   2   2   2   2   2
#     4  12  20  35  57  83 111 144 188 229 273 321
#     4  12  23  34  53  87 117 140 183 232 282 319
#     4   9  16  31  58  83 110 137 187 232 267 318
#     4   8  15  32  53  81 107 145 185 222 269 327
#     4   9  18  30  54  83 111 139 177 235 276 318
#     4  10  20  36  55  83 110 145 186 226 270 334
#     4  10  20  35  61  80 109 147 189 227 269 329
#     4   8  14  32  55  80 106 141 187 225 268 324
#
# _framework density 23.692328
#
# number of rings (size 3 to 8) (size 9 to 14) (size 15 to 20)
#    0.000    2.250    2.500    4.500    0.000    0.500 
#    0.000    2.500    2.750    3.750    0.000    0.000 
#    0.000    0.000    0.000    0.000    0.000    0.000 
#
# Total GULP energy -89113.040969 kJ/mol
# GULP energy per Si atom -5569.565061 kJ/mol
# Density = 2.363840 g / cm^3
# Si number density = 23.692328 Si / 1000 Ang^3
#
#
#
# Elastic Constant Matrix: (Units=GPa)
#
#
# Indices 1 2 3 4 5 6 
#
# 1 86.6536 30.8300 19.8426 -21.6583 -16.5121 -7.0431
# 2 30.8300 114.9059 22.8735 -38.3509 -10.8631 1.0784
# 3 19.8426 22.8735 58.9134 -31.0935 -17.6741 3.8264
# 4 -21.6583 -38.3509 -31.0935 38.6538 16.6417 -16.2208
# 5 -16.5121 -10.8631 -17.6741 16.6417 25.0979 -9.0610
# 6 -7.0431 1.0784 3.8264 -16.2208 -9.0610 47.5710
#
#
#
# Elastic Compliance Matrix: (Units=1/GPa)
#
#
# Indices 1 2 3 4 5 6 
#
# 1 0.015659 -0.001053 0.001379 0.008259 0.007692 0.006513
# 2 -0.001053 0.015071 0.004852 0.022234 -0.003306 0.006064
# 3 0.001379 0.004852 0.034489 0.034108 0.008494 0.010568
# 4 0.008259 0.022234 0.034108 0.099001 -0.016228 0.028642
# 5 0.007692 -0.003306 0.008494 -0.016228 0.062722 0.006944
# 6 0.006513 0.006064 0.010568 0.028642 0.006944 0.032087
#
#
# Mechanical properties :
#
#
# Convention : Reuss Voigt Hill
#
# Bulk Modulus (GPa) = 13.23200 45.28503 29.25851
# Shear Modulus (GPa) = 18.25722 34.72632 26.49177
#
# Velocity S-wave (km/s) = 2.77897 3.83263 3.34751
# Velocity P-wave (km/s) = 3.98672 6.22420 5.22660
#
# Compressibility (1/GPa) = 0.07557439
#
# Stress axis : x y z
#
# Youngs Moduli (GPa) = 63.86296 66.35395 28.99445
#
# Poissons Ratio (x) = 0.06987 -0.03997
# Poissons Ratio (y) = 0.06725 -0.14069
# Poissons Ratio (z) = -0.08804 -0.32197
#
# Static dielectric constant tensor:
#      x y z
#    x 2.017070 0.041400 0.079570 
#    y 0.041400 2.137260 0.131060 
#    z 0.079570 0.131060 2.139020 
# 
# From -- ./inp_files/588845.got.cif
#   From: 2010.05.17/outbox.cif.g08.bks.cpg/sg2_295_cif.got.tgz:588845.got - 2010.06.03 11:33:40.
