data_PCOD9095704
_publ_section_title
;
Structure prediction by ZEFSAII (Michael W. Deem and Ramdas Pophale) SiO2 
 PCOD9095704
Probable space group: P -1
;
_chemical_formula_sum "Si O2"
_cell_formula_units_Z 14
_cell_length_a 7.125441
_cell_length_b 18.059605
_cell_length_c 8.209465
_cell_angle_alpha 117.841213
_cell_angle_beta 37.395657
_cell_angle_gamma 103.516235
_cell_volume 548.453774
_symmetry_space_group_name_H-M "P -1"
_symmetry_group_IT_number 2
_symmetry_cell_setting 'triclinic'
loop_
_space_group_symop_operation_xyz
x,y,z
-x,-y,-z
loop_
_atom_site_type_symbol
_atom_site_label
_atom_site_fract_x
_atom_site_fract_y
_atom_site_fract_z
Si Si1 0.416565 0.843006 0.614191
Si Si2 0.159798 0.227054 0.452479
Si Si3 0.877710 0.468520 0.216824
Si Si4 0.985639 0.388206 0.520677
Si Si5 0.906963 0.951920 0.286417
Si Si6 0.627809 0.667808 0.123366
Si Si7 0.669490 0.121644 0.784207
O O1 0.558639 0.788775 0.624224
O O2 0.455161 0.767801 0.377470
O O3 0.655333 0.901463 0.469260
O O4 0.077543 0.906593 0.960369
O O5 0.049945 0.324607 0.567091
O O6 0.878456 0.190109 0.681740
O O7 0.313739 0.170197 0.130423
O O8 0.500000 0.500000 0.500000
O O9 0.987464 0.519216 0.343434
O O10 0.000000 0.500000 0.000000
O O11 0.052937 0.368322 0.025979
O O12 0.632973 0.384665 0.703886
O O13 0.247327 0.349542 0.164022
O O14 0.190570 0.934591 0.208438
O O15 0.734966 0.053429 0.520993
#
# Coordination Sequence:
#
# PCOD9095704 Si02
#       7
#     2   2   2   2   2   2   2
#     4  10  20  35  59  88 119 160 210 256 301 360
#     4  10  20  35  59  88 119 160 210 256 301 360
#     4  12  26  46  72  98 124 158 208 258 304 364
#     4  12  25  43  65  93 131 167 202 248 313 376
#     4   9  17  31  55  87 119 154 205 265 310 347
#     4  12  25  43  65  93 131 167 202 248 313 376
#     4   9  17  31  55  87 119 154 205 265 310 347
#
# _framework density 25.526309999999999
#
# number of rings (size 3 to 8) (size 9 to 14) (size 15 to 20)
#    0.000    1.429    0.000    6.000    0.000    6.857 
#    0.000    0.000    0.000   17.143    0.000    0.000 
#    0.000    0.000    0.000    0.000    0.000    0.000 
#
# Total GULP energy -78464.690142 kJ/mol
# GULP energy per Si atom -5604.620724 kJ/mol
# Density = 2.546821 g / cm^3
# Si number density = 25.526310 Si / 1000 Ang^3
#
#
#
# Elastic Constant Matrix: (Units=GPa)
#
#
# Indices 1 2 3 4 5 6 
#
# 1 61.6818 -0.5175 6.8447 8.2992 -0.3887 -10.7003
# 2 -0.5175 66.1067 20.9143 10.3363 -2.4235 2.5417
# 3 6.8447 20.9143 168.0583 -4.2182 4.2668 12.1790
# 4 8.2992 10.3363 -4.2182 43.8050 4.2985 -3.3072
# 5 -0.3887 -2.4235 4.2668 4.2985 48.4815 4.3993
# 6 -10.7003 2.5417 12.1790 -3.3072 4.3993 35.7709
#
#
#
# Elastic Compliance Matrix: (Units=1/GPa)
#
#
# Indices 1 2 3 4 5 6 
#
# 1 0.017740 0.000864 -0.001305 -0.003295 0.000105 0.005372
# 2 0.000864 0.016618 -0.002198 -0.004502 0.001501 -0.000775
# 3 -0.001305 -0.002198 0.006487 0.001280 -0.000601 -0.002251
# 4 -0.003295 -0.004502 0.001280 0.025022 -0.002723 0.001547
# 5 0.000105 0.001501 -0.000601 -0.002723 0.021245 -0.002735
# 6 0.005372 -0.000775 -0.002251 0.001547 -0.002735 0.030863
#
#
# Mechanical properties :
#
#
# Convention : Reuss Voigt Hill
#
# Bulk Modulus (GPa) = 28.11495 38.92552 33.52023
# Shear Modulus (GPa) = 37.00689 43.51850 40.26270
#
# Velocity S-wave (km/s) = 3.81170 4.13346 3.97583
# Velocity P-wave (km/s) = 5.51453 6.16952 5.85120
#
# Compressibility (1/GPa) = 0.03556826
#
# Stress axis : x y z
#
# Youngs Moduli (GPa) = 56.36908 60.17545 154.14282
#
# Poissons Ratio (x) = -0.05200 0.20112
# Poissons Ratio (y) = -0.04872 0.33884
# Poissons Ratio (z) = 0.07355 0.13228
#
# Static dielectric constant tensor:
#      x y z
#    x 2.071840 -0.024600 0.033260 
#    y -0.024600 1.967070 0.049750 
#    z 0.033260 0.049750 1.983850 
# 
# From -- ./inp_files/218140.got.cif
#   From: 2010.05.17/outbox.cif.g08.bks.cpg/sg2_110_cif.got.tgz:218140.got - 2010.06.03 11:33:40.
