data_PCOD9095080
_publ_section_title
;
Structure prediction by ZEFSAII (Michael W. Deem and Ramdas Pophale) SiO2 
 PCOD9095080
Probable space group: P -1
;
_chemical_formula_sum "Si O2"
_cell_formula_units_Z 16
_cell_length_a 18.966481
_cell_length_b 7.344267
_cell_length_c 15.788338
_cell_angle_alpha 122.272064
_cell_angle_beta 157.382625
_cell_angle_gamma 51.378413
_cell_volume 654.229280
_symmetry_space_group_name_H-M "P -1"
_symmetry_group_IT_number 2
_symmetry_cell_setting 'triclinic'
loop_
_space_group_symop_operation_xyz
x,y,z
-x,-y,-z
loop_
_atom_site_type_symbol
_atom_site_label
_atom_site_fract_x
_atom_site_fract_y
_atom_site_fract_z
Si Si1 0.608659 0.238767 0.457094
Si Si2 0.876663 0.532268 0.216713
Si Si3 0.762299 0.586877 0.514428
Si Si4 0.654709 0.806822 0.187186
Si Si5 0.384976 0.699411 0.212127
Si Si6 0.660626 0.003426 0.984373
Si Si7 0.215852 0.006820 0.246316
Si Si8 0.922688 0.055442 0.625462
O O1 0.516973 0.490776 0.371944
O O2 0.647066 0.199148 0.588883
O O3 0.829153 0.099764 0.626438
O O4 0.463591 0.111716 0.237162
O O5 0.786344 0.578765 0.221958
O O6 0.114161 0.422606 0.435991
O O7 0.783610 0.788533 0.132767
O O8 0.791891 0.372140 0.030477
O O9 0.523835 0.681482 0.280626
O O10 0.841472 0.316982 0.562103
O O11 0.805397 0.748999 0.673732
O O12 0.809482 0.915546 0.418073
O O13 0.506047 0.796463 0.093925
O O14 0.500000 0.000000 0.000000
O O15 0.311702 0.941328 0.242927
O O16 0.839369 0.046081 0.147318
O O17 0.000000 0.000000 0.000000
#
# Coordination Sequence:
#
# PCOD9095080 Si02
#       8
#     2   2   2   2   2   2   2   2
#     4   9  20  38  57  80 110 151 188 229 277 335
#     4   9  17  31  53  85 116 143 181 236 273 320
#     4  10  20  35  54  80 114 144 183 231 277 327
#     4   9  16  27  53  90 118 142 181 234 279 319
#     4  10  20  39  57  79 113 150 191 228 271 332
#     4   8  16  31  52  79 112 143 183 223 270 327
#     4  12  23  39  58  81 115 147 185 236 291 331
#     4   9  18  35  57  84 115 147 188 230 272 334
#
# _framework density 24.45626
#
# number of rings (size 3 to 8) (size 9 to 14) (size 15 to 20)
#    0.000    2.500    1.250    3.000    0.000    5.500 
#    4.500    1.250    0.000    3.000    0.000   36.750 
#    0.000    0.000    0.000    0.000    0.000    0.000 
#
# Total GULP energy -89401.217391 kJ/mol
# GULP energy per Si atom -5587.576087 kJ/mol
# Density = 2.440060 g / cm^3
# Si number density = 24.456260 Si / 1000 Ang^3
#
#
#
# Elastic Constant Matrix: (Units=GPa)
#
#
# Indices 1 2 3 4 5 6 
#
# 1 104.3426 40.0223 54.6627 -16.5893 30.9768 -43.5323
# 2 40.0223 103.8030 33.5939 -0.0120 11.6968 -10.5746
# 3 54.6627 33.5939 127.4094 -21.8789 32.3713 -27.1947
# 4 -16.5893 -0.0120 -21.8789 34.4456 -7.8534 3.2781
# 5 30.9768 11.6968 32.3713 -7.8534 38.5874 -14.5041
# 6 -43.5323 -10.5746 -27.1947 3.2781 -14.5041 59.7272
#
#
#
# Elastic Compliance Matrix: (Units=1/GPa)
#
#
# Indices 1 2 3 4 5 6 
#
# 1 0.020413 -0.005203 -0.002124 0.005671 -0.007822 0.010779
# 2 -0.005203 0.012039 -0.002248 -0.003521 0.000836 -0.002288
# 3 -0.002124 -0.002248 0.012176 0.005147 -0.006090 0.001836
# 4 0.005671 -0.003521 0.005147 0.034828 0.000844 0.004147
# 5 -0.007822 0.000836 -0.006090 0.000844 0.037498 0.000733
# 6 0.010779 -0.002288 0.001836 0.004147 0.000733 0.024981
#
#
# Mechanical properties :
#
#
# Convention : Reuss Voigt Hill
#
# Bulk Modulus (GPa) = 39.24777 65.79031 52.51904
# Shear Modulus (GPa) = 29.48512 40.37045 34.92778
#
# Velocity S-wave (km/s) = 3.47598 4.06731 3.78322
# Velocity P-wave (km/s) = 5.67388 7.00121 6.37220
#
# Compressibility (1/GPa) = 0.02547916
#
# Stress axis : x y z
#
# Youngs Moduli (GPa) = 48.98793 83.06093 82.13059
#
# Poissons Ratio (x) = 0.43216 0.17445
# Poissons Ratio (y) = 0.25488 0.18459
# Poissons Ratio (z) = 0.10405 0.18668
#
# Static dielectric constant tensor:
#      x y z
#    x 1.998890 -0.001120 -0.005230 
#    y -0.001120 1.949920 -0.037080 
#    z -0.005230 -0.037080 1.890710 
# 
# From -- ./inp_files/208001.got.cif
#   From: 2010.05.17/outbox.cif.g08.bks.cpg/sg2_105_cif.got.tgz:208001.got - 2010.06.03 11:33:40.
