data_PCOD9095658
_publ_section_title
;
Structure prediction by ZEFSAII (Michael W. Deem and Ramdas Pophale) SiO2 
 PCOD9095658
Probable space group: P -1
;
_chemical_formula_sum "Si O2"
_cell_formula_units_Z 12
_cell_length_a 14.730439
_cell_length_b 13.122326
_cell_length_c 11.448359
_cell_angle_alpha 22.497292
_cell_angle_beta 146.993096
_cell_angle_gamma 147.178272
_cell_volume 437.841884
_symmetry_space_group_name_H-M "P -1"
_symmetry_group_IT_number 2
_symmetry_cell_setting 'triclinic'
loop_
_space_group_symop_operation_xyz
x,y,z
-x,-y,-z
loop_
_atom_site_type_symbol
_atom_site_label
_atom_site_fract_x
_atom_site_fract_y
_atom_site_fract_z
Si Si1 0.949733 0.607411 0.709266
Si Si2 0.687369 0.804137 0.926112
Si Si3 0.404819 0.621943 0.364660
Si Si4 0.685910 0.481740 0.059786
Si Si5 0.314549 0.893596 0.759916
Si Si6 0.907016 0.383607 0.662776
O O1 0.756510 0.626890 0.495676
O O2 0.925274 0.367092 0.840149
O O3 0.109352 0.869280 0.557999
O O4 0.000000 0.500000 0.000000
O O5 0.487194 0.716265 0.849463
O O6 0.803172 0.093155 0.799277
O O7 0.691814 0.777576 0.817296
O O8 0.787211 0.585520 0.305130
O O9 0.500000 0.500000 0.500000
O O10 0.534467 0.810213 0.400739
O O11 0.331815 0.821701 0.991693
O O12 0.659421 0.343606 0.047383
O O13 0.889662 0.494521 0.287153
#
# Coordination Sequence:
#
# PCOD9095658 Si02
#       6
#     2   2   2   2   2   2
#     4   9  20  41  58  88 122 160 207 256 316 377
#     4  11  25  43  68  97 131 173 218 268 324 384
#     4  10  20  35  59  85 115 157 200 253 310 373
#     4  10  23  43  66  95 129 172 219 269 321 387
#     4   9  20  40  55  83 123 154 203 254 311 371
#     4  11  24  45  67  96 134 172 214 270 326 383
#
# _framework density 27.407153999999998
#
# number of rings (size 3 to 8) (size 9 to 14) (size 15 to 20)
#    0.000    2.000    0.000    2.000    2.333    4.667 
#   21.000    0.000    0.000    0.000    0.000    0.000 
#    0.000    0.000    0.000    0.000    0.000    0.000 
#
# Total GULP energy -67029.921374 kJ/mol
# GULP energy per Si atom -5585.826781 kJ/mol
# Density = 2.734477 g / cm^3
# Si number density = 27.407154 Si / 1000 Ang^3
#
#
#
# Elastic Constant Matrix: (Units=GPa)
#
#
# Indices 1 2 3 4 5 6 
#
# 1 184.3663 107.9348 38.0100 22.7175 25.4173 10.5861
# 2 107.9348 285.9800 69.6921 2.3388 19.6926 -0.8244
# 3 38.0100 69.6921 84.4072 -12.9516 17.3155 -7.0011
# 4 22.7175 2.3388 -12.9516 33.2441 -0.6293 5.0544
# 5 25.4173 19.6926 17.3155 -0.6293 30.3949 16.4813
# 6 10.5861 -0.8244 -7.0011 5.0544 16.4813 79.5415
#
#
#
# Elastic Compliance Matrix: (Units=1/GPa)
#
#
# Indices 1 2 3 4 5 6 
#
# 1 0.008727 -0.002433 -0.001959 -0.006654 -0.004772 0.000052
# 2 -0.002433 0.005178 -0.003296 0.000030 0.000577 -0.000034
# 3 -0.001959 -0.003296 0.018686 0.008223 -0.008374 0.003084
# 4 -0.006654 0.000030 0.008223 0.038071 0.002351 -0.001297
# 5 -0.004772 0.000577 -0.008374 0.002351 0.046718 -0.009925
# 6 0.000052 -0.000034 0.003084 -0.001297 -0.009925 0.014975
#
#
# Mechanical properties :
#
#
# Convention : Reuss Voigt Hill
#
# Bulk Modulus (GPa) = 58.08781 109.55859 83.82320
# Shear Modulus (GPa) = 32.57963 51.24387 41.91175
#
# Velocity S-wave (km/s) = 3.45153 4.32872 3.91478
# Velocity P-wave (km/s) = 6.09299 8.06505 7.14736
#
# Compressibility (1/GPa) = 0.01721532
#
# Stress axis : x y z
#
# Youngs Moduli (GPa) = 114.58628 193.11081 53.51521
#
# Poissons Ratio (x) = 0.46990 0.10481
# Poissons Ratio (y) = 0.27883 0.17640
# Poissons Ratio (z) = 0.22442 0.63655
#
# Static dielectric constant tensor:
#      x y z
#    x 2.197770 0.008380 -0.123690 
#    y 0.008380 2.397990 0.394790 
#    z -0.123690 0.394790 2.668740 
# 
# From -- ./inp_files/33777.got.cif
#   From: 2010.05.17/outbox.cif.g08.bks.cpg/sg2_17_cif.got.tgz:33777.got - 2010.06.03 11:33:40.
