data_PCOD9095263
_publ_section_title
;
Structure prediction by ZEFSAII (Michael W. Deem and Ramdas Pophale) SiO2 
 PCOD9095263
Probable space group: P -1
;
_chemical_formula_sum "Si O2"
_cell_formula_units_Z 16
_cell_length_a 8.651456
_cell_length_b 9.248627
_cell_length_c 24.139857
_cell_angle_alpha 154.137754
_cell_angle_beta 124.890776
_cell_angle_gamma 51.780855
_cell_volume 661.289168
_symmetry_space_group_name_H-M "P -1"
_symmetry_group_IT_number 2
_symmetry_cell_setting 'triclinic'
loop_
_space_group_symop_operation_xyz
x,y,z
-x,-y,-z
loop_
_atom_site_type_symbol
_atom_site_label
_atom_site_fract_x
_atom_site_fract_y
_atom_site_fract_z
Si Si1 0.253110 0.609951 0.341326
Si Si2 0.378280 0.036415 0.298233
Si Si3 0.594687 0.440152 0.427185
Si Si4 0.170521 0.798711 0.714046
Si Si5 0.497189 0.841159 0.083025
Si Si6 0.016019 0.661003 0.742512
Si Si7 0.827015 0.005623 0.010842
Si Si8 0.767017 0.261573 0.742592
O O1 0.386482 0.674981 0.441031
O O2 0.045486 0.624706 0.331752
O O3 0.256261 0.796772 0.347825
O O4 0.355792 0.202316 0.204392
O O5 0.562093 0.074566 0.313215
O O6 0.332439 0.389325 0.447406
O O7 0.192388 0.081959 0.235202
O O8 0.402735 0.756367 0.255191
O O9 0.726544 0.403887 0.388118
O O10 0.296215 0.066957 0.848069
O O11 0.956473 0.990924 0.713682
O O12 0.149119 0.572080 0.684418
O O13 0.500000 0.500000 0.000000
O O14 0.387227 0.792681 0.987488
O O15 0.116889 0.856778 0.873114
O O16 0.813767 0.621211 0.881475
O O17 0.000000 0.000000 0.000000
#
# Coordination Sequence:
#
# PCOD9095263 Si02
#       8
#     2   2   2   2   2   2   2   2
#     4   9  19  37  60  80 117 152 193 233 285 346
#     4   9  20  37  65  85 109 157 197 229 291 354
#     4   9  19  41  60  84 116 152 190 245 288 330
#     4  10  22  35  56  86 117 146 193 241 282 340
#     4  10  20  35  56  83 111 154 193 238 287 329
#     4  10  20  36  57  84 112 160 188 226 286 350
#     4  11  20  37  60  80 119 159 188 235 284 343
#     4  10  20  35  58  90 112 156 195 233 284 344
#
# _framework density 24.195162
#
# number of rings (size 3 to 8) (size 9 to 14) (size 15 to 20)
#    0.000    2.250    2.500    0.750    0.000    5.000 
#    4.500    3.750    0.000    7.500    0.000    0.000 
#    0.000    0.000    0.000    0.000    0.000    0.000 
#
# Total GULP energy -89307.320944 kJ/mol
# GULP energy per Si atom -5581.707559 kJ/mol
# Density = 2.414009 g / cm^3
# Si number density = 24.195162 Si / 1000 Ang^3
#
#
#
# Elastic Constant Matrix: (Units=GPa)
#
#
# Indices 1 2 3 4 5 6 
#
# 1 108.4069 40.4638 12.4918 3.6421 2.3025 45.0998
# 2 40.4638 117.6468 35.8415 -35.8440 8.2801 28.3478
# 3 12.4918 35.8415 49.0029 -15.9719 10.0634 3.5397
# 4 3.6421 -35.8440 -15.9719 41.6699 11.9720 4.5324
# 5 2.3025 8.2801 10.0634 11.9720 31.7784 -8.6634
# 6 45.0998 28.3478 3.5397 4.5324 -8.6634 46.5005
#
#
#
# Elastic Compliance Matrix: (Units=1/GPa)
#
#
# Indices 1 2 3 4 5 6 
#
# 1 0.016698 -0.000594 -0.001048 0.001127 -0.005765 -0.016937
# 2 -0.000594 0.025675 -0.002298 0.030407 -0.023435 -0.022231
# 3 -0.001048 -0.002298 0.030816 0.014971 -0.015911 -0.004352
# 4 0.001127 0.030407 0.014971 0.074551 -0.051068 -0.037551
# 5 -0.005765 -0.023435 -0.015911 -0.051068 0.073088 0.039684
# 6 -0.016937 -0.022231 -0.004352 -0.037551 0.039684 0.062869
#
#
# Mechanical properties :
#
#
# Convention : Reuss Voigt Hill
#
# Bulk Modulus (GPa) = 15.31164 50.29452 32.80308
# Shear Modulus (GPa) = 15.95684 36.40708 26.18196
#
# Velocity S-wave (km/s) = 2.57087 3.88329 3.29312
# Velocity P-wave (km/s) = 3.89289 6.39834 5.29591
#
# Compressibility (1/GPa) = 0.06530981
#
# Stress axis : x y z
#
# Youngs Moduli (GPa) = 59.88906 38.94857 32.45029
#
# Poissons Ratio (x) = 0.02312 0.03399
# Poissons Ratio (y) = 0.03555 0.07458
# Poissons Ratio (z) = 0.06274 0.08951
#
# Static dielectric constant tensor:
#      x y z
#    x 2.126740 -0.048540 -0.036030 
#    y -0.048540 2.033900 0.066100 
#    z -0.036030 0.066100 1.994150 
# 
# From -- ./inp_files/222993.got.cif
#   From: 2010.05.17/outbox.cif.g08.bks.cpg/sg2_112_cif.got.tgz:222993.got - 2010.06.03 11:33:40.
