data_PCOD9095351
_publ_section_title
;
Structure prediction by ZEFSAII (Michael W. Deem and Ramdas Pophale) SiO2 
 PCOD9095351
Probable space group: P -1
;
_chemical_formula_sum "Si O2"
_cell_formula_units_Z 14
_cell_length_a 9.750082
_cell_length_b 7.365225
_cell_length_c 9.321232
_cell_angle_alpha 71.059441
_cell_angle_beta 70.214988
_cell_angle_gamma 51.589836
_cell_volume 487.581818
_symmetry_space_group_name_H-M "P -1"
_symmetry_group_IT_number 2
_symmetry_cell_setting 'triclinic'
loop_
_space_group_symop_operation_xyz
x,y,z
-x,-y,-z
loop_
_atom_site_type_symbol
_atom_site_label
_atom_site_fract_x
_atom_site_fract_y
_atom_site_fract_z
Si Si1 0.170598 0.340400 0.653523
Si Si2 0.148492 0.849083 0.288405
Si Si3 0.696022 0.670923 0.989449
Si Si4 0.072327 0.180879 0.989951
Si Si5 0.399058 0.491138 0.677014
Si Si6 0.524743 0.623219 0.822569
Si Si7 0.150428 0.167700 0.438282
O O1 0.161924 0.175206 0.811931
O O2 0.250056 0.475618 0.655713
O O3 0.967745 0.566276 0.646730
O O4 0.263655 0.190257 0.515285
O O5 0.308556 0.583427 0.272889
O O6 0.986607 0.859778 0.414476
O O7 0.207541 0.973594 0.346465
O O8 0.091933 0.968683 0.121245
O O9 0.587755 0.760550 0.854989
O O10 0.865569 0.396723 0.000714
O O11 0.804845 0.777734 0.961340
O O12 0.567617 0.693076 0.157819
O O13 0.500000 0.500000 0.500000
O O14 0.374779 0.695359 0.737644
O O15 0.500000 0.500000 0.000000
#
# Coordination Sequence:
#
# PCOD9095351 Si02
#       7
#     2   2   2   2   2   2   2
#     4  10  21  41  63  88 122 161 198 237 311 372
#     4  11  22  37  60  95 125 148 198 258 304 351
#     4   9  19  37  59  86 119 156 197 241 306 360
#     4  10  20  36  64  94 118 148 197 262 303 349
#     4  10  20  35  57  82 112 158 206 236 273 358
#     4  10  22  39  56  80 119 167 201 234 290 359
#     4  10  22  38  63  94 123 153 191 256 318 355
#
# _framework density 28.713128999999999
#
# number of rings (size 3 to 8) (size 9 to 14) (size 15 to 20)
#    0.000    2.000    0.000    4.286    0.000    6.857 
#    0.000   10.000    0.000    0.000    0.000    0.000 
#    0.000    0.000    0.000    0.000    0.000    0.000 
#
# Total GULP energy -78165.794855 kJ/mol
# GULP energy per Si atom -5583.271061 kJ/mol
# Density = 2.864778 g / cm^3
# Si number density = 28.713129 Si / 1000 Ang^3
#
#
#
# Elastic Constant Matrix: (Units=GPa)
#
#
# Indices 1 2 3 4 5 6 
#
# 1 162.0490 33.2330 55.7021 19.8552 21.3671 22.8401
# 2 33.2330 103.0969 39.9334 6.1604 1.9356 14.7697
# 3 55.7021 39.9334 197.5672 9.7784 11.3510 5.9316
# 4 19.8552 6.1604 9.7784 33.8727 12.0230 -4.2489
# 5 21.3671 1.9356 11.3510 12.0230 63.0452 14.3315
# 6 22.8401 14.7697 5.9316 -4.2489 14.3315 28.7881
#
#
#
# Elastic Compliance Matrix: (Units=1/GPa)
#
#
# Indices 1 2 3 4 5 6 
#
# 1 0.008537 -0.000781 -0.001788 -0.005186 -0.000022 -0.006758
# 2 -0.000781 0.011769 -0.001956 -0.002744 0.002268 -0.006549
# 3 -0.001788 -0.001956 0.005950 0.000177 -0.000808 0.001625
# 4 -0.005186 -0.002744 0.000177 0.038168 -0.009017 0.015608
# 5 -0.000022 0.002268 -0.000808 -0.009017 0.020511 -0.012521
# 6 -0.006758 -0.006549 0.001625 0.015608 -0.012521 0.051661
#
#
# Mechanical properties :
#
#
# Convention : Reuss Voigt Hill
#
# Bulk Modulus (GPa) = 58.12351 80.04999 69.08675
# Shear Modulus (GPa) = 33.02927 47.39752 40.21340
#
# Velocity S-wave (km/s) = 3.39532 4.06732 3.74642
# Velocity P-wave (km/s) = 5.97140 7.07087 6.54427
#
# Compressibility (1/GPa) = 0.01720474
#
# Stress axis : x y z
#
# Youngs Moduli (GPa) = 117.14350 84.97068 168.06521
#
# Poissons Ratio (x) = 0.06633 0.30053
# Poissons Ratio (y) = 0.09145 0.32882
# Poissons Ratio (z) = 0.20947 0.16624
#
# Static dielectric constant tensor:
#      x y z
#    x 2.462730 0.010890 0.061360 
#    y 0.010890 2.263540 0.019520 
#    z 0.061360 0.019520 2.240690 
# 
# From -- ./inp_files/237518.got.cif
#   From: 2010.05.17/outbox.cif.g08.bks.cpg/sg2_119_cif.got.tgz:237518.got - 2010.06.03 11:33:40.
