data_PCOD9095594
_publ_section_title
;
Structure prediction by ZEFSAII (Michael W. Deem and Ramdas Pophale) SiO2 
 PCOD9095594
Probable space group: P -1
;
_chemical_formula_sum "Si O2"
_cell_formula_units_Z 16
_cell_length_a 7.584384
_cell_length_b 20.429217
_cell_length_c 14.916393
_cell_angle_alpha 160.512849
_cell_angle_beta 81.106013
_cell_angle_gamma 102.726911
_cell_volume 741.987800
_symmetry_space_group_name_H-M "P -1"
_symmetry_group_IT_number 2
_symmetry_cell_setting 'triclinic'
loop_
_space_group_symop_operation_xyz
x,y,z
-x,-y,-z
loop_
_atom_site_type_symbol
_atom_site_label
_atom_site_fract_x
_atom_site_fract_y
_atom_site_fract_z
Si Si1 0.426655 0.978637 0.785057
Si Si2 0.972009 0.368438 0.422932
Si Si3 0.379871 0.334608 0.363234
Si Si4 0.594807 0.647807 0.412936
Si Si5 0.272972 0.754058 0.148843
Si Si6 0.934427 0.711874 0.985139
Si Si7 0.662365 0.977164 0.348577
Si Si8 0.829038 0.058592 0.895726
O O1 0.448038 0.752445 0.510423
O O2 0.322931 0.988973 0.714806
O O3 0.640892 0.098370 0.920314
O O4 0.356612 0.109232 0.035191
O O5 0.000000 0.500000 0.500000
O O6 0.176376 0.365960 0.431424
O O7 0.862712 0.158868 0.120541
O O8 0.890010 0.487012 0.658264
O O9 0.500000 0.500000 0.500000
O O10 0.461670 0.363635 0.493299
O O11 0.781669 0.820905 0.607937
O O12 0.646773 0.445532 0.115863
O O13 0.091048 0.731967 0.074518
O O14 0.443990 0.920675 0.310699
O O15 0.246933 0.833216 0.352603
O O16 0.020412 0.850499 0.071903
O O17 0.759068 0.796409 0.134997
#
# Coordination Sequence:
#
# PCOD9095594 Si02
#       8
#     2   2   2   2   2   2   2   2
#     4  10  21  40  56  92 128 166 208 255 314 383
#     4  10  20  35  58  90 123 166 205 252 314 383
#     4  12  21  36  64  90 127 169 211 259 318 384
#     4  10  23  39  62  90 135 169 198 274 322 376
#     4  11  22  44  64  99 123 164 223 270 315 373
#     4  11  20  43  64  94 128 164 221 267 313 374
#     4  11  24  40  72  89 123 174 219 266 318 372
#     4   9  21  38  59  88 132 169 199 260 320 382
#
# _framework density 21.563697999999999
#
# number of rings (size 3 to 8) (size 9 to 14) (size 15 to 20)
#    0.750    0.750    2.500    4.500    0.000    2.000 
#    0.000    1.875    0.000    0.000    0.000    0.000 
#    0.000    0.000    0.000    0.000    0.000    0.000 
#
# Total GULP energy -89257.725425 kJ/mol
# GULP energy per Si atom -5578.607839 kJ/mol
# Density = 2.151462 g / cm^3
# Si number density = 21.563698 Si / 1000 Ang^3
#
#
#
# Elastic Constant Matrix: (Units=GPa)
#
#
# Indices 1 2 3 4 5 6 
#
# 1 92.3144 53.9882 36.3142 -13.9001 -5.1531 -31.2301
# 2 53.9882 -8.3067 16.6613 2.3646 -5.5061 -13.9661
# 3 36.3142 16.6613 119.4968 -23.7567 -8.3618 -25.6057
# 4 -13.9001 2.3646 -23.7567 28.8424 -2.5266 2.3539
# 5 -5.1531 -5.5061 -8.3618 -2.5266 34.6759 5.8193
# 6 -31.2301 -13.9661 -25.6057 2.3539 5.8193 37.0888
#
#
#
# Elastic Compliance Matrix: (Units=1/GPa)
#
#
# Indices 1 2 3 4 5 6 
#
# 1 0.005495 0.015545 -0.002012 -0.000907 0.001231 0.008956
# 2 0.015545 -0.021993 0.001373 0.009905 -0.001016 0.005287
# 3 -0.002012 0.001373 0.011962 0.008476 0.002386 0.006169
# 4 -0.000907 0.009905 0.008476 0.040448 0.005526 0.005384
# 5 0.001231 -0.001016 0.002386 0.005526 0.030309 -0.002805
# 6 0.008956 0.005287 0.006169 0.005384 -0.002805 0.040852
#
#
# Mechanical properties :
#
#
# Convention : Reuss Voigt Hill
#
# Bulk Modulus (GPa) = 39.56236 46.38132 42.97184
# Shear Modulus (GPa) = 58.35211 26.55746 42.45479
#
# Velocity S-wave (km/s) = 5.20760 3.51320 4.44194
# Velocity P-wave (km/s) = 7.38548 6.16542 6.80286
#
# Compressibility (1/GPa) = 0.02527655
#
# Stress axis : x y z
#
# Youngs Moduli (GPa) = 181.99104 -45.46962 83.59459
#
# Poissons Ratio (x) = 0.70683 0.16823
# Poissons Ratio (y) = -2.82906 -0.11481
# Poissons Ratio (z) = 0.36625 0.06245
#
# Static dielectric constant tensor:
#      x y z
#    x 1.743650 0.055880 -0.044440 
#    y 0.055880 1.779200 0.030810 
#    z -0.044440 0.030810 1.791560 
# 
# From -- ./inp_files/507761.got.cif
#   From: 2010.05.17/outbox.cif.g08.bks.cpg/sg2_254_cif.got.tgz:507761.got - 2010.06.03 11:33:40.
