data_PCOD9095456
_publ_section_title
;
Structure prediction by ZEFSAII (Michael W. Deem and Ramdas Pophale) SiO2 
 PCOD9095456
Probable space group: P -1
;
_chemical_formula_sum "Si O2"
_cell_formula_units_Z 16
_cell_length_a 8.887991
_cell_length_b 12.290333
_cell_length_c 21.844173
_cell_angle_alpha 153.419461
_cell_angle_beta 50.158125
_cell_angle_gamma 134.075499
_cell_volume 765.783770
_symmetry_space_group_name_H-M "P -1"
_symmetry_group_IT_number 2
_symmetry_cell_setting 'triclinic'
loop_
_space_group_symop_operation_xyz
x,y,z
-x,-y,-z
loop_
_atom_site_type_symbol
_atom_site_label
_atom_site_fract_x
_atom_site_fract_y
_atom_site_fract_z
Si Si1 0.002250 0.986296 0.666935
Si Si2 0.505271 0.795775 0.714302
Si Si3 0.638973 0.946174 0.883814
Si Si4 0.082188 0.482290 0.626409
Si Si5 0.895262 0.697059 0.893134
Si Si6 0.994314 0.739036 0.663785
Si Si7 0.530754 0.351425 0.976120
Si Si8 0.996077 0.541748 0.926330
O O1 0.748768 0.837139 0.664746
O O2 0.047033 0.796812 0.510239
O O3 0.085839 0.967917 0.704522
O O4 0.046370 0.276757 0.778760
O O5 0.323574 0.536565 0.609786
O O6 0.484910 0.843574 0.815506
O O7 0.480941 0.051382 0.820476
O O8 0.773030 0.754394 0.753259
O O9 0.823647 0.226134 0.971088
O O10 0.500000 0.000000 0.000000
O O11 0.099562 0.698462 0.678410
O O12 0.970111 0.537549 0.743213
O O13 0.644435 0.631996 0.923267
O O14 0.959143 0.636841 0.915097
O O15 0.000000 0.000000 0.000000
O O16 0.000000 0.500000 0.500000
O O17 0.500000 0.500000 0.000000
O O18 0.777535 0.468277 0.983052
#
# Coordination Sequence:
#
# PCOD9095456 Si02
#       8
#     2   2   2   2   2   2   2   2
#     4   9  21  40  59  87 127 167 207 247 319 381
#     4  10  20  35  57  92 120 157 208 248 307 372
#     4  11  23  38  63  92 123 162 207 263 312 367
#     4  11  20  35  65  90 125 162 205 264 307 372
#     4  11  20  34  61  94 126 155 205 264 312 364
#     4   9  21  39  62  89 126 169 206 250 314 385
#     4   9  20  35  54  87 125 153 199 248 307 368
#     4  10  22  41  62  85 130 167 204 256 311 383
#
# _framework density 20.893626999999999
#
# number of rings (size 3 to 8) (size 9 to 14) (size 15 to 20)
#    0.000    2.000    1.250    1.875    3.500    5.000 
#    0.000    0.000    2.750    1.500    0.000    0.000 
#    0.000    0.000    0.000    0.000    0.000    0.000 
#
# Total GULP energy -89122.417924 kJ/mol
# GULP energy per Si atom -5570.151120 kJ/mol
# Density = 2.084607 g / cm^3
# Si number density = 20.893627 Si / 1000 Ang^3
#
#
#
# Elastic Constant Matrix: (Units=GPa)
#
#
# Indices 1 2 3 4 5 6 
#
# 1 73.4717 27.9442 12.7376 6.4835 6.7661 -14.4843
# 2 27.9442 68.2951 28.9209 -8.1943 0.7324 -1.8345
# 3 12.7376 28.9209 96.5437 -7.2663 -3.4235 -5.6912
# 4 6.4835 -8.1943 -7.2663 38.5480 -1.2482 -3.7962
# 5 6.7661 0.7324 -3.4235 -1.2482 29.6625 -0.5792
# 6 -14.4843 -1.8345 -5.6912 -3.7962 -0.5792 40.1160
#
#
#
# Elastic Compliance Matrix: (Units=1/GPa)
#
#
# Indices 1 2 3 4 5 6 
#
# 1 0.018539 -0.007809 -0.000240 -0.004383 -0.004134 0.005828
# 2 -0.007809 0.020358 -0.004820 0.004551 0.000872 -0.002129
# 3 -0.000240 -0.004820 0.012099 0.001505 0.001664 0.001576
# 4 -0.004383 0.004551 0.001505 0.028155 0.002276 0.001536
# 5 -0.004134 0.000872 0.001664 0.002276 0.034912 -0.000497
# 6 0.005828 -0.002129 0.001576 0.001536 -0.000497 0.027296
#
#
# Mechanical properties :
#
#
# Convention : Reuss Voigt Hill
#
# Bulk Modulus (GPa) = 39.59146 41.94622 40.76884
# Shear Modulus (GPa) = 28.48727 32.91248 30.69988
#
# Velocity S-wave (km/s) = 3.69649 3.97324 3.83736
# Velocity P-wave (km/s) = 6.09991 6.41627 6.26009
#
# Compressibility (1/GPa) = 0.02525797
#
# Stress axis : x y z
#
# Youngs Moduli (GPa) = 53.94095 49.11995 82.65266
#
# Poissons Ratio (x) = 0.38358 0.01980
# Poissons Ratio (y) = 0.42123 0.39842
# Poissons Ratio (z) = 0.01292 0.23678
#
# Static dielectric constant tensor:
#      x y z
#    x 1.815090 -0.006950 -0.032850 
#    y -0.006950 1.772650 -0.018680 
#    z -0.032850 -0.018680 1.788160 
# 
# From -- ./inp_files/259360.got.cif
#   From: 2010.05.17/outbox.cif.g08.bks.cpg/sg2_130_cif.got.tgz:259360.got - 2010.06.03 11:33:40.
