data_PCOD9095109
_publ_section_title
;
Structure prediction by ZEFSAII (Michael W. Deem and Ramdas Pophale) SiO2 
 PCOD9095109
Probable space group: P -1
;
_chemical_formula_sum "Si O2"
_cell_formula_units_Z 16
_cell_length_a 19.134137
_cell_length_b 5.882605
_cell_length_c 8.145628
_cell_angle_alpha 103.213277
_cell_angle_beta 82.186573
_cell_angle_gamma 49.739488
_cell_volume 629.536063
_symmetry_space_group_name_H-M "P -1"
_symmetry_group_IT_number 2
_symmetry_cell_setting 'triclinic'
loop_
_space_group_symop_operation_xyz
x,y,z
-x,-y,-z
loop_
_atom_site_type_symbol
_atom_site_label
_atom_site_fract_x
_atom_site_fract_y
_atom_site_fract_z
Si Si1 0.088530 0.588692 0.410119
Si Si2 0.123205 0.773235 0.088680
Si Si3 0.551081 0.057893 0.728667
Si Si4 0.573262 0.110290 0.374906
Si Si5 0.392431 0.834641 0.967820
Si Si6 0.247892 0.832444 0.203820
Si Si7 0.939136 0.489695 0.149602
Si Si8 0.858514 0.081241 0.470793
O O1 0.118741 0.639736 0.236961
O O2 0.150898 0.212796 0.336170
O O3 0.971900 0.812678 0.469446
O O4 0.131068 0.671976 0.544732
O O5 0.217403 0.720151 0.056290
O O6 0.117533 0.594275 0.923446
O O7 0.026962 0.163605 0.170754
O O8 0.612352 0.953721 0.520461
O O9 0.484207 0.449243 0.833465
O O10 0.488321 0.970150 0.691830
O O11 0.591543 0.974152 0.890272
O O12 0.500000 0.500000 0.500000
O O13 0.641906 0.021029 0.182398
O O14 0.326161 0.825235 0.104821
O O15 0.243154 0.709534 0.358892
O O16 0.866238 0.848573 0.308550
O O17 0.000000 0.500000 0.000000
#
# Coordination Sequence:
#
# PCOD9095109 Si02
#       8
#     2   2   2   2   2   2   2   2
#     4  10  20  35  55  75 105 149 197 241 283 350
#     4  10  21  34  56  79 105 146 196 241 299 345
#     4   9  19  39  65  91 118 154 204 238 285 367
#     4   9  18  36  64  92 116 156 192 238 294 354
#     4  10  21  37  62  90 122 156 197 243 299 357
#     4  11  22  37  53  84 114 149 191 247 300 352
#     4  11  20  35  55  78 105 144 198 249 291 351
#     4  10  21  33  55  76 103 147 194 239 290 342
#
# _framework density 25.415541999999999
#
# number of rings (size 3 to 8) (size 9 to 14) (size 15 to 20)
#    0.000    2.000    2.500    0.750    3.500    2.000 
#    0.000    6.250    0.000    0.000    0.000    0.000 
#    0.000    0.000    0.000    0.000    0.000    0.000 
#
# Total GULP energy -89138.343180 kJ/mol
# GULP energy per Si atom -5571.146449 kJ/mol
# Density = 2.535770 g / cm^3
# Si number density = 25.415542 Si / 1000 Ang^3
#
#
#
# Elastic Constant Matrix: (Units=GPa)
#
#
# Indices 1 2 3 4 5 6 
#
# 1 94.4730 -5.2590 54.7009 6.1890 11.4976 31.2421
# 2 -5.2590 49.9117 13.1357 12.8060 10.5505 12.9421
# 3 54.7009 13.1357 147.3547 -9.4791 12.8138 13.5945
# 4 6.1890 12.8060 -9.4791 55.7166 21.4717 4.1905
# 5 11.4976 10.5505 12.8138 21.4717 52.5325 7.2329
# 6 31.2421 12.9421 13.5945 4.1905 7.2329 27.4145
#
#
#
# Elastic Compliance Matrix: (Units=1/GPa)
#
#
# Indices 1 2 3 4 5 6 
#
# 1 0.028715 0.015978 -0.009240 -0.005785 -0.000087 -0.034779
# 2 0.015978 0.033301 -0.006601 -0.007837 -0.001365 -0.029099
# 3 -0.009240 -0.006601 0.010525 0.004569 -0.002232 0.008317
# 4 -0.005785 -0.007837 0.004569 0.024161 -0.009076 0.006728
# 5 -0.000087 -0.001365 -0.002232 -0.009076 0.024010 -0.003097
# 6 -0.034779 -0.029099 0.008317 0.006728 -0.003097 0.085513
#
#
# Mechanical properties :
#
#
# Convention : Reuss Voigt Hill
#
# Bulk Modulus (GPa) = 13.73322 46.32163 30.02743
# Shear Modulus (GPa) = 21.71816 42.41017 32.06417
#
# Velocity S-wave (km/s) = 2.92639 4.08937 3.55575
# Velocity P-wave (km/s) = 4.10287 6.36887 5.35706
#
# Compressibility (1/GPa) = 0.07281613
#
# Stress axis : x y z
#
# Youngs Moduli (GPa) = 34.82459 30.02936 95.00739
#
# Poissons Ratio (x) = -0.47981 0.87787
# Poissons Ratio (y) = -0.55643 0.62712
# Poissons Ratio (z) = 0.32178 0.19822
#
# Static dielectric constant tensor:
#      x y z
#    x 2.103770 0.033260 0.056660 
#    y 0.033260 2.147660 -0.068590 
#    z 0.056660 -0.068590 2.113230 
# 
# From -- ./inp_files/116813.got.cif
#   From: 2010.05.17/outbox.cif.g08.bks.cpg/sg2_59_cif.got.tgz:116813.got - 2010.06.03 11:33:40.
