data_PCOD9095889
_publ_section_title
;
Structure prediction by ZEFSAII (Michael W. Deem and Ramdas Pophale) SiO2 
 PCOD9095889
Probable space group: P -1
;
_chemical_formula_sum "Si O2"
_cell_formula_units_Z 16
_cell_length_a 22.885076
_cell_length_b 10.186085
_cell_length_c 13.452131
_cell_angle_alpha 148.321998
_cell_angle_beta 152.119664
_cell_angle_gamma 45.923964
_cell_volume 749.320023
_symmetry_space_group_name_H-M "P -1"
_symmetry_group_IT_number 2
_symmetry_cell_setting 'triclinic'
loop_
_space_group_symop_operation_xyz
x,y,z
-x,-y,-z
loop_
_atom_site_type_symbol
_atom_site_label
_atom_site_fract_x
_atom_site_fract_y
_atom_site_fract_z
Si Si1 0.772269 0.490323 0.126843
Si Si2 0.645885 0.266380 0.309909
Si Si3 0.058779 0.013816 0.212831
Si Si4 0.357364 0.913957 0.179954
Si Si5 0.450561 0.336223 0.221851
Si Si6 0.755811 0.015071 0.673487
Si Si7 0.186669 0.279626 0.248178
Si Si8 0.480140 0.758250 0.088435
O O1 0.890911 0.717198 0.482619
O O2 0.709527 0.355874 0.045903
O O3 0.655984 0.558092 0.932834
O O4 0.819086 0.267433 0.993432
O O5 0.582766 0.330385 0.357965
O O6 0.775987 0.449856 0.579487
O O7 0.547005 0.323714 0.116887
O O8 0.625984 0.961336 0.071394
O O9 0.193083 0.955524 0.342437
O O10 0.000000 0.000000 0.000000
O O11 0.964362 0.831469 0.029361
O O12 0.374743 0.866774 0.059737
O O13 0.500000 0.000000 0.500000
O O14 0.266674 0.105606 0.194934
O O15 0.500000 0.500000 0.500000
O O16 0.768951 0.767672 0.601222
O O17 0.605257 0.984612 0.426917
O O18 0.500000 0.500000 0.000000
#
# Coordination Sequence:
#
# PCOD9095889 Si02
#       8
#     2   2   2   2   2   2   2   2
#     4  11  22  40  61  90 129 167 213 259 317 382
#     4  11  24  39  61  93 125 166 209 262 321 383
#     4  10  23  40  60  91 130 171 209 256 318 380
#     4  11  20  33  63  98 129 157 198 268 338 390
#     4  11  25  43  64  90 128 170 214 262 318 383
#     4  10  20  35  60  92 127 164 198 257 323 384
#     4  10  21  38  56  91 125 161 208 255 311 381
#     4  12  19  34  62  98 130 156 200 266 342 383
#
# _framework density 21.352692000000001
#
# number of rings (size 3 to 8) (size 9 to 14) (size 15 to 20)
#    0.000    1.250    3.750    3.750    3.500    5.500 
#    0.000    0.625    0.000    1.500    0.000    0.000 
#    0.000    0.000    0.000    0.000    0.000    0.000 
#
# Total GULP energy -89071.824444 kJ/mol
# GULP energy per Si atom -5566.989028 kJ/mol
# Density = 2.130409 g / cm^3
# Si number density = 21.352692 Si / 1000 Ang^3
#
#
#
# Elastic Constant Matrix: (Units=GPa)
#
#
# Indices 1 2 3 4 5 6 
#
# 1 151.8057 18.0108 66.2180 24.9949 16.8556 -15.9206
# 2 18.0108 46.3227 14.8308 14.5565 8.7416 2.6669
# 3 66.2180 14.8308 138.5143 28.7103 16.3988 4.8182
# 4 24.9949 14.5565 28.7103 25.5639 8.3586 0.6466
# 5 16.8556 8.7416 16.3988 8.3586 50.7172 4.7935
# 6 -15.9206 2.6669 4.8182 0.6466 4.7935 19.4255
#
#
#
# Elastic Compliance Matrix: (Units=1/GPa)
#
#
# Indices 1 2 3 4 5 6 
#
# 1 0.010674 -0.001639 -0.004120 -0.004422 -0.002214 0.010689
# 2 -0.001639 0.026952 0.001257 -0.014488 -0.001698 -0.004454
# 3 -0.004120 0.001257 0.011163 -0.008935 -0.000425 -0.005916
# 4 -0.004422 -0.014488 -0.008935 0.062868 -0.003443 -0.000662
# 5 -0.002214 -0.001698 -0.000425 -0.003443 0.022095 -0.006814
# 6 0.010689 -0.004454 -0.005916 -0.000662 -0.006814 0.064021
#
#
# Mechanical properties :
#
#
# Convention : Reuss Voigt Hill
#
# Bulk Modulus (GPa) = 25.13588 59.41796 42.27692
# Shear Modulus (GPa) = 22.72314 34.98017 28.85166
#
# Velocity S-wave (km/s) = 3.26572 4.05187 3.67985
# Velocity P-wave (km/s) = 5.10071 7.05532 6.15608
#
# Compressibility (1/GPa) = 0.03978377
#
# Stress axis : x y z
#
# Youngs Moduli (GPa) = 93.68471 37.10268 89.58312
#
# Poissons Ratio (x) = 0.06081 0.36912
# Poissons Ratio (y) = 0.15354 -0.11258
# Poissons Ratio (z) = 0.38602 -0.04663
#
# Static dielectric constant tensor:
#      x y z
#    x 1.833630 -0.035640 0.041190 
#    y -0.035640 1.961810 0.039180 
#    z 0.041190 0.039180 2.014470 
# 
# From -- ./inp_files/542832.got.cif
#   From: 2010.05.17/outbox.cif.g08.bks.cpg/sg2_272_cif.got.tgz:542832.got - 2010.06.03 11:33:40.
