data_PCOD9095120
_publ_section_title
;
Structure prediction by ZEFSAII (Michael W. Deem and Ramdas Pophale) SiO2 
 PCOD9095120
Probable space group: P -1
;
_chemical_formula_sum "Si O2"
_cell_formula_units_Z 16
_cell_length_a 14.268554
_cell_length_b 7.818948
_cell_length_c 13.152037
_cell_angle_alpha 117.598097
_cell_angle_beta 117.294041
_cell_angle_gamma 36.428831
_cell_volume 761.846916
_symmetry_space_group_name_H-M "P -1"
_symmetry_group_IT_number 2
_symmetry_cell_setting 'triclinic'
loop_
_space_group_symop_operation_xyz
x,y,z
-x,-y,-z
loop_
_atom_site_type_symbol
_atom_site_label
_atom_site_fract_x
_atom_site_fract_y
_atom_site_fract_z
Si Si1 0.846183 0.166985 0.156782
Si Si2 0.948405 0.788281 0.424663
Si Si3 0.136937 0.225198 0.065680
Si Si4 0.324893 0.191682 0.007349
Si Si5 0.324982 0.828101 0.771530
Si Si6 0.310407 0.591632 0.215790
Si Si7 0.123821 0.780705 0.350022
Si Si8 0.030783 0.283514 0.248438
O O1 0.700036 0.310271 0.197437
O O2 0.884089 0.331765 0.186747
O O3 0.994660 0.906600 0.233241
O O4 0.841271 0.028929 0.021933
O O5 0.092733 0.691898 0.407598
O O6 0.987718 0.509471 0.368478
O O7 0.790036 0.038263 0.345365
O O8 0.919411 0.946077 0.556091
O O9 0.296437 0.118216 0.079975
O O10 0.074044 0.326798 0.175689
O O11 0.000000 0.500000 0.000000
O O12 0.256149 0.498284 0.083820
O O13 0.500000 0.000000 0.000000
O O14 0.270337 0.102545 0.875880
O O15 0.509463 0.597098 0.770557
O O16 0.289859 0.541708 0.307285
O O17 0.188461 0.937202 0.248271
#
# Coordination Sequence:
#
# PCOD9095120 Si02
#       8
#     2   2   2   2   2   2   2   2
#     4   9  19  33  51  76 108 139 169 215 264 307
#     4  10  20  35  57  80 102 139 181 218 261 311
#     4  11  19  32  53  77 104 135 177 213 250 312
#     4   9  18  34  53  74 107 143 169 206 261 314
#     4   9  19  37  55  76 109 145 176 210 257 315
#     4  10  20  35  55  79 109 139 174 219 263 308
#     4   9  19  36  57  77 104 139 180 218 259 313
#     4  11  21  33  54  81 106 136 176 219 266 309
#
# _framework density 21.001595999999999
#
# number of rings (size 3 to 8) (size 9 to 14) (size 15 to 20)
#    0.000    2.250    0.000    4.875    0.000    3.500 
#    0.000   10.625    0.000    7.500    0.000    0.000 
#    0.000    0.000    0.000    0.000    0.000    0.000 
#
# Total GULP energy -89168.324899 kJ/mol
# GULP energy per Si atom -5573.020306 kJ/mol
# Density = 2.095380 g / cm^3
# Si number density = 21.001596 Si / 1000 Ang^3
#
#
#
# Elastic Constant Matrix: (Units=GPa)
#
#
# Indices 1 2 3 4 5 6 
#
# 1 153.5800 32.8273 36.6776 18.1035 -4.1346 -24.6677
# 2 32.8273 38.3846 29.2556 18.9603 3.5602 -0.3852
# 3 36.6776 29.2556 104.6700 31.3968 5.8798 -4.8254
# 4 18.1035 18.9603 31.3968 30.6961 7.1286 0.7895
# 5 -4.1346 3.5602 5.8798 7.1286 35.2494 11.5635
# 6 -24.6677 -0.3852 -4.8254 0.7895 11.5635 34.2965
#
#
#
# Elastic Compliance Matrix: (Units=1/GPa)
#
#
# Indices 1 2 3 4 5 6 
#
# 1 0.009318 -0.007029 -0.000871 -0.000404 -0.000119 0.006550
# 2 -0.007029 0.044798 -0.004707 -0.018790 0.000905 -0.005087
# 3 -0.000871 -0.004707 0.014772 -0.011660 -0.000314 0.001774
# 4 -0.000404 -0.018790 -0.011660 0.058153 -0.007672 -0.000894
# 5 -0.000119 0.000905 -0.000314 -0.007672 0.033561 -0.011259
# 6 0.006550 -0.005087 0.001774 -0.000894 -0.011259 0.037877
#
#
# Mechanical properties :
#
#
# Convention : Reuss Voigt Hill
#
# Bulk Modulus (GPa) = 22.89728 54.90619 38.90173
# Shear Modulus (GPa) = 20.98629 33.23999 27.11314
#
# Velocity S-wave (km/s) = 3.16455 3.98268 3.59695
# Velocity P-wave (km/s) = 4.92736 6.88110 5.98450
#
# Compressibility (1/GPa) = 0.04367332
#
# Stress axis : x y z
#
# Youngs Moduli (GPa) = 107.31763 22.32266 67.69688
#
# Poissons Ratio (x) = 0.15691 0.05894
# Poissons Ratio (y) = 0.75435 0.31866
# Poissons Ratio (z) = 0.09344 0.10508
#
# Static dielectric constant tensor:
#      x y z
#    x 1.858820 0.020250 0.004610 
#    y 0.020250 1.762700 0.000450 
#    z 0.004610 0.000450 1.756610 
# 
# From -- ./inp_files/529071.got.cif
#   From: 2010.05.17/outbox.cif.g08.bks.cpg/sg2_265_cif.got.tgz:529071.got - 2010.06.03 11:33:40.
