data_PCOD9095353
_publ_section_title
;
Structure prediction by ZEFSAII (Michael W. Deem and Ramdas Pophale) SiO2 
 PCOD9095353
Probable space group: P -1
;
_chemical_formula_sum "Si O2"
_cell_formula_units_Z 14
_cell_length_a 8.201810
_cell_length_b 10.634522
_cell_length_c 8.540624
_cell_angle_alpha 92.485285
_cell_angle_beta 49.453791
_cell_angle_gamma 103.300819
_cell_volume 545.167498
_symmetry_space_group_name_H-M "P -1"
_symmetry_group_IT_number 2
_symmetry_cell_setting 'triclinic'
loop_
_space_group_symop_operation_xyz
x,y,z
-x,-y,-z
loop_
_atom_site_type_symbol
_atom_site_label
_atom_site_fract_x
_atom_site_fract_y
_atom_site_fract_z
Si Si1 0.694365 0.544449 0.644519
Si Si2 0.265985 0.696227 0.589423
Si Si3 0.260370 0.569602 0.075938
Si Si4 0.718152 0.783722 0.445425
Si Si5 0.846183 0.035708 0.861891
Si Si6 0.430224 0.832601 0.176325
Si Si7 0.997879 0.286674 0.971336
O O1 0.712577 0.443308 0.492425
O O2 0.814013 0.516229 0.726241
O O3 0.779373 0.691699 0.535482
O O4 0.439428 0.522462 0.858843
O O5 0.543497 0.240858 0.397276
O O6 0.324934 0.787613 0.407102
O O7 0.040932 0.690865 0.823394
O O8 0.388089 0.707399 0.084030
O O9 0.085155 0.607895 0.073231
O O10 0.892449 0.926345 0.346837
O O11 0.767808 0.719720 0.246181
O O12 0.706903 0.072965 0.807592
O O13 0.854675 0.143079 0.997647
O O14 0.694311 0.900925 0.013697
#
# Coordination Sequence:
#
# PCOD9095353 Si02
#       7
#     2   2   2   2   2   2   2
#     4  10  20  35  57  82 115 146 189 224 270 339
#     4  11  21  36  59  84 114 150 176 231 286 321
#     4   9  18  36  58  80 107 154 181 222 279 322
#     4  10  21  36  57  85 115 141 190 227 270 341
#     4   8  19  39  59  80 111 146 188 231 265 338
#     4   9  18  38  62  78 113 148 184 230 281 318
#     4   9  20  36  55  83 112 145 182 223 286 318
#
# _framework density 25.680183
#
# number of rings (size 3 to 8) (size 9 to 14) (size 15 to 20)
#    0.857    1.714    1.429    0.429    0.000    2.286 
#    0.000    3.571    0.000    0.000    0.000    0.000 
#    0.000    0.000    0.000    0.000    0.000    0.000 
#
# Total GULP energy -78260.461678 kJ/mol
# GULP energy per Si atom -5590.032977 kJ/mol
# Density = 2.562173 g / cm^3
# Si number density = 25.680183 Si / 1000 Ang^3
#
#
#
# Elastic Constant Matrix: (Units=GPa)
#
#
# Indices 1 2 3 4 5 6 
#
# 1 48.4156 16.4803 0.0674 -2.6437 -13.2143 15.9534
# 2 16.4803 32.9819 38.1560 -0.9112 11.5380 10.9589
# 3 0.0674 38.1560 138.9687 -7.4701 -6.8170 6.6430
# 4 -2.6437 -0.9112 -7.4701 28.9648 -10.3190 -5.7639
# 5 -13.2143 11.5380 -6.8170 -10.3190 34.7627 3.2745
# 6 15.9534 10.9589 6.6430 -5.7639 3.2745 31.5852
#
#
#
# Elastic Compliance Matrix: (Units=1/GPa)
#
#
# Indices 1 2 3 4 5 6 
#
# 1 0.122370 -0.164281 0.055891 0.064001 0.132757 -0.018647
# 2 -0.164281 0.293551 -0.096668 -0.104801 -0.210335 0.004138
# 3 0.055891 -0.096668 0.039449 0.037327 0.072494 -0.003691
# 4 0.064001 -0.104801 0.037327 0.078922 0.089739 0.001284
# 5 0.132757 -0.210335 0.072494 0.089739 0.191098 -0.012758
# 6 -0.018647 0.004138 -0.003691 0.001284 -0.012758 0.041976
#
#
# Mechanical properties :
#
#
# Convention : Reuss Voigt Hill
#
# Bulk Modulus (GPa) = 22.09868 36.64150 29.37009
# Shear Modulus (GPa) = 4.19263 30.10672 17.14968
#
# Velocity S-wave (km/s) = 1.27913 3.42771 2.58702
# Velocity P-wave (km/s) = 3.28719 5.47402 4.51500
#
# Compressibility (1/GPa) = 0.04525157
#
# Stress axis : x y z
#
# Youngs Moduli (GPa) = 8.17196 3.40657 25.34888
#
# Poissons Ratio (x) = 0.55964 -1.41676
# Poissons Ratio (y) = 1.34250 2.45043
# Poissons Ratio (z) = -0.45674 0.32931
#
# Static dielectric constant tensor:
#      x y z
#    x 2.037260 0.005960 -0.020690 
#    y 0.005960 1.998120 -0.051730 
#    z -0.020690 -0.051730 1.999630 
# 
# From -- ./inp_files/252864.got.cif
#   From: 2010.05.17/outbox.cif.g08.bks.cpg/sg2_127_cif.got.tgz:252864.got - 2010.06.03 11:33:40.
