data_PCOD9095059
_publ_section_title
;
Structure prediction by ZEFSAII (Michael W. Deem and Ramdas Pophale) SiO2 
 PCOD9095059
Probable space group: P -1
;
_chemical_formula_sum "Si O2"
_cell_formula_units_Z 14
_cell_length_a 7.287216
_cell_length_b 8.179105
_cell_length_c 13.678551
_cell_angle_alpha 50.778215
_cell_angle_beta 81.132516
_cell_angle_gamma 71.013127
_cell_volume 595.756181
_symmetry_space_group_name_H-M "P -1"
_symmetry_group_IT_number 2
_symmetry_cell_setting 'triclinic'
loop_
_space_group_symop_operation_xyz
x,y,z
-x,-y,-z
loop_
_atom_site_type_symbol
_atom_site_label
_atom_site_fract_x
_atom_site_fract_y
_atom_site_fract_z
Si Si1 0.869147 0.197228 0.209477
Si Si2 0.368803 0.840102 0.583051
Si Si3 0.633828 0.245642 0.595992
Si Si4 0.247521 0.290666 0.918537
Si Si5 0.684289 0.819936 0.830164
Si Si6 0.409692 0.668249 0.223977
Si Si7 0.806061 0.308302 0.959360
O O1 0.784450 0.085213 0.345098
O O2 0.784731 0.457269 0.140576
O O3 0.098161 0.162073 0.212341
O O4 0.806834 0.177642 0.109902
O O5 0.271070 0.811362 0.497245
O O6 0.517526 0.598054 0.684381
O O7 0.500000 0.000000 0.500000
O O8 0.500000 0.500000 0.500000
O O9 0.712666 0.263292 0.692822
O O10 0.553294 0.033189 0.702664
O O11 0.390302 0.264979 0.825322
O O12 0.031998 0.274255 0.928329
O O13 0.340618 0.163711 0.057287
O O14 0.698219 0.571172 0.889545
O O15 0.293440 0.757893 0.101257
#
# Coordination Sequence:
#
# PCOD9095059 Si02
#       7
#     2   2   2   2   2   2   2
#     4   8  17  33  56  84 108 131 178 240 273 305
#     4  10  20  35  54  77 105 147 193 220 255 319
#     4  10  22  36  49  74 114 151 182 216 260 321
#     4   8  17  33  56  86 111 134 175 229 278 323
#     4   9  17  34  57  80 106 140 181 226 274 319
#     4  10  20  35  55  80 115 146 170 222 280 318
#     4   9  17  34  61  87 106 132 178 230 280 325
#
# _framework density 23.499545999999999
#
# number of rings (size 3 to 8) (size 9 to 14) (size 15 to 20)
#    0.000    2.857    0.000    2.571    0.000    7.429 
#    0.000    7.143    0.000   16.286    0.000    0.000 
#    0.000    0.000    0.000    0.000    0.000    0.000 
#
# Total GULP energy -78014.123291 kJ/mol
# GULP energy per Si atom -5572.437378 kJ/mol
# Density = 2.344606 g / cm^3
# Si number density = 23.499546 Si / 1000 Ang^3
#
#
#
# Elastic Constant Matrix: (Units=GPa)
#
#
# Indices 1 2 3 4 5 6 
#
# 1 53.3211 25.2536 48.8856 19.6457 -8.5221 13.1220
# 2 25.2536 87.3347 38.6086 7.9111 1.4476 -5.4145
# 3 48.8856 38.6086 146.0546 29.6266 -12.8560 2.5419
# 4 19.6457 7.9111 29.6266 57.5187 9.2371 18.7100
# 5 -8.5221 1.4476 -12.8560 9.2371 34.6951 2.6579
# 6 13.1220 -5.4145 2.5419 18.7100 2.6579 10.4352
#
#
#
# Elastic Compliance Matrix: (Units=1/GPa)
#
#
# Indices 1 2 3 4 5 6 
#
# 1 0.209101 -0.081462 -0.067684 0.158544 0.031989 -0.581131
# 2 -0.081462 0.046565 0.023484 -0.069392 -0.013837 0.248820
# 3 -0.067684 0.023484 0.031622 -0.060342 -0.005073 0.199077
# 4 0.158544 -0.069392 -0.060342 0.178956 0.013585 -0.544994
# 5 0.031989 -0.013837 -0.005073 0.013585 0.037903 -0.080181
# 6 -0.581131 0.248820 0.199077 -0.544994 -0.080181 1.904774
#
#
# Mechanical properties :
#
#
# Convention : Reuss Voigt Hill
#
# Bulk Modulus (GPa) = 27.80505 56.91177 42.35841
# Shear Modulus (GPa) = 1.87109 32.12732 16.99920
#
# Velocity S-wave (km/s) = 0.89328 3.70151 2.69250
# Velocity P-wave (km/s) = 3.59469 6.52219 5.26597
#
# Compressibility (1/GPa) = 0.03596469
#
# Stress axis : x y z
#
# Youngs Moduli (GPa) = 4.78238 21.47528 31.62355
#
# Poissons Ratio (x) = 1.74942 2.14040
# Poissons Ratio (y) = 0.38958 -0.74266
# Poissons Ratio (z) = 0.32369 -0.50433
#
# Static dielectric constant tensor:
#      x y z
#    x 1.909320 -0.002490 0.028970 
#    y -0.002490 1.968010 -0.022360 
#    z 0.028970 -0.022360 1.955780 
# 
# From -- ./inp_files/320075.got.cif
#   From: 2010.05.17/outbox.cif.g08.bks.cpg/sg2_161_cif.got.tgz:320075.got - 2010.06.03 11:33:40.
