data_PCOD9095899
_publ_section_title
;
Structure prediction by ZEFSAII (Michael W. Deem and Ramdas Pophale) SiO2 
 PCOD9095899
Probable space group: P -1
;
_chemical_formula_sum "Si O2"
_cell_formula_units_Z 16
_cell_length_a 9.252951
_cell_length_b 9.006921
_cell_length_c 15.288478
_cell_angle_alpha 40.497360
_cell_angle_beta 63.525307
_cell_angle_gamma 79.671461
_cell_volume 712.173257
_symmetry_space_group_name_H-M "P -1"
_symmetry_group_IT_number 2
_symmetry_cell_setting 'triclinic'
loop_
_space_group_symop_operation_xyz
x,y,z
-x,-y,-z
loop_
_atom_site_type_symbol
_atom_site_label
_atom_site_fract_x
_atom_site_fract_y
_atom_site_fract_z
Si Si1 0.368765 0.145474 0.944275
Si Si2 0.244915 0.797220 0.872053
Si Si3 0.528407 0.612040 0.845216
Si Si4 0.617873 0.687193 0.317761
Si Si5 0.076421 0.458013 0.632253
Si Si6 0.940935 0.956018 0.803564
Si Si7 0.134547 0.988001 0.393729
Si Si8 0.762826 0.338834 0.876577
O O1 0.434842 0.326239 0.764515
O O2 0.500000 0.000000 0.000000
O O3 0.240871 0.160700 0.050073
O O4 0.239502 0.930767 0.020236
O O5 0.364097 0.687109 0.829262
O O6 0.360384 0.051408 0.763362
O O7 0.201384 0.632197 0.043544
O O8 0.080325 0.839122 0.855929
O O9 0.594252 0.415795 0.863572
O O10 0.687034 0.840934 0.702099
O O11 0.500000 0.500000 0.000000
O O12 0.500000 0.500000 0.500000
O O13 0.799696 0.637420 0.296716
O O14 0.164975 0.735292 0.467813
O O15 0.011126 0.243183 0.676380
O O16 0.911090 0.484871 0.712535
O O17 0.924616 0.920212 0.721208
O O18 0.000000 0.000000 0.500000
#
# Coordination Sequence:
#
# PCOD9095899 Si02
#       8
#     2   2   2   2   2   2   2   2
#     4  10  22  37  62  95 129 165 216 268 316 383
#     4   9  19  38  61  87 124 165 205 262 319 381
#     4  10  21  38  64  86 123 169 211 250 317 392
#     4  10  20  35  60  93 126 166 211 264 320 375
#     4  10  20  39  64  90 124 162 211 264 322 382
#     4  10  23  40  64  94 126 163 214 270 321 378
#     4  12  24  41  65  93 129 169 216 266 327 381
#     4   9  18  37  61  88 119 168 210 252 321 387
#
# _framework density 22.466441
#
# number of rings (size 3 to 8) (size 9 to 14) (size 15 to 20)
#    0.000    2.000    1.250    1.875    7.000    3.000 
#    2.250    4.375    0.000    0.000    0.000    0.000 
#    0.000    0.000    0.000    0.000    0.000    0.000 
#
# Total GULP energy -89144.592846 kJ/mol
# GULP energy per Si atom -5571.537053 kJ/mol
# Density = 2.241531 g / cm^3
# Si number density = 22.466441 Si / 1000 Ang^3
#
#
#
# Elastic Constant Matrix: (Units=GPa)
#
#
# Indices 1 2 3 4 5 6 
#
# 1 82.0961 37.1854 10.8170 26.2254 7.2522 -35.0566
# 2 37.1854 103.0445 37.1928 5.0465 5.5409 -21.0033
# 3 10.8170 37.1928 68.5719 11.8090 -1.2580 1.4210
# 4 26.2254 5.0465 11.8090 50.7137 5.3153 -0.5104
# 5 7.2522 5.5409 -1.2580 5.3153 35.4771 3.2979
# 6 -35.0566 -21.0033 1.4210 -0.5104 3.2979 34.2459
#
#
#
# Elastic Compliance Matrix: (Units=1/GPa)
#
#
# Indices 1 2 3 4 5 6 
#
# 1 0.033608 -0.003890 -0.001302 -0.015629 -0.006989 0.032512
# 2 -0.003890 0.015415 -0.008410 0.002802 -0.002901 0.006142
# 3 -0.001302 -0.008410 0.020203 -0.003645 0.003560 -0.007726
# 4 -0.015629 0.002802 -0.003645 0.028268 -0.000336 -0.013676
# 5 -0.006989 -0.002901 0.003560 -0.000336 0.031371 -0.012108
# 6 0.032512 0.006142 -0.007726 -0.013676 -0.012108 0.067532
#
#
# Mechanical properties :
#
#
# Convention : Reuss Voigt Hill
#
# Bulk Modulus (GPa) = 23.79740 47.12255 35.45997
# Shear Modulus (GPa) = 21.04306 35.32183 28.18245
#
# Velocity S-wave (km/s) = 3.06378 3.96940 3.54563
# Velocity P-wave (km/s) = 4.80948 6.48293 5.70787
#
# Compressibility (1/GPa) = 0.04202140
#
# Stress axis : x y z
#
# Youngs Moduli (GPa) = 29.75512 64.87394 49.49673
#
# Poissons Ratio (x) = 0.25236 0.06445
# Poissons Ratio (y) = 0.11575 0.41627
# Poissons Ratio (z) = 0.03874 0.54560
#
# Static dielectric constant tensor:
#      x y z
#    x 1.864410 0.050530 -0.030330 
#    y 0.050530 1.951100 -0.022140 
#    z -0.030330 -0.022140 1.935240 
# 
# From -- ./inp_files/494215.got.cif
#   From: 2010.05.17/outbox.cif.g08.bks.cpg/sg2_248_cif.got.tgz:494215.got - 2010.06.03 11:33:40.
