data_PCOD9095932
_publ_section_title
;
Structure prediction by ZEFSAII (Michael W. Deem and Ramdas Pophale) SiO2 
 PCOD9095932
Probable space group: P -1
;
_chemical_formula_sum "Si O2"
_cell_formula_units_Z 15
_cell_length_a 9.016962
_cell_length_b 13.891536
_cell_length_c 12.840015
_cell_angle_alpha 123.329436
_cell_angle_beta 30.590199
_cell_angle_gamma 130.498067
_cell_volume 622.197350
_symmetry_space_group_name_H-M "P -1"
_symmetry_group_IT_number 2
_symmetry_cell_setting 'triclinic'
loop_
_space_group_symop_operation_xyz
x,y,z
-x,-y,-z
loop_
_atom_site_type_symbol
_atom_site_label
_atom_site_fract_x
_atom_site_fract_y
_atom_site_fract_z
Si Si1 0.744431 0.621189 0.527572
Si Si2 0.305476 0.111352 0.978051
Si Si3 0.917940 0.242868 0.807416
Si Si4 0.827850 0.156355 0.157973
Si Si5 0.908322 0.424737 0.197855
Si Si6 0.738620 0.173632 0.542450
Si Si7 0.749038 0.911067 0.393480
Si Si8 0.000000 0.500000 0.000000
O O1 0.804259 0.495852 0.393086
O O2 0.362601 0.588467 0.739645
O O3 0.875453 0.708196 0.395974
O O4 0.952928 0.699011 0.543150
O O5 0.547372 0.182989 0.964536
O O6 0.524065 0.142220 0.758748
O O7 0.161792 0.958557 0.984985
O O8 0.035908 0.157079 0.133863
O O9 0.985961 0.135164 0.761009
O O10 0.032075 0.363141 0.883433
O O11 0.928506 0.296448 0.137578
O O12 0.464362 0.112437 0.386890
O O13 0.191864 0.522128 0.016748
O O14 0.501022 0.171936 0.592958
O O15 0.840288 0.056853 0.397020
#
# Coordination Sequence:
#
# PCOD9095932 Si02
#       8
#     2   2   2   2   2   2   2   1
#     4   9  19  37  59  82 111 145 197 228 279 339
#     4   9  21  37  59  85 121 144 192 225 288 335
#     4  10  20  39  58  84 110 157 185 236 274 346
#     4  10  20  37  59  86 115 153 182 238 280 341
#     4  10  20  37  59  82 111 155 188 238 280 338
#     4   9  20  36  57  88 115 147 183 244 270 342
#     4  10  20  35  61  84 118 145 193 225 292 323
#     4  10  24  38  54  82 120 140 196 240 280 322
#
# _framework density 24.108108000000001
#
# number of rings (size 3 to 8) (size 9 to 14) (size 15 to 20)
#    0.000    2.400    1.333    0.000    3.733    2.667 
#    2.400    3.333    0.000    0.000    0.000    0.000 
#    0.000    0.000    0.000    0.000    0.000    0.000 
#
# Total GULP energy -83658.301484 kJ/mol
# GULP energy per Si atom -5577.220099 kJ/mol
# Density = 2.405324 g / cm^3
# Si number density = 24.108108 Si / 1000 Ang^3
#
#
#
# Elastic Constant Matrix: (Units=GPa)
#
#
# Indices 1 2 3 4 5 6 
#
# 1 63.8437 53.3486 28.4866 10.8098 -14.2292 -1.4989
# 2 53.3486 117.3680 33.3683 13.0264 -28.2833 -8.8246
# 3 28.4866 33.3683 74.6747 6.5391 -10.4675 -0.9371
# 4 10.8098 13.0264 6.5391 34.3819 -5.1267 -7.0988
# 5 -14.2292 -28.2833 -10.4675 -5.1267 34.5690 -2.5006
# 6 -1.4989 -8.8246 -0.9371 -7.0988 -2.5006 59.4309
#
#
#
# Elastic Compliance Matrix: (Units=1/GPa)
#
#
# Indices 1 2 3 4 5 6 
#
# 1 0.027666 -0.010614 -0.005436 -0.003878 0.000381 -0.001411
# 2 -0.010614 0.016151 -0.001910 -0.000687 0.008337 0.002369
# 3 -0.005436 -0.001910 0.016522 -0.000583 0.001103 -0.000183
# 4 -0.003878 -0.000687 -0.000583 0.031836 0.002655 0.003705
# 5 0.000381 0.008337 0.001103 0.002655 0.036860 0.003133
# 6 -0.001411 0.002369 -0.000183 0.003705 0.003133 0.017714
#
#
# Mechanical properties :
#
#
# Convention : Reuss Voigt Hill
#
# Bulk Modulus (GPa) = 40.95021 54.03259 47.49140
# Shear Modulus (GPa) = 26.20445 35.05522 30.62984
#
# Velocity S-wave (km/s) = 3.30048 3.81738 3.56830
# Velocity P-wave (km/s) = 5.61669 6.47234 6.05963
#
# Compressibility (1/GPa) = 0.02441990
#
# Stress axis : x y z
#
# Youngs Moduli (GPa) = 36.14534 61.91621 60.52608
#
# Poissons Ratio (x) = 0.65717 0.32902
# Poissons Ratio (y) = 0.38364 0.11558
# Poissons Ratio (z) = 0.19648 0.11824
#
# Static dielectric constant tensor:
#      x y z
#    x 1.983610 -0.095210 0.191130 
#    y -0.095210 2.037720 -0.189580 
#    z 0.191130 -0.189580 2.204250 
# 
# From -- ./inp_files/170234.got.cif
#   From: 2010.05.17/outbox.cif.g08.bks.cpg/sg2_86_cif.got.tgz:170234.got - 2010.06.03 11:33:40.
