data_PCOD9095437
_publ_section_title
;
Structure prediction by ZEFSAII (Michael W. Deem and Ramdas Pophale) SiO2 
 PCOD9095437
Probable space group: P -1
;
_chemical_formula_sum "Si O2"
_cell_formula_units_Z 16
_cell_length_a 8.230232
_cell_length_b 12.853340
_cell_length_c 10.976244
_cell_angle_alpha 64.970899
_cell_angle_beta 131.620026
_cell_angle_gamma 132.405682
_cell_volume 640.289416
_symmetry_space_group_name_H-M "P -1"
_symmetry_group_IT_number 2
_symmetry_cell_setting 'triclinic'
loop_
_space_group_symop_operation_xyz
x,y,z
-x,-y,-z
loop_
_atom_site_type_symbol
_atom_site_label
_atom_site_fract_x
_atom_site_fract_y
_atom_site_fract_z
Si Si1 0.909422 0.341019 0.561502
Si Si2 0.924473 0.464558 0.120646
Si Si3 0.469090 0.465725 0.810582
Si Si4 0.503646 0.687524 0.334257
Si Si5 0.321920 0.799714 0.731500
Si Si6 0.423191 0.924174 0.130822
Si Si7 0.115718 0.126922 0.090164
Si Si8 0.346380 0.244494 0.373472
O O1 0.861161 0.260984 0.449085
O O2 0.615353 0.251438 0.515481
O O3 0.000000 0.500000 0.500000
O O4 0.161966 0.372526 0.745301
O O5 0.825655 0.307487 0.178036
O O6 0.194281 0.568039 0.278036
O O7 0.676132 0.474632 0.003363
O O8 0.000000 0.500000 0.000000
O O9 0.452818 0.381887 0.723090
O O10 0.581554 0.621277 0.738776
O O11 0.511371 0.820555 0.229984
O O12 0.701171 0.731139 0.524713
O O13 0.571293 0.790037 0.829860
O O14 0.432398 0.954724 0.754008
O O15 0.104056 0.839221 0.038283
O O16 0.500000 0.000000 0.000000
O O17 0.133155 0.109970 0.253959
O O18 0.000000 0.000000 0.000000
#
# Coordination Sequence:
#
# PCOD9095437 Si02
#       8
#     2   2   2   2   2   2   2   2
#     4   9  19  37  59  85 118 158 201 250 306 357
#     4  10  20  35  59  91 121 158 202 246 299 361
#     4  10  20  35  57  88 124 159 196 248 307 362
#     4  11  23  38  60  94 125 160 203 251 307 367
#     4  10  21  41  64  87 121 161 203 253 305 363
#     4  11  23  42  63  90 126 163 203 252 307 370
#     4   9  21  42  65  86 119 167 208 250 310 367
#     4  10  20  38  61  87 120 158 204 256 304 361
#
# _framework density 24.988699
#
# number of rings (size 3 to 8) (size 9 to 14) (size 15 to 20)
#    0.000    2.000    0.000    4.125    0.000    4.000 
#    0.000   18.750    0.000    0.000    0.000    0.000 
#    0.000    0.000    0.000    0.000    0.000    0.000 
#
# Total GULP energy -89381.161312 kJ/mol
# GULP energy per Si atom -5586.322582 kJ/mol
# Density = 2.493182 g / cm^3
# Si number density = 24.988699 Si / 1000 Ang^3
#
#
#
# Elastic Constant Matrix: (Units=GPa)
#
#
# Indices 1 2 3 4 5 6 
#
# 1 68.5167 23.7432 25.9950 14.0252 5.4281 -16.9628
# 2 23.7432 82.0812 25.3201 15.5630 -6.2262 -13.6592
# 3 25.9950 25.3201 107.4126 44.8457 1.7663 -6.0868
# 4 14.0252 15.5630 44.8457 41.6731 -12.1790 -11.7295
# 5 5.4281 -6.2262 1.7663 -12.1790 49.3521 12.3687
# 6 -16.9628 -13.6592 -6.0868 -11.7295 12.3687 36.2129
#
#
#
# Elastic Compliance Matrix: (Units=1/GPa)
#
#
# Indices 1 2 3 4 5 6 
#
# 1 0.019706 -0.003512 -0.002826 -0.001288 -0.005014 0.008726
# 2 -0.003512 0.014569 -0.002125 -0.000783 0.001417 0.002756
# 3 -0.002826 -0.002125 0.019454 -0.021836 -0.004983 -0.004226
# 4 -0.001288 -0.000783 -0.021836 0.054227 0.011975 0.008905
# 5 -0.005014 0.001417 -0.004983 0.011975 0.026049 -0.007670
# 6 0.008726 0.002756 -0.004226 0.008905 -0.007670 0.037535
#
#
# Mechanical properties :
#
#
# Convention : Reuss Voigt Hill
#
# Bulk Modulus (GPa) = 27.17238 45.34748 36.25993
# Shear Modulus (GPa) = 24.90874 37.64444 31.27659
#
# Velocity S-wave (km/s) = 3.16064 3.88552 3.54168
# Velocity P-wave (km/s) = 4.92108 6.19002 5.59166
#
# Compressibility (1/GPa) = 0.03680208
#
# Stress axis : x y z
#
# Youngs Moduli (GPa) = 50.74698 68.63962 51.40346
#
# Poissons Ratio (x) = 0.24108 0.14528
# Poissons Ratio (y) = 0.17824 0.10921
# Poissons Ratio (z) = 0.14342 0.14583
#
# Static dielectric constant tensor:
#      x y z
#    x 2.104140 -0.001270 0.035020 
#    y -0.001270 1.943360 0.034510 
#    z 0.035020 0.034510 2.014940 
# 
# From -- ./inp_files/392484.got.cif
#   From: 2010.05.17/outbox.cif.g08.bks.cpg/sg2_197_cif.got.tgz:392484.got - 2010.06.03 11:33:40.
