data_PCOD9095774
_publ_section_title
;
Structure prediction by ZEFSAII (Michael W. Deem and Ramdas Pophale) SiO2 
 PCOD9095774
Probable space group: P -1
;
_chemical_formula_sum "Si O2"
_cell_formula_units_Z 14
_cell_length_a 5.330103
_cell_length_b 22.109946
_cell_length_c 16.787381
_cell_angle_alpha 18.829962
_cell_angle_beta 74.586105
_cell_angle_gamma 67.204483
_cell_volume 553.772984
_symmetry_space_group_name_H-M "P -1"
_symmetry_group_IT_number 2
_symmetry_cell_setting 'triclinic'
loop_
_space_group_symop_operation_xyz
x,y,z
-x,-y,-z
loop_
_atom_site_type_symbol
_atom_site_label
_atom_site_fract_x
_atom_site_fract_y
_atom_site_fract_z
Si Si1 0.669851 0.520962 0.662572
Si Si2 0.061313 0.160574 0.462974
Si Si3 0.227565 0.222945 0.530009
Si Si4 0.145798 0.748869 0.797465
Si Si5 0.431869 0.258620 0.101052
Si Si6 0.190968 0.119466 0.070011
Si Si7 0.812507 0.099530 0.814764
O O1 0.661994 0.641802 0.594786
O O2 0.987100 0.357035 0.812337
O O3 0.505610 0.714512 0.375577
O O4 0.508856 0.376857 0.876070
O O5 0.137206 0.283691 0.371507
O O6 0.858725 0.292620 0.244225
O O7 0.365509 0.988330 0.617868
O O8 0.472794 0.983209 0.807339
O O9 0.965241 0.219195 0.605198
O O10 0.921186 0.024739 0.688877
O O11 0.442283 0.678827 0.908269
O O12 0.898325 0.700986 0.920058
O O13 0.000000 0.000000 0.500000
O O14 0.184875 0.068153 0.041001
O O15 0.000000 0.000000 0.000000
#
# Coordination Sequence:
#
# PCOD9095774 Si02
#       7
#     2   2   2   2   2   2   2
#     4  10  23  41  64  95 133 168 221 275 330 400
#     4   9  19  34  59  87 129 172 219 267 324 391
#     4  10  22  39  66  90 128 169 218 272 334 397
#     4  10  20  35  59  98 131 179 228 280 320 393
#     4  10  22  35  62  95 133 177 230 272 335 386
#     4   9  21  39  63  95 125 172 217 263 338 393
#     4  10  23  44  65  93 129 167 215 273 338 407
#
# _framework density 25.281116999999998
#
# number of rings (size 3 to 8) (size 9 to 14) (size 15 to 20)
#    0.000    2.286    0.000    1.714   10.000    5.143 
#    0.000    2.857    0.000    0.000    0.000    0.000 
#    0.000    0.000    0.000    0.000    0.000    0.000 
#
# Total GULP energy -78329.274324 kJ/mol
# GULP energy per Si atom -5594.948166 kJ/mol
# Density = 2.522358 g / cm^3
# Si number density = 25.281117 Si / 1000 Ang^3
#
#
#
# Elastic Constant Matrix: (Units=GPa)
#
#
# Indices 1 2 3 4 5 6 
#
# 1 84.9549 17.6676 15.3006 -3.0265 10.4010 6.3407
# 2 17.6676 76.6329 48.3192 -8.5771 11.5063 12.8290
# 3 15.3006 48.3192 96.3907 -21.6664 31.2481 6.4809
# 4 -3.0265 -8.5771 -21.6664 46.5450 2.2651 13.1732
# 5 10.4010 11.5063 31.2481 2.2651 41.0337 3.9210
# 6 6.3407 12.8290 6.4809 13.1732 3.9210 40.2228
#
#
#
# Elastic Compliance Matrix: (Units=1/GPa)
#
#
# Indices 1 2 3 4 5 6 
#
# 1 0.012682 -0.002437 0.000468 0.001124 -0.002817 -0.001391
# 2 -0.002437 0.020704 -0.010884 -0.000244 0.003567 -0.004733
# 3 0.000468 -0.010884 0.023007 0.010070 -0.014937 -0.002151
# 4 0.001124 -0.000244 0.010070 0.029612 -0.008508 -0.010591
# 5 -0.002817 0.003567 -0.014937 -0.008508 0.035832 0.001006
# 6 -0.001391 -0.004733 -0.002151 -0.010591 0.001006 0.030307
#
#
# Mechanical properties :
#
#
# Convention : Reuss Voigt Hill
#
# Bulk Modulus (GPa) = 32.58919 46.72817 39.65868
# Shear Modulus (GPa) = 26.58448 37.33972 31.96210
#
# Velocity S-wave (km/s) = 3.24629 3.84732 3.55951
# Velocity P-wave (km/s) = 5.19325 6.18542 5.71092
#
# Compressibility (1/GPa) = 0.03068502
#
# Stress axis : x y z
#
# Youngs Moduli (GPa) = 78.85038 48.30075 43.46555
#
# Poissons Ratio (x) = 0.11773 -0.02034
# Poissons Ratio (y) = 0.19219 0.47310
# Poissons Ratio (z) = -0.03690 0.52572
#
# Static dielectric constant tensor:
#      x y z
#    x 2.022740 0.017340 0.029720 
#    y 0.017340 2.004230 0.001650 
#    z 0.029720 0.001650 2.010450 
# 
# From -- ./inp_files/551184.got.cif
#   From: 2010.05.17/outbox.cif.g08.bks.cpg/sg2_276_cif.got.tgz:551184.got - 2010.06.03 11:33:40.
