data_PCOD9095052
_publ_section_title
;
Structure prediction by ZEFSAII (Michael W. Deem and Ramdas Pophale) SiO2 
 PCOD9095052
Probable space group: P -1
;
_chemical_formula_sum "Si O2"
_cell_formula_units_Z 15
_cell_length_a 7.534758
_cell_length_b 7.628129
_cell_length_c 14.540217
_cell_angle_alpha 128.076061
_cell_angle_beta 114.909193
_cell_angle_gamma 55.800100
_cell_volume 540.533311
_symmetry_space_group_name_H-M "P -1"
_symmetry_group_IT_number 2
_symmetry_cell_setting 'triclinic'
loop_
_space_group_symop_operation_xyz
x,y,z
-x,-y,-z
loop_
_atom_site_type_symbol
_atom_site_label
_atom_site_fract_x
_atom_site_fract_y
_atom_site_fract_z
Si Si1 0.472159 0.511644 0.163494
Si Si2 0.500000 0.000000 0.500000
Si Si3 0.778280 0.736514 0.053377
Si Si4 0.171197 0.116703 0.079546
Si Si5 0.287481 0.032809 0.279385
Si Si6 0.853462 0.661742 0.240195
Si Si7 0.150444 0.565258 0.425597
Si Si8 0.419521 0.561355 0.640562
O O1 0.399528 0.372601 0.026622
O O2 0.666280 0.574985 0.193648
O O3 0.542989 0.358799 0.224208
O O4 0.267720 0.781907 0.220792
O O5 0.473135 0.018007 0.385433
O O6 0.437088 0.291392 0.581925
O O7 0.792342 0.825874 0.188182
O O8 0.000000 0.500000 0.000000
O O9 0.258315 0.093139 0.988104
O O10 0.311350 0.016432 0.169681
O O11 0.049480 0.406880 0.168753
O O12 0.000000 0.000000 0.000000
O O13 0.115602 0.314658 0.352869
O O14 0.950575 0.739318 0.375930
O O15 0.208321 0.672251 0.565054
O O16 0.371605 0.475118 0.386098
#
# Coordination Sequence:
#
# PCOD9095052 Si02
#       8
#     2   1   2   2   2   2   2   2
#     4  11  20  33  54  79 109 137 166 218 270 310
#     4   8  16  28  50  78  98 128 174 216 244 298
#     4  10  20  35  54  74 101 139 178 209 254 315
#     4  10  20  36  56  74  99 137 181 216 249 311
#     4   9  17  31  51  74 100 133 173 206 249 306
#     4  10  21  35  52  79 109 134 170 217 270 308
#     4   9  18  34  55  77 102 140 182 215 246 311
#     4   9  17  32  56  77 102 139 181 213 255 308
#
# _framework density 27.750371999999999
#
# number of rings (size 3 to 8) (size 9 to 14) (size 15 to 20)
#    0.000    2.400    0.000    4.400    0.000    1.600 
#    0.000    4.000    0.000   12.800    0.000    0.000 
#    0.000    0.000    0.000    0.000    0.000    0.000 
#
# Total GULP energy -83556.294565 kJ/mol
# GULP energy per Si atom -5570.419638 kJ/mol
# Density = 2.768721 g / cm^3
# Si number density = 27.750372 Si / 1000 Ang^3
#
#
#
# Elastic Constant Matrix: (Units=GPa)
#
#
# Indices 1 2 3 4 5 6 
#
# 1 106.4669 15.1883 61.1881 -30.3160 1.5170 14.8422
# 2 15.1883 89.6317 64.7515 -34.5438 -1.4271 3.5411
# 3 61.1881 64.7515 222.8369 -57.2475 10.3412 15.6650
# 4 -30.3160 -34.5438 -57.2475 64.9876 2.4469 -16.2658
# 5 1.5170 -1.4271 10.3412 2.4469 25.6362 -6.6476
# 6 14.8422 3.5411 15.6650 -16.2658 -6.6476 29.7225
#
#
#
# Elastic Compliance Matrix: (Units=1/GPa)
#
#
# Indices 1 2 3 4 5 6 
#
# 1 0.012077 0.001160 -0.002566 0.003210 -0.000759 -0.003229
# 2 0.001160 0.016071 -0.003649 0.006691 0.002612 0.003675
# 3 -0.002566 -0.003649 0.007312 0.003132 -0.003619 -0.001233
# 4 0.003210 0.006691 0.003132 0.025686 -0.000995 0.009784
# 5 -0.000759 0.002612 -0.003619 -0.000995 0.043655 0.011194
# 6 -0.003229 0.003675 -0.001233 0.009784 0.011194 0.043327
#
#
# Mechanical properties :
#
#
# Convention : Reuss Voigt Hill
#
# Bulk Modulus (GPa) = 39.44871 77.91015 58.67943
# Shear Modulus (GPa) = 29.99574 42.58976 36.29275
#
# Velocity S-wave (km/s) = 3.29129 3.92183 3.62032
# Velocity P-wave (km/s) = 5.35629 6.97453 6.21827
#
# Compressibility (1/GPa) = 0.02534937
#
# Stress axis : x y z
#
# Youngs Moduli (GPa) = 82.80129 62.22198 136.76324
#
# Poissons Ratio (x) = -0.07219 0.35100
# Poissons Ratio (y) = -0.09607 0.49909
# Poissons Ratio (z) = 0.21251 0.22707
#
# Static dielectric constant tensor:
#      x y z
#    x 2.267110 -0.105290 -0.112330 
#    y -0.105290 2.166370 -0.082560 
#    z -0.112330 -0.082560 1.770550 
# 
# From -- ./inp_files/202444.got.cif
#   From: 2010.05.17/outbox.cif.g08.bks.cpg/sg2_102_cif.got.tgz:202444.got - 2010.06.03 11:33:40.
