data_PCOD9095067
_publ_section_title
;
Structure prediction by ZEFSAII (Michael W. Deem and Ramdas Pophale) SiO2 
 PCOD9095067
Probable space group: P -1
;
_chemical_formula_sum "Si O2"
_cell_formula_units_Z 14
_cell_length_a 21.438002
_cell_length_b 14.518310
_cell_length_c 7.546634
_cell_angle_alpha 151.358374
_cell_angle_beta 139.788507
_cell_angle_gamma 29.040383
_cell_volume 546.459559
_symmetry_space_group_name_H-M "P -1"
_symmetry_group_IT_number 2
_symmetry_cell_setting 'triclinic'
loop_
_space_group_symop_operation_xyz
x,y,z
-x,-y,-z
loop_
_atom_site_type_symbol
_atom_site_label
_atom_site_fract_x
_atom_site_fract_y
_atom_site_fract_z
Si Si1 0.284194 0.237151 0.335584
Si Si2 0.067883 0.742067 0.502058
Si Si3 0.251221 0.089756 0.363895
Si Si4 0.351427 0.711805 0.492283
Si Si5 0.767373 0.305586 0.479379
Si Si6 0.848202 0.975626 0.661068
Si Si7 0.535591 0.792117 0.578653
O O1 0.166273 0.479716 0.380107
O O2 0.405157 0.198627 0.458353
O O3 0.247967 0.265228 0.511510
O O4 0.317064 0.976331 0.911822
O O5 0.116183 0.709164 0.350560
O O6 0.085472 0.937003 0.943171
O O7 0.929366 0.850222 0.444740
O O8 0.169081 0.190614 0.537389
O O9 0.401188 0.872364 0.372892
O O10 0.206262 0.951862 0.941335
O O11 0.500000 0.500000 0.500000
O O12 0.279699 0.644464 0.338464
O O13 0.294793 0.766909 0.266556
O O14 0.646392 0.526520 0.468457
O O15 0.500000 0.000000 0.000000
#
# Coordination Sequence:
#
# PCOD9095067 Si02
#       7
#     2   2   2   2   2   2   2
#     4  10  22  36  55  82 113 143 183 228 273 329
#     4   9  21  40  58  81 108 148 190 224 272 324
#     4  10  20  35  54  78 109 149 180 221 278 327
#     4  11  22  37  57  85 114 145 182 227 280 328
#     4   9  20  36  54  76 110 146 182 222 273 332
#     4  10  21  39  60  79 111 148 186 228 270 329
#     4  11  20  33  53  81 112 142 183 229 272 322
#
# _framework density 25.619461000000001
#
# number of rings (size 3 to 8) (size 9 to 14) (size 15 to 20)
#    0.000    2.000    0.000    3.429    0.000    9.714 
#    0.000    0.000    0.000    0.000    0.000    0.000 
#    0.000    0.000    0.000    0.000    0.000    0.000 
#
# Total GULP energy -78241.123983 kJ/mol
# GULP energy per Si atom -5588.651713 kJ/mol
# Density = 2.556115 g / cm^3
# Si number density = 25.619461 Si / 1000 Ang^3
#
#
#
# Elastic Constant Matrix: (Units=GPa)
#
#
# Indices 1 2 3 4 5 6 
#
# 1 247.1695 48.2264 32.6220 5.9238 46.6281 4.7956
# 2 48.2264 73.2832 1.5157 5.3354 16.2348 -9.1327
# 3 32.6220 1.5157 69.2430 7.0262 19.3902 -8.0293
# 4 5.9238 5.3354 7.0262 22.8269 4.1889 4.3501
# 5 46.6281 16.2348 19.3902 4.1889 25.5312 0.1993
# 6 4.7956 -9.1327 -8.0293 4.3501 0.1993 37.8065
#
#
#
# Elastic Compliance Matrix: (Units=1/GPa)
#
#
# Indices 1 2 3 4 5 6 
#
# 1 0.006478 -0.002260 -0.000429 0.001152 -0.010246 -0.001537
# 2 -0.002260 0.018503 0.004824 -0.004486 -0.010616 0.006353
# 3 -0.000429 0.004824 0.020608 -0.005425 -0.017095 0.006311
# 4 0.001152 -0.004486 -0.005425 0.048286 -0.002992 -0.007922
# 5 -0.010246 -0.010616 -0.017095 -0.002992 0.078143 -0.004963
# 6 -0.001537 0.006353 0.006311 -0.007922 -0.004963 0.030458
#
#
# Mechanical properties :
#
#
# Convention : Reuss Voigt Hill
#
# Bulk Modulus (GPa) = 20.05588 61.60266 40.82927
# Shear Modulus (GPa) = 23.27467 37.72170 30.49818
#
# Velocity S-wave (km/s) = 3.01736 3.84133 3.45400
# Velocity P-wave (km/s) = 4.47042 6.61603 5.64609
#
# Compressibility (1/GPa) = 0.04986069
#
# Stress axis : x y z
#
# Youngs Moduli (GPa) = 154.35719 54.04426 48.52582
#
# Poissons Ratio (x) = 0.12215 0.02080
# Poissons Ratio (y) = 0.34886 -0.23411
# Poissons Ratio (z) = 0.06617 -0.26073
#
# Static dielectric constant tensor:
#      x y z
#    x 2.148830 0.015220 -0.101840 
#    y 0.015220 2.042140 -0.017200 
#    z -0.101840 -0.017200 2.078530 
# 
# From -- ./inp_files/158806.got.cif
#   From: 2010.05.17/outbox.cif.g08.bks.cpg/sg2_80_cif.got.tgz:158806.got - 2010.06.03 11:33:40.
