data_PCOD9095226
_publ_section_title
;
Structure prediction by ZEFSAII (Michael W. Deem and Ramdas Pophale) SiO2 
 PCOD9095226
Probable space group: P -1
;
_chemical_formula_sum "Si O2"
_cell_formula_units_Z 16
_cell_length_a 14.804573
_cell_length_b 13.066021
_cell_length_c 10.279055
_cell_angle_alpha 135.824486
_cell_angle_beta 148.773960
_cell_angle_gamma 59.805054
_cell_volume 683.976821
_symmetry_space_group_name_H-M "P -1"
_symmetry_group_IT_number 2
_symmetry_cell_setting 'triclinic'
loop_
_space_group_symop_operation_xyz
x,y,z
-x,-y,-z
loop_
_atom_site_type_symbol
_atom_site_label
_atom_site_fract_x
_atom_site_fract_y
_atom_site_fract_z
Si Si1 0.481414 0.087734 0.759243
Si Si2 0.892820 0.327726 0.171724
Si Si3 0.864372 0.141789 0.735612
Si Si4 0.459237 0.191160 0.554861
Si Si5 0.974273 0.851464 0.611066
Si Si6 0.040456 0.833950 0.400493
Si Si7 0.643657 0.654523 0.671842
Si Si8 0.453687 0.291429 0.126996
O O1 0.415739 0.175274 0.639653
O O2 0.316241 0.957574 0.504020
O O3 0.584234 0.982508 0.714995
O O4 0.552779 0.204267 0.072237
O O5 0.000000 0.500000 0.500000
O O6 0.967204 0.212909 0.245433
O O7 0.927059 0.298002 0.035959
O O8 0.676629 0.281638 0.892749
O O9 0.831630 0.159074 0.559132
O O10 0.995052 0.032763 0.809820
O O11 0.367875 0.280027 0.424856
O O12 0.079255 0.813851 0.580290
O O13 0.758945 0.767743 0.236294
O O14 0.855019 0.700357 0.013735
O O15 0.000000 0.000000 0.500000
O O16 0.541000 0.473688 0.383184
O O17 0.554650 0.733629 0.749367
#
# Coordination Sequence:
#
# PCOD9095226 Si02
#       8
#     2   2   2   2   2   2   2   2
#     4   9  20  37  53  76 108 141 178 213 258 316
#     4  11  22  35  53  79 112 143 171 212 265 316
#     4   9  19  36  56  78 101 137 184 220 257 306
#     4  10  22  37  52  78 111 142 174 212 262 316
#     4   9  18  36  58  78 104 138 178 220 257 305
#     4   9  19  34  58  83 102 132 179 225 261 301
#     4  10  20  35  56  81 109 135 171 221 265 310
#     4   9  19  36  57  80 103 137 179 218 261 306
#
# _framework density 23.392607999999999
#
# number of rings (size 3 to 8) (size 9 to 14) (size 15 to 20)
#    0.000    2.500    0.000    1.875    0.000   10.000 
#    0.000    3.125    0.000    0.000    0.000    0.000 
#    0.000    0.000    0.000    0.000    0.000    0.000 
#
# Total GULP energy -89368.461281 kJ/mol
# GULP energy per Si atom -5585.528830 kJ/mol
# Density = 2.333937 g / cm^3
# Si number density = 23.392608 Si / 1000 Ang^3
#
#
#
# Elastic Constant Matrix: (Units=GPa)
#
#
# Indices 1 2 3 4 5 6 
#
# 1 130.1226 14.2474 39.9313 3.1241 -29.4673 19.0603
# 2 14.2474 31.7763 20.4672 -2.6500 -7.7575 15.0140
# 3 39.9313 20.4672 133.0661 20.1419 -11.3100 -1.0517
# 4 3.1241 -2.6500 20.1419 35.6212 -1.8711 -6.1668
# 5 -29.4673 -7.7575 -11.3100 -1.8711 42.1900 -2.6636
# 6 19.0603 15.0140 -1.0517 -6.1668 -2.6636 29.5517
#
#
#
# Elastic Compliance Matrix: (Units=1/GPa)
#
#
# Indices 1 2 3 4 5 6 
#
# 1 0.011108 0.002502 -0.003199 0.000008 0.006860 -0.007929
# 2 0.002502 0.050376 -0.008751 0.004362 0.007219 -0.025958
# 3 -0.003199 -0.008751 0.010614 -0.005436 -0.000881 0.005673
# 4 0.000008 0.004362 -0.005436 0.032292 0.001062 0.004419
# 5 0.006860 0.007219 -0.000881 0.001062 0.029300 -0.005261
# 6 -0.007929 -0.025958 0.005673 0.004419 -0.005261 0.052792
#
#
# Mechanical properties :
#
#
# Convention : Reuss Voigt Hill
#
# Bulk Modulus (GPa) = 18.79645 49.36189 34.07917
# Shear Modulus (GPa) = 22.41046 36.16052 29.28549
#
# Velocity S-wave (km/s) = 3.09854 3.93594 3.54208
# Velocity P-wave (km/s) = 4.56661 6.46551 5.59718
#
# Compressibility (1/GPa) = 0.05320155
#
# Stress axis : x y z
#
# Youngs Moduli (GPa) = 90.02838 19.85076 94.21635
#
# Poissons Ratio (x) = -0.04967 0.30139
# Poissons Ratio (y) = -0.22526 0.82450
# Poissons Ratio (z) = 0.28800 0.17372
#
# Static dielectric constant tensor:
#      x y z
#    x 1.974690 -0.058440 0.022510 
#    y -0.058440 1.867790 -0.033540 
#    z 0.022510 -0.033540 1.881820 
# 
# From -- ./inp_files/308657.got.cif
#   From: 2010.05.17/outbox.cif.g08.bks.cpg/sg2_155_cif.got.tgz:308657.got - 2010.06.03 11:33:40.
