data_PCOD9095346
_publ_section_title
;
Structure prediction by ZEFSAII (Michael W. Deem and Ramdas Pophale) SiO2 
 PCOD9095346
Probable space group: P -1
;
_chemical_formula_sum "Si O2"
_cell_formula_units_Z 16
_cell_length_a 15.988975
_cell_length_b 21.228596
_cell_length_c 12.637712
_cell_angle_alpha 43.244953
_cell_angle_beta 26.485981
_cell_angle_gamma 27.781888
_cell_volume 849.144278
_symmetry_space_group_name_H-M "P -1"
_symmetry_group_IT_number 2
_symmetry_cell_setting 'triclinic'
loop_
_space_group_symop_operation_xyz
x,y,z
-x,-y,-z
loop_
_atom_site_type_symbol
_atom_site_label
_atom_site_fract_x
_atom_site_fract_y
_atom_site_fract_z
Si Si1 0.303833 0.933079 0.767080
Si Si2 0.132377 0.250174 0.269041
Si Si3 0.045403 0.700259 0.996623
Si Si4 0.251177 0.670423 0.574676
Si Si5 0.323677 0.339112 0.810142
Si Si6 0.349070 0.441327 0.456690
Si Si7 0.462440 0.983766 0.725359
Si Si8 0.200642 0.380309 0.507684
O O1 0.360589 0.939839 0.816574
O O2 0.550549 0.771824 0.644134
O O3 0.344470 0.014859 0.560030
O O4 0.000000 0.000000 0.000000
O O5 0.348187 0.121282 0.262528
O O6 0.922957 0.265239 0.416154
O O7 0.924872 0.396860 0.391248
O O8 0.309511 0.243495 0.990430
O O9 0.966192 0.628441 0.214897
O O10 0.817219 0.855982 0.114898
O O11 0.052956 0.714691 0.844388
O O12 0.365797 0.605607 0.789330
O O13 0.500000 0.500000 0.500000
O O14 0.427936 0.696688 0.366899
O O15 0.376895 0.341804 0.623944
O O16 0.000000 0.500000 0.000000
O O17 0.321679 0.416013 0.400570
O O18 0.000000 0.500000 0.500000
#
# Coordination Sequence:
#
# PCOD9095346 Si02
#       8
#     2   2   2   2   2   2   2   2
#     4  10  22  43  61  77 115 157 189 237 292 344
#     4  11  21  34  58  87 116 148 192 237 272 346
#     4  10  22  39  58  80 118 152 184 235 284 341
#     4  11  19  36  58  86 117 154 187 225 292 339
#     4   9  18  32  54  82 112 149 183 228 277 331
#     4  10  20  35  57  82 111 150 185 230 291 328
#     4  10  23  40  58  84 114 153 193 233 291 335
#     4  11  23  36  58  89 110 142 195 243 284 332
#
# _framework density 18.842499
#
# number of rings (size 3 to 8) (size 9 to 14) (size 15 to 20)
#    0.000    1.750    3.750    2.250    1.750    3.000 
#    0.000    2.500    0.000    0.000    0.000    0.000 
#    0.000    0.000    0.000    0.000    0.000    0.000 
#
# Total GULP energy -89281.692324 kJ/mol
# GULP energy per Si atom -5580.105770 kJ/mol
# Density = 1.879961 g / cm^3
# Si number density = 18.842499 Si / 1000 Ang^3
#
#
#
# Elastic Constant Matrix: (Units=GPa)
#
#
# Indices 1 2 3 4 5 6 
#
# 1 129.2413 21.7947 13.8018 -1.9396 -13.8994 -5.3991
# 2 21.7947 40.9527 15.5451 -3.2434 -13.7145 -11.0465
# 3 13.8018 15.5451 70.7574 0.4901 -11.9356 -0.4535
# 4 -1.9396 -3.2434 0.4901 11.1699 2.9348 2.2576
# 5 -13.8994 -13.7145 -11.9356 2.9348 24.5985 6.2865
# 6 -5.3991 -11.0465 -0.4535 2.2576 6.2865 26.7566
#
#
#
# Elastic Compliance Matrix: (Units=1/GPa)
#
#
# Indices 1 2 3 4 5 6 
#
# 1 0.008678 -0.003647 -0.000422 -0.000185 0.002790 -0.000402
# 2 -0.003647 0.035533 -0.005027 0.004591 0.012046 0.010631
# 3 -0.000422 -0.005027 0.016343 -0.003226 0.006049 -0.003032
# 4 -0.000185 0.004591 -0.003226 0.094222 -0.009342 -0.003952
# 5 0.002790 0.012046 0.006049 -0.009342 0.054633 -0.006409
# 6 -0.000402 0.010631 -0.003032 -0.003952 -0.006409 0.043470
#
#
# Mechanical properties :
#
#
# Convention : Reuss Voigt Hill
#
# Bulk Modulus (GPa) = 23.60600 38.13720 30.87160
# Shear Modulus (GPa) = 17.53220 25.15900 21.34560
#
# Velocity S-wave (km/s) = 3.05365 3.65804 3.36943
# Velocity P-wave (km/s) = 4.99883 6.17459 5.61756
#
# Compressibility (1/GPa) = 0.04236210
#
# Stress axis : x y z
#
# Youngs Moduli (GPa) = 115.23338 28.14321 61.18946
#
# Poissons Ratio (x) = 0.10263 0.02583
# Poissons Ratio (y) = 0.42022 0.30758
# Poissons Ratio (z) = 0.04865 0.14147
#
# Static dielectric constant tensor:
#      x y z
#    x 1.678100 0.021750 -0.005430 
#    y 0.021750 1.634610 -0.027480 
#    z -0.005430 -0.027480 1.681630 
# 
# From -- ./inp_files/457474.got.cif
#   From: 2010.05.17/outbox.cif.g08.bks.cpg/sg2_229_cif.got.tgz:457474.got - 2010.06.03 11:33:40.
