data_PCOD9095534
_publ_section_title
;
Structure prediction by ZEFSAII (Michael W. Deem and Ramdas Pophale) SiO2 
 PCOD9095534
Probable space group: P -1
;
_chemical_formula_sum "Si O2"
_cell_formula_units_Z 12
_cell_length_a 21.147037
_cell_length_b 6.942467
_cell_length_c 7.878448
_cell_angle_alpha 116.058356
_cell_angle_beta 141.120442
_cell_angle_gamma 45.992530
_cell_volume 508.803046
_symmetry_space_group_name_H-M "P -1"
_symmetry_group_IT_number 2
_symmetry_cell_setting 'triclinic'
loop_
_space_group_symop_operation_xyz
x,y,z
-x,-y,-z
loop_
_atom_site_type_symbol
_atom_site_label
_atom_site_fract_x
_atom_site_fract_y
_atom_site_fract_z
Si Si1 0.250483 0.051567 0.995905
Si Si2 0.109128 0.970895 0.111359
Si Si3 0.420264 0.900735 0.596984
Si Si4 0.735008 0.862757 0.314608
Si Si5 0.330967 0.567260 0.198302
Si Si6 0.010441 0.738440 0.367548
O O1 0.318258 0.090187 0.306842
O O2 0.280640 0.766509 0.006781
O O3 0.305172 0.030285 0.918980
O O4 0.095234 0.265281 0.756317
O O5 0.190470 0.024831 0.416785
O O6 0.209931 0.680274 0.110193
O O7 0.000000 0.000000 0.000000
O O8 0.039002 0.199493 0.905628
O O9 0.371564 0.049951 0.732223
O O10 0.407003 0.657278 0.492052
O O11 0.563509 0.741445 0.762088
O O12 0.845394 0.535393 0.415542
O O13 0.000000 0.000000 0.500000
#
# Coordination Sequence:
#
# PCOD9095534 Si02
#       6
#     2   2   2   2   2   2
#     4   9  18  32  56  83 111 145 180 232 279 331
#     4  10  20  35  58  86 112 149 185 227 282 339
#     4   8  16  33  54  84 115 143 186 226 274 337
#     4  11  20  34  59  86 109 151 190 223 285 337
#     4   7  15  33  52  85 119 141 178 233 272 331
#     4  11  22  37  52  82 119 145 188 244 277 323
#
# _framework density 23.584762999999999
#
# number of rings (size 3 to 8) (size 9 to 14) (size 15 to 20)
#    1.000    1.667    1.667    2.000    0.000    0.667 
#    0.000    0.000    0.000    5.000    0.000    3.500 
#    0.000    0.000    0.000    0.000    0.000    0.000 
#
# Total GULP energy -66971.014811 kJ/mol
# GULP energy per Si atom -5580.917901 kJ/mol
# Density = 2.353108 g / cm^3
# Si number density = 23.584763 Si / 1000 Ang^3
#
#
#
# Elastic Constant Matrix: (Units=GPa)
#
#
# Indices 1 2 3 4 5 6 
#
# 1 160.2502 71.4291 74.8335 -2.9694 -10.4512 -36.5152
# 2 71.4291 116.2722 29.1953 -10.6211 11.7743 -45.5671
# 3 74.8335 29.1953 57.1754 4.0646 2.4052 -13.3891
# 4 -2.9694 -10.6211 4.0646 34.3504 -8.0608 2.5581
# 5 -10.4512 11.7743 2.4052 -8.0608 39.5638 -3.0731
# 6 -36.5152 -45.5671 -13.3891 2.5581 -3.0731 33.4966
#
#
#
# Elastic Compliance Matrix: (Units=1/GPa)
#
#
# Indices 1 2 3 4 5 6 
#
# 1 0.025031 -0.005042 -0.028895 0.006097 0.011850 0.009500
# 2 -0.005042 0.021354 0.001158 0.003045 -0.005328 0.023293
# 3 -0.028895 0.001158 0.054062 -0.011224 -0.014231 -0.008762
# 4 0.006097 0.003045 -0.011224 0.033585 0.008581 0.004524
# 5 0.011850 -0.005328 -0.014231 0.008581 0.032786 0.002334
# 6 0.009500 0.023293 -0.008762 0.004524 0.002334 0.068263
#
#
# Mechanical properties :
#
#
# Convention : Reuss Voigt Hill
#
# Bulk Modulus (GPa) = 28.66210 76.06818 52.36514
# Shear Modulus (GPa) = 16.01185 32.03148 24.02166
#
# Velocity S-wave (km/s) = 2.60841 3.68930 3.19490
# Velocity P-wave (km/s) = 4.60987 7.10429 5.98840
#
# Compressibility (1/GPa) = 0.03488927
#
# Stress axis : x y z
#
# Youngs Moduli (GPa) = 39.94976 46.83068 18.49726
#
# Poissons Ratio (x) = 0.23613 0.53447
# Poissons Ratio (y) = 0.20143 -0.02142
# Poissons Ratio (z) = 1.15434 -0.05423
#
# Static dielectric constant tensor:
#      x y z
#    x 1.891480 -0.018980 0.050430 
#    y -0.018980 1.939410 0.028030 
#    z 0.050430 0.028030 1.984940 
# 
# From -- ./inp_files/342150.got.cif
#   From: 2010.05.17/outbox.cif.g08.bks.cpg/sg2_172_cif.got.tgz:342150.got - 2010.06.03 11:33:40.
