data_PCOD9095742
_publ_section_title
;
Structure prediction by ZEFSAII (Michael W. Deem and Ramdas Pophale) SiO2 
 PCOD9095742
Probable space group: P -1
;
_chemical_formula_sum "Si O2"
_cell_formula_units_Z 14
_cell_length_a 11.235536
_cell_length_b 8.530747
_cell_length_c 10.597211
_cell_angle_alpha 88.842756
_cell_angle_beta 40.627756
_cell_angle_gamma 110.573190
_cell_volume 546.339022
_symmetry_space_group_name_H-M "P -1"
_symmetry_group_IT_number 2
_symmetry_cell_setting 'triclinic'
loop_
_space_group_symop_operation_xyz
x,y,z
-x,-y,-z
loop_
_atom_site_type_symbol
_atom_site_label
_atom_site_fract_x
_atom_site_fract_y
_atom_site_fract_z
Si Si1 0.308410 0.247834 0.645524
Si Si2 0.174018 0.676140 0.128736
Si Si3 0.092058 0.882180 0.686352
Si Si4 0.818728 0.524826 0.076833
Si Si5 0.667663 0.305227 0.537562
Si Si6 0.080126 0.186863 0.586481
Si Si7 0.652019 0.460252 0.796743
O O1 0.528041 0.279789 0.526794
O O2 0.289441 0.297172 0.515085
O O3 0.147475 0.020328 0.760423
O O4 0.253261 0.373319 0.770781
O O5 0.303076 0.669827 0.904284
O O6 0.268004 0.641543 0.177656
O O7 0.914899 0.497404 0.330877
O O8 0.136656 0.842793 0.172343
O O9 0.289651 0.860176 0.490738
O O10 0.901945 0.676644 0.891926
O O11 0.045890 0.984584 0.611695
O O12 0.000000 0.500000 0.000000
O O13 0.559372 0.330625 0.747757
O O14 0.149316 0.330200 0.413794
O O15 0.500000 0.500000 0.000000
#
# Coordination Sequence:
#
# PCOD9095742 Si02
#       7
#     2   2   2   2   2   2   2
#     4  10  20  35  59  91 123 150 199 241 297 348
#     4  10  21  39  59  86 120 158 200 240 295 352
#     4   9  21  37  57  89 124 156 190 241 300 355
#     4  11  19  37  60  92 119 153 195 241 297 348
#     4  10  20  38  60  85 118 161 194 244 294 356
#     4   9  20  38  59  84 123 156 195 239 302 338
#     4  11  23  42  60  85 116 157 207 250 287 347
#
# _framework density 25.625112999999999
#
# number of rings (size 3 to 8) (size 9 to 14) (size 15 to 20)
#    0.857    1.143    1.429    3.429    0.000    2.286 
#    5.143    8.571    0.000    0.000    0.000    0.000 
#    0.000    0.000    0.000    0.000    0.000    0.000 
#
# Total GULP energy -78023.622693 kJ/mol
# GULP energy per Si atom -5573.115907 kJ/mol
# Density = 2.556679 g / cm^3
# Si number density = 25.625113 Si / 1000 Ang^3
#
#
#
# Elastic Constant Matrix: (Units=GPa)
#
#
# Indices 1 2 3 4 5 6 
#
# 1 95.4425 19.6938 -2.1264 15.9710 2.1037 -19.4589
# 2 19.6938 159.6272 40.2170 47.5502 -3.2161 -29.9211
# 3 -2.1264 40.2170 81.0366 49.9914 6.3928 -3.1292
# 4 15.9710 47.5502 49.9914 48.1288 -4.3667 -8.4559
# 5 2.1037 -3.2161 6.3928 -4.3667 28.7868 11.0225
# 6 -19.4589 -29.9211 -3.1292 -8.4559 11.0225 49.4023
#
#
#
# Elastic Compliance Matrix: (Units=1/GPa)
#
#
# Indices 1 2 3 4 5 6 
#
# 1 0.015190 0.001843 0.012508 -0.019526 -0.009169 0.006595
# 2 0.001843 0.010364 0.005089 -0.015557 -0.004649 0.005700
# 3 0.012508 0.005089 0.051818 -0.064171 -0.023732 0.005602
# 4 -0.019526 -0.015557 -0.064171 0.110668 0.034533 -0.009941
# 5 -0.009169 -0.004649 -0.023732 0.034533 0.050484 -0.013284
# 6 0.006595 0.005700 0.005602 -0.009941 -0.013284 0.027909
#
#
# Mechanical properties :
#
#
# Convention : Reuss Voigt Hill
#
# Bulk Modulus (GPa) = 8.60205 50.18610 29.39408
# Shear Modulus (GPa) = 18.77549 43.81838 31.29694
#
# Velocity S-wave (km/s) = 2.70978 4.13967 3.49856
# Velocity P-wave (km/s) = 3.62694 6.51740 5.27405
#
# Compressibility (1/GPa) = 0.11625131
#
# Stress axis : x y z
#
# Youngs Moduli (GPa) = 65.83235 96.48674 19.29831
#
# Poissons Ratio (x) = -0.17780 -0.24138
# Poissons Ratio (y) = -0.12131 -0.09821
# Poissons Ratio (z) = -0.82342 -0.49103
#
# Static dielectric constant tensor:
#      x y z
#    x 2.014630 0.030820 0.018020 
#    y 0.030820 2.070240 0.023610 
#    z 0.018020 0.023610 2.242480 
# 
# From -- ./inp_files/414574.got.cif
#   From: 2010.05.17/outbox.cif.g08.bks.cpg/sg2_208_cif.got.tgz:414574.got - 2010.06.03 11:33:40.
