data_PCOD9095823
_publ_section_title
;
Structure prediction by ZEFSAII (Michael W. Deem and Ramdas Pophale) SiO2 
 PCOD9095823
Probable space group: P -1
;
_chemical_formula_sum "Si O2"
_cell_formula_units_Z 12
_cell_length_a 15.713551
_cell_length_b 9.834502
_cell_length_c 15.558849
_cell_angle_alpha 47.393363
_cell_angle_beta 152.837576
_cell_angle_gamma 142.042254
_cell_volume 672.549812
_symmetry_space_group_name_H-M "P -1"
_symmetry_group_IT_number 2
_symmetry_cell_setting 'triclinic'
loop_
_space_group_symop_operation_xyz
x,y,z
-x,-y,-z
loop_
_atom_site_type_symbol
_atom_site_label
_atom_site_fract_x
_atom_site_fract_y
_atom_site_fract_z
Si Si1 0.113535 0.248148 0.532862
Si Si2 0.284820 0.730078 0.016639
Si Si3 0.579751 0.810339 0.411724
Si Si4 0.511776 0.746255 0.040974
Si Si5 0.782697 0.558591 0.639450
Si Si6 0.195722 0.698408 0.645213
O O1 0.296432 0.295658 0.748034
O O2 0.223354 0.409233 0.481544
O O3 0.918897 0.260624 0.394674
O O4 0.000000 0.000000 0.500000
O O5 0.021063 0.593798 0.855587
O O6 0.366963 0.987084 0.969517
O O7 0.421975 0.722353 0.222759
O O8 0.354463 0.666747 0.018372
O O9 0.760892 0.747802 0.584884
O O10 0.423545 0.670601 0.410681
O O11 0.684070 0.071118 0.397666
O O12 0.370965 0.655642 0.865671
O O13 0.000000 0.500000 0.500000
#
# Coordination Sequence:
#
# PCOD9095823 Si02
#       6
#     2   2   2   2   2   2
#     4  12  18  35  59  82 106 140 177 220 269 315
#     4  10  16  30  52  82 106 133 171 225 267 309
#     4  10  21  33  51  85 110 135 175 220 271 311
#     4  10  18  30  55  79 104 136 185 217 255 315
#     4  11  19  31  55  84 110 134 167 228 272 313
#     4  11  23  38  55  77 109 145 183 220 257 315
#
# _framework density 17.842544
#
# number of rings (size 3 to 8) (size 9 to 14) (size 15 to 20)
#    0.000    1.333    6.667    1.500    0.000    0.667 
#    0.000    0.833    0.000    1.000    0.000    0.000 
#    0.000    0.000    0.000    0.000    0.000    0.000 
#
# Total GULP energy -66968.944272 kJ/mol
# GULP energy per Si atom -5580.745356 kJ/mol
# Density = 1.780193 g / cm^3
# Si number density = 17.842544 Si / 1000 Ang^3
#
#
#
# Elastic Constant Matrix: (Units=GPa)
#
#
# Indices 1 2 3 4 5 6 
#
# 1 52.7587 24.1540 -5.3936 -1.8075 0.9268 27.5841
# 2 24.1540 60.6598 21.6451 6.9548 -17.8170 18.5643
# 3 -5.3936 21.6451 82.7294 6.0576 0.1238 1.4082
# 4 -1.8075 6.9548 6.0576 20.5203 -0.0600 -5.3215
# 5 0.9268 -17.8170 0.1238 -0.0600 32.7048 0.1363
# 6 27.5841 18.5643 1.4082 -5.3215 0.1363 27.7604
#
#
#
# Elastic Compliance Matrix: (Units=1/GPa)
#
#
# Indices 1 2 3 4 5 6 
#
# 1 0.044050 -0.009059 0.006283 -0.005026 -0.006054 -0.038965
# 2 -0.009059 0.036285 -0.008706 -0.015086 0.020104 -0.017812
# 3 0.006283 -0.008706 0.014899 -0.001271 -0.004974 -0.001395
# 4 -0.005026 -0.015086 -0.001271 0.060710 -0.008072 0.026825
# 5 -0.006054 0.020104 -0.004974 -0.008072 0.041742 -0.008928
# 6 -0.038965 -0.017812 -0.001395 0.026825 -0.008928 0.091909
#
#
# Mechanical properties :
#
#
# Convention : Reuss Voigt Hill
#
# Bulk Modulus (GPa) = 13.83726 30.77319 22.30523
# Shear Modulus (GPa) = 14.85216 26.57992 20.71604
#
# Velocity S-wave (km/s) = 2.88827 3.86384 3.41111
# Velocity P-wave (km/s) = 4.34682 6.09838 5.29552
#
# Compressibility (1/GPa) = 0.07226865
#
# Stress axis : x y z
#
# Youngs Moduli (GPa) = 22.70122 27.55953 67.11707
#
# Poissons Ratio (x) = 0.24967 -0.42167
# Poissons Ratio (y) = 0.20566 0.58435
# Poissons Ratio (z) = -0.14262 0.23994
#
# Static dielectric constant tensor:
#      x y z
#    x 1.603120 0.009120 -0.000540 
#    y 0.009120 1.592630 -0.008530 
#    z -0.000540 -0.008530 1.650730 
# 
# From -- ./inp_files/150520.got.cif
#   From: 2010.05.17/outbox.cif.g08.bks.cpg/sg2_76_cif.got.tgz:150520.got - 2010.06.03 11:33:40.
