data_PCOD9095921
_publ_section_title
;
Structure prediction by ZEFSAII (Michael W. Deem and Ramdas Pophale) SiO2 
 PCOD9095921
Probable space group: P -1
;
_chemical_formula_sum "Si O2"
_cell_formula_units_Z 14
_cell_length_a 8.739089
_cell_length_b 7.685303
_cell_length_c 9.114772
_cell_angle_alpha 73.569266
_cell_angle_beta 101.606624
_cell_angle_gamma 111.061627
_cell_volume 544.546521
_symmetry_space_group_name_H-M "P -1"
_symmetry_group_IT_number 2
_symmetry_cell_setting 'triclinic'
loop_
_space_group_symop_operation_xyz
x,y,z
-x,-y,-z
loop_
_atom_site_type_symbol
_atom_site_label
_atom_site_fract_x
_atom_site_fract_y
_atom_site_fract_z
Si Si1 0.106703 0.806682 0.577319
Si Si2 0.648394 0.571752 0.128502
Si Si3 0.831710 0.904526 0.910669
Si Si4 0.387659 0.636250 0.542876
Si Si5 0.375000 0.847614 0.210829
Si Si6 0.785389 0.773566 0.627345
Si Si7 0.300942 0.798447 0.867494
O O1 0.248565 0.724861 0.559015
O O2 0.154994 0.852711 0.747902
O O3 0.909204 0.689170 0.575560
O O4 0.137836 0.004207 0.452899
O O5 0.634283 0.542592 0.307823
O O6 0.742327 0.423533 0.136067
O O7 0.500000 0.500000 0.000000
O O8 0.719095 0.791619 0.049034
O O9 0.810743 0.754092 0.810827
O O10 0.770156 0.070189 0.795282
O O11 0.000000 0.000000 0.000000
O O12 0.373214 0.673752 0.357534
O O13 0.588813 0.727760 0.577175
O O14 0.537516 0.037561 0.207209
O O15 0.338244 0.796601 0.046285
#
# Coordination Sequence:
#
# PCOD9095921 Si02
#       7
#     2   2   2   2   2   2   2
#     4  10  20  35  61 102 128 179 229 279 332 423
#     4  11  22  42  71  99 136 186 235 280 354 421
#     4  12  24  42  69 101 138 182 234 293 348 410
#     4  11  21  41  71  97 139 186 226 288 347 413
#     4  11  21  39  68 101 136 182 229 282 347 410
#     4  11  20  35  66  99 134 174 235 278 344 404
#     4  10  21  38  66  98 139 175 234 279 343 417
#
# _framework density 25.709468000000001
#
# number of rings (size 3 to 8) (size 9 to 14) (size 15 to 20)
#    0.000    1.143    5.714    2.143    0.000    0.000 
#    0.000    7.857    9.429    0.000    0.000    0.000 
#    0.000    0.000    0.000    0.000    0.000    0.000 
#
# Total GULP energy -77934.468047 kJ/mol
# GULP energy per Si atom -5566.747718 kJ/mol
# Density = 2.565095 g / cm^3
# Si number density = 25.709468 Si / 1000 Ang^3
#
#
#
# Elastic Constant Matrix: (Units=GPa)
#
#
# Indices 1 2 3 4 5 6 
#
# 1 157.2879 18.7325 30.9630 0.8313 -8.8346 -2.2131
# 2 18.7325 43.0699 26.3887 -5.0622 0.8172 -3.1824
# 3 30.9630 26.3887 213.4237 -20.6869 14.3859 6.9795
# 4 0.8313 -5.0622 -20.6869 34.0187 -4.7408 -6.0685
# 5 -8.8346 0.8172 14.3859 -4.7408 24.6168 10.9397
# 6 -2.2131 -3.1824 6.9795 -6.0685 10.9397 28.6336
#
#
#
# Elastic Compliance Matrix: (Units=1/GPa)
#
#
# Indices 1 2 3 4 5 6 
#
# 1 0.007059 -0.002718 -0.000973 -0.000868 0.003485 -0.001035
# 2 -0.002718 0.026768 -0.002653 0.003028 -0.001845 0.004758
# 3 -0.000973 -0.002653 0.005613 0.002616 -0.003025 -0.000028
# 4 -0.000868 0.003028 0.002616 0.032755 0.001742 0.005908
# 5 0.003485 -0.001845 -0.003025 0.001742 0.052417 -0.018856
# 6 -0.001035 0.004758 -0.000028 0.005908 -0.018856 0.043836
#
#
# Mechanical properties :
#
#
# Convention : Reuss Voigt Hill
#
# Bulk Modulus (GPa) = 37.38174 62.88332 50.13253
# Shear Modulus (GPa) = 26.30818 39.96699 33.13759
#
# Velocity S-wave (km/s) = 3.20236 3.94707 3.59406
# Velocity P-wave (km/s) = 5.31461 6.72940 6.06341
#
# Compressibility (1/GPa) = 0.02675103
#
# Stress axis : x y z
#
# Youngs Moduli (GPa) = 141.66576 37.35739 178.15426
#
# Poissons Ratio (x) = 0.10155 0.17337
# Poissons Ratio (y) = 0.38511 0.47266
# Poissons Ratio (z) = 0.13786 0.09911
#
# Static dielectric constant tensor:
#      x y z
#    x 2.163440 -0.093580 -0.061760 
#    y -0.093580 2.077300 0.092430 
#    z -0.061760 0.092430 2.041660 
# 
# From -- ./inp_files/157531.got.cif
#   From: 2010.05.17/outbox.cif.g08.bks.cpg/sg2_79_cif.got.tgz:157531.got - 2010.06.03 11:33:40.
