data_PCOD9095896
_publ_section_title
;
Structure prediction by ZEFSAII (Michael W. Deem and Ramdas Pophale) SiO2 
 PCOD9095896
Probable space group: P -1
;
_chemical_formula_sum "Si O2"
_cell_formula_units_Z 16
_cell_length_a 9.575809
_cell_length_b 18.432498
_cell_length_c 6.733602
_cell_angle_alpha 62.591519
_cell_angle_beta 131.991723
_cell_angle_gamma 129.511387
_cell_volume 680.262149
_symmetry_space_group_name_H-M "P -1"
_symmetry_group_IT_number 2
_symmetry_cell_setting 'triclinic'
loop_
_space_group_symop_operation_xyz
x,y,z
-x,-y,-z
loop_
_atom_site_type_symbol
_atom_site_label
_atom_site_fract_x
_atom_site_fract_y
_atom_site_fract_z
Si Si1 0.351084 0.401562 0.874861
Si Si2 0.173134 0.815131 0.975412
Si Si3 0.588659 0.257433 0.926065
Si Si4 0.733721 0.043252 0.769836
Si Si5 0.804701 0.870531 0.013332
Si Si6 0.715716 0.764807 0.682989
Si Si7 0.058460 0.623417 0.329302
Si Si8 0.756342 0.431161 0.089349
O O1 0.118467 0.392774 0.646528
O O2 0.500000 0.500000 0.000000
O O3 0.307017 0.316137 0.086975
O O4 0.513182 0.412019 0.840620
O O5 0.315055 0.812029 0.933589
O O6 0.273392 0.904669 0.102735
O O7 0.138054 0.724837 0.185642
O O8 0.933778 0.796334 0.724636
O O9 0.393938 0.213295 0.954487
O O10 0.480633 0.265596 0.611736
O O11 0.772156 0.359978 0.042695
O O12 0.953052 0.115905 0.762796
O O13 0.500000 0.000000 0.500000
O O14 0.793048 0.961016 0.962706
O O15 0.748769 0.849561 0.752247
O O16 0.234782 0.609300 0.632440
O O17 0.930451 0.540449 0.149986
#
# Coordination Sequence:
#
# PCOD9095896 Si02
#       8
#     2   2   2   2   2   2   2   2
#     4   9  17  35  61  84 115 166 207 249 304 353
#     4  10  23  40  60  93 129 161 205 264 315 360
#     4  12  24  37  66  97 125 168 207 255 318 373
#     4  10  22  42  69  92 120 167 209 256 319 379
#     4  10  23  43  65  92 124 165 211 254 316 376
#     4  10  21  42  60  89 133 161 207 262 304 372
#     4   9  20  38  60  86 127 163 208 260 297 371
#     4  10  20  35  60  93 120 167 212 245 310 368
#
# _framework density 23.520344999999999
#
# number of rings (size 3 to 8) (size 9 to 14) (size 15 to 20)
#    0.000    2.000    1.250    1.500    1.750    3.000 
#    0.000   14.375    0.000    0.000    0.000    0.000 
#    0.000    0.000    0.000    0.000    0.000    0.000 
#
# Total GULP energy -89233.622224 kJ/mol
# GULP energy per Si atom -5577.101389 kJ/mol
# Density = 2.346681 g / cm^3
# Si number density = 23.520345 Si / 1000 Ang^3
#
#
#
# Elastic Constant Matrix: (Units=GPa)
#
#
# Indices 1 2 3 4 5 6 
#
# 1 144.2360 13.6033 34.6048 20.1495 9.5612 -10.9952
# 2 13.6033 97.8677 21.8237 29.2279 -8.6042 -32.5573
# 3 34.6048 21.8237 64.7815 28.8498 15.2571 -5.1639
# 4 20.1495 29.2279 28.8498 31.1003 3.6455 -8.1852
# 5 9.5612 -8.6042 15.2571 3.6455 26.6265 1.9522
# 6 -10.9952 -32.5573 -5.1639 -8.1852 1.9522 40.3567
#
#
#
# Elastic Compliance Matrix: (Units=1/GPa)
#
#
# Indices 1 2 3 4 5 6 
#
# 1 0.008182 0.001042 -0.003250 -0.002638 -0.000535 0.002144
# 2 0.001042 0.020037 -0.000934 -0.016239 0.007932 0.012652
# 3 -0.003250 -0.000934 0.031975 -0.025606 -0.013799 -0.002074
# 4 -0.002638 -0.016239 -0.025606 0.072141 0.000678 -0.002497
# 5 -0.000535 0.007932 -0.013799 0.000678 0.047957 0.002305
# 6 0.002144 0.012652 -0.002074 -0.002497 0.002305 0.034687
#
#
# Mechanical properties :
#
#
# Convention : Reuss Voigt Hill
#
# Bulk Modulus (GPa) = 18.54937 49.66096 34.10516
# Shear Modulus (GPa) = 20.90000 35.40693 28.15346
#
# Velocity S-wave (km/s) = 2.98416 3.88412 3.46350
# Velocity P-wave (km/s) = 4.44716 6.42457 5.52505
#
# Compressibility (1/GPa) = 0.05391020
#
# Stress axis : x y z
#
# Youngs Moduli (GPa) = 122.21936 49.90673 31.27420
#
# Poissons Ratio (x) = -0.05198 0.10163
# Poissons Ratio (y) = -0.12730 0.02922
# Poissons Ratio (z) = 0.39715 0.04663
#
# Static dielectric constant tensor:
#      x y z
#    x 2.041790 -0.003240 -0.000070 
#    y -0.003240 1.946780 -0.001710 
#    z -0.000070 -0.001710 1.813690 
# 
# From -- ./inp_files/47581.got.cif
#   From: 2010.05.17/outbox.cif.g08.bks.cpg/sg2_24_cif.got.tgz:47581.got - 2010.06.03 11:33:40.
