data_PCOD9095607
_publ_section_title
;
Structure prediction by ZEFSAII (Michael W. Deem and Ramdas Pophale) SiO2 
 PCOD9095607
Probable space group: P -1
;
_chemical_formula_sum "Si O2"
_cell_formula_units_Z 14
_cell_length_a 11.250771
_cell_length_b 17.768739
_cell_length_c 8.879923
_cell_angle_alpha 105.366827
_cell_angle_beta 59.286212
_cell_angle_gamma 152.787792
_cell_volume 611.755094
_symmetry_space_group_name_H-M "P -1"
_symmetry_group_IT_number 2
_symmetry_cell_setting 'triclinic'
loop_
_space_group_symop_operation_xyz
x,y,z
-x,-y,-z
loop_
_atom_site_type_symbol
_atom_site_label
_atom_site_fract_x
_atom_site_fract_y
_atom_site_fract_z
Si Si1 0.490582 0.895150 0.820949
Si Si2 0.108572 0.882715 0.762972
Si Si3 0.388412 0.679005 0.827536
Si Si4 0.962527 0.973896 0.830960
Si Si5 0.200821 0.814477 0.428362
Si Si6 0.898273 0.788406 0.186592
Si Si7 0.190603 0.415328 0.735401
O O1 0.518840 0.818641 0.718441
O O2 0.610754 0.015584 0.680813
O O3 0.739047 0.034741 0.875550
O O4 0.120984 0.726599 0.025229
O O5 0.029206 0.764035 0.657940
O O6 0.041116 0.923971 0.728522
O O7 0.500085 0.086514 0.659585
O O8 0.918740 0.785125 0.993108
O O9 0.588303 0.791243 0.913698
O O10 0.430592 0.612129 0.709358
O O11 0.000000 0.500000 0.000000
O O12 0.168543 0.152820 0.724130
O O13 0.000000 0.000000 0.000000
O O14 0.965008 0.660291 0.370747
O O15 0.700387 0.616349 0.303988
#
# Coordination Sequence:
#
# PCOD9095607 Si02
#       7
#     2   2   2   2   2   2   2
#     4   9  15  30  50  75  97 126 178 209 237 289
#     4  10  18  30  49  76 106 128 169 202 259 293
#     4   9  19  31  54  75 100 131 172 209 251 295
#     4   9  19  33  51  75 105 132 164 213 252 294
#     4  10  18  29  54  77  96 137 169 207 242 307
#     4   9  15  30  52  73  96 130 166 212 240 294
#     4  10  16  30  52  75  96 127 180 207 240 293
#
# _framework density 22.884974
#
# number of rings (size 3 to 8) (size 9 to 14) (size 15 to 20)
#    0.000    2.571    2.857    0.857    2.000    0.000 
#    0.000   10.000    0.000    8.571    0.000    0.000 
#    0.000    0.000    0.000    0.000    0.000    0.000 
#
# Total GULP energy -78090.889048 kJ/mol
# GULP energy per Si atom -5577.920646 kJ/mol
# Density = 2.283289 g / cm^3
# Si number density = 22.884974 Si / 1000 Ang^3
#
#
#
# Elastic Constant Matrix: (Units=GPa)
#
#
# Indices 1 2 3 4 5 6 
#
# 1 136.7668 42.4881 7.1514 -3.3618 2.3607 -8.2241
# 2 42.4881 100.5326 23.9832 18.0896 7.4402 -14.7472
# 3 7.1514 23.9832 55.4675 3.0888 15.1909 8.4404
# 4 -3.3618 18.0896 3.0888 24.6637 -3.9137 2.0578
# 5 2.3607 7.4402 15.1909 -3.9137 24.8344 5.5820
# 6 -8.2241 -14.7472 8.4404 2.0578 5.5820 41.8333
#
#
#
# Elastic Compliance Matrix: (Units=1/GPa)
#
#
# Indices 1 2 3 4 5 6 
#
# 1 0.008893 -0.004931 0.000434 0.005017 0.001268 -0.000493
# 2 -0.004931 0.017537 -0.005926 -0.014262 -0.005161 0.007799
# 3 0.000434 -0.005926 0.024700 -0.000177 -0.012200 -0.005351
# 4 0.005017 -0.014262 -0.000177 0.054728 0.014468 -0.008628
# 5 0.001268 -0.005161 -0.012200 0.014468 0.052984 -0.006890
# 6 -0.000493 0.007799 -0.005351 -0.008628 -0.006890 0.028980
#
#
# Mechanical properties :
#
#
# Convention : Reuss Voigt Hill
#
# Bulk Modulus (GPa) = 33.02075 48.89025 40.95550
# Shear Modulus (GPa) = 22.85601 32.87589 27.86595
#
# Velocity S-wave (km/s) = 3.16370 3.79432 3.49327
# Velocity P-wave (km/s) = 5.27311 6.37226 5.84856
#
# Compressibility (1/GPa) = 0.03028399
#
# Stress axis : x y z
#
# Youngs Moduli (GPa) = 112.45383 57.02308 40.48545
#
# Poissons Ratio (x) = 0.28116 -0.01757
# Poissons Ratio (y) = 0.55447 0.23992
# Poissons Ratio (z) = -0.04879 0.33792
#
# Static dielectric constant tensor:
#      x y z
#    x 1.880060 -0.046080 -0.055000 
#    y -0.046080 1.877980 0.019870 
#    z -0.055000 0.019870 1.908550 
# 
# From -- ./inp_files/252676.got.cif
#   From: 2010.05.17/outbox.cif.g08.bks.cpg/sg2_127_cif.got.tgz:252676.got - 2010.06.03 11:33:40.
