data_PCOD9095964
_publ_section_title
;
Structure prediction by ZEFSAII (Michael W. Deem and Ramdas Pophale) SiO2 
 PCOD9095964
Probable space group: P -1
;
_chemical_formula_sum "Si O2"
_cell_formula_units_Z 15
_cell_length_a 13.590785
_cell_length_b 6.888991
_cell_length_c 8.521931
_cell_angle_alpha 116.343986
_cell_angle_beta 70.049836
_cell_angle_gamma 73.782866
_cell_volume 577.618521
_symmetry_space_group_name_H-M "P -1"
_symmetry_group_IT_number 2
_symmetry_cell_setting 'triclinic'
loop_
_space_group_symop_operation_xyz
x,y,z
-x,-y,-z
loop_
_atom_site_type_symbol
_atom_site_label
_atom_site_fract_x
_atom_site_fract_y
_atom_site_fract_z
Si Si1 0.553404 0.597669 0.285948
Si Si2 0.694099 0.693251 0.811524
Si Si3 0.807846 0.174421 0.900284
Si Si4 0.497123 0.169578 0.279375
Si Si5 0.089702 0.533157 0.193982
Si Si6 0.333322 0.792836 0.289061
Si Si7 0.862229 0.817819 0.241906
Si Si8 0.000000 0.000000 0.000000
O O1 0.697374 0.435677 0.124623
O O2 0.518931 0.392060 0.288038
O O3 0.515772 0.796341 0.516492
O O4 0.472343 0.713644 0.215668
O O5 0.629757 0.776718 0.707817
O O6 0.678752 0.454155 0.774749
O O7 0.835165 0.598380 0.737795
O O8 0.609569 0.917785 0.057482
O O9 0.888666 0.234973 0.761677
O O10 0.894710 0.018327 0.939350
O O11 0.732184 0.091635 0.799933
O O12 0.150420 0.349018 0.944864
O O13 0.948494 0.635496 0.271423
O O14 0.259359 0.973039 0.537695
O O15 0.933087 0.936686 0.157597
#
# Coordination Sequence:
#
# PCOD9095964 Si02
#       8
#     2   2   2   2   2   2   2   1
#     4  10  20  35  61  88 120 160 201 241 294 360
#     4   9  18  33  53  85 120 152 194 236 294 359
#     4  10  22  39  57  93 122 155 201 246 292 352
#     4   9  19  33  54  92 120 157 194 247 307 336
#     4   9  20  38  62  82 120 164 192 243 295 362
#     4  10  21  38  63  86 119 165 196 239 302 361
#     4  10  21  41  64  87 116 160 204 240 303 353
#     4  10  24  36  64  90 116 150 200 260 282 350
#
# _framework density 25.968696999999999
#
# number of rings (size 3 to 8) (size 9 to 14) (size 15 to 20)
#    0.000    2.400    0.000    1.200    7.467    4.800 
#    0.000   10.000    2.933    5.600    0.000    0.000 
#    0.000    0.000    0.000    0.000    0.000    0.000 
#
# Total GULP energy -83620.743041 kJ/mol
# GULP energy per Si atom -5574.716203 kJ/mol
# Density = 2.590959 g / cm^3
# Si number density = 25.968697 Si / 1000 Ang^3
#
#
#
# Elastic Constant Matrix: (Units=GPa)
#
#
# Indices 1 2 3 4 5 6 
#
# 1 132.7659 35.4515 7.3244 -5.1453 13.1945 -24.3133
# 2 35.4515 103.0866 -1.6801 -4.5569 2.8216 -28.2726
# 3 7.3244 -1.6801 90.1941 12.3753 8.5786 6.8098
# 4 -5.1453 -4.5569 12.3753 21.1085 5.2446 5.4472
# 5 13.1945 2.8216 8.5786 5.2446 25.3221 -7.0970
# 6 -24.3133 -28.2726 6.8098 5.4472 -7.0970 48.4166
#
#
#
# Elastic Compliance Matrix: (Units=1/GPa)
#
#
# Indices 1 2 3 4 5 6 
#
# 1 0.009151 -0.002240 -0.000957 0.002657 -0.004035 0.002531
# 2 -0.002240 0.012135 -0.000242 0.000219 0.001590 0.006203
# 3 -0.000957 -0.000242 0.012469 -0.006312 -0.002980 -0.002102
# 4 0.002657 0.000219 -0.006312 0.056406 -0.012590 -0.005841
# 5 -0.004035 0.001590 -0.002980 -0.012590 0.047179 0.007654
# 6 0.002531 0.006203 -0.002102 -0.005841 0.007654 0.027622
#
#
# Mechanical properties :
#
#
# Convention : Reuss Voigt Hill
#
# Bulk Modulus (GPa) = 37.20766 45.35980 41.28373
# Shear Modulus (GPa) = 27.65532 37.96616 32.81074
#
# Velocity S-wave (km/s) = 3.26689 3.82776 3.55839
# Velocity P-wave (km/s) = 5.34688 6.08610 5.72843
#
# Compressibility (1/GPa) = 0.02687618
#
# Stress axis : x y z
#
# Youngs Moduli (GPa) = 109.28258 82.40886 80.20099
#
# Poissons Ratio (x) = 0.18463 0.07673
# Poissons Ratio (y) = 0.24484 0.01939
# Poissons Ratio (z) = 0.10455 0.01992
#
# Static dielectric constant tensor:
#      x y z
#    x 2.005420 0.042110 0.046330 
#    y 0.042110 2.094060 0.019590 
#    z 0.046330 0.019590 1.938320 
# 
# From -- ./inp_files/181973.got.cif
#   From: 2010.05.17/outbox.cif.g08.bks.cpg/sg2_91_cif.got.tgz:181973.got - 2010.06.03 11:33:40.
