data_PCOD9095716
_publ_section_title
;
Structure prediction by ZEFSAII (Michael W. Deem and Ramdas Pophale) SiO2 
 PCOD9095716
Probable space group: P -1
;
_chemical_formula_sum "Si O2"
_cell_formula_units_Z 16
_cell_length_a 8.815956
_cell_length_b 8.653428
_cell_length_c 16.465397
_cell_angle_alpha 107.243552
_cell_angle_beta 33.874524
_cell_angle_gamma 113.035890
_cell_volume 643.308607
_symmetry_space_group_name_H-M "P -1"
_symmetry_group_IT_number 2
_symmetry_cell_setting 'triclinic'
loop_
_space_group_symop_operation_xyz
x,y,z
-x,-y,-z
loop_
_atom_site_type_symbol
_atom_site_label
_atom_site_fract_x
_atom_site_fract_y
_atom_site_fract_z
Si Si1 0.022012 0.759916 0.463149
Si Si2 0.067557 0.923944 0.306111
Si Si3 0.594893 0.397330 0.209714
Si Si4 0.368719 0.393067 0.620411
Si Si5 0.294906 0.854165 0.515688
Si Si6 0.316482 0.889104 0.970098
Si Si7 0.645732 0.458159 0.809574
Si Si8 0.338624 0.222613 0.056165
O O1 0.277230 0.843295 0.423927
O O2 0.122859 0.615324 0.348821
O O3 0.964458 0.876625 0.435616
O O4 0.730518 0.690090 0.630873
O O5 0.900776 0.760404 0.305824
O O6 0.988715 0.088407 0.334674
O O7 0.401256 0.981863 0.170971
O O8 0.716666 0.502640 0.251918
O O9 0.756290 0.262559 0.085496
O O10 0.557861 0.507424 0.165612
O O11 0.500000 0.500000 0.500000
O O12 0.612284 0.309419 0.528178
O O13 0.500000 0.000000 0.500000
O O14 0.153439 0.030048 0.086247
O O15 0.428434 0.813131 0.988969
O O16 0.478916 0.326164 0.929947
O O17 0.778273 0.634782 0.824879
#
# Coordination Sequence:
#
# PCOD9095716 Si02
#       8
#     2   2   2   2   2   2   2   2
#     4  12  20  34  63  95 123 154 203 241 303 373
#     4  11  22  37  59  89 124 164 198 245 302 357
#     4  11  22  35  60  92 126 153 204 242 311 365
#     4  11  23  39  53  87 135 170 191 240 308 373
#     4  10  23  37  55  88 131 163 191 241 305 376
#     4  10  20  37  61  87 117 158 205 260 290 365
#     4  10  20  35  59  89 119 155 196 267 295 354
#     4   9  20  37  57  88 114 152 215 255 301 337
#
# _framework density 24.871424000000001
#
# number of rings (size 3 to 8) (size 9 to 14) (size 15 to 20)
#    0.000    1.500    5.000    0.750    0.000    0.000 
#    0.000    0.000    0.000    7.500    0.000    0.000 
#    0.000    0.000    0.000    0.000    0.000    0.000 
#
# Total GULP energy -89272.699311 kJ/mol
# GULP energy per Si atom -5579.543707 kJ/mol
# Density = 2.481482 g / cm^3
# Si number density = 24.871424 Si / 1000 Ang^3
#
#
#
# Elastic Constant Matrix: (Units=GPa)
#
#
# Indices 1 2 3 4 5 6 
#
# 1 83.7459 54.6730 30.3694 4.0292 31.5422 2.5366
# 2 54.6730 136.5668 70.8373 24.9781 33.6097 -15.4735
# 3 30.3694 70.8373 108.5673 34.7078 29.8701 5.5430
# 4 4.0292 24.9781 34.7078 63.3000 4.1724 10.0976
# 5 31.5422 33.6097 29.8701 4.1724 42.5764 7.0570
# 6 2.5366 -15.4735 5.5430 10.0976 7.0570 47.4256
#
#
#
# Elastic Compliance Matrix: (Units=1/GPa)
#
#
# Indices 1 2 3 4 5 6 
#
# 1 0.019493 -0.006485 0.001047 0.001743 -0.009865 -0.002184
# 2 -0.006485 0.015834 -0.006892 -0.003006 -0.003813 0.007526
# 3 0.001047 -0.006892 0.017238 -0.006041 -0.006495 -0.002067
# 4 0.001743 -0.003006 -0.006041 0.020773 0.004182 -0.005413
# 5 -0.009865 -0.003813 -0.006495 0.004182 0.039056 -0.006659
# 6 -0.002184 0.007526 -0.002067 -0.005413 -0.006659 0.026043
#
#
# Mechanical properties :
#
#
# Convention : Reuss Voigt Hill
#
# Bulk Modulus (GPa) = 35.83406 71.18215 53.50810
# Shear Modulus (GPa) = 29.00243 42.19376 35.59810
#
# Velocity S-wave (km/s) = 3.41852 4.12330 3.78734
# Velocity P-wave (km/s) = 5.47911 7.16596 6.37854
#
# Compressibility (1/GPa) = 0.02790641
#
# Stress axis : x y z
#
# Youngs Moduli (GPa) = 51.30055 63.15396 58.01042
#
# Poissons Ratio (x) = 0.40958 -0.06076
# Poissons Ratio (y) = 0.33271 0.39978
# Poissons Ratio (z) = -0.05373 0.43523
#
# Static dielectric constant tensor:
#      x y z
#    x 1.967810 0.027840 -0.001610 
#    y 0.027840 2.053570 0.100100 
#    z -0.001610 0.100100 2.125040 
# 
# From -- ./inp_files/186093.got.cif
#   From: 2010.05.17/outbox.cif.g08.bks.cpg/sg2_94_cif.got.tgz:186093.got - 2010.06.03 11:33:40.
