data_PCOD9095277
_publ_section_title
;
Structure prediction by ZEFSAII (Michael W. Deem and Ramdas Pophale) SiO2 
 PCOD9095277
Probable space group: P -1
;
_chemical_formula_sum "Si O2"
_cell_formula_units_Z 16
_cell_length_a 13.200156
_cell_length_b 9.326449
_cell_length_c 13.313409
_cell_angle_alpha 82.520944
_cell_angle_beta 32.409507
_cell_angle_gamma 104.188986
_cell_volume 648.110663
_symmetry_space_group_name_H-M "P -1"
_symmetry_group_IT_number 2
_symmetry_cell_setting 'triclinic'
loop_
_space_group_symop_operation_xyz
x,y,z
-x,-y,-z
loop_
_atom_site_type_symbol
_atom_site_label
_atom_site_fract_x
_atom_site_fract_y
_atom_site_fract_z
Si Si1 0.904807 0.060786 0.768317
Si Si2 0.482335 0.183928 0.389061
Si Si3 0.228748 0.334678 0.644655
Si Si4 0.357097 0.712421 0.219266
Si Si5 0.074221 0.849114 0.651901
Si Si6 0.800423 0.090114 0.160212
Si Si7 0.895483 0.681852 0.596112
Si Si8 0.668804 0.296746 0.519418
O O1 0.007416 0.216068 0.755625
O O2 0.095862 0.186356 0.504085
O O3 0.915070 0.903591 0.820026
O O4 0.625012 0.928303 0.970891
O O5 0.443425 0.333574 0.425730
O O6 0.741604 0.232506 0.187999
O O7 0.287630 0.011965 0.649028
O O8 0.358823 0.064593 0.399251
O O9 0.311818 0.541120 0.566308
O O10 0.085597 0.208246 0.875997
O O11 0.341216 0.547928 0.194844
O O12 0.316256 0.669494 0.376867
O O13 0.133274 0.698680 0.366093
O O14 0.961487 0.766778 0.643788
O O15 0.109443 0.709227 0.684342
O O16 0.594736 0.910360 0.274927
#
# Coordination Sequence:
#
# PCOD9095277 Si02
#       8
#     2   2   2   2   2   2   2   2
#     4  11  20  36  58  85 110 153 195 229 290 350
#     4   9  21  40  60  89 118 150 199 241 279 353
#     4  11  21  37  63  89 116 154 195 235 294 346
#     4  10  20  35  56  84 114 145 191 237 283 338
#     4   9  21  38  55  81 120 149 187 247 283 330
#     4  10  20  41  64  83 120 157 186 241 300 333
#     4  10  20  36  57  79 116 151 186 240 283 337
#     4  10  20  39  57  85 119 149 190 242 285 347
#
# _framework density 24.687141
#
# number of rings (size 3 to 8) (size 9 to 14) (size 15 to 20)
#    0.000    2.000    2.500    1.125    0.000    1.000 
#    2.250    5.625    0.000    0.000    0.000    0.000 
#    0.000    0.000    0.000    0.000    0.000    0.000 
#
# Total GULP energy -89311.297780 kJ/mol
# GULP energy per Si atom -5581.956111 kJ/mol
# Density = 2.463095 g / cm^3
# Si number density = 24.687141 Si / 1000 Ang^3
#
#
#
# Elastic Constant Matrix: (Units=GPa)
#
#
# Indices 1 2 3 4 5 6 
#
# 1 85.2802 22.9218 0.4164 -8.7617 -7.6368 7.8275
# 2 22.9218 123.4637 23.4758 -2.9596 -8.8104 -15.6998
# 3 0.4164 23.4758 32.8917 -7.0246 -7.9725 -3.4823
# 4 -8.7617 -2.9596 -7.0246 21.0594 -5.4818 0.7270
# 5 -7.6368 -8.8104 -7.9725 -5.4818 24.7922 7.3247
# 6 7.8275 -15.6998 -3.4823 0.7270 7.3247 40.0984
#
#
#
# Elastic Compliance Matrix: (Units=1/GPa)
#
#
# Indices 1 2 3 4 5 6 
#
# 1 0.015215 -0.003877 0.006526 0.010633 0.009486 -0.005847
# 2 -0.003877 0.010783 -0.008495 -0.003696 -0.002309 0.004730
# 3 0.006526 -0.008495 0.045390 0.021985 0.019831 -0.004679
# 4 0.010633 -0.003696 0.021985 0.065692 0.025776 -0.007513
# 5 0.009486 -0.002309 0.019831 0.025776 0.058092 -0.012112
# 6 -0.005847 0.004730 -0.004679 -0.007513 -0.012112 0.029874
#
#
# Mechanical properties :
#
#
# Convention : Reuss Voigt Hill
#
# Bulk Modulus (GPa) = 16.75193 37.25150 27.00171
# Shear Modulus (GPa) = 19.48282 30.17811 24.83046
#
# Velocity S-wave (km/s) = 2.81230 3.50011 3.17488
# Velocity P-wave (km/s) = 4.16483 5.60861 4.93975
#
# Compressibility (1/GPa) = 0.05969461
#
# Stress axis : x y z
#
# Youngs Moduli (GPa) = 65.72511 92.74068 22.03128
#
# Poissons Ratio (x) = 0.35958 -0.14377
# Poissons Ratio (y) = 0.25483 0.18716
# Poissons Ratio (z) = -0.42891 0.78783
#
# Static dielectric constant tensor:
#      x y z
#    x 2.011240 -0.039900 -0.008900 
#    y -0.039900 2.022350 0.029120 
#    z -0.008900 0.029120 1.972110 
# 
# From -- ./inp_files/38467.got.cif
#   From: 2010.05.17/outbox.cif.g08.bks.cpg/sg2_20_cif.got.tgz:38467.got - 2010.06.03 11:33:40.
