data_PCOD9095073
_publ_section_title
;
Structure prediction by ZEFSAII (Michael W. Deem and Ramdas Pophale) SiO2 
 PCOD9095073
Probable space group: P -1
;
_chemical_formula_sum "Si O2"
_cell_formula_units_Z 16
_cell_length_a 9.478190
_cell_length_b 12.137535
_cell_length_c 8.044629
_cell_angle_alpha 114.783454
_cell_angle_beta 77.831722
_cell_angle_gamma 100.938488
_cell_volume 815.976198
_symmetry_space_group_name_H-M "P -1"
_symmetry_group_IT_number 2
_symmetry_cell_setting 'triclinic'
loop_
_space_group_symop_operation_xyz
x,y,z
-x,-y,-z
loop_
_atom_site_type_symbol
_atom_site_label
_atom_site_fract_x
_atom_site_fract_y
_atom_site_fract_z
Si Si1 0.316560 0.770741 0.684093
Si Si2 0.992041 0.146856 0.115941
Si Si3 0.444338 0.012813 0.211856
Si Si4 0.590478 0.803546 0.166551
Si Si5 0.495382 0.372889 0.620549
Si Si6 0.102582 0.123347 0.745286
Si Si7 0.521179 0.657305 0.768989
Si Si8 0.866475 0.887289 0.630271
O O1 0.164095 0.819858 0.770746
O O2 0.440990 0.880055 0.676194
O O3 0.342342 0.664334 0.480299
O O4 0.370848 0.716094 0.809574
O O5 0.104634 0.187637 0.259935
O O6 0.030710 0.196934 0.954011
O O7 0.000000 0.000000 0.000000
O O8 0.283324 0.052041 0.280904
O O9 0.463821 0.890145 0.228707
O O10 0.500000 0.000000 0.000000
O O11 0.565045 0.705699 0.258214
O O12 0.738074 0.888500 0.228696
O O13 0.601964 0.735666 0.944360
O O14 0.496328 0.516321 0.736061
O O15 0.419860 0.340697 0.436603
O O16 0.124150 0.177447 0.589978
O O17 0.000884 0.996016 0.668022
#
# Coordination Sequence:
#
# PCOD9095073 Si02
#       8
#     2   2   2   2   2   2   2   2
#     4  10  20  38  60  89 116 154 192 246 291 352
#     4  10  20  35  54  79 119 159 190 222 289 358
#     4  12  20  33  58  94 123 150 190 238 306 346
#     4  12  22  34  63  91 119 152 192 247 295 353
#     4   9  21  40  62  90 112 151 202 251 292 337
#     4  10  22  35  50  81 114 160 191 222 286 347
#     4   9  21  41  61  89 116 148 199 254 296 331
#     4  10  22  37  51  76 128 166 184 227 280 364
#
# _framework density 19.608414
#
# number of rings (size 3 to 8) (size 9 to 14) (size 15 to 20)
#    0.750    1.000    1.250    4.875    0.000    5.000 
#    0.000    0.000    0.000    1.500    0.000    0.000 
#    0.000    0.000    0.000    0.000    0.000    0.000 
#
# Total GULP energy -89073.041406 kJ/mol
# GULP energy per Si atom -5567.065088 kJ/mol
# Density = 1.956378 g / cm^3
# Si number density = 19.608414 Si / 1000 Ang^3
#
#
#
# Elastic Constant Matrix: (Units=GPa)
#
#
# Indices 1 2 3 4 5 6 
#
# 1 120.8474 39.2660 55.8981 1.7077 -5.3056 -15.0583
# 2 39.2660 109.9743 35.9420 -2.5895 -5.2198 -14.8500
# 3 55.8981 35.9420 106.7570 -17.7693 12.4423 -10.0478
# 4 1.7077 -2.5895 -17.7693 30.1672 -6.5184 -1.4652
# 5 -5.3056 -5.2198 12.4423 -6.5184 28.8580 -3.1573
# 6 -15.0583 -14.8500 -10.0478 -1.4652 -3.1573 10.7048
#
#
#
# Elastic Compliance Matrix: (Units=1/GPa)
#
#
# Indices 1 2 3 4 5 6 
#
# 1 0.013618 -0.000594 -0.006880 -0.002897 0.006163 0.013296
# 2 -0.000594 0.012677 -0.002872 0.001382 0.005469 0.015857
# 3 -0.006880 -0.002872 0.016157 0.008214 -0.006828 0.000615
# 4 -0.002897 0.001382 0.008214 0.040356 0.006720 0.013059
# 5 0.006163 0.005469 -0.006828 0.006720 0.043829 0.023694
# 6 0.013296 0.015857 0.000615 0.013059 0.023694 0.143470
#
#
# Mechanical properties :
#
#
# Convention : Reuss Voigt Hill
#
# Bulk Modulus (GPa) = 45.95328 66.64342 56.29835
# Shear Modulus (GPa) = 16.77559 27.71085 22.24322
#
# Velocity S-wave (km/s) = 2.92812 3.76335 3.37170
# Velocity P-wave (km/s) = 5.90916 7.27631 6.62808
#
# Compressibility (1/GPa) = 0.02176123
#
# Stress axis : x y z
#
# Youngs Moduli (GPa) = 73.42984 78.88258 61.89308
#
# Poissons Ratio (x) = 0.04688 0.42580
# Poissons Ratio (y) = 0.04364 0.17774
# Poissons Ratio (z) = 0.50516 0.22653
#
# Static dielectric constant tensor:
#      x y z
#    x 1.709630 0.007160 0.022150 
#    y 0.007160 1.741600 -0.053020 
#    z 0.022150 -0.053020 1.783690 
# 
# From -- ./inp_files/189190.got.cif
#   From: 2010.05.17/outbox.cif.g08.bks.cpg/sg2_95_cif.got.tgz:189190.got - 2010.06.03 11:33:40.
