data_PCOD9095527
_publ_section_title
;
Structure prediction by ZEFSAII (Michael W. Deem and Ramdas Pophale) SiO2 
 PCOD9095527
Probable space group: P -1
;
_chemical_formula_sum "Si O2"
_cell_formula_units_Z 16
_cell_length_a 16.009820
_cell_length_b 13.080542
_cell_length_c 9.827474
_cell_angle_alpha 143.361740
_cell_angle_beta 75.640644
_cell_angle_gamma 129.329436
_cell_volume 784.191101
_symmetry_space_group_name_H-M "P -1"
_symmetry_group_IT_number 2
_symmetry_cell_setting 'triclinic'
loop_
_space_group_symop_operation_xyz
x,y,z
-x,-y,-z
loop_
_atom_site_type_symbol
_atom_site_label
_atom_site_fract_x
_atom_site_fract_y
_atom_site_fract_z
Si Si1 0.489265 0.030405 0.695040
Si Si2 0.657864 0.347476 0.203218
Si Si3 0.129544 0.836448 0.922769
Si Si4 0.477666 0.641596 0.334321
Si Si5 0.335936 0.104378 0.733127
Si Si6 0.057969 0.099051 0.235969
Si Si7 0.057622 0.723638 0.510334
Si Si8 0.407431 0.137005 0.198520
O O1 0.396131 0.055316 0.760364
O O2 0.500000 0.000000 0.500000
O O3 0.431881 0.770681 0.506159
O O4 0.626235 0.273494 0.975473
O O5 0.792706 0.617820 0.497525
O O6 0.541893 0.304366 0.244275
O O7 0.638197 0.127678 0.037307
O O8 0.097961 0.781696 0.716104
O O9 0.066819 0.587103 0.767384
O O10 0.062754 0.910948 0.083342
O O11 0.285597 0.057125 0.103394
O O12 0.581293 0.787378 0.323888
O O13 0.553306 0.713721 0.517701
O O14 0.364446 0.337676 0.025654
O O15 0.182307 0.844985 0.506238
O O16 0.976386 0.134289 0.369116
O O17 0.000000 0.000000 0.000000
#
# Coordination Sequence:
#
# PCOD9095527 Si02
#       8
#     2   2   2   2   2   2   2   2
#     4   9  19  37  58  85 117 147 186 240 285 336
#     4  10  20  35  58  89 116 151 186 238 293 335
#     4  10  21  36  55  81 114 149 189 232 285 340
#     4   9  21  36  56  88 113 142 189 243 284 338
#     4  10  20  37  60  83 109 154 194 231 288 341
#     4  10  22  36  54  83 119 153 189 228 284 347
#     4  10  21  38  55  79 116 151 190 232 274 344
#     4  10  20  35  58  85 118 141 188 246 292 333
#
# _framework density 20.403189999999999
#
# number of rings (size 3 to 8) (size 9 to 14) (size 15 to 20)
#    0.000    2.250    1.250    0.750    5.250    1.500 
#    0.000    0.625    0.000    0.750    0.000    0.000 
#    0.000    0.000    0.000    0.000    0.000    0.000 
#
# Total GULP energy -89135.476830 kJ/mol
# GULP energy per Si atom -5570.967302 kJ/mol
# Density = 2.035675 g / cm^3
# Si number density = 20.403190 Si / 1000 Ang^3
#
#
#
# Elastic Constant Matrix: (Units=GPa)
#
#
# Indices 1 2 3 4 5 6 
#
# 1 106.4466 17.2712 17.3736 -2.1220 6.9256 9.8792
# 2 17.2712 31.2071 21.3513 5.9513 3.2828 6.2092
# 3 17.3736 21.3513 82.6758 -8.3516 16.0453 -2.5380
# 4 -2.1220 5.9513 -8.3516 14.5762 1.2906 8.4987
# 5 6.9256 3.2828 16.0453 1.2906 37.0217 4.2636
# 6 9.8792 6.2092 -2.5380 8.4987 4.2636 15.2880
#
#
#
# Elastic Compliance Matrix: (Units=1/GPa)
#
#
# Indices 1 2 3 4 5 6 
#
# 1 0.011656 -0.006334 0.000086 0.010588 -0.000804 -0.010607
# 2 -0.006334 0.052929 -0.016489 -0.029364 0.005271 -0.005288
# 3 0.000086 -0.016489 0.019708 0.017260 -0.007991 0.002547
# 4 0.010588 -0.029364 0.017260 0.128843 -0.004149 -0.062517
# 5 -0.000804 0.005271 -0.007991 -0.004149 0.031384 -0.009394
# 6 -0.010607 -0.005288 0.002547 -0.062517 -0.009394 0.112208
#
#
# Mechanical properties :
#
#
# Convention : Reuss Voigt Hill
#
# Bulk Modulus (GPa) = 25.76096 36.92464 31.34280
# Shear Modulus (GPa) = 12.04409 24.33275 18.18842
#
# Velocity S-wave (km/s) = 2.43225 3.45714 2.98895
# Velocity P-wave (km/s) = 4.53224 5.83717 5.22560
#
# Compressibility (1/GPa) = 0.03881842
#
# Stress axis : x y z
#
# Youngs Moduli (GPa) = 85.79442 18.89336 50.74035
#
# Poissons Ratio (x) = 0.11967 -0.00438
# Poissons Ratio (y) = 0.54343 0.83668
# Poissons Ratio (z) = -0.00741 0.31154
#
# Static dielectric constant tensor:
#      x y z
#    x 1.760440 -0.038380 -0.027070 
#    y -0.038380 1.771270 -0.040300 
#    z -0.027070 -0.040300 1.773080 
# 
# From -- ./inp_files/455241.got.cif
#   From: 2010.05.17/outbox.cif.g08.bks.cpg/sg2_228_cif.got.tgz:455241.got - 2010.06.03 11:33:40.
