data_PCOD9095103
_publ_section_title
;
Structure prediction by ZEFSAII (Michael W. Deem and Ramdas Pophale) SiO2 
 PCOD9095103
Probable space group: P -1
;
_chemical_formula_sum "Si O2"
_cell_formula_units_Z 16
_cell_length_a 9.436620
_cell_length_b 14.941444
_cell_length_c 7.061362
_cell_angle_alpha 114.092297
_cell_angle_beta 94.884446
_cell_angle_gamma 44.886903
_cell_volume 608.388752
_symmetry_space_group_name_H-M "P -1"
_symmetry_group_IT_number 2
_symmetry_cell_setting 'triclinic'
loop_
_space_group_symop_operation_xyz
x,y,z
-x,-y,-z
loop_
_atom_site_type_symbol
_atom_site_label
_atom_site_fract_x
_atom_site_fract_y
_atom_site_fract_z
Si Si1 0.730097 0.483035 0.406913
Si Si2 0.647603 0.627811 0.161959
Si Si3 0.952955 0.356517 0.708017
Si Si4 0.130480 0.119300 0.791359
Si Si5 0.444982 0.142552 0.914173
Si Si6 0.331503 0.682862 0.910420
Si Si7 0.769107 0.080218 0.103563
Si Si8 0.148389 0.329565 0.372947
O O1 0.611098 0.450602 0.285562
O O2 0.655408 0.610593 0.374303
O O3 0.768806 0.460986 0.618419
O O4 0.982674 0.339931 0.262402
O O5 0.602083 0.754514 0.165517
O O6 0.467662 0.647850 0.074400
O O7 0.867123 0.468905 0.964469
O O8 0.846269 0.707018 0.443130
O O9 0.024448 0.215044 0.669782
O O10 0.240567 0.959561 0.720659
O O11 0.322034 0.102805 0.830439
O O12 0.911022 0.208630 0.957072
O O13 0.689911 0.032801 0.909818
O O14 0.342595 0.234537 0.177261
O O15 0.355351 0.756236 0.819017
O O16 0.000000 0.000000 0.000000
O O17 0.000000 0.500000 0.500000
#
# Coordination Sequence:
#
# PCOD9095103 Si02
#       8
#     2   2   2   2   2   2   2   2
#     4  10  21  35  56  86 122 159 191 239 295 361
#     4  11  21  35  58  89 123 160 192 243 302 354
#     4  10  22  34  55  91 124 153 200 240 293 361
#     4  11  20  38  60  86 119 157 203 247 296 353
#     4  11  20  37  65  87 118 160 195 245 307 346
#     4  10  20  38  58  85 119 156 203 246 292 350
#     4   9  22  39  63  89 115 152 208 255 289 352
#     4  10  20  35  54  90 127 148 196 241 289 360
#
# _framework density 26.298973
#
# number of rings (size 3 to 8) (size 9 to 14) (size 15 to 20)
#    0.750    1.000    3.750    0.750    1.750    1.500 
#    0.000    1.250    0.000    0.000    0.000    0.000 
#    0.000    0.000    0.000    0.000    0.000    0.000 
#
# Total GULP energy -89072.089052 kJ/mol
# GULP energy per Si atom -5567.005566 kJ/mol
# Density = 2.623912 g / cm^3
# Si number density = 26.298973 Si / 1000 Ang^3
#
#
#
# Elastic Constant Matrix: (Units=GPa)
#
#
# Indices 1 2 3 4 5 6 
#
# 1 167.4901 43.1803 38.8993 -16.3567 4.3887 5.0130
# 2 43.1803 140.8256 44.4352 -44.5658 -17.9601 37.6369
# 3 38.8993 44.4352 65.1914 -34.2580 -5.3434 8.5232
# 4 -16.3567 -44.5658 -34.2580 29.4131 6.9954 -10.8245
# 5 4.3887 -17.9601 -5.3434 6.9954 33.4785 -19.9033
# 6 5.0130 37.6369 8.5232 -10.8245 -19.9033 63.5538
#
#
#
# Elastic Compliance Matrix: (Units=1/GPa)
#
#
# Indices 1 2 3 4 5 6 
#
# 1 0.007559 -0.002789 -0.006520 -0.007109 -0.001984 0.000098
# 2 -0.002789 0.016591 0.006119 0.028518 0.001196 -0.005194
# 3 -0.006520 0.006119 0.046651 0.060393 -0.000601 0.000732
# 4 -0.007109 0.028518 0.060393 0.144280 -0.005149 -0.001466
# 5 -0.001984 0.001196 -0.000601 -0.005149 0.038031 0.010562
# 6 0.000098 -0.005194 0.000732 -0.001466 0.010562 0.021763
#
#
# Mechanical properties :
#
#
# Convention : Reuss Voigt Hill
#
# Bulk Modulus (GPa) = 15.52335 69.61518 42.56927
# Shear Modulus (GPa) = 16.51643 41.75522 29.13582
#
# Velocity S-wave (km/s) = 2.50876 3.98893 3.33208
# Velocity P-wave (km/s) = 3.78250 6.90968 5.57005
#
# Compressibility (1/GPa) = 0.06441907
#
# Stress axis : x y z
#
# Youngs Moduli (GPa) = 132.29717 60.27333 21.43599
#
# Poissons Ratio (x) = 0.16812 0.13977
# Poissons Ratio (y) = 0.36902 -0.13117
# Poissons Ratio (z) = 0.86263 -0.36882
#
# Static dielectric constant tensor:
#      x y z
#    x 2.262940 -0.000830 0.084270 
#    y -0.000830 2.199170 0.120500 
#    z 0.084270 0.120500 2.197440 
# 
# From -- ./inp_files/203276.got.cif
#   From: 2010.05.17/outbox.cif.g08.bks.cpg/sg2_102_cif.got.tgz:203276.got - 2010.06.03 11:33:40.
