data_PCOD9095131
_publ_section_title
;
Structure prediction by ZEFSAII (Michael W. Deem and Ramdas Pophale) SiO2 
 PCOD9095131
Probable space group: P -1
;
_chemical_formula_sum "Si O2"
_cell_formula_units_Z 14
_cell_length_a 20.100880
_cell_length_b 5.225910
_cell_length_c 5.044127
_cell_angle_alpha 83.848367
_cell_angle_beta 76.922967
_cell_angle_gamma 90.124046
_cell_volume 512.958435
_symmetry_space_group_name_H-M "P -1"
_symmetry_group_IT_number 2
_symmetry_cell_setting 'triclinic'
loop_
_space_group_symop_operation_xyz
x,y,z
-x,-y,-z
loop_
_atom_site_type_symbol
_atom_site_label
_atom_site_fract_x
_atom_site_fract_y
_atom_site_fract_z
Si Si1 0.720947 0.175187 0.714039
Si Si2 0.149587 0.309978 0.884862
Si Si3 0.706488 0.524742 0.180758
Si Si4 0.425805 0.593741 0.515673
Si Si5 0.422023 0.909197 0.995652
Si Si6 0.870852 0.147106 0.448409
Si Si7 0.988578 0.767880 0.824696
O O1 0.713954 0.288036 0.411594
O O2 0.653903 0.990051 0.855492
O O3 0.801440 0.115560 0.684535
O O4 0.712558 0.407395 0.900509
O O5 0.229700 0.285700 0.863508
O O6 0.141666 0.598353 0.748934
O O7 0.092274 0.258156 0.168894
O O8 0.131120 0.102790 0.703811
O O9 0.631397 0.609755 0.313370
O O10 0.500000 0.500000 0.500000
O O11 0.418175 0.652045 0.209168
O O12 0.420462 0.834532 0.696752
O O13 0.500000 0.000000 0.000000
O O14 0.950781 0.200319 0.451788
O O15 0.000000 0.500000 0.000000
O O16 0.000000 0.000000 0.000000
#
# Coordination Sequence:
#
# PCOD9095131 Si02
#       7
#     2   2   2   2   2   2   2
#     4   9  19  36  55  79 114 153 193 238 290 347
#     4   9  17  32  54  82 114 151 192 238 288 344
#     4   9  19  36  55  79 114 153 193 238 290 347
#     4  10  20  35  55  80 112 147 188 237 288 344
#     4  10  20  35  55  80 112 147 188 237 288 344
#     4   9  17  32  54  82 114 151 192 238 288 344
#     4   8  14  26  49  78 110 146 188 234 284 338
#
# _framework density 27.292662
#
# number of rings (size 3 to 8) (size 9 to 14) (size 15 to 20)
#    0.000    2.857    0.000    0.857    0.000    1.143 
#    0.000   12.143    0.000    0.000    0.000   30.000 
#    0.000    0.000    0.000    0.000    0.000    0.000 
#
# Total GULP energy -78129.217749 kJ/mol
# GULP energy per Si atom -5580.658411 kJ/mol
# Density = 2.723054 g / cm^3
# Si number density = 27.292662 Si / 1000 Ang^3
#
#
#
# Elastic Constant Matrix: (Units=GPa)
#
#
# Indices 1 2 3 4 5 6 
#
# 1 250.2237 15.3378 64.3859 -13.7662 -80.4886 53.8281
# 2 15.3378 173.2992 36.7298 -0.0567 -45.9754 -1.5384
# 3 64.3859 36.7298 80.7694 -6.6905 -21.2929 9.6160
# 4 -13.7662 -0.0567 -6.6905 44.9582 8.9515 -17.1555
# 5 -80.4886 -45.9754 -21.2929 8.9515 98.8548 -2.5670
# 6 53.8281 -1.5384 9.6160 -17.1555 -2.5670 48.3979
#
#
#
# Elastic Compliance Matrix: (Units=1/GPa)
#
#
# Indices 1 2 3 4 5 6 
#
# 1 0.010172 0.002453 -0.006077 -0.003552 0.008154 -0.010855
# 2 0.002453 0.007666 -0.004077 -0.001548 0.004774 -0.001971
# 3 -0.006077 -0.004077 0.018032 0.002936 -0.003124 0.003921
# 4 -0.003552 -0.001548 0.002936 0.027494 -0.005137 0.012792
# 5 0.008154 0.004774 -0.003124 -0.005137 0.018530 -0.009135
# 6 -0.010855 -0.001971 0.003921 0.012792 -0.009135 0.035943
#
#
# Mechanical properties :
#
#
# Convention : Reuss Voigt Hill
#
# Bulk Modulus (GPa) = 48.85372 81.91102 65.38237
# Shear Modulus (GPa) = 35.69862 64.29808 49.99835
#
# Velocity S-wave (km/s) = 3.62054 4.85900 4.28475
# Velocity P-wave (km/s) = 5.95118 7.84583 6.96325
#
# Compressibility (1/GPa) = 0.02046927
#
# Stress axis : x y z
#
# Youngs Moduli (GPa) = 98.30523 130.45046 55.45727
#
# Poissons Ratio (x) = -0.32005 0.33701
# Poissons Ratio (y) = -0.24119 0.22610
# Poissons Ratio (z) = 0.59739 0.53184
#
# Static dielectric constant tensor:
#      x y z
#    x 2.567050 -0.359400 0.120760 
#    y -0.359400 2.598540 -0.369840 
#    z 0.120760 -0.369840 2.248180 
# 
# From -- ./inp_files/10033.got.cif
#   From: 2010.05.17/outbox.cif.g08.bks.cpg/sg2_6_cif.got.tgz:10033.got - 2010.06.03 11:33:40.
