data_PCOD9095060
_publ_section_title
;
Structure prediction by ZEFSAII (Michael W. Deem and Ramdas Pophale) SiO2 
 PCOD9095060
Probable space group: P -1
;
_chemical_formula_sum "Si O2"
_cell_formula_units_Z 12
_cell_length_a 9.027083
_cell_length_b 11.971878
_cell_length_c 9.489856
_cell_angle_alpha 40.576949
_cell_angle_beta 104.559617
_cell_angle_gamma 128.381164
_cell_volume 471.667519
_symmetry_space_group_name_H-M "P -1"
_symmetry_group_IT_number 2
_symmetry_cell_setting 'triclinic'
loop_
_space_group_symop_operation_xyz
x,y,z
-x,-y,-z
loop_
_atom_site_type_symbol
_atom_site_label
_atom_site_fract_x
_atom_site_fract_y
_atom_site_fract_z
Si Si1 0.791271 0.526215 0.291000
Si Si2 0.378087 0.087797 0.046093
Si Si3 0.250291 0.293396 0.638389
Si Si4 0.793522 0.281665 0.869625
Si Si5 0.300827 0.233225 0.156938
Si Si6 0.712583 0.897337 0.421676
O O1 0.841010 0.622336 0.372143
O O2 0.543305 0.298009 0.446485
O O3 0.957692 0.514736 0.287510
O O4 0.817764 0.713904 0.015596
O O5 0.355586 0.120195 0.171530
O O6 0.302483 0.857775 0.169697
O O7 0.233594 0.113576 0.905693
O O8 0.626548 0.293983 0.870889
O O9 0.500000 0.500000 0.500000
O O10 0.202949 0.196404 0.563410
O O11 0.767615 0.113402 0.144992
O O12 0.214743 0.080380 0.424039
O O13 0.500000 0.500000 0.000000
#
# Coordination Sequence:
#
# PCOD9095060 Si02
#       6
#     2   2   2   2   2   2
#     4   9  18  34  55  77 101 137 179 214 252 303
#     4   9  19  34  52  76 108 138 168 216 264 301
#     4   8  15  31  53  73  96 132 173 209 246 295
#     4  10  20  35  54  77 107 138 171 213 259 310
#     4   9  18  34  55  77 105 138 173 216 259 302
#     4   9  18  32  52  77 106 136 171 212 261 307
#
# _framework density 25.441649000000002
#
# number of rings (size 3 to 8) (size 9 to 14) (size 15 to 20)
#    0.000    3.000    0.000    1.000    0.000    7.333 
#    0.000   16.667    0.000    8.000    0.000    0.000 
#    0.000    0.000    0.000    0.000    0.000    0.000 
#
# Total GULP energy -66955.827831 kJ/mol
# GULP energy per Si atom -5579.652319 kJ/mol
# Density = 2.538374 g / cm^3
# Si number density = 25.441649 Si / 1000 Ang^3
#
#
#
# Elastic Constant Matrix: (Units=GPa)
#
#
# Indices 1 2 3 4 5 6 
#
# 1 136.7526 40.8478 42.3931 12.8925 -13.9912 13.2066
# 2 40.8478 107.3852 48.8680 42.3906 -18.8507 -7.6270
# 3 42.3931 48.8680 119.7671 28.4388 -13.2038 6.9377
# 4 12.8925 42.3906 28.4388 59.5572 2.3704 -13.3134
# 5 -13.9912 -18.8507 -13.2038 2.3704 46.1370 -5.8676
# 6 13.2066 -7.6270 6.9377 -13.3134 -5.8676 37.4755
#
#
#
# Elastic Compliance Matrix: (Units=1/GPa)
#
#
# Indices 1 2 3 4 5 6 
#
# 1 0.009089 -0.002787 -0.001851 0.000142 0.000664 -0.003273
# 2 -0.002787 0.016752 -0.003079 -0.009526 0.005926 0.002505
# 3 -0.001851 -0.003079 0.011445 -0.003636 0.001237 -0.003191
# 4 0.000142 -0.009526 -0.003636 0.027165 -0.005332 0.007500
# 5 0.000664 0.005926 0.001237 -0.005332 0.025283 0.002807
# 6 -0.003273 0.002505 -0.003191 0.007500 0.002807 0.032042
#
#
# Mechanical properties :
#
#
# Convention : Reuss Voigt Hill
#
# Bulk Modulus (GPa) = 45.75836 69.79142 57.77489
# Shear Modulus (GPa) = 34.60336 44.08701 39.34518
#
# Velocity S-wave (km/s) = 3.69196 4.16729 3.93681
# Velocity P-wave (km/s) = 6.01654 7.11664 6.58959
#
# Compressibility (1/GPa) = 0.02185393
#
# Stress axis : x y z
#
# Youngs Moduli (GPa) = 110.01727 59.69421 87.37085
#
# Poissons Ratio (x) = 0.16637 0.16172
# Poissons Ratio (y) = 0.30662 0.26898
# Poissons Ratio (z) = 0.20364 0.18377
#
# Static dielectric constant tensor:
#      x y z
#    x 2.049130 -0.009470 0.059820 
#    y -0.009470 1.996270 -0.081750 
#    z 0.059820 -0.081750 2.171780 
# 
# From -- ./inp_files/146890.got.cif
#   From: 2010.05.17/outbox.cif.g08.bks.cpg/sg2_74_cif.got.tgz:146890.got - 2010.06.03 11:33:40.
