data_PCOD9095737
_publ_section_title
;
Structure prediction by ZEFSAII (Michael W. Deem and Ramdas Pophale) SiO2 
 PCOD9095737
Probable space group: P -1
;
_chemical_formula_sum "Si O2"
_cell_formula_units_Z 14
_cell_length_a 14.426179
_cell_length_b 9.466589
_cell_length_c 11.812112
_cell_angle_alpha 142.135178
_cell_angle_beta 49.385079
_cell_angle_gamma 139.426276
_cell_volume 638.673962
_symmetry_space_group_name_H-M "P -1"
_symmetry_group_IT_number 2
_symmetry_cell_setting 'triclinic'
loop_
_space_group_symop_operation_xyz
x,y,z
-x,-y,-z
loop_
_atom_site_type_symbol
_atom_site_label
_atom_site_fract_x
_atom_site_fract_y
_atom_site_fract_z
Si Si1 0.767356 0.499725 0.966824
Si Si2 0.312988 0.880002 0.680246
Si Si3 0.077656 0.784596 0.965726
Si Si4 0.285540 0.379411 0.515119
Si Si5 0.882953 0.180897 0.784074
Si Si6 0.641487 0.152017 0.630044
Si Si7 0.589479 0.570335 0.325453
O O1 0.769108 0.266640 0.893572
O O2 0.730259 0.386830 0.798125
O O3 0.929913 0.750688 0.016649
O O4 0.651038 0.555295 0.147015
O O5 0.205699 0.936293 0.870691
O O6 0.284711 0.603591 0.582703
O O7 0.285601 0.818476 0.530467
O O8 0.482455 0.100324 0.702333
O O9 0.028416 0.465552 0.819079
O O10 0.117805 0.889916 0.128442
O O11 0.421119 0.370088 0.350582
O O12 0.324944 0.475980 0.673651
O O13 0.152030 0.077552 0.423554
O O14 0.616735 0.867891 0.514577
#
# Coordination Sequence:
#
# PCOD9095737 Si02
#       7
#     2   2   2   2   2   2   2
#     4  10  20  38  60  83 117 154 188 241 285 344
#     4  10  22  40  59  82 122 151 193 244 278 354
#     4   9  20  38  55  87 119 151 194 233 297 338
#     4  10  20  35  59  91 111 153 196 236 296 333
#     4   9  19  36  55  90 117 145 194 236 291 340
#     4  10  22  42  59  85 117 157 193 236 293 333
#     4  10  20  37  60  89 116 145 200 242 281 348
#
# _framework density 21.920417
#
# number of rings (size 3 to 8) (size 9 to 14) (size 15 to 20)
#    0.857    1.429    1.429    0.857    2.000    1.714 
#    5.143    2.857    0.000    0.000    0.000    0.000 
#    0.000    0.000    0.000    0.000    0.000    0.000 
#
# Total GULP energy -78084.480173 kJ/mol
# GULP energy per Si atom -5577.462870 kJ/mol
# Density = 2.187053 g / cm^3
# Si number density = 21.920417 Si / 1000 Ang^3
#
#
#
# Elastic Constant Matrix: (Units=GPa)
#
#
# Indices 1 2 3 4 5 6 
#
# 1 68.7302 5.1160 32.2485 -12.7761 22.9171 6.5538
# 2 5.1160 26.5059 6.6758 -21.4759 0.3148 0.7355
# 3 32.2485 6.6758 54.5380 -27.9132 16.2273 9.5949
# 4 -12.7761 -21.4759 -27.9132 41.2673 -9.3729 -0.5962
# 5 22.9171 0.3148 16.2273 -9.3729 27.7502 -1.9407
# 6 6.5538 0.7355 9.5949 -0.5962 -1.9407 21.3617
#
#
#
# Elastic Compliance Matrix: (Units=1/GPa)
#
#
# Indices 1 2 3 4 5 6 
#
# 1 0.025638 -0.009253 -0.013534 -0.009876 -0.016718 -0.003263
# 2 -0.009253 0.079454 0.022044 0.056084 0.012295 -0.007116
# 3 -0.013534 0.022044 0.047875 0.038185 -0.005398 -0.017535
# 4 -0.009876 0.056084 0.038185 0.078454 0.010788 -0.012883
# 5 -0.016718 0.012295 -0.005398 0.010788 0.057387 0.012645
# 6 -0.003263 -0.007116 -0.017535 -0.012883 0.012645 0.056724
#
#
# Mechanical properties :
#
#
# Convention : Reuss Voigt Hill
#
# Bulk Modulus (GPa) = 6.60152 26.42830 16.51491
# Shear Modulus (GPa) = 12.57828 25.12475 18.85152
#
# Velocity S-wave (km/s) = 2.39804 3.38920 2.93575
# Velocity P-wave (km/s) = 3.26889 5.23433 4.36370
#
# Compressibility (1/GPa) = 0.15148031
#
# Stress axis : x y z
#
# Youngs Moduli (GPa) = 39.00458 12.58595 20.88786
#
# Poissons Ratio (x) = 0.11646 0.28269
# Poissons Ratio (y) = 0.36090 -0.46044
# Poissons Ratio (z) = 0.52788 -0.27744
#
# Static dielectric constant tensor:
#      x y z
#    x 1.842790 0.007560 -0.048300 
#    y 0.007560 1.811270 -0.017400 
#    z -0.048300 -0.017400 1.779700 
# 
# From -- ./inp_files/422755.got.cif
#   From: 2010.05.17/outbox.cif.g08.bks.cpg/sg2_212_cif.got.tgz:422755.got - 2010.06.03 11:33:40.
