data_PCOD9095208
_publ_section_title
;
Structure prediction by ZEFSAII (Michael W. Deem and Ramdas Pophale) SiO2 
 PCOD9095208
Probable space group: P -1
;
_chemical_formula_sum "Si O2"
_cell_formula_units_Z 16
_cell_length_a 10.222181
_cell_length_b 9.756938
_cell_length_c 12.426705
_cell_angle_alpha 90.661081
_cell_angle_beta 84.815957
_cell_angle_gamma 138.723800
_cell_volume 811.275340
_symmetry_space_group_name_H-M "P -1"
_symmetry_group_IT_number 2
_symmetry_cell_setting 'triclinic'
loop_
_space_group_symop_operation_xyz
x,y,z
-x,-y,-z
loop_
_atom_site_type_symbol
_atom_site_label
_atom_site_fract_x
_atom_site_fract_y
_atom_site_fract_z
Si Si1 0.313617 0.277102 0.711209
Si Si2 0.744291 0.476785 0.361311
Si Si3 0.985703 0.198742 0.210109
Si Si4 0.075189 0.275434 0.444734
Si Si5 0.413261 0.519124 0.103936
Si Si6 0.335434 0.754713 0.033207
Si Si7 0.317159 0.189301 0.473848
Si Si8 0.090136 0.564799 0.841800
O O1 0.205928 0.335284 0.692216
O O2 0.476219 0.426434 0.792198
O O3 0.393162 0.288974 0.589185
O O4 0.162504 0.042367 0.760753
O O5 0.834734 0.548711 0.474863
O O6 0.504105 0.288778 0.390711
O O7 0.832673 0.434142 0.275719
O O8 0.059846 0.308443 0.323178
O O9 0.179480 0.304385 0.132233
O O10 0.892842 0.256923 0.159562
O O11 0.206244 0.237971 0.438348
O O12 0.854706 0.058133 0.499430
O O13 0.428966 0.694087 0.080936
O O14 0.500000 0.500000 0.000000
O O15 0.142353 0.650939 0.116873
O O16 0.231582 0.625184 0.928114
O O17 0.500000 0.000000 0.000000
#
# Coordination Sequence:
#
# PCOD9095208 Si02
#       8
#     2   2   2   2   2   2   2   2
#     4  10  20  35  56  79 105 141 175 215 266 308
#     4  11  20  33  56  83 110 137 177 221 257 311
#     4  10  21  38  54  75 112 142 171 216 264 318
#     4   9  18  33  54  80 108 143 176 211 265 312
#     4  11  22  35  57  83 102 132 181 227 264 307
#     4  10  22  41  58  73 106 146 176 215 271 322
#     4   9  18  33  54  80 111 141 174 216 261 313
#     4  10  23  38  54  80 108 140 177 218 267 316
#
# _framework density 19.722034000000001
#
# number of rings (size 3 to 8) (size 9 to 14) (size 15 to 20)
#    0.000    2.000    0.000    5.250    0.000    3.000 
#    0.000    2.500    0.000    0.000    0.000    0.000 
#    0.000    0.000    0.000    0.000    0.000    0.000 
#
# Total GULP energy -89349.028334 kJ/mol
# GULP energy per Si atom -5584.314271 kJ/mol
# Density = 1.967715 g / cm^3
# Si number density = 19.722034 Si / 1000 Ang^3
#
#
#
# Elastic Constant Matrix: (Units=GPa)
#
#
# Indices 1 2 3 4 5 6 
#
# 1 43.3987 12.6451 27.6545 1.8262 -13.3747 7.4210
# 2 12.6451 62.2268 1.9623 -23.4520 -20.8324 7.9542
# 3 27.6545 1.9623 63.9970 -1.9694 -15.3700 10.2670
# 4 1.8262 -23.4520 -1.9694 34.4277 4.0134 7.2420
# 5 -13.3747 -20.8324 -15.3700 4.0134 45.1594 -5.1226
# 6 7.4210 7.9542 10.2670 7.2420 -5.1226 13.3223
#
#
#
# Elastic Compliance Matrix: (Units=1/GPa)
#
#
# Indices 1 2 3 4 5 6 
#
# 1 0.037200 -0.012430 -0.016932 -0.013166 0.001541 0.007498
# 2 -0.012430 0.043655 0.016117 0.039981 0.012907 -0.048333
# 3 -0.016932 0.016117 0.029729 0.019179 0.007352 -0.030701
# 4 -0.013166 0.039981 0.019179 0.071437 0.007074 -0.067431
# 5 0.001541 0.012907 0.007352 0.007074 0.029671 -0.006667
# 6 0.007498 -0.048333 -0.030701 -0.067431 -0.006667 0.157495
#
#
# Mechanical properties :
#
#
# Convention : Reuss Voigt Hill
#
# Bulk Modulus (GPa) = 11.89130 28.23848 20.06489
# Shear Modulus (GPa) = 11.80056 27.07259 19.43658
#
# Velocity S-wave (km/s) = 2.44876 3.70903 3.14271
# Velocity P-wave (km/s) = 3.74670 5.71768 4.83372
#
# Compressibility (1/GPa) = 0.08409506
#
# Stress axis : x y z
#
# Youngs Moduli (GPa) = 26.88183 22.90676 33.63691
#
# Poissons Ratio (x) = 0.28473 0.56953
# Poissons Ratio (y) = 0.33414 -0.54212
# Poissons Ratio (z) = 0.45515 -0.36918
#
# Static dielectric constant tensor:
#      x y z
#    x 1.680630 0.016390 0.010710 
#    y 0.016390 1.692710 -0.005220 
#    z 0.010710 -0.005220 1.684210 
# 
# From -- ./inp_files/382289.got.cif
#   From: 2010.05.17/outbox.cif.g08.bks.cpg/sg2_192_cif.got.tgz:382289.got - 2010.06.03 11:33:40.
