data_PCOD9095897
_publ_section_title
;
Structure prediction by ZEFSAII (Michael W. Deem and Ramdas Pophale) SiO2 
 PCOD9095897
Probable space group: P -1
;
_chemical_formula_sum "Si O2"
_cell_formula_units_Z 16
_cell_length_a 7.940221
_cell_length_b 12.214298
_cell_length_c 24.171811
_cell_angle_alpha 159.386471
_cell_angle_beta 62.375874
_cell_angle_gamma 117.233877
_cell_volume 729.150688
_symmetry_space_group_name_H-M "P -1"
_symmetry_group_IT_number 2
_symmetry_cell_setting 'triclinic'
loop_
_space_group_symop_operation_xyz
x,y,z
-x,-y,-z
loop_
_atom_site_type_symbol
_atom_site_label
_atom_site_fract_x
_atom_site_fract_y
_atom_site_fract_z
Si Si1 0.625916 0.270219 0.640801
Si Si2 0.844797 0.666858 0.065810
Si Si3 0.848405 0.262601 0.149314
Si Si4 0.597689 0.855050 0.841225
Si Si5 0.958305 0.728644 0.449393
Si Si6 0.339742 0.424033 0.842853
Si Si7 0.981455 0.330313 0.784769
Si Si8 0.052889 0.343449 0.360960
O O1 0.627878 0.606754 0.768427
O O2 0.839173 0.172060 0.563450
O O3 0.527696 0.312438 0.734075
O O4 0.500000 0.000000 0.500000
O O5 0.664174 0.611852 0.107499
O O6 0.922990 0.023695 0.221089
O O7 0.000000 0.500000 0.000000
O O8 0.848682 0.516227 0.933416
O O9 0.628918 0.132657 0.121268
O O10 0.909117 0.463797 0.181451
O O11 0.860311 0.486230 0.306847
O O12 0.000000 0.000000 0.000000
O O13 0.723473 0.723644 0.710109
O O14 0.677745 0.215792 0.002491
O O15 0.006913 0.550438 0.413565
O O16 0.875171 0.039231 0.631876
O O17 0.155751 0.234788 0.752990
O O18 0.000000 0.500000 0.500000
#
# Coordination Sequence:
#
# PCOD9095897 Si02
#       8
#     2   2   2   2   2   2   2   2
#     4  11  21  36  61  97 122 154 209 270 308 361
#     4  10  20  35  60  93 121 162 201 258 315 361
#     4  12  25  41  63  91 130 172 207 254 318 383
#     4  11  23  38  63  92 127 160 212 256 317 363
#     4  11  24  39  65  94 127 164 208 258 325 374
#     4  11  20  36  63  93 124 159 207 261 311 367
#     4  11  21  40  62  89 127 163 208 261 314 373
#     4  11  22  39  67  97 124 160 212 265 312 373
#
# _framework density 21.943338000000001
#
# number of rings (size 3 to 8) (size 9 to 14) (size 15 to 20)
#    0.000    1.000    5.000    3.750    3.500    0.000 
#    0.000    0.625    0.000    3.750    0.000    0.000 
#    0.000    0.000    0.000    0.000    0.000    0.000 
#
# Total GULP energy -89366.240880 kJ/mol
# GULP energy per Si atom -5585.390055 kJ/mol
# Density = 2.189339 g / cm^3
# Si number density = 21.943338 Si / 1000 Ang^3
#
#
#
# Elastic Constant Matrix: (Units=GPa)
#
#
# Indices 1 2 3 4 5 6 
#
# 1 41.0903 17.5081 30.2670 -9.4606 1.8214 0.5624
# 2 17.5081 144.1833 77.5616 -40.3567 0.8142 8.1812
# 3 30.2670 77.5616 159.3672 -31.3967 14.7390 2.8594
# 4 -9.4606 -40.3567 -31.3967 52.5518 3.2599 1.7792
# 5 1.8214 0.8142 14.7390 3.2599 27.3785 -7.4250
# 6 0.5624 8.1812 2.8594 1.7792 -7.4250 20.5534
#
#
#
# Elastic Compliance Matrix: (Units=1/GPa)
#
#
# Indices 1 2 3 4 5 6 
#
# 1 0.028522 -0.000258 -0.004963 0.001934 0.000565 0.000050
# 2 -0.000258 0.011152 -0.004062 0.006246 -0.000074 -0.004434
# 3 -0.004963 -0.004062 0.010288 0.002572 -0.005950 -0.002051
# 4 0.001934 0.006246 0.002572 0.026400 -0.006927 -0.007685
# 5 0.000565 -0.000074 -0.005950 -0.006927 0.045352 0.017825
# 6 0.000050 -0.004434 -0.002051 -0.007685 0.017825 0.057807
#
#
# Mechanical properties :
#
#
# Convention : Reuss Voigt Hill
#
# Bulk Modulus (GPa) = 31.85087 66.14600 48.99844
# Shear Modulus (GPa) = 23.97470 34.71702 29.34586
#
# Velocity S-wave (km/s) = 3.30900 3.98190 3.66094
# Velocity P-wave (km/s) = 5.39869 7.16590 6.34413
#
# Compressibility (1/GPa) = 0.03139632
#
# Stress axis : x y z
#
# Youngs Moduli (GPa) = 35.06028 89.66926 97.19972
#
# Poissons Ratio (x) = 0.02313 0.48245
# Poissons Ratio (y) = 0.00904 0.39479
# Poissons Ratio (z) = 0.17402 0.36421
#
# Static dielectric constant tensor:
#      x y z
#    x 1.823340 0.005500 -0.013740 
#    y 0.005500 1.873340 -0.024060 
#    z -0.013740 -0.024060 1.894570 
# 
# From -- ./inp_files/331703.got.cif
#   From: 2010.05.17/outbox.cif.g08.bks.cpg/sg2_166_cif.got.tgz:331703.got - 2010.06.03 11:33:40.
