data_PCOD9095409
_publ_section_title
;
Structure prediction by ZEFSAII (Michael W. Deem and Ramdas Pophale) SiO2 
 PCOD9095409
Probable space group: P -1
;
_chemical_formula_sum "Si O2"
_cell_formula_units_Z 16
_cell_length_a 9.269723
_cell_length_b 7.674779
_cell_length_c 17.579379
_cell_angle_alpha 45.927042
_cell_angle_beta 69.608728
_cell_angle_gamma 47.671423
_cell_volume 647.120761
_symmetry_space_group_name_H-M "P -1"
_symmetry_group_IT_number 2
_symmetry_cell_setting 'triclinic'
loop_
_space_group_symop_operation_xyz
x,y,z
-x,-y,-z
loop_
_atom_site_type_symbol
_atom_site_label
_atom_site_fract_x
_atom_site_fract_y
_atom_site_fract_z
Si Si1 0.818904 0.663621 0.909455
Si Si2 0.008632 0.690988 0.627829
Si Si3 0.319559 0.447622 0.528911
Si Si4 0.788557 0.198502 0.830240
Si Si5 0.891728 0.818393 0.128462
Si Si6 0.726611 0.684517 0.572076
Si Si7 0.497626 0.749308 0.028690
Si Si8 0.355027 0.904072 0.324444
O O1 0.992086 0.410095 0.896973
O O2 0.865552 0.853184 0.894853
O O3 0.710337 0.555098 0.006903
O O4 0.650781 0.953032 0.796245
O O5 0.172048 0.675860 0.555259
O O6 0.134148 0.346429 0.748274
O O7 0.853270 0.748373 0.577023
O O8 0.870056 0.897798 0.662312
O O9 0.196633 0.434103 0.491706
O O10 0.422154 0.558391 0.426401
O O11 0.497413 0.117772 0.636174
O O12 0.948173 0.155872 0.872090
O O13 0.754278 0.411583 0.700559
O O14 0.576221 0.372624 0.859355
O O15 0.675417 0.098799 0.049416
O O16 0.500000 0.000000 0.500000
O O17 0.500000 0.000000 0.000000
#
# Coordination Sequence:
#
# PCOD9095409 Si02
#       8
#     2   2   2   2   2   2   2   2
#     4  10  21  41  66  91 128 163 205 255 318 362
#     4  10  21  36  58  87 116 156 203 244 299 368
#     4  11  20  34  59  81 120 160 200 244 306 352
#     4  10  22  41  64  92 127 165 208 256 312 368
#     4  10  22  41  65  91 128 161 206 261 307 371
#     4  11  21  39  60  85 125 161 202 254 302 360
#     4  10  22  41  68  94 125 161 209 259 308 377
#     4  10  20  35  57  86 117 158 196 250 298 366
#
# _framework density 24.724907000000002
#
# number of rings (size 3 to 8) (size 9 to 14) (size 15 to 20)
#    0.000    1.750    2.500    1.875    0.000    2.500 
#    0.000    5.000    5.500    0.000    0.000    0.000 
#    0.000    0.000    0.000    0.000    0.000    0.000 
#
# Total GULP energy -89234.291124 kJ/mol
# GULP energy per Si atom -5577.143195 kJ/mol
# Density = 2.466863 g / cm^3
# Si number density = 24.724907 Si / 1000 Ang^3
#
#
#
# Elastic Constant Matrix: (Units=GPa)
#
#
# Indices 1 2 3 4 5 6 
#
# 1 118.8094 32.4296 46.9049 10.9151 13.6288 -5.8477
# 2 32.4296 93.5512 16.3330 17.9884 -4.7133 -14.4684
# 3 46.9049 16.3330 70.5691 14.7578 15.7095 -6.1178
# 4 10.9151 17.9884 14.7578 30.9759 -2.4461 -1.6153
# 5 13.6288 -4.7133 15.7095 -2.4461 45.6482 9.0587
# 6 -5.8477 -14.4684 -6.1178 -1.6153 9.0587 43.0255
#
#
#
# Elastic Compliance Matrix: (Units=1/GPa)
#
#
# Indices 1 2 3 4 5 6 
#
# 1 0.012246 -0.003242 -0.007278 0.000917 -0.001412 -0.000129
# 2 -0.003242 0.013658 0.000478 -0.006734 0.001112 0.003733
# 3 -0.007278 0.000478 0.022523 -0.008792 -0.006685 0.003452
# 4 0.000917 -0.006734 -0.008792 0.040287 0.004788 -0.002886
# 5 -0.001412 0.001112 -0.006685 0.004788 0.026212 -0.006108
# 6 -0.000129 0.003733 0.003452 -0.002886 -0.006108 0.026148
#
#
# Mechanical properties :
#
#
# Convention : Reuss Voigt Hill
#
# Bulk Modulus (GPa) = 35.28067 52.69607 43.98837
# Shear Modulus (GPa) = 29.30711 36.41406 32.86058
#
# Velocity S-wave (km/s) = 3.44659 3.84183 3.64957
# Velocity P-wave (km/s) = 5.48989 6.40615 5.96564
#
# Compressibility (1/GPa) = 0.02834413
#
# Stress axis : x y z
#
# Youngs Moduli (GPa) = 81.65651 73.21719 44.39844
#
# Poissons Ratio (x) = 0.23736 0.32314
# Poissons Ratio (y) = 0.26472 -0.02123
# Poissons Ratio (z) = 0.59430 -0.03501
#
# Static dielectric constant tensor:
#      x y z
#    x 2.064390 0.083390 -0.017330 
#    y 0.083390 2.110110 -0.075480 
#    z -0.017330 -0.075480 2.014360 
# 
# From -- ./inp_files/217267.got.cif
#   From: 2010.05.17/outbox.cif.g08.bks.cpg/sg2_109_cif.got.tgz:217267.got - 2010.06.03 11:33:40.
