data_PCOD9095040
_publ_section_title
;
Structure prediction by ZEFSAII (Michael W. Deem and Ramdas Pophale) SiO2 
 PCOD9095040
Probable space group: P -1
;
_chemical_formula_sum "Si O2"
_cell_formula_units_Z 16
_cell_length_a 7.376534
_cell_length_b 20.225104
_cell_length_c 17.190501
_cell_angle_alpha 157.943501
_cell_angle_beta 128.245552
_cell_angle_gamma 46.068351
_cell_volume 690.850024
_symmetry_space_group_name_H-M "P -1"
_symmetry_group_IT_number 2
_symmetry_cell_setting 'triclinic'
loop_
_space_group_symop_operation_xyz
x,y,z
-x,-y,-z
loop_
_atom_site_type_symbol
_atom_site_label
_atom_site_fract_x
_atom_site_fract_y
_atom_site_fract_z
Si Si1 0.428861 0.995572 0.179389
Si Si2 0.882329 0.812625 0.326319
Si Si3 0.046281 0.249980 0.900863
Si Si4 0.551411 0.229445 0.756639
Si Si5 0.940119 0.581072 0.471129
Si Si6 0.236769 0.245388 0.542131
Si Si7 0.797103 0.392540 0.682316
Si Si8 0.718081 0.361252 0.266562
O O1 0.732249 0.896696 0.145532
O O2 0.273782 0.204449 0.326922
O O3 0.381614 0.054107 0.321931
O O4 0.314194 0.838859 0.960157
O O5 0.928627 0.834268 0.272292
O O6 0.673980 0.721688 0.187266
O O7 0.147416 0.693523 0.310451
O O8 0.737846 0.005469 0.548206
O O9 0.759847 0.310497 0.917209
O O10 0.111667 0.433614 0.106508
O O11 0.413554 0.274546 0.685705
O O12 0.881723 0.587799 0.371862
O O13 0.926143 0.395668 0.305588
O O14 0.202700 0.591603 0.576324
O O15 0.998441 0.232328 0.506782
O O16 0.528854 0.479985 0.666417
#
# Coordination Sequence:
#
# PCOD9095040 Si02
#       8
#     2   2   2   2   2   2   2   2
#     4   9  20  37  59  85 113 153 188 236 290 346
#     4  10  20  35  53  82 115 152 191 234 285 332
#     4  11  21  37  57  84 114 156 197 230 290 343
#     4  10  21  35  57  82 116 154 197 232 281 354
#     4   9  20  37  62  82 111 152 184 241 296 338
#     4   9  20  38  53  81 115 150 188 233 298 327
#     4  10  23  36  53  87 111 146 193 244 280 342
#     4  10  20  37  61  86 110 144 201 231 288 359
#
# _framework density 23.159873999999999
#
# number of rings (size 3 to 8) (size 9 to 14) (size 15 to 20)
#    0.750    1.500    1.250    1.125    3.500    2.500 
#    4.500    0.000    0.000    1.500    0.000    0.000 
#    0.000    0.000    0.000    0.000    0.000    0.000 
#
# Total GULP energy -89148.014393 kJ/mol
# GULP energy per Si atom -5571.750900 kJ/mol
# Density = 2.310716 g / cm^3
# Si number density = 23.159874 Si / 1000 Ang^3
#
#
#
# Elastic Constant Matrix: (Units=GPa)
#
#
# Indices 1 2 3 4 5 6 
#
# 1 43.0033 8.1077 12.1160 -9.4389 11.9770 -1.7056
# 2 8.1077 129.3516 24.7991 -2.0260 12.1191 -3.8903
# 3 12.1160 24.7991 72.7495 -7.9277 19.5100 -11.6103
# 4 -9.4389 -2.0260 -7.9277 23.4908 -10.3064 9.0697
# 5 11.9770 12.1191 19.5100 -10.3064 24.0211 2.0206
# 6 -1.7056 -3.8903 -11.6103 9.0697 2.0206 27.0413
#
#
#
# Elastic Compliance Matrix: (Units=1/GPa)
#
#
# Indices 1 2 3 4 5 6 
#
# 1 0.027845 -0.000506 -0.001147 0.006525 -0.009875 -0.000260
# 2 -0.000506 0.008461 -0.001861 -0.002205 -0.003568 0.001392
# 3 -0.001147 -0.001861 0.021079 -0.006959 -0.019648 0.012512
# 4 0.006525 -0.002205 -0.006959 0.069486 0.035753 -0.028871
# 5 -0.009875 -0.003568 -0.019648 0.035753 0.081981 -0.027689
# 6 -0.000260 0.001392 0.012512 -0.028871 -0.027689 0.054289
#
#
# Mechanical properties :
#
#
# Convention : Reuss Voigt Hill
#
# Bulk Modulus (GPa) = 19.85821 37.23889 28.54855
# Shear Modulus (GPa) = 17.42434 28.24942 22.83688
#
# Velocity S-wave (km/s) = 2.74588 3.49629 3.14356
# Velocity P-wave (km/s) = 4.31812 5.69321 5.05266
#
# Compressibility (1/GPa) = 0.05035701
#
# Stress axis : x y z
#
# Youngs Moduli (GPa) = 35.91321 118.18915 47.44051
#
# Poissons Ratio (x) = 0.05978 0.05441
# Poissons Ratio (y) = 0.01816 0.08830
# Poissons Ratio (z) = 0.04119 0.21997
#
# Static dielectric constant tensor:
#      x y z
#    x 1.923920 -0.013330 0.042060 
#    y -0.013330 1.926500 0.022110 
#    z 0.042060 0.022110 1.995880 
# 
# From -- ./inp_files/557625.got.cif
#   From: 2010.05.17/outbox.cif.g08.bks.cpg/sg2_279_cif.got.tgz:557625.got - 2010.06.03 11:33:40.
