data_PCOD9095887
_publ_section_title
;
Structure prediction by ZEFSAII (Michael W. Deem and Ramdas Pophale) SiO2 
 PCOD9095887
Probable space group: P -1
;
_chemical_formula_sum "Si O2"
_cell_formula_units_Z 16
_cell_length_a 8.709462
_cell_length_b 20.920542
_cell_length_c 9.479493
_cell_angle_alpha 60.339164
_cell_angle_beta 74.513410
_cell_angle_gamma 27.010740
_cell_volume 611.926662
_symmetry_space_group_name_H-M "P -1"
_symmetry_group_IT_number 2
_symmetry_cell_setting 'triclinic'
loop_
_space_group_symop_operation_xyz
x,y,z
-x,-y,-z
loop_
_atom_site_type_symbol
_atom_site_label
_atom_site_fract_x
_atom_site_fract_y
_atom_site_fract_z
Si Si1 0.536250 0.207401 0.720985
Si Si2 0.184706 0.579714 0.057108
Si Si3 0.453921 0.982122 0.378537
Si Si4 0.475337 0.483023 0.365603
Si Si5 0.140681 0.303745 0.272353
Si Si6 0.813669 0.923419 0.944617
Si Si7 0.880670 0.198325 0.714205
Si Si8 0.888981 0.544124 0.709469
O O1 0.649921 0.074925 0.830291
O O2 0.907377 0.102429 0.770323
O O3 0.322256 0.320798 0.506870
O O4 0.259838 0.351350 0.758005
O O5 0.138360 0.626928 0.178670
O O6 0.327064 0.436465 0.197553
O O7 0.500000 0.500000 0.000000
O O8 0.850001 0.713188 0.879802
O O9 0.511369 0.873656 0.530051
O O10 0.132554 0.117941 0.188930
O O11 0.787296 0.885899 0.320536
O O12 0.500000 0.000000 0.500000
O O13 0.500000 0.500000 0.500000
O O14 0.543934 0.368898 0.511682
O O15 0.810950 0.386300 0.314293
O O16 0.046629 0.424548 0.214879
O O17 0.500000 0.000000 0.000000
O O18 0.151006 0.779193 0.133699
#
# Coordination Sequence:
#
# PCOD9095887 Si02
#       8
#     2   2   2   2   2   2   2   2
#     4  11  22  39  66  99 124 161 210 265 318 367
#     4  10  22  38  57  88 127 166 201 250 312 371
#     4  10  22  40  62  89 123 171 213 248 307 376
#     4  10  20  35  60  92 126 160 208 256 313 371
#     4  10  21  38  60  89 128 165 200 259 315 370
#     4  10  22  41  65  89 125 166 210 261 309 368
#     4  10  21  39  62  90 128 160 204 264 313 362
#     4  11  22  38  68  95 127 163 208 260 320 377
#
# _framework density 26.146922
#
# number of rings (size 3 to 8) (size 9 to 14) (size 15 to 20)
#    0.000    1.750    2.500    1.500    1.750    3.000 
#    0.000    3.125    0.000    0.000    0.000    0.000 
#    0.000    0.000    0.000    0.000    0.000    0.000 
#
# Total GULP energy -89251.732705 kJ/mol
# GULP energy per Si atom -5578.233294 kJ/mol
# Density = 2.608741 g / cm^3
# Si number density = 26.146922 Si / 1000 Ang^3
#
#
#
# Elastic Constant Matrix: (Units=GPa)
#
#
# Indices 1 2 3 4 5 6 
#
# 1 128.5207 26.0099 57.7025 4.6350 -10.8372 34.3467
# 2 26.0099 62.3333 45.1067 6.7331 3.0478 18.9051
# 3 57.7025 45.1067 225.7366 23.7162 29.7379 16.7689
# 4 4.6350 6.7331 23.7162 30.6397 21.5945 4.9048
# 5 -10.8372 3.0478 29.7379 21.5945 60.6645 3.0741
# 6 34.3467 18.9051 16.7689 4.9048 3.0741 37.1039
#
#
#
# Elastic Compliance Matrix: (Units=1/GPa)
#
#
# Indices 1 2 3 4 5 6 
#
# 1 0.012212 -0.000045 -0.002822 -0.001196 0.004511 -0.010222
# 2 -0.000045 0.021620 -0.003681 -0.001664 0.001771 -0.009237
# 3 -0.002822 -0.003681 0.006309 -0.002014 -0.002803 0.002135
# 4 -0.001196 -0.001664 -0.002014 0.045892 -0.015381 -0.001927
# 5 0.004511 0.001771 -0.002803 -0.015381 0.024242 -0.003786
# 6 -0.010222 -0.009237 0.002135 -0.001927 -0.003786 0.040724
#
#
# Mechanical properties :
#
#
# Convention : Reuss Voigt Hill
#
# Bulk Modulus (GPa) = 36.97409 74.91433 55.94421
# Shear Modulus (GPa) = 28.88338 44.86636 36.87487
#
# Velocity S-wave (km/s) = 3.32724 4.14688 3.75946
# Velocity P-wave (km/s) = 5.37888 7.18626 6.34723
#
# Compressibility (1/GPa) = 0.02704597
#
# Stress axis : x y z
#
# Youngs Moduli (GPa) = 81.88483 46.25369 158.50200
#
# Poissons Ratio (x) = 0.00207 0.44729
# Poissons Ratio (y) = 0.00367 0.58342
# Poissons Ratio (z) = 0.23108 0.17025
#
# Static dielectric constant tensor:
#      x y z
#    x 2.106510 0.079720 0.022260 
#    y 0.079720 2.190290 -0.024240 
#    z 0.022260 -0.024240 2.130540 
# 
# From -- ./inp_files/189351.got.cif
#   From: 2010.05.17/outbox.cif.g08.bks.cpg/sg2_95_cif.got.tgz:189351.got - 2010.06.03 11:33:40.
