data_PCOD9095258
_publ_section_title
;
Structure prediction by ZEFSAII (Michael W. Deem and Ramdas Pophale) SiO2 
 PCOD9095258
Probable space group: P -1
;
_chemical_formula_sum "Si O2"
_cell_formula_units_Z 14
_cell_length_a 15.433976
_cell_length_b 6.712243
_cell_length_c 7.970363
_cell_angle_alpha 137.027991
_cell_angle_beta 94.403210
_cell_angle_gamma 84.598426
_cell_volume 560.295389
_symmetry_space_group_name_H-M "P -1"
_symmetry_group_IT_number 2
_symmetry_cell_setting 'triclinic'
loop_
_space_group_symop_operation_xyz
x,y,z
-x,-y,-z
loop_
_atom_site_type_symbol
_atom_site_label
_atom_site_fract_x
_atom_site_fract_y
_atom_site_fract_z
Si Si1 0.659053 0.772094 0.950421
Si Si2 0.743993 0.262209 0.330702
Si Si3 0.984682 0.330040 0.648339
Si Si4 0.550952 0.284276 0.740077
Si Si5 0.809628 0.366509 0.787352
Si Si6 0.922328 0.213016 0.192788
Si Si7 0.282223 0.091796 0.330937
O O1 0.584834 0.543899 0.785999
O O2 0.737989 0.620901 0.979862
O O3 0.691349 0.858044 0.825681
O O4 0.654150 0.095819 0.227832
O O5 0.776840 0.292772 0.546590
O O6 0.826319 0.110934 0.146722
O O7 0.729185 0.566255 0.413599
O O8 0.907442 0.461723 0.836315
O O9 0.947249 0.314812 0.445449
O O10 0.070256 0.509396 0.757390
O O11 0.000000 0.000000 0.500000
O O12 0.500000 0.000000 0.500000
O O13 0.638851 0.113081 0.712152
O O14 0.500000 0.500000 0.000000
O O15 0.800428 0.086401 0.733327
O O16 0.000000 0.000000 0.000000
#
# Coordination Sequence:
#
# PCOD9095258 Si02
#       7
#     2   2   2   2   2   2   2
#     4  10  23  41  67  93 124 168 213 264 324 392
#     4  10  21  38  63  90 125 168 220 267 322 388
#     4  10  20  35  56  82 123 168 213 268 322 377
#     4  11  28  47  72 102 140 171 211 272 336 399
#     4   9  20  38  57  87 125 167 216 269 321 384
#     4  10  21  36  56  88 126 165 215 271 324 373
#     4  10  23  41  67  93 125 170 217 262 322 397
#
# _framework density 24.986822
#
# number of rings (size 3 to 8) (size 9 to 14) (size 15 to 20)
#    0.000    2.000    0.000    1.714    8.000    6.286 
#    0.000    0.000    0.000    0.000    0.000    0.000 
#    0.000    0.000    0.000    0.000    0.000    0.000 
#
# Total GULP energy -77968.950797 kJ/mol
# GULP energy per Si atom -5569.210771 kJ/mol
# Density = 2.492995 g / cm^3
# Si number density = 24.986822 Si / 1000 Ang^3
#
#
#
# Elastic Constant Matrix: (Units=GPa)
#
#
# Indices 1 2 3 4 5 6 
#
# 1 70.0557 26.2132 28.2579 8.3566 10.8194 34.5119
# 2 26.2132 153.9448 28.7637 26.6567 19.8491 35.9678
# 3 28.2579 28.7637 73.5398 14.9729 3.6563 27.7757
# 4 8.3566 26.6567 14.9729 45.2833 11.4227 8.4475
# 5 10.8194 19.8491 3.6563 11.4227 42.2548 15.5529
# 6 34.5119 35.9678 27.7757 8.4475 15.5529 32.6452
#
#
#
# Elastic Compliance Matrix: (Units=1/GPa)
#
#
# Indices 1 2 3 4 5 6 
#
# 1 0.032108 0.003591 0.002402 -0.002498 0.006092 -0.042201
# 2 0.003591 0.009768 0.001323 -0.004312 0.001098 -0.015091
# 3 0.002402 0.001323 0.022543 -0.005900 0.007733 -0.025335
# 4 -0.002498 -0.004312 -0.005900 0.027255 -0.007476 0.008920
# 5 0.006092 0.001098 0.007733 -0.007476 0.033309 -0.028164
# 6 -0.042201 -0.015091 -0.025335 0.008920 -0.028164 0.124539
#
#
# Mechanical properties :
#
#
# Convention : Reuss Voigt Hill
#
# Bulk Modulus (GPa) = 12.64994 51.55665 32.10330
# Shear Modulus (GPa) = 19.13938 38.32371 28.73154
#
# Velocity S-wave (km/s) = 2.77063 3.92057 3.39465
# Velocity P-wave (km/s) = 3.91265 6.41660 5.31421
#
# Compressibility (1/GPa) = 0.07905176
#
# Stress axis : x y z
#
# Youngs Moduli (GPa) = 31.14457 102.37234 44.35873
#
# Poissons Ratio (x) = -0.36757 -0.10657
# Poissons Ratio (y) = -0.11183 -0.05868
# Poissons Ratio (z) = -0.07482 -0.13542
#
# Static dielectric constant tensor:
#      x y z
#    x 2.019000 0.037500 -0.010610 
#    y 0.037500 2.451770 -0.461220 
#    z -0.010610 -0.461220 2.801820 
# 
# From -- ./inp_files/7399.got.cif
#   From: 2010.05.17/outbox.cif.g08.bks.cpg/sg2_4_cif.got.tgz:7399.got - 2010.06.03 11:33:40.
