data_PCOD9095290
_publ_section_title
;
Structure prediction by ZEFSAII (Michael W. Deem and Ramdas Pophale) SiO2 
 PCOD9095290
Probable space group: P -1
;
_chemical_formula_sum "Si O2"
_cell_formula_units_Z 12
_cell_length_a 15.177885
_cell_length_b 5.619100
_cell_length_c 15.142311
_cell_angle_alpha 48.727306
_cell_angle_beta 150.012032
_cell_angle_gamma 120.943291
_cell_volume 479.481643
_symmetry_space_group_name_H-M "P -1"
_symmetry_group_IT_number 2
_symmetry_cell_setting 'triclinic'
loop_
_space_group_symop_operation_xyz
x,y,z
-x,-y,-z
loop_
_atom_site_type_symbol
_atom_site_label
_atom_site_fract_x
_atom_site_fract_y
_atom_site_fract_z
Si Si1 0.616008 0.914495 0.534858
Si Si2 0.601109 0.832119 0.266502
Si Si3 0.364145 0.783197 0.215325
Si Si4 0.006378 0.115455 0.080311
Si Si5 0.944356 0.042686 0.542302
Si Si6 0.711739 0.734960 0.183630
O O1 0.497000 0.992428 0.326472
O O2 0.656090 0.524516 0.666803
O O3 0.804261 0.037121 0.676426
O O4 0.500000 0.000000 0.500000
O O5 0.469379 0.646178 0.253056
O O6 0.645877 0.747784 0.224818
O O7 0.791648 0.824997 0.482305
O O8 0.459314 0.163173 0.051504
O O9 0.165732 0.974577 0.997031
O O10 0.000000 0.500000 0.000000
O O11 0.000000 0.000000 0.000000
O O12 0.825922 0.390084 0.357412
O O13 0.136641 0.031740 0.757513
O O14 0.000000 0.000000 0.500000
#
# Coordination Sequence:
#
# PCOD9095290 Si02
#       6
#     2   2   2   2   2   2
#     4  10  20  38  60  78 116 156 194 247 300 352
#     4  10  20  35  56  86 113 148 197 236 292 347
#     4  10  22  36  56  88 113 154 200 245 299 357
#     4  10  20  38  62  84 117 157 198 248 306 360
#     4   9  18  35  58  79 112 153 186 233 292 348
#     4   9  19  36  58  80 117 151 187 239 289 347
#
# _framework density 25.027024999999998
#
# number of rings (size 3 to 8) (size 9 to 14) (size 15 to 20)
#    0.000    2.333    1.667    0.500    0.000    2.667 
#    0.000    3.333    0.000    0.000    0.000    0.000 
#    0.000    0.000    0.000    0.000    0.000    0.000 
#
# Total GULP energy -66854.576899 kJ/mol
# GULP energy per Si atom -5571.214742 kJ/mol
# Density = 2.497006 g / cm^3
# Si number density = 25.027025 Si / 1000 Ang^3
#
#
#
# Elastic Constant Matrix: (Units=GPa)
#
#
# Indices 1 2 3 4 5 6 
#
# 1 139.7613 25.8525 71.8601 21.3865 38.8068 -6.5209
# 2 25.8525 66.6193 31.8378 8.1771 5.3068 -8.7826
# 3 71.8601 31.8378 130.1743 47.0027 44.3611 2.3009
# 4 21.3865 8.1771 47.0027 39.4516 7.7439 10.0660
# 5 38.8068 5.3068 44.3611 7.7439 51.0170 2.2909
# 6 -6.5209 -8.7826 2.3009 10.0660 2.2909 36.8685
#
#
#
# Elastic Compliance Matrix: (Units=1/GPa)
#
#
# Indices 1 2 3 4 5 6 
#
# 1 0.010976 -0.001687 -0.003735 -0.000770 -0.004912 0.002288
# 2 -0.001687 0.018295 -0.005774 0.002335 0.003887 0.003541
# 3 -0.003735 -0.005774 0.025072 -0.024790 -0.014780 0.004086
# 4 -0.000770 0.002335 -0.024790 0.055650 0.014085 -0.014102
# 5 -0.004912 0.003887 -0.014780 0.014085 0.033870 -0.004971
# 6 0.002288 0.003541 0.004086 -0.014102 -0.004971 0.032276
#
#
# Mechanical properties :
#
#
# Convention : Reuss Voigt Hill
#
# Bulk Modulus (GPa) = 31.29736 66.18396 48.74066
# Shear Modulus (GPa) = 23.90294 39.26770 31.58532
#
# Velocity S-wave (km/s) = 3.09380 3.96537 3.55639
# Velocity P-wave (km/s) = 5.02938 6.88970 6.03169
#
# Compressibility (1/GPa) = 0.03195157
#
# Stress axis : x y z
#
# Youngs Moduli (GPa) = 91.10890 54.65917 39.88590
#
# Poissons Ratio (x) = 0.09221 0.14897
# Poissons Ratio (y) = 0.15369 0.23028
# Poissons Ratio (z) = 0.34029 0.31558
#
# Static dielectric constant tensor:
#      x y z
#    x 1.992010 0.081190 0.021240 
#    y 0.081190 2.254420 -0.022060 
#    z 0.021240 -0.022060 2.132940 
# 
# From -- ./inp_files/24319.got.cif
#   From: 2010.05.17/outbox.cif.g08.bks.cpg/sg2_13_cif.got.tgz:24319.got - 2010.06.03 11:33:40.
