data_PCOD9095220
_publ_section_title
;
Structure prediction by ZEFSAII (Michael W. Deem and Ramdas Pophale) SiO2 
 PCOD9095220
Probable space group: P -1
;
_chemical_formula_sum "Si O2"
_cell_formula_units_Z 16
_cell_length_a 19.048448
_cell_length_b 9.120289
_cell_length_c 9.239054
_cell_angle_alpha 136.608656
_cell_angle_beta 43.789376
_cell_angle_gamma 120.822788
_cell_volume 762.794130
_symmetry_space_group_name_H-M "P -1"
_symmetry_group_IT_number 2
_symmetry_cell_setting 'triclinic'
loop_
_space_group_symop_operation_xyz
x,y,z
-x,-y,-z
loop_
_atom_site_type_symbol
_atom_site_label
_atom_site_fract_x
_atom_site_fract_y
_atom_site_fract_z
Si Si1 0.895892 0.025692 0.932525
Si Si2 0.642032 0.643206 0.976377
Si Si3 0.281678 0.927536 0.973658
Si Si4 0.216160 0.001498 0.434912
Si Si5 0.946729 0.637694 0.053162
Si Si6 0.054557 0.657433 0.420817
Si Si7 0.596794 0.253570 0.582768
Si Si8 0.710645 0.870848 0.282899
O O1 0.967145 0.831276 0.631763
O O2 0.817761 0.944027 0.109754
O O3 0.827834 0.114277 0.964719
O O4 0.966636 0.205246 0.020611
O O5 0.521435 0.689462 0.197795
O O6 0.687775 0.651167 0.076134
O O7 0.691570 0.834738 0.950497
O O8 0.656355 0.427802 0.711015
O O9 0.360583 0.772033 0.661076
O O10 0.278254 0.924205 0.147416
O O11 0.145758 0.804351 0.445332
O O12 0.281771 0.095058 0.534515
O O13 0.141276 0.200208 0.644206
O O14 0.910752 0.486553 0.869818
O O15 0.000000 0.500000 0.000000
O O16 0.000000 0.500000 0.500000
O O17 0.624091 0.031635 0.462922
#
# Coordination Sequence:
#
# PCOD9095220 Si02
#       8
#     2   2   2   2   2   2   2   2
#     4   9  20  36  53  78 102 144 201 230 260 325
#     4   9  19  38  62  83 104 139 184 223 270 336
#     4  10  20  35  56  80 112 141 177 230 276 321
#     4  11  24  36  51  86 118 144 187 230 276 333
#     4  11  22  36  54  74 110 154 189 230 275 316
#     4  11  22  36  54  74 110 154 189 230 275 316
#     4   9  19  38  62  83 104 139 184 223 270 336
#     4  10  20  35  56  80 112 141 177 230 276 321
#
# _framework density 20.975515000000001
#
# number of rings (size 3 to 8) (size 9 to 14) (size 15 to 20)
#    0.000    2.250    0.000    4.500    0.000   14.000 
#    0.000    2.500    0.000    3.000    0.000    0.000 
#    0.000    0.000    0.000    0.000    0.000    0.000 
#
# Total GULP energy -89324.837916 kJ/mol
# GULP energy per Si atom -5582.802370 kJ/mol
# Density = 2.092777 g / cm^3
# Si number density = 20.975515 Si / 1000 Ang^3
#
#
#
# Elastic Constant Matrix: (Units=GPa)
#
#
# Indices 1 2 3 4 5 6 
#
# 1 81.0639 18.8868 22.6206 -7.9039 33.5045 6.7969
# 2 18.8868 44.0468 18.8089 6.1240 14.6645 5.4561
# 3 22.6206 18.8089 84.9536 -1.8440 26.1990 -4.8952
# 4 -7.9039 6.1240 -1.8440 29.8955 0.5548 11.4106
# 5 33.5045 14.6645 26.1990 0.5548 42.6684 4.6076
# 6 6.7969 5.4561 -4.8952 11.4106 4.6076 25.1733
#
#
#
# Elastic Compliance Matrix: (Units=1/GPa)
#
#
# Indices 1 2 3 4 5 6 
#
# 1 0.020617 -0.004554 -0.000374 0.008980 -0.013843 -0.006189
# 2 -0.004554 0.028824 -0.004438 -0.006415 -0.003266 -0.002375
# 3 -0.000374 -0.004438 0.015808 -0.000279 -0.008512 0.005821
# 4 0.008980 -0.006415 -0.000279 0.045204 -0.002992 -0.021031
# 5 -0.013843 -0.003266 -0.008512 -0.002992 0.041058 -0.003369
# 6 -0.006189 -0.002375 0.005821 -0.021031 -0.003369 0.053192
#
#
# Mechanical properties :
#
#
# Convention : Reuss Voigt Hill
#
# Bulk Modulus (GPa) = 21.49762 36.74411 29.12087
# Shear Modulus (GPa) = 20.92565 29.53061 25.22813
#
# Velocity S-wave (km/s) = 3.16194 3.75622 3.47182
# Velocity P-wave (km/s) = 4.85816 6.03058 5.47584
#
# Compressibility (1/GPa) = 0.04651678
#
# Stress axis : x y z
#
# Youngs Moduli (GPa) = 48.50310 34.69288 63.25975
#
# Poissons Ratio (x) = 0.15798 0.02367
# Poissons Ratio (y) = 0.22087 0.28076
# Poissons Ratio (z) = 0.01815 0.15398
#
# Static dielectric constant tensor:
#      x y z
#    x 1.780430 0.003640 0.017640 
#    y 0.003640 1.776180 0.021050 
#    z 0.017640 0.021050 1.765170 
# 
# From -- ./inp_files/329515.got.cif
#   From: 2010.05.17/outbox.cif.g08.bks.cpg/sg2_165_cif.got.tgz:329515.got - 2010.06.03 11:33:40.
