data_PCOD9095785
_publ_section_title
;
Structure prediction by ZEFSAII (Michael W. Deem and Ramdas Pophale) SiO2 
 PCOD9095785
Probable space group: P -1
;
_chemical_formula_sum "Si O2"
_cell_formula_units_Z 15
_cell_length_a 24.483036
_cell_length_b 9.198900
_cell_length_c 17.570092
_cell_angle_alpha 137.642514
_cell_angle_beta 12.674353
_cell_angle_gamma 134.216768
_cell_volume 577.481985
_symmetry_space_group_name_H-M "P -1"
_symmetry_group_IT_number 2
_symmetry_cell_setting 'triclinic'
loop_
_space_group_symop_operation_xyz
x,y,z
-x,-y,-z
loop_
_atom_site_type_symbol
_atom_site_label
_atom_site_fract_x
_atom_site_fract_y
_atom_site_fract_z
Si Si1 0.772455 0.037833 0.115092
Si Si2 0.500000 0.000000 0.000000
Si Si3 0.447921 0.506063 0.382421
Si Si4 0.209711 0.709884 0.474538
Si Si5 0.699911 0.149340 0.094911
Si Si6 0.801783 0.587808 0.075856
Si Si7 0.733973 0.428788 0.813201
Si Si8 0.587412 0.015757 0.044334
O O1 0.777911 0.296080 0.220307
O O2 0.783318 0.002776 0.996517
O O3 0.500000 0.000000 0.500000
O O4 0.974926 0.874941 0.821557
O O5 0.320889 0.078031 0.197976
O O6 0.684802 0.178058 0.793173
O O7 0.661026 0.537091 0.168196
O O8 0.424883 0.249169 0.324596
O O9 0.544164 0.537926 0.178619
O O10 0.296129 0.533933 0.222187
O O11 0.418409 0.861707 0.254967
O O12 0.081822 0.622691 0.688116
O O13 0.792930 0.383008 0.063017
O O14 0.392974 0.215254 0.546404
O O15 0.765312 0.062717 0.888576
O O16 0.000000 0.500000 0.500000
#
# Coordination Sequence:
#
# PCOD9095785 Si02
#       8
#     2   1   2   2   2   2   2   2
#     4  11  19  34  52  82 108 138 174 232 265 322
#     4   8  18  30  50  80 108 128 188 232 258 304
#     4   9  17  32  52  73 109 141 176 209 281 319
#     4  11  20  31  55  85 106 127 193 229 258 310
#     4   9  18  32  53  70 110 145 173 207 286 318
#     4   9  16  31  49  75  99 140 177 216 246 335
#     4  10  16  30  52  80 101 143 181 227 254 330
#     4   9  19  33  52  80 105 143 177 225 262 325
#
# _framework density 25.974837000000001
#
# number of rings (size 3 to 8) (size 9 to 14) (size 15 to 20)
#    0.000    2.400    4.000    0.800    0.000    1.067 
#    0.000    0.000    0.000   12.800    0.000   14.000 
#    0.000    0.000    0.000    0.000    0.000    0.000 
#
# Total GULP energy -83543.483407 kJ/mol
# GULP energy per Si atom -5569.565560 kJ/mol
# Density = 2.591572 g / cm^3
# Si number density = 25.974837 Si / 1000 Ang^3
#
#
#
# Elastic Constant Matrix: (Units=GPa)
#
#
# Indices 1 2 3 4 5 6 
#
# 1 77.1411 13.2195 30.3512 4.1626 26.4430 -12.0377
# 2 13.2195 110.3274 37.6002 -13.4580 -8.5120 -22.3847
# 3 30.3512 37.6002 77.3980 -2.8914 22.0300 -9.1064
# 4 4.1626 -13.4580 -2.8914 34.5114 -6.9500 5.4027
# 5 26.4430 -8.5120 22.0300 -6.9500 37.0748 -4.6531
# 6 -12.0377 -22.3847 -9.1064 5.4027 -4.6531 36.0331
#
#
#
# Elastic Compliance Matrix: (Units=1/GPa)
#
#
# Indices 1 2 3 4 5 6 
#
# 1 0.020390 -0.003048 -0.002126 -0.007388 -0.014917 0.003562
# 2 -0.003048 0.016080 -0.009402 0.007487 0.013766 0.007250
# 3 -0.002126 -0.009402 0.022130 -0.004196 -0.014861 -0.002248
# 4 -0.007388 0.007487 -0.004196 0.035994 0.015951 -0.002214
# 5 -0.014917 0.013766 -0.014861 0.015951 0.053130 0.004282
# 6 0.003562 0.007250 -0.002248 -0.002214 0.004282 0.033763
#
#
# Mechanical properties :
#
#
# Convention : Reuss Voigt Hill
#
# Bulk Modulus (GPa) = 33.95803 47.46759 40.71281
# Shear Modulus (GPa) = 22.68043 33.77022 28.22533
#
# Velocity S-wave (km/s) = 2.95815 3.60962 3.30000
# Velocity P-wave (km/s) = 4.97688 5.97383 5.49800
#
# Compressibility (1/GPa) = 0.02944811
#
# Stress axis : x y z
#
# Youngs Moduli (GPa) = 49.04355 62.19057 45.18762
#
# Poissons Ratio (x) = 0.18954 0.09608
# Poissons Ratio (y) = 0.14947 0.42484
# Poissons Ratio (z) = 0.10428 0.58470
#
# Static dielectric constant tensor:
#      x y z
#    x 2.162070 0.140560 0.092350 
#    y 0.140560 2.155700 0.116380 
#    z 0.092350 0.116380 2.158430 
# 
# From -- ./inp_files/540281.got.cif
#   From: 2010.05.17/outbox.cif.g08.bks.cpg/sg2_271_cif.got.tgz:540281.got - 2010.06.03 11:33:40.
