data_PCOD9095304
_publ_section_title
;
Structure prediction by ZEFSAII (Michael W. Deem and Ramdas Pophale) SiO2 
 PCOD9095304
Probable space group: P -1
;
_chemical_formula_sum "Si O2"
_cell_formula_units_Z 16
_cell_length_a 5.038649
_cell_length_b 19.853225
_cell_length_c 10.300602
_cell_angle_alpha 54.108285
_cell_angle_beta 91.662761
_cell_angle_gamma 110.557148
_cell_volume 760.065101
_symmetry_space_group_name_H-M "P -1"
_symmetry_group_IT_number 2
_symmetry_cell_setting 'triclinic'
loop_
_space_group_symop_operation_xyz
x,y,z
-x,-y,-z
loop_
_atom_site_type_symbol
_atom_site_label
_atom_site_fract_x
_atom_site_fract_y
_atom_site_fract_z
Si Si1 0.751600 0.483962 0.189112
Si Si2 0.869568 0.619143 0.636432
Si Si3 0.375278 0.991478 0.153849
Si Si4 0.242472 0.154477 0.933067
Si Si5 0.673620 0.636621 0.885114
Si Si6 0.288339 0.922905 0.679261
Si Si7 0.369759 0.192093 0.181824
Si Si8 0.206483 0.802548 0.282777
O O1 0.007227 0.458032 0.267901
O O2 0.474747 0.430785 0.338141
O O3 0.630684 0.436273 0.100272
O O4 0.788073 0.586382 0.050621
O O5 0.046065 0.702682 0.452221
O O6 0.882567 0.658939 0.737474
O O7 0.604275 0.040905 0.214494
O O8 0.239357 0.882787 0.295798
O O9 0.172911 0.047613 0.080946
O O10 0.500000 0.000000 0.000000
O O11 0.485658 0.183334 0.790999
O O12 0.984185 0.178798 0.853251
O O13 0.364166 0.204788 0.012613
O O14 0.622122 0.720762 0.842372
O O15 0.367439 0.836542 0.754592
O O16 0.943842 0.891068 0.695812
O O17 0.500000 0.000000 0.500000
#
# Coordination Sequence:
#
# PCOD9095304 Si02
#       8
#     2   2   2   2   2   2   2   2
#     4   9  20  36  57  88 113 142 183 231 289 346
#     4  10  20  35  56  90 114 135 183 244 290 324
#     4   9  20  38  58  78 110 157 198 227 273 334
#     4  10  21  39  54  82 110 153 197 228 272 331
#     4   9  22  35  63  83 113 147 188 224 290 351
#     4  11  25  39  55  86 123 149 188 245 291 328
#     4  11  23  39  60  79 117 153 191 223 282 360
#     4  11  21  35  61  82 110 146 195 243 270 324
#
# _framework density 21.050829
#
# number of rings (size 3 to 8) (size 9 to 14) (size 15 to 20)
#    0.750    1.250    0.000    4.125    3.500    3.000 
#    2.250    0.000    0.000    4.500    0.000    0.000 
#    0.000    0.000    0.000    0.000    0.000    0.000 
#
# Total GULP energy -89272.080989 kJ/mol
# GULP energy per Si atom -5579.505062 kJ/mol
# Density = 2.100292 g / cm^3
# Si number density = 21.050829 Si / 1000 Ang^3
#
#
#
# Elastic Constant Matrix: (Units=GPa)
#
#
# Indices 1 2 3 4 5 6 
#
# 1 59.1566 -1.3005 -2.3498 8.9919 0.2771 -9.7425
# 2 -1.3005 35.6693 2.2801 5.4880 1.4606 -14.7876
# 3 -2.3498 2.2801 79.0813 -3.0986 -12.2702 -8.4412
# 4 8.9919 5.4880 -3.0986 10.5554 -4.5566 -1.3525
# 5 0.2771 1.4606 -12.2702 -4.5566 25.2603 -3.0857
# 6 -9.7425 -14.7876 -8.4412 -1.3525 -3.0857 20.7712
#
#
#
# Elastic Compliance Matrix: (Units=1/GPa)
#
#
# Indices 1 2 3 4 5 6 
#
# 1 0.024217 0.012626 0.000865 -0.025842 -0.002968 0.018576
# 2 0.012626 0.049904 0.001306 -0.032792 -0.003501 0.039326
# 3 0.000865 0.001306 0.015625 0.008872 0.010301 0.009793
# 4 -0.025842 -0.032792 0.008872 0.147499 0.030938 -0.017660
# 5 -0.002968 -0.003501 0.010301 0.030938 0.051627 0.009986
# 6 0.018576 0.039326 0.009793 -0.017660 0.009986 0.089167
#
#
# Mechanical properties :
#
#
# Convention : Reuss Voigt Hill
#
# Bulk Modulus (GPa) = 8.37930 19.01852 13.69891
# Shear Modulus (GPa) = 12.87912 23.00252 17.94082
#
# Velocity S-wave (km/s) = 2.47616 3.30921 2.92252
# Velocity P-wave (km/s) = 3.48774 4.86367 4.23200
#
# Compressibility (1/GPa) = 0.11934170
#
# Stress axis : x y z
#
# Youngs Moduli (GPa) = 41.29258 20.03833 64.00162
#
# Poissons Ratio (x) = -0.25301 -0.05539
# Poissons Ratio (y) = -0.52137 -0.08358
# Poissons Ratio (z) = -0.03573 -0.02617
#
# Static dielectric constant tensor:
#      x y z
#    x 1.772260 0.019100 -0.029670 
#    y 0.019100 1.769320 -0.024540 
#    z -0.029670 -0.024540 1.784350 
# 
# From -- ./inp_files/368964.got.cif
#   From: 2010.05.17/outbox.cif.g08.bks.cpg/sg2_185_cif.got.tgz:368964.got - 2010.06.03 11:33:40.
