data_PCOD9095016
_publ_section_title
;
Structure prediction by ZEFSAII (Michael W. Deem and Ramdas Pophale) SiO2 
 PCOD9095016
Probable space group: P -1
;
_chemical_formula_sum "Si O2"
_cell_formula_units_Z 14
_cell_length_a 10.813999
_cell_length_b 10.198450
_cell_length_c 14.389255
_cell_angle_alpha 83.399805
_cell_angle_beta 84.983292
_cell_angle_gamma 27.330174
_cell_volume 723.385993
_symmetry_space_group_name_H-M "P -1"
_symmetry_group_IT_number 2
_symmetry_cell_setting 'triclinic'
loop_
_space_group_symop_operation_xyz
x,y,z
-x,-y,-z
loop_
_atom_site_type_symbol
_atom_site_label
_atom_site_fract_x
_atom_site_fract_y
_atom_site_fract_z
Si Si1 0.824564 0.339265 0.520466
Si Si2 0.474723 0.826555 0.217090
Si Si3 0.810580 0.816399 0.077479
Si Si4 0.253096 0.301849 0.439138
Si Si5 0.034278 0.437633 0.243759
Si Si6 0.690573 0.630646 0.026959
Si Si7 0.712845 0.163979 0.601760
O O1 0.744486 0.542057 0.568216
O O2 0.838217 0.192385 0.591527
O O3 0.583519 0.547312 0.446072
O O4 0.096305 0.096338 0.461373
O O5 0.568796 0.680929 0.123560
O O6 0.327970 0.867213 0.294609
O O7 0.753887 0.620916 0.259551
O O8 0.250999 0.152917 0.190020
O O9 0.750121 0.724939 0.050313
O O10 0.938348 0.662121 0.181196
O O11 0.030020 0.678830 0.009018
O O12 0.531084 0.154575 0.056868
O O13 0.195028 0.309523 0.338275
O O14 0.000000 0.500000 0.500000
O O15 0.500000 0.000000 0.500000
#
# Coordination Sequence:
#
# PCOD9095016 Si02
#       7
#     2   2   2   2   2   2   2
#     4  10  21  36  52  70  96 131 165 201 246 283
#     4  11  19  30  48  74  98 124 161 200 244 286
#     4   9  16  28  41  64  96 126 154 186 239 294
#     4  12  23  35  51  73 101 131 164 201 241 293
#     4  11  21  30  47  71 100 131 158 194 243 294
#     4   9  16  26  44  65  94 124 152 195 238 285
#     4  10  20  35  53  71  95 127 166 208 241 284
#
# _framework density 19.353428000000001
#
# number of rings (size 3 to 8) (size 9 to 14) (size 15 to 20)
#    0.000    1.714    0.000    9.429    0.000    0.000 
#    0.000    0.000    0.000    0.000    0.000    2.000 
#    0.000    0.000    0.000    8.857    0.000    0.000 
#
# Total GULP energy -78073.417681 kJ/mol
# GULP energy per Si atom -5576.672692 kJ/mol
# Density = 1.930938 g / cm^3
# Si number density = 19.353428 Si / 1000 Ang^3
#
#
#
# Elastic Constant Matrix: (Units=GPa)
#
#
# Indices 1 2 3 4 5 6 
#
# 1 47.7186 16.0872 25.1994 3.0804 -13.6487 2.3230
# 2 16.0872 111.7455 27.6404 -5.4468 -4.3444 -16.0930
# 3 25.1994 27.6404 101.8132 -11.6321 -22.6723 -10.5473
# 4 3.0804 -5.4468 -11.6321 32.7516 -11.5059 -4.3090
# 5 -13.6487 -4.3444 -22.6723 -11.5059 24.9867 5.8012
# 6 2.3230 -16.0930 -10.5473 -4.3090 5.8012 22.0791
#
#
#
# Elastic Compliance Matrix: (Units=1/GPa)
#
#
# Indices 1 2 3 4 5 6 
#
# 1 0.029386 -0.004458 -0.004788 -0.002370 0.012728 -0.012435
# 2 -0.004458 0.011243 -0.001467 0.001895 -0.003061 0.009137
# 3 -0.004788 -0.001467 0.017526 0.013476 0.017908 0.005731
# 4 -0.002370 0.001895 0.013476 0.048048 0.031244 0.009236
# 5 0.012728 -0.003061 0.017908 0.031244 0.079345 -0.009766
# 6 -0.012435 0.009137 0.005731 0.009236 -0.009766 0.060366
#
#
# Mechanical properties :
#
#
# Convention : Reuss Voigt Hill
#
# Bulk Modulus (GPa) = 27.22590 44.34792 35.78691
# Shear Modulus (GPa) = 17.88369 28.78683 23.33526
#
# Velocity S-wave (km/s) = 3.04313 3.86090 3.47615
# Velocity P-wave (km/s) = 5.14255 6.54522 5.88582
#
# Compressibility (1/GPa) = 0.03672973
#
# Stress axis : x y z
#
# Youngs Moduli (GPa) = 34.02942 88.94568 57.05681
#
# Poissons Ratio (x) = 0.39650 0.27317
# Poissons Ratio (y) = 0.15170 0.08373
# Poissons Ratio (z) = 0.16292 0.13052
#
# Static dielectric constant tensor:
#      x y z
#    x 1.724750 0.012760 -0.010500 
#    y 0.012760 1.697400 0.002670 
#    z -0.010500 0.002670 1.725690 
# 
# From -- ./inp_files/519708.got.cif
#   From: 2010.05.17/outbox.cif.g08.bks.cpg/sg2_260_cif.got.tgz:519708.got - 2010.06.03 11:33:40.
