data_PCOD9095254
_publ_section_title
;
Structure prediction by ZEFSAII (Michael W. Deem and Ramdas Pophale) SiO2 
 PCOD9095254
Probable space group: P -1
;
_chemical_formula_sum "Si O2"
_cell_formula_units_Z 14
_cell_length_a 7.166906
_cell_length_b 16.154337
_cell_length_c 8.931701
_cell_angle_alpha 58.270414
_cell_angle_beta 89.276838
_cell_angle_gamma 116.076721
_cell_volume 748.690730
_symmetry_space_group_name_H-M "P -1"
_symmetry_group_IT_number 2
_symmetry_cell_setting 'triclinic'
loop_
_space_group_symop_operation_xyz
x,y,z
-x,-y,-z
loop_
_atom_site_type_symbol
_atom_site_label
_atom_site_fract_x
_atom_site_fract_y
_atom_site_fract_z
Si Si1 0.730504 0.743213 0.787916
Si Si2 0.518194 0.241025 0.502203
Si Si3 0.276850 0.578650 0.091705
Si Si4 0.152672 0.152045 0.002666
Si Si5 0.681731 0.976132 0.077975
Si Si6 0.068993 0.670232 0.793795
Si Si7 0.489420 0.613345 0.367541
O O1 0.655687 0.770895 0.608256
O O2 0.937395 0.730917 0.773508
O O3 0.512632 0.628498 0.961366
O O4 0.791099 0.831057 0.839222
O O5 0.421404 0.123977 0.703613
O O6 0.736201 0.269996 0.384442
O O7 0.562030 0.341356 0.523236
O O8 0.317867 0.587766 0.259626
O O9 0.110705 0.451475 0.158819
O O10 0.175853 0.650912 0.959038
O O11 0.237217 0.074499 0.004996
O O12 0.285075 0.276451 0.802534
O O13 0.895655 0.088280 0.033074
O O14 0.500000 0.000000 0.000000
O O15 0.500000 0.500000 0.500000
#
# Coordination Sequence:
#
# PCOD9095254 Si02
#       7
#     2   2   2   2   2   2   2
#     4  10  20  38  58  81 115 148 188 236 284 335
#     4  10  23  37  56  90 115 144 198 235 276 345
#     4   9  20  35  54  82 115 155 199 223 271 349
#     4   9  22  40  61  84 110 152 194 228 282 342
#     4  10  22  42  62  82 113 149 190 239 282 332
#     4  10  20  35  56  82 117 155 185 235 285 326
#     4  10  20  37  60  86 119 152 186 236 285 334
#
# _framework density 18.699310000000001
#
# number of rings (size 3 to 8) (size 9 to 14) (size 15 to 20)
#    0.000    2.286    0.000    1.286    0.000   16.000 
#    0.000    2.857    0.000    0.000    0.000    0.000 
#    0.000    0.000    0.000    0.000    0.000    0.000 
#
# Total GULP energy -78130.636332 kJ/mol
# GULP energy per Si atom -5580.759738 kJ/mol
# Density = 1.865675 g / cm^3
# Si number density = 18.699310 Si / 1000 Ang^3
#
#
#
# Elastic Constant Matrix: (Units=GPa)
#
#
# Indices 1 2 3 4 5 6 
#
# 1 123.7801 47.7989 53.8561 16.1760 6.1905 8.8598
# 2 47.7989 90.8949 55.7690 16.2432 9.5022 19.3077
# 3 53.8561 55.7690 83.1856 30.6809 15.8319 -0.3931
# 4 16.1760 16.2432 30.6809 32.9505 6.6775 3.0723
# 5 6.1905 9.5022 15.8319 6.6775 10.9944 2.0712
# 6 8.8598 19.3077 -0.3931 3.0723 2.0712 22.8747
#
#
#
# Elastic Compliance Matrix: (Units=1/GPa)
#
#
# Indices 1 2 3 4 5 6 
#
# 1 0.012322 -0.000194 -0.010280 0.002635 0.007529 -0.005821
# 2 -0.000194 0.029936 -0.025659 0.009691 0.010553 -0.027891
# 3 -0.010280 -0.025659 0.053554 -0.027446 -0.038844 0.033763
# 4 0.002635 0.009691 -0.027446 0.051021 0.001819 -0.016690
# 5 0.007529 0.010553 -0.038844 0.001819 0.137166 -0.025155
# 6 -0.005821 -0.027891 0.033763 -0.016690 -0.025155 0.074612
#
#
# Mechanical properties :
#
#
# Convention : Reuss Voigt Hill
#
# Bulk Modulus (GPa) = 42.46821 68.07873 55.27347
# Shear Modulus (GPa) = 11.39663 22.72635 17.06149
#
# Velocity S-wave (km/s) = 2.47142 3.48998 3.02389
# Velocity P-wave (km/s) = 5.55916 7.26127 6.46647
#
# Compressibility (1/GPa) = 0.02354702
#
# Stress axis : x y z
#
# Youngs Moduli (GPa) = 81.15371 33.40423 18.67270
#
# Poissons Ratio (x) = 0.00648 0.19195
# Poissons Ratio (y) = 0.01575 0.47912
# Poissons Ratio (z) = 0.83426 0.85711
#
# Static dielectric constant tensor:
#      x y z
#    x 1.626140 0.004670 -0.012500 
#    y 0.004670 1.642700 0.000250 
#    z -0.012500 0.000250 1.646910 
# 
# From -- ./inp_files/27022.got.cif
#   From: 2010.05.17/outbox.cif.g08.bks.cpg/sg2_14_cif.got.tgz:27022.got - 2010.06.03 11:33:40.
