data_PCOD9095425
_publ_section_title
;
Structure prediction by ZEFSAII (Michael W. Deem and Ramdas Pophale) SiO2 
 PCOD9095425
Probable space group: P -1
;
_chemical_formula_sum "Si O2"
_cell_formula_units_Z 16
_cell_length_a 9.445057
_cell_length_b 16.904606
_cell_length_c 17.791806
_cell_angle_alpha 156.966005
_cell_angle_beta 51.997250
_cell_angle_gamma 139.508653
_cell_volume 680.982966
_symmetry_space_group_name_H-M "P -1"
_symmetry_group_IT_number 2
_symmetry_cell_setting 'triclinic'
loop_
_space_group_symop_operation_xyz
x,y,z
-x,-y,-z
loop_
_atom_site_type_symbol
_atom_site_label
_atom_site_fract_x
_atom_site_fract_y
_atom_site_fract_z
Si Si1 0.519460 0.878398 0.132748
Si Si2 0.105853 0.584702 0.911701
Si Si3 0.117986 0.067829 0.350213
Si Si4 0.404518 0.218220 0.532378
Si Si5 0.710823 0.033866 0.500559
Si Si6 0.239592 0.862130 0.878829
Si Si7 0.412369 0.630033 0.713307
Si Si8 0.811425 0.754935 0.899445
O O1 0.502532 0.065514 0.350100
O O2 0.651881 0.032312 0.146775
O O3 0.258292 0.636484 0.981025
O O4 0.683021 0.813513 0.050177
O O5 0.256937 0.607620 0.813561
O O6 0.862294 0.303052 0.734552
O O7 0.091903 0.817573 0.115871
O O8 0.192282 0.108606 0.450177
O O9 0.329739 0.340680 0.480847
O O10 0.889300 0.042069 0.395051
O O11 0.602232 0.519956 0.713450
O O12 0.362310 0.186008 0.606563
O O13 0.500000 0.000000 0.500000
O O14 0.330166 0.711778 0.744185
O O15 0.963696 0.680817 0.816473
O O16 0.336452 0.112431 0.118802
O O17 0.000000 0.000000 0.000000
#
# Coordination Sequence:
#
# PCOD9095425 Si02
#       8
#     2   2   2   2   2   2   2   2
#     4   9  20  39  59  88 119 153 202 244 284 355
#     4   9  20  39  62  84 115 153 198 243 290 355
#     4  10  21  40  65  85 117 156 205 239 295 358
#     4  11  23  39  63  89 116 160 198 243 295 354
#     4  11  25  41  61  87 124 151 193 253 304 352
#     4   9  18  34  59  84 125 161 194 242 294 343
#     4   9  18  37  58  87 121 160 196 242 289 348
#     4  10  20  35  57  87 121 156 189 241 295 342
#
# _framework density 23.495446000000001
#
# number of rings (size 3 to 8) (size 9 to 14) (size 15 to 20)
#    0.000    2.250    0.000    3.375    3.500    5.500 
#    2.250   13.750    0.000    0.000    0.000    0.000 
#    0.000    0.000    0.000    0.000    0.000    0.000 
#
# Total GULP energy -89332.874072 kJ/mol
# GULP energy per Si atom -5583.304630 kJ/mol
# Density = 2.344197 g / cm^3
# Si number density = 23.495446 Si / 1000 Ang^3
#
#
#
# Elastic Constant Matrix: (Units=GPa)
#
#
# Indices 1 2 3 4 5 6 
#
# 1 68.5336 26.5671 6.6461 6.6565 -8.8829 24.1050
# 2 26.5671 52.2247 27.1991 4.4188 -0.2789 29.9674
# 3 6.6461 27.1991 108.0979 5.0001 -12.9472 15.5089
# 4 6.6565 4.4188 5.0001 30.5881 4.0087 -9.8981
# 5 -8.8829 -0.2789 -12.9472 4.0087 21.4514 0.6713
# 6 24.1050 29.9674 15.5089 -9.8981 0.6713 41.2398
#
#
#
# Elastic Compliance Matrix: (Units=1/GPa)
#
#
# Indices 1 2 3 4 5 6 
#
# 1 0.024950 -0.004413 0.004426 -0.012901 0.015870 -0.016396
# 2 -0.004413 0.042248 -0.005700 -0.013490 -0.001284 -0.029194
# 3 0.004426 -0.005700 0.012543 -0.005022 0.010410 -0.004537
# 4 -0.012901 -0.013490 -0.005022 0.051061 -0.019086 0.031798
# 5 0.015870 -0.001284 0.010410 -0.019086 0.063581 -0.017874
# 6 -0.016396 -0.029194 -0.004537 0.031798 -0.017874 0.064675
#
#
# Mechanical properties :
#
#
# Convention : Reuss Voigt Hill
#
# Bulk Modulus (GPa) = 14.62689 38.85341 26.74015
# Shear Modulus (GPa) = 17.05206 29.88544 23.46875
#
# Velocity S-wave (km/s) = 2.69692 3.57033 3.16391
# Velocity P-wave (km/s) = 3.99208 5.79386 4.97522
#
# Compressibility (1/GPa) = 0.06836725
#
# Stress axis : x y z
#
# Youngs Moduli (GPa) = 40.08087 23.66971 79.72548
#
# Poissons Ratio (x) = 0.10444 -0.35288
# Poissons Ratio (y) = 0.17686 0.45446
# Poissons Ratio (z) = -0.17740 0.13492
#
# Static dielectric constant tensor:
#      x y z
#    x 1.966410 -0.001140 -0.019270 
#    y -0.001140 1.941580 0.019360 
#    z -0.019270 0.019360 1.941650 
# 
# From -- ./inp_files/608580.got.cif
#   From: 2010.05.17/outbox.cif.g08.bks.cpg/sg2_305_cif.got.tgz:608580.got - 2010.06.03 11:33:40.
