data_PCOD9095182
_publ_section_title
;
Structure prediction by ZEFSAII (Michael W. Deem and Ramdas Pophale) SiO2 
 PCOD9095182
Probable space group: P -1
;
_chemical_formula_sum "Si O2"
_cell_formula_units_Z 14
_cell_length_a 9.926701
_cell_length_b 14.606989
_cell_length_c 10.224419
_cell_angle_alpha 114.064179
_cell_angle_beta 97.840855
_cell_angle_gamma 137.205400
_cell_volume 654.718267
_symmetry_space_group_name_H-M "P -1"
_symmetry_group_IT_number 2
_symmetry_cell_setting 'triclinic'
loop_
_space_group_symop_operation_xyz
x,y,z
-x,-y,-z
loop_
_atom_site_type_symbol
_atom_site_label
_atom_site_fract_x
_atom_site_fract_y
_atom_site_fract_z
Si Si1 0.586110 0.746168 0.716881
Si Si2 0.872939 0.963604 0.136744
Si Si3 0.545099 0.245938 0.817831
Si Si4 0.408136 0.041943 0.442154
Si Si5 0.001624 0.277106 0.274687
Si Si6 0.724066 0.266807 0.370991
Si Si7 0.059163 0.685590 0.008378
O O1 0.307547 0.506756 0.503426
O O2 0.510595 0.814228 0.767650
O O3 0.822413 0.889723 0.720956
O O4 0.722648 0.805635 0.907800
O O5 0.956157 0.130324 0.201354
O O6 0.657515 0.834440 0.150876
O O7 0.361447 0.088067 0.579583
O O8 0.778176 0.467262 0.913751
O O9 0.719402 0.264229 0.914946
O O10 0.670358 0.241032 0.502635
O O11 0.500000 0.000000 0.500000
O O12 0.172776 0.854717 0.202139
O O13 0.977465 0.304905 0.140972
O O14 0.765857 0.182512 0.275184
O O15 0.000000 0.500000 0.500000
#
# Coordination Sequence:
#
# PCOD9095182 Si02
#       7
#     2   2   2   2   2   2   2
#     4  10  23  39  58  87 120 148 190 243 287 340
#     4  11  23  39  61  85 115 156 193 232 291 347
#     4  10  21  37  56  83 118 153 187 232 288 343
#     4  10  20  35  55  85 119 146 183 237 286 334
#     4  11  21  38  63  88 113 149 196 242 285 335
#     4  10  20  36  62  88 113 149 192 239 285 332
#     4  10  21  35  57  88 116 146 191 240 285 334
#
# _framework density 21.383244000000001
#
# number of rings (size 3 to 8) (size 9 to 14) (size 15 to 20)
#    0.000    1.714    0.000    5.571    0.000    8.571 
#    0.000    2.857    0.000    5.143    0.000    0.000 
#    0.000    0.000    0.000    0.000    0.000    0.000 
#
# Total GULP energy -78138.913751 kJ/mol
# GULP energy per Si atom -5581.350982 kJ/mol
# Density = 2.133457 g / cm^3
# Si number density = 21.383244 Si / 1000 Ang^3
#
#
#
# Elastic Constant Matrix: (Units=GPa)
#
#
# Indices 1 2 3 4 5 6 
#
# 1 63.3338 15.3555 11.4246 12.9274 -3.7095 27.6977
# 2 15.3555 108.7218 23.6252 -0.7136 -5.3227 24.2359
# 3 11.4246 23.6252 104.2915 0.4380 -15.0640 10.3447
# 4 12.9274 -0.7136 0.4380 30.9207 3.5817 -5.4567
# 5 -3.7095 -5.3227 -15.0640 3.5817 25.0543 -0.2137
# 6 27.6977 24.2359 10.3447 -5.4567 -0.2137 45.9928
#
#
#
# Elastic Compliance Matrix: (Units=1/GPa)
#
#
# Indices 1 2 3 4 5 6 
#
# 1 0.027243 0.000520 -0.000352 -0.015309 0.005964 -0.018390
# 2 0.000520 0.010850 -0.001728 -0.001129 0.001455 -0.005769
# 3 -0.000352 -0.001728 0.011091 -0.001048 0.006387 -0.001467
# 4 -0.015309 -0.001129 -0.001048 0.042436 -0.009075 0.015043
# 5 0.005964 0.001455 0.006387 -0.009075 0.046186 -0.006657
# 6 -0.018390 -0.005769 -0.001467 0.015043 -0.006657 0.037941
#
#
# Mechanical properties :
#
#
# Convention : Reuss Voigt Hill
#
# Bulk Modulus (GPa) = 21.70917 41.90640 31.80779
# Shear Modulus (GPa) = 25.74383 35.45634 30.60009
#
# Velocity S-wave (km/s) = 3.47353 4.07644 3.78700
# Velocity P-wave (km/s) = 5.12461 6.46504 5.83346
#
# Compressibility (1/GPa) = 0.04606348
#
# Stress axis : x y z
#
# Youngs Moduli (GPa) = 36.70613 92.16951 90.16468
#
# Poissons Ratio (x) = -0.04790 0.03176
# Poissons Ratio (y) = -0.01907 0.15576
# Poissons Ratio (z) = 0.01293 0.15922
#
# Static dielectric constant tensor:
#      x y z
#    x 1.820810 -0.010020 0.007020 
#    y -0.010020 1.774420 0.009660 
#    z 0.007020 0.009660 1.803120 
# 
# From -- ./inp_files/278138.got.cif
#   From: 2010.05.17/outbox.cif.g08.bks.cpg/sg2_140_cif.got.tgz:278138.got - 2010.06.03 11:33:40.
