data_PCOD9095916
_publ_section_title
;
Structure prediction by ZEFSAII (Michael W. Deem and Ramdas Pophale) SiO2 
 PCOD9095916
Probable space group: P -1
;
_chemical_formula_sum "Si O2"
_cell_formula_units_Z 14
_cell_length_a 7.624844
_cell_length_b 9.531327
_cell_length_c 10.489683
_cell_angle_alpha 123.744766
_cell_angle_beta 54.674290
_cell_angle_gamma 102.016267
_cell_volume 509.957746
_symmetry_space_group_name_H-M "P -1"
_symmetry_group_IT_number 2
_symmetry_cell_setting 'triclinic'
loop_
_space_group_symop_operation_xyz
x,y,z
-x,-y,-z
loop_
_atom_site_type_symbol
_atom_site_label
_atom_site_fract_x
_atom_site_fract_y
_atom_site_fract_z
Si Si1 0.266048 0.337928 0.314768
Si Si2 0.752936 0.010154 0.923312
Si Si3 0.594629 0.001166 0.253754
Si Si4 0.950278 0.507920 0.745479
Si Si5 0.554311 0.749945 0.347999
Si Si6 0.191033 0.837722 0.346157
Si Si7 0.247718 0.634044 0.885241
O O1 0.129052 0.459322 0.535122
O O2 0.516125 0.330231 0.246422
O O3 0.253127 0.395969 0.201101
O O4 0.151002 0.169494 0.271394
O O5 0.761715 0.009992 0.074456
O O6 0.825738 0.180557 0.926076
O O7 0.500000 0.000000 0.000000
O O8 0.672643 0.880658 0.281716
O O9 0.400331 0.907556 0.235407
O O10 0.482309 0.179074 0.456982
O O11 0.062556 0.613704 0.852110
O O12 0.892458 0.336326 0.745016
O O13 0.313365 0.775923 0.399266
O O14 0.681366 0.557230 0.184379
O O15 0.000000 0.000000 0.500000
#
# Coordination Sequence:
#
# PCOD9095916 Si02
#       7
#     2   2   2   2   2   2   2
#     4  10  23  42  59  96 126 168 209 261 322 380
#     4  10  24  39  66  91 130 171 206 260 328 383
#     4   9  20  39  63  93 123 173 208 264 318 374
#     4  11  23  38  69  93 124 164 218 267 308 378
#     4   9  20  37  64  96 123 164 221 263 307 375
#     4  10  20  35  60  96 124 161 215 268 307 369
#     4  11  22  39  65  96 125 165 214 264 319 368
#
# _framework density 27.453254000000001
#
# number of rings (size 3 to 8) (size 9 to 14) (size 15 to 20)
#    0.857    1.143    1.429    1.286   10.000    0.571 
#    0.000    6.429    0.000    4.286    0.000    0.000 
#    0.000    0.000    0.000    0.000    0.000    0.000 
#
# Total GULP energy -78193.847457 kJ/mol
# GULP energy per Si atom -5585.274818 kJ/mol
# Density = 2.739077 g / cm^3
# Si number density = 27.453254 Si / 1000 Ang^3
#
#
#
# Elastic Constant Matrix: (Units=GPa)
#
#
# Indices 1 2 3 4 5 6 
#
# 1 125.4523 33.8112 39.2041 -0.5735 12.7284 18.0534
# 2 33.8112 162.5998 38.6199 23.4705 22.8226 -5.3500
# 3 39.2041 38.6199 91.2131 27.8761 20.8149 7.2681
# 4 -0.5735 23.4705 27.8761 62.5081 9.3037 4.8107
# 5 12.7284 22.8226 20.8149 9.3037 42.6458 7.0248
# 6 18.0534 -5.3500 7.2681 4.8107 7.0248 32.3896
#
#
#
# Elastic Compliance Matrix: (Units=1/GPa)
#
#
# Indices 1 2 3 4 5 6 
#
# 1 0.010654 -0.001857 -0.004339 0.003145 0.000198 -0.005781
# 2 -0.001857 0.007720 -0.001425 -0.002109 -0.003014 0.003597
# 3 -0.004339 -0.001425 0.016331 -0.006129 -0.004648 0.000437
# 4 0.003145 -0.002109 -0.006129 0.019912 -0.000577 -0.003558
# 5 0.000198 -0.003014 -0.004648 -0.000577 0.028324 -0.005623
# 6 -0.005781 0.003597 0.000437 -0.003558 -0.005623 0.036341
#
#
# Mechanical properties :
#
#
# Convention : Reuss Voigt Hill
#
# Bulk Modulus (GPa) = 51.37760 66.94841 59.16301
# Shear Modulus (GPa) = 35.45858 45.35069 40.40464
#
# Velocity S-wave (km/s) = 3.59778 4.06880 3.84052
# Velocity P-wave (km/s) = 6.00116 6.82002 6.42365
#
# Compressibility (1/GPa) = 0.01946373
#
# Stress axis : x y z
#
# Youngs Moduli (GPa) = 93.86397 129.52547 61.23510
#
# Poissons Ratio (x) = 0.24051 0.26567
# Poissons Ratio (y) = 0.17429 0.08727
# Poissons Ratio (z) = 0.40723 0.18459
#
# Static dielectric constant tensor:
#      x y z
#    x 2.153150 -0.151830 -0.000420 
#    y -0.151830 2.297740 0.048230 
#    z -0.000420 0.048230 2.258920 
# 
# From -- ./inp_files/377094.got.cif
#   From: 2010.05.17/outbox.cif.g08.bks.cpg/sg2_189_cif.got.tgz:377094.got - 2010.06.03 11:33:40.
