data_PCOD9095418
_publ_section_title
;
Structure prediction by ZEFSAII (Michael W. Deem and Ramdas Pophale) SiO2 
 PCOD9095418
Probable space group: P -1
;
_chemical_formula_sum "Si O2"
_cell_formula_units_Z 16
_cell_length_a 15.478627
_cell_length_b 11.445603
_cell_length_c 8.928127
_cell_angle_alpha 130.707643
_cell_angle_beta 87.738008
_cell_angle_gamma 54.543221
_cell_volume 719.138413
_symmetry_space_group_name_H-M "P -1"
_symmetry_group_IT_number 2
_symmetry_cell_setting 'triclinic'
loop_
_space_group_symop_operation_xyz
x,y,z
-x,-y,-z
loop_
_atom_site_type_symbol
_atom_site_label
_atom_site_fract_x
_atom_site_fract_y
_atom_site_fract_z
Si Si1 0.851143 0.451273 0.693666
Si Si2 0.565604 0.245407 0.401883
Si Si3 0.351934 0.147690 0.709261
Si Si4 0.707063 0.840692 0.589787
Si Si5 0.278155 0.503884 0.559948
Si Si6 0.868520 0.040921 0.859983
Si Si7 0.442762 0.638842 0.960661
Si Si8 0.158555 0.211108 0.181765
O O1 0.772960 0.475660 0.582007
O O2 0.875438 0.598189 0.767770
O O3 0.746216 0.602664 0.970984
O O4 0.007127 0.147744 0.430919
O O5 0.414550 0.420526 0.483324
O O6 0.602442 0.060002 0.364385
O O7 0.548764 0.422556 0.647390
O O8 0.687973 0.065657 0.120172
O O9 0.254531 0.229716 0.645121
O O10 0.500000 0.000000 0.500000
O O11 0.669085 0.727456 0.557575
O O12 0.824838 0.734030 0.609986
O O13 0.579247 0.147056 0.861214
O O14 0.159879 0.758989 0.884380
O O15 0.715902 0.207155 0.935928
O O16 0.915334 0.846342 0.820725
O O17 0.500000 0.500000 0.000000
#
# Coordination Sequence:
#
# PCOD9095418 Si02
#       8
#     2   2   2   2   2   2   2   2
#     4  10  22  39  62  87 120 157 199 238 294 353
#     4  10  20  36  59  91 117 146 201 247 292 345
#     4  11  21  35  60  88 120 155 197 242 293 345
#     4  10  20  35  57  87 117 154 190 246 293 343
#     4  10  21  36  62  88 119 154 195 244 292 349
#     4  10  21  40  61  86 122 156 195 245 292 350
#     4  10  20  36  61  86 120 154 198 246 297 344
#     4   9  21  37  62  87 117 153 196 244 295 346
#
# _framework density 22.248846
#
# number of rings (size 3 to 8) (size 9 to 14) (size 15 to 20)
#    0.000    2.000    2.500    0.750    1.750    6.000 
#    0.000    3.125    5.500    0.000    0.000    0.000 
#    0.000    0.000    0.000    0.000    0.000    0.000 
#
# Total GULP energy -89286.258282 kJ/mol
# GULP energy per Si atom -5580.391143 kJ/mol
# Density = 2.219821 g / cm^3
# Si number density = 22.248846 Si / 1000 Ang^3
#
#
#
# Elastic Constant Matrix: (Units=GPa)
#
#
# Indices 1 2 3 4 5 6 
#
# 1 45.6768 18.5472 55.1708 -10.3019 12.5370 8.2838
# 2 18.5472 71.7615 39.5394 -12.4019 4.9288 3.2038
# 3 55.1708 39.5394 217.7804 -1.0942 6.2920 -1.9908
# 4 -10.3019 -12.4019 -1.0942 33.5719 1.5764 9.0624
# 5 12.5370 4.9288 6.2920 1.5764 40.9152 1.5171
# 6 8.2838 3.2038 -1.9908 9.0624 1.5171 25.1673
#
#
#
# Elastic Compliance Matrix: (Units=1/GPa)
#
#
# Indices 1 2 3 4 5 6 
#
# 1 0.050022 -0.000295 -0.012347 0.022093 -0.013334 -0.024555
# 2 -0.000295 0.017340 -0.003033 0.007644 -0.001641 -0.005004
# 3 -0.012347 -0.003033 0.008221 -0.006764 0.002872 0.007363
# 4 0.022093 0.007644 -0.006764 0.046267 -0.007506 -0.024988
# 5 -0.013334 -0.001641 0.002872 -0.007506 0.028356 0.005818
# 6 -0.024555 -0.005004 0.007363 -0.024988 0.005818 0.057683
#
#
# Mechanical properties :
#
#
# Convention : Reuss Voigt Hill
#
# Bulk Modulus (GPa) = 22.60839 62.41480 42.51160
# Shear Modulus (GPa) = 19.68641 34.72832 27.20737
#
# Velocity S-wave (km/s) = 2.97783 3.95511 3.50074
# Velocity P-wave (km/s) = 4.69116 6.99794 5.95727
#
# Compressibility (1/GPa) = 0.04423137
#
# Stress axis : x y z
#
# Youngs Moduli (GPa) = 19.99132 57.67110 121.64490
#
# Poissons Ratio (x) = 0.01704 1.50191
# Poissons Ratio (y) = 0.00591 0.36898
# Poissons Ratio (z) = 0.24683 0.17493
#
# Static dielectric constant tensor:
#      x y z
#    x 1.868430 -0.018120 -0.013070 
#    y -0.018120 1.848500 0.026090 
#    z -0.013070 0.026090 1.828960 
# 
# From -- ./inp_files/332449.got.cif
#   From: 2010.05.17/outbox.cif.g08.bks.cpg/sg2_167_cif.got.tgz:332449.got - 2010.06.03 11:33:40.
