data_PCOD9095878
_publ_section_title
;
Structure prediction by ZEFSAII (Michael W. Deem and Ramdas Pophale) SiO2 
 PCOD9095878
Probable space group: P -1
;
_chemical_formula_sum "Si O2"
_cell_formula_units_Z 14
_cell_length_a 11.977568
_cell_length_b 5.393064
_cell_length_c 18.631581
_cell_angle_alpha 102.558434
_cell_angle_beta 153.096785
_cell_angle_gamma 84.137767
_cell_volume 519.945978
_symmetry_space_group_name_H-M "P -1"
_symmetry_group_IT_number 2
_symmetry_cell_setting 'triclinic'
loop_
_space_group_symop_operation_xyz
x,y,z
-x,-y,-z
loop_
_atom_site_type_symbol
_atom_site_label
_atom_site_fract_x
_atom_site_fract_y
_atom_site_fract_z
Si Si1 0.733144 0.235337 0.285152
Si Si2 0.777713 0.169378 0.153730
Si Si3 0.211434 0.832606 0.111050
Si Si4 0.611559 0.338742 0.658516
Si Si5 0.590679 0.350386 0.923124
Si Si6 0.161356 0.842793 0.351781
Si Si7 0.711780 0.270919 0.437214
O O1 0.893690 0.255258 0.304346
O O2 0.541574 0.421272 0.164819
O O3 0.820706 0.316282 0.421906
O O4 0.604595 0.928557 0.199286
O O5 0.728537 0.381221 0.081341
O O6 0.949865 0.984371 0.207365
O O7 0.500000 0.000000 0.000000
O O8 0.202011 0.679565 0.170078
O O9 0.215963 0.684530 0.030195
O O10 0.491823 0.014616 0.284951
O O11 0.000000 0.000000 0.000000
O O12 0.756247 0.366862 0.667184
O O13 0.447973 0.537538 0.605592
O O14 0.411342 0.068499 0.518155
O O15 0.098141 0.763320 0.392858
#
# Coordination Sequence:
#
# PCOD9095878 Si02
#       7
#     2   2   2   2   2   2   2
#     4  10  21  40  66  87 127 166 207 262 318 381
#     4  10  22  42  63  91 127 165 216 264 320 380
#     4  10  20  35  60  91 126 164 209 262 323 378
#     4  10  20  40  61  90 126 161 215 261 319 386
#     4  10  20  40  61  91 127 164 207 261 321 378
#     4  10  22  40  63  89 124 169 211 263 322 380
#     4  10  21  39  61  90 126 165 211 265 318 385
#
# _framework density 26.925871999999998
#
# number of rings (size 3 to 8) (size 9 to 14) (size 15 to 20)
#    0.000    2.000    1.429    1.714    0.000    1.143 
#   15.429    0.714    0.000    0.000    0.000    0.000 
#    0.000    0.000    0.000    0.000    0.000    0.000 
#
# Total GULP energy -78328.870103 kJ/mol
# GULP energy per Si atom -5594.919293 kJ/mol
# Density = 2.686459 g / cm^3
# Si number density = 26.925872 Si / 1000 Ang^3
#
#
#
# Elastic Constant Matrix: (Units=GPa)
#
#
# Indices 1 2 3 4 5 6 
#
# 1 173.3775 32.9110 35.3187 4.2886 -27.4766 -6.0073
# 2 32.9110 90.4156 25.5621 -7.8248 -10.9669 -7.7932
# 3 35.3187 25.5621 105.7271 -5.4865 -29.7572 -1.6844
# 4 4.2886 -7.8248 -5.4865 58.4779 -6.5487 5.3654
# 5 -27.4766 -10.9669 -29.7572 -6.5487 51.2661 4.4310
# 6 -6.0073 -7.7932 -1.6844 5.3654 4.4310 53.1295
#
#
#
# Elastic Compliance Matrix: (Units=1/GPa)
#
#
# Indices 1 2 3 4 5 6 
#
# 1 0.006771 -0.001868 -0.001144 -0.000607 0.002461 0.000311
# 2 -0.001868 0.012676 -0.002192 0.001559 0.000518 0.001378
# 3 -0.001144 -0.002192 0.012219 0.001712 0.006295 -0.000761
# 4 -0.000607 0.001559 0.001712 0.018078 0.003475 -0.001901
# 5 0.002461 0.000518 0.006295 0.003475 0.025198 -0.001899
# 6 0.000311 0.001378 -0.000761 -0.001901 -0.001899 0.019385
#
#
# Mechanical properties :
#
#
# Convention : Reuss Voigt Hill
#
# Bulk Modulus (GPa) = 47.04250 61.90041 54.47146
# Shear Modulus (GPa) = 44.71373 50.95660 47.83517
#
# Velocity S-wave (km/s) = 4.07950 4.35498 4.21949
# Velocity P-wave (km/s) = 6.30069 6.95176 6.63422
#
# Compressibility (1/GPa) = 0.02125737
#
# Stress axis : x y z
#
# Youngs Moduli (GPa) = 147.68182 78.88670 81.84077
#
# Poissons Ratio (x) = 0.14740 0.09364
# Poissons Ratio (y) = 0.27594 0.17939
# Poissons Ratio (z) = 0.16897 0.17292
#
# Static dielectric constant tensor:
#      x y z
#    x 2.086930 0.052730 -0.040360 
#    y 0.052730 2.230360 0.088510 
#    z -0.040360 0.088510 2.108640 
# 
# From -- ./inp_files/47532.got.cif
#   From: 2010.05.17/outbox.cif.g08.bks.cpg/sg2_24_cif.got.tgz:47532.got - 2010.06.03 11:33:40.
