data_PCOD9095564
_publ_section_title
;
Structure prediction by ZEFSAII (Michael W. Deem and Ramdas Pophale) SiO2 
 PCOD9095564
Probable space group: P -1
;
_chemical_formula_sum "Si O2"
_cell_formula_units_Z 16
_cell_length_a 16.065032
_cell_length_b 15.367754
_cell_length_c 15.665548
_cell_angle_alpha 150.673004
_cell_angle_beta 24.733321
_cell_angle_gamma 155.175716
_cell_volume 654.060267
_symmetry_space_group_name_H-M "P -1"
_symmetry_group_IT_number 2
_symmetry_cell_setting 'triclinic'
loop_
_space_group_symop_operation_xyz
x,y,z
-x,-y,-z
loop_
_atom_site_type_symbol
_atom_site_label
_atom_site_fract_x
_atom_site_fract_y
_atom_site_fract_z
Si Si1 0.975796 0.354950 0.538187
Si Si2 0.695384 0.025980 0.962331
Si Si3 0.698474 0.641457 0.176945
Si Si4 0.535555 0.382325 0.945603
Si Si5 0.831835 0.961440 0.453685
Si Si6 0.044181 0.064216 0.111354
Si Si7 0.181914 0.796872 0.184412
Si Si8 0.851800 0.391963 0.247094
O O1 0.789686 0.411291 0.729752
O O2 0.841760 0.149836 0.552035
O O3 0.045334 0.267366 0.318259
O O4 0.174387 0.547128 0.579977
O O5 0.804917 0.180262 0.909247
O O6 0.674009 0.160871 0.172468
O O7 0.896141 0.981682 0.760538
O O8 0.430953 0.827921 0.010927
O O9 0.651343 0.722147 0.377929
O O10 0.521494 0.465373 0.123065
O O11 0.837749 0.861403 0.180998
O O12 0.901020 0.597701 0.968895
O O13 0.500000 0.500000 0.000000
O O14 0.314591 0.133908 0.936296
O O15 0.795528 0.998201 0.616649
O O16 0.000000 0.000000 0.000000
O O17 0.937187 0.588745 0.270754
#
# Coordination Sequence:
#
# PCOD9095564 Si02
#       8
#     2   2   2   2   2   2   2   2
#     4   9  22  38  58  87 111 154 198 228 291 351
#     4  10  20  35  60  85 117 152 192 234 287 335
#     4   9  20  38  56  85 110 152 195 229 286 346
#     4  11  22  40  60  83 116 146 189 247 288 340
#     4   9  19  37  57  81 120 149 192 236 279 342
#     4  11  22  40  60  82 116 148 188 245 289 338
#     4  10  20  35  58  88 114 154 192 232 289 335
#     4   9  19  37  57  81 120 147 192 236 278 339
#
# _framework density 24.462578000000001
#
# number of rings (size 3 to 8) (size 9 to 14) (size 15 to 20)
#    0.000    2.250    1.250    0.750    0.000   11.000 
#    0.000    3.750    0.000   13.500    0.000    0.000 
#    0.000    0.000    0.000    0.000    0.000    0.000 
#
# Total GULP energy -89341.775612 kJ/mol
# GULP energy per Si atom -5583.860976 kJ/mol
# Density = 2.440690 g / cm^3
# Si number density = 24.462578 Si / 1000 Ang^3
#
#
#
# Elastic Constant Matrix: (Units=GPa)
#
#
# Indices 1 2 3 4 5 6 
#
# 1 107.0379 20.8736 35.3632 13.2669 12.6648 12.3125
# 2 20.8736 49.1037 -8.2033 2.7889 3.7349 13.6412
# 3 35.3632 -8.2033 102.7966 7.9905 24.8854 -9.6631
# 4 13.2669 2.7889 7.9905 28.9715 6.7423 7.7524
# 5 12.6648 3.7349 24.8854 6.7423 43.3209 3.1250
# 6 12.3125 13.6412 -9.6631 7.7524 3.1250 28.2508
#
#
#
# Elastic Compliance Matrix: (Units=1/GPa)
#
#
# Indices 1 2 3 4 5 6 
#
# 1 0.012777 -0.004989 -0.005032 -0.002964 0.000343 -0.004105
# 2 -0.004989 0.025707 0.003282 0.001948 -0.002268 -0.009400
# 3 -0.005032 0.003282 0.014267 -0.002113 -0.007173 0.006862
# 4 -0.002964 0.001948 -0.002113 0.040024 -0.003526 -0.010965
# 5 0.000343 -0.002268 -0.007173 -0.003526 0.028112 -0.003650
# 6 -0.004105 -0.009400 0.006862 -0.010965 -0.003650 0.047485
#
#
# Mechanical properties :
#
#
# Convention : Reuss Voigt Hill
#
# Bulk Modulus (GPa) = 25.46332 39.44504 32.45418
# Shear Modulus (GPa) = 25.64876 34.16895 29.90886
#
# Velocity S-wave (km/s) = 3.24155 3.74141 3.50042
# Velocity P-wave (km/s) = 4.94388 5.90118 5.44361
#
# Compressibility (1/GPa) = 0.03927217
#
# Stress axis : x y z
#
# Youngs Moduli (GPa) = 78.26562 38.89925 70.09289
#
# Poissons Ratio (x) = 0.19408 0.35271
# Poissons Ratio (y) = 0.39050 -0.23004
# Poissons Ratio (z) = 0.39384 -0.12767
#
# Static dielectric constant tensor:
#      x y z
#    x 1.976150 0.031330 0.015740 
#    y 0.031330 1.990340 -0.006360 
#    z 0.015740 -0.006360 2.013310 
# 
# From -- ./inp_files/534549.got.cif
#   From: 2010.05.17/outbox.cif.g08.bks.cpg/sg2_268_cif.got.tgz:534549.got - 2010.06.03 11:33:40.
