data_PCOD9095798
_publ_section_title
;
Structure prediction by ZEFSAII (Michael W. Deem and Ramdas Pophale) SiO2 
 PCOD9095798
Probable space group: P -1
;
_chemical_formula_sum "Si O2"
_cell_formula_units_Z 16
_cell_length_a 22.087133
_cell_length_b 5.613912
_cell_length_c 9.842571
_cell_angle_alpha 116.825271
_cell_angle_beta 133.383731
_cell_angle_gamma 56.638678
_cell_volume 735.359550
_symmetry_space_group_name_H-M "P -1"
_symmetry_group_IT_number 2
_symmetry_cell_setting 'triclinic'
loop_
_space_group_symop_operation_xyz
x,y,z
-x,-y,-z
loop_
_atom_site_type_symbol
_atom_site_label
_atom_site_fract_x
_atom_site_fract_y
_atom_site_fract_z
Si Si1 0.573493 0.091819 0.060527
Si Si2 0.774855 0.199174 0.867848
Si Si3 0.719439 0.823534 0.018471
Si Si4 0.540910 0.624968 0.308617
Si Si5 0.145710 0.931495 0.751092
Si Si6 0.604861 0.111172 0.648737
Si Si7 0.961181 0.428371 0.560544
Si Si8 0.049755 0.221808 0.106397
O O1 0.597598 0.305109 0.257069
O O2 0.524551 0.257336 0.891594
O O3 0.500000 0.000000 0.000000
O O4 0.657390 0.833258 0.056706
O O5 0.775582 0.517708 0.958372
O O6 0.673633 0.214911 0.698683
O O7 0.850497 0.970505 0.837821
O O8 0.804559 0.097940 0.039314
O O9 0.654575 0.974883 0.831725
O O10 0.789199 0.967091 0.213829
O O11 0.483465 0.639076 0.361566
O O12 0.584831 0.860795 0.472092
O O13 0.125870 0.652694 0.610311
O O14 0.046111 0.160719 0.676683
O O15 0.942905 0.665705 0.704935
O O16 0.000000 0.500000 0.500000
O O17 0.000000 0.500000 0.000000
O O18 0.000000 0.000000 0.000000
#
# Coordination Sequence:
#
# PCOD9095798 Si02
#       8
#     2   2   2   2   2   2   2   2
#     4  10  20  35  60  85 122 160 207 252 318 381
#     4  11  22  40  62  89 126 164 215 269 329 391
#     4  10  21  37  59  90 119 168 205 264 319 388
#     4   9  19  38  58  87 119 161 207 261 314 388
#     4  10  21  39  62  84 124 158 212 259 326 389
#     4   9  20  37  61  85 122 163 209 259 325 382
#     4  11  23  41  66  94 121 170 213 271 333 399
#     4  12  26  44  69  98 132 175 223 281 333 402
#
# _framework density 21.758064000000001
#
# number of rings (size 3 to 8) (size 9 to 14) (size 15 to 20)
#    0.000    1.750    1.250    3.000    3.500    3.000 
#    0.000    7.500    0.000    0.000    0.000    0.000 
#    0.000    0.000    0.000    0.000    0.000    0.000 
#
# Total GULP energy -89133.772050 kJ/mol
# GULP energy per Si atom -5570.860753 kJ/mol
# Density = 2.170854 g / cm^3
# Si number density = 21.758064 Si / 1000 Ang^3
#
#
#
# Elastic Constant Matrix: (Units=GPa)
#
#
# Indices 1 2 3 4 5 6 
#
# 1 85.9831 32.9948 60.6895 27.8696 6.3183 -3.8220
# 2 32.9948 65.1236 29.9993 24.0902 -11.4994 -12.3170
# 3 60.6895 29.9993 128.0241 50.3532 3.9123 -10.0377
# 4 27.8696 24.0902 50.3532 44.7882 -0.6603 -0.3133
# 5 6.3183 -11.4994 3.9123 -0.6603 30.0372 6.4910
# 6 -3.8220 -12.3170 -10.0377 -0.3133 6.4910 28.2787
#
#
#
# Elastic Compliance Matrix: (Units=1/GPa)
#
#
# Indices 1 2 3 4 5 6 
#
# 1 0.020750 -0.008561 -0.008112 0.000708 -0.006050 -0.002408
# 2 -0.008561 0.026009 0.003087 -0.011935 0.009141 0.009037
# 3 -0.008112 0.003087 0.018226 -0.017075 -0.001338 0.006836
# 4 0.000708 -0.011935 -0.017075 0.047440 0.000892 -0.010843
# 5 -0.006050 0.009141 -0.001338 0.000892 0.039641 -0.006401
# 6 -0.002408 0.009037 0.006836 -0.010843 -0.006401 0.042748
#
#
# Mechanical properties :
#
#
# Convention : Reuss Voigt Hill
#
# Bulk Modulus (GPa) = 26.44682 58.49977 42.47329
# Shear Modulus (GPa) = 21.31371 30.98395 26.14883
#
# Velocity S-wave (km/s) = 3.13322 3.77771 3.47046
# Velocity P-wave (km/s) = 5.02700 6.78034 5.96841
#
# Compressibility (1/GPa) = 0.03781174
#
# Stress axis : x y z
#
# Youngs Moduli (GPa) = 48.19381 38.44833 54.86702
#
# Poissons Ratio (x) = 0.32916 0.44510
# Poissons Ratio (y) = 0.41259 -0.16938
# Poissons Ratio (z) = 0.39097 -0.11870
#
# Static dielectric constant tensor:
#      x y z
#    x 1.918990 0.199890 0.133060 
#    y 0.199890 2.031320 0.113740 
#    z 0.133060 0.113740 1.843510 
# 
# From -- ./inp_files/54928.got.cif
#   From: 2010.05.17/outbox.cif.g08.bks.cpg/sg2_28_cif.got.tgz:54928.got - 2010.06.03 11:33:40.
