data_PCOD9095970
_publ_section_title
;
Structure prediction by ZEFSAII (Michael W. Deem and Ramdas Pophale) SiO2 
 PCOD9095970
Probable space group: P -1
;
_chemical_formula_sum "Si O2"
_cell_formula_units_Z 14
_cell_length_a 8.681948
_cell_length_b 12.740660
_cell_length_c 13.595428
_cell_angle_alpha 33.246046
_cell_angle_beta 135.406592
_cell_angle_gamma 137.613573
_cell_volume 537.360228
_symmetry_space_group_name_H-M "P -1"
_symmetry_group_IT_number 2
_symmetry_cell_setting 'triclinic'
loop_
_space_group_symop_operation_xyz
x,y,z
-x,-y,-z
loop_
_atom_site_type_symbol
_atom_site_label
_atom_site_fract_x
_atom_site_fract_y
_atom_site_fract_z
Si Si1 0.701726 0.100340 0.787255
Si Si2 0.654281 0.371436 0.292369
Si Si3 0.076983 0.337237 0.301572
Si Si4 0.947754 0.952314 0.178250
Si Si5 0.786685 0.902803 0.614245
Si Si6 0.610373 0.334816 0.069616
Si Si7 0.787463 0.535043 0.530903
O O1 0.653036 0.309486 0.603705
O O2 0.880453 0.093246 0.787703
O O3 0.475993 0.890942 0.839595
O O4 0.823738 0.080947 0.961077
O O5 0.492210 0.170751 0.435244
O O6 0.584297 0.325234 0.182957
O O7 0.932265 0.432113 0.381885
O O8 0.560465 0.552729 0.134133
O O9 0.892173 0.439862 0.104384
O O10 0.179354 0.262857 0.313458
O O11 0.246786 0.458141 0.372352
O O12 0.915229 0.124693 0.450176
O O13 0.772947 0.732198 0.314093
O O14 0.091086 0.077217 0.239289
#
# Coordination Sequence:
#
# PCOD9095970 Si02
#       7
#     2   2   2   2   2   2   2
#     4  11  21  37  58  88 124 152 188 244 288 357
#     4  10  20  35  61  89 112 147 199 245 287 341
#     4   9  22  39  61  85 114 153 198 242 291 346
#     4  10  21  35  59  87 116 155 191 237 293 342
#     4  10  20  39  62  84 115 153 198 243 290 342
#     4  10  21  36  57  90 117 148 194 244 290 342
#     4  10  22  38  61  89 117 152 196 240 296 343
#
# _framework density 26.053287999999998
#
# number of rings (size 3 to 8) (size 9 to 14) (size 15 to 20)
#    0.000    2.000    1.429    2.143    6.000    2.286 
#    0.000    0.714    3.143    2.571    0.000    0.000 
#    0.000    0.000    0.000    0.000    0.000    0.000 
#
# Total GULP energy -78459.710936 kJ/mol
# GULP energy per Si atom -5604.265067 kJ/mol
# Density = 2.599399 g / cm^3
# Si number density = 26.053288 Si / 1000 Ang^3
#
#
#
# Elastic Constant Matrix: (Units=GPa)
#
#
# Indices 1 2 3 4 5 6 
#
# 1 78.0511 26.9429 31.6251 3.5145 -3.7802 -24.2712
# 2 26.9429 125.5259 38.3581 10.4958 -4.1382 -34.2029
# 3 31.6251 38.3581 98.7987 8.0990 -8.6711 -4.5962
# 4 3.5145 10.4958 8.0990 42.9242 -4.6742 1.3105
# 5 -3.7802 -4.1382 -8.6711 -4.6742 29.1978 -2.7858
# 6 -24.2712 -34.2029 -4.5962 1.3105 -2.7858 36.1267
#
#
#
# Elastic Compliance Matrix: (Units=1/GPa)
#
#
# Indices 1 2 3 4 5 6 
#
# 1 0.019043 0.001593 -0.005803 -0.001044 0.002114 0.013765
# 2 0.001593 0.012758 -0.004524 -0.002627 0.001470 0.012782
# 3 -0.005803 -0.004524 0.013666 -0.000591 0.001973 -0.006270
# 4 -0.001044 -0.002627 -0.000591 0.024569 0.002875 -0.003933
# 5 0.002114 0.001470 0.001973 0.002875 0.036327 0.005760
# 6 0.013765 0.012782 -0.006270 -0.003933 0.005760 0.048819
#
#
# Mechanical properties :
#
#
# Convention : Reuss Voigt Hill
#
# Bulk Modulus (GPa) = 35.71518 55.13645 45.42582
# Shear Modulus (GPa) = 27.47524 35.34639 31.41082
#
# Velocity S-wave (km/s) = 3.25095 3.68733 3.47600
# Velocity P-wave (km/s) = 5.27540 6.27196 5.79514
#
# Compressibility (1/GPa) = 0.02799930
#
# Stress axis : x y z
#
# Youngs Moduli (GPa) = 52.51231 78.38278 73.17696
#
# Poissons Ratio (x) = -0.12490 0.42463
# Poissons Ratio (y) = -0.08368 0.33107
# Poissons Ratio (z) = 0.30472 0.35463
#
# Static dielectric constant tensor:
#      x y z
#    x 2.030920 0.016600 0.014440 
#    y 0.016600 2.028070 0.005700 
#    z 0.014440 0.005700 2.078860 
# 
# From -- ./inp_files/174284.got.cif
#   From: 2010.05.17/outbox.cif.g08.bks.cpg/sg2_88_cif.got.tgz:174284.got - 2010.06.03 11:33:40.
