data_PCOD9095426
_publ_section_title
;
Structure prediction by ZEFSAII (Michael W. Deem and Ramdas Pophale) SiO2 
 PCOD9095426
Probable space group: P -1
;
_chemical_formula_sum "Si O2"
_cell_formula_units_Z 14
_cell_length_a 14.266813
_cell_length_b 10.196667
_cell_length_c 9.213243
_cell_angle_alpha 71.266455
_cell_angle_beta 50.879461
_cell_angle_gamma 114.072733
_cell_volume 547.808096
_symmetry_space_group_name_H-M "P -1"
_symmetry_group_IT_number 2
_symmetry_cell_setting 'triclinic'
loop_
_space_group_symop_operation_xyz
x,y,z
-x,-y,-z
loop_
_atom_site_type_symbol
_atom_site_label
_atom_site_fract_x
_atom_site_fract_y
_atom_site_fract_z
Si Si1 0.091926 0.743111 0.827287
Si Si2 0.352897 0.655910 0.713135
Si Si3 0.552307 0.080498 0.195253
Si Si4 0.597081 0.327001 0.839955
Si Si5 0.699625 0.581927 0.926004
Si Si6 0.980832 0.132198 0.894997
Si Si7 0.824964 0.998606 0.768047
O O1 0.321796 0.943118 0.455872
O O2 0.000000 0.500000 0.000000
O O3 0.883202 0.620613 0.009894
O O4 0.131089 0.858957 0.897706
O O5 0.335752 0.752296 0.827466
O O6 0.479481 0.856839 0.391596
O O7 0.436007 0.602374 0.738473
O O8 0.667748 0.250513 0.878555
O O9 0.579068 0.422044 0.954995
O O10 0.783781 0.573588 0.471563
O O11 0.376020 0.097787 0.047652
O O12 0.759711 0.794767 0.824487
O O13 0.936656 0.734431 0.617568
O O14 0.861630 0.008793 0.899716
O O15 0.000000 0.000000 0.000000
#
# Coordination Sequence:
#
# PCOD9095426 Si02
#       7
#     2   2   2   2   2   2   2
#     4  10  21  39  61  84 116 160 202 243 297 360
#     4   9  17  33  58  85 113 147 199 248 283 342
#     4   9  19  35  61  88 111 155 205 241 290 360
#     4  10  21  37  59  89 123 156 197 248 304 359
#     4   9  18  33  58  91 122 158 199 243 299 364
#     4  11  25  40  58  91 125 155 200 255 306 356
#     4  10  20  35  57  87 125 159 194 248 306 356
#
# _framework density 25.556394999999998
#
# number of rings (size 3 to 8) (size 9 to 14) (size 15 to 20)
#    0.000    2.286    0.000    2.143    0.000    6.286 
#    0.000    2.857    0.000   59.143    0.000    0.000 
#    0.000    0.000    0.000    0.000    0.000    0.000 
#
# Total GULP energy -78103.511048 kJ/mol
# GULP energy per Si atom -5578.822218 kJ/mol
# Density = 2.549823 g / cm^3
# Si number density = 25.556395 Si / 1000 Ang^3
#
#
#
# Elastic Constant Matrix: (Units=GPa)
#
#
# Indices 1 2 3 4 5 6 
#
# 1 102.9510 40.2762 68.7792 -2.9516 23.8986 26.6747
# 2 40.2762 113.8307 39.9201 -13.2273 0.9200 18.0735
# 3 68.7792 39.9201 107.8511 -18.3686 33.8280 5.4593
# 4 -2.9516 -13.2273 -18.3686 34.2357 10.4114 -3.6422
# 5 23.8986 0.9200 33.8280 10.4114 40.6227 -10.2243
# 6 26.6747 18.0735 5.4593 -3.6422 -10.2243 49.7352
#
#
#
# Elastic Compliance Matrix: (Units=1/GPa)
#
#
# Indices 1 2 3 4 5 6 
#
# 1 0.023003 -0.002468 -0.012906 -0.005858 -0.004070 -0.011289
# 2 -0.002468 0.011184 -0.003293 0.001187 0.003227 -0.001628
# 3 -0.012906 -0.003293 0.028155 0.019075 -0.020090 0.002295
# 4 -0.005858 0.001187 0.019075 0.046805 -0.024722 -0.001038
# 5 -0.004070 0.003227 -0.020090 -0.024722 0.053105 0.012322
# 6 -0.011289 -0.001628 0.002295 -0.001038 0.012322 0.028958
#
#
# Mechanical properties :
#
#
# Convention : Reuss Voigt Hill
#
# Bulk Modulus (GPa) = 39.98820 69.17598 54.58209
# Shear Modulus (GPa) = 21.10783 36.62921 28.86852
#
# Velocity S-wave (km/s) = 2.87702 3.78996 3.36460
# Velocity P-wave (km/s) = 5.16888 6.80283 6.04135
#
# Compressibility (1/GPa) = 0.02500738
#
# Stress axis : x y z
#
# Youngs Moduli (GPa) = 43.47298 89.41699 35.51774
#
# Poissons Ratio (x) = 0.22072 0.45838
# Poissons Ratio (y) = 0.10731 0.11696
# Poissons Ratio (z) = 0.56104 0.29445
#
# Static dielectric constant tensor:
#      x y z
#    x 2.185430 0.017720 -0.109380 
#    y 0.017720 1.978460 0.032130 
#    z -0.109380 0.032130 2.180870 
# 
# From -- ./inp_files/226006.got.cif
#   From: 2010.05.17/outbox.cif.g08.bks.cpg/sg2_114_cif.got.tgz:226006.got - 2010.06.03 11:33:40.
