data_PCOD9095432
_publ_section_title
;
Structure prediction by ZEFSAII (Michael W. Deem and Ramdas Pophale) SiO2 
 PCOD9095432
Probable space group: P -1
;
_chemical_formula_sum "Si O2"
_cell_formula_units_Z 16
_cell_length_a 11.874508
_cell_length_b 8.505198
_cell_length_c 7.574331
_cell_angle_alpha 107.007494
_cell_angle_beta 86.925436
_cell_angle_gamma 67.972982
_cell_volume 666.509390
_symmetry_space_group_name_H-M "P -1"
_symmetry_group_IT_number 2
_symmetry_cell_setting 'triclinic'
loop_
_space_group_symop_operation_xyz
x,y,z
-x,-y,-z
loop_
_atom_site_type_symbol
_atom_site_label
_atom_site_fract_x
_atom_site_fract_y
_atom_site_fract_z
Si Si1 0.661032 0.192160 0.794441
Si Si2 0.210549 0.861854 0.881696
Si Si3 0.458138 0.704770 0.645423
Si Si4 0.908568 0.919613 0.553517
Si Si5 0.985949 0.785043 0.910431
Si Si6 0.445327 0.086180 0.840786
Si Si7 0.037031 0.543923 0.316970
Si Si8 0.685145 0.561311 0.851183
O O1 0.536541 0.165528 0.767107
O O2 0.657875 0.392008 0.866313
O O3 0.769518 0.065988 0.617232
O O4 0.706455 0.116508 0.960849
O O5 0.313388 0.747745 0.700891
O O6 0.124141 0.765494 0.923382
O O7 0.110119 0.059177 0.910454
O O8 0.500000 0.500000 0.500000
O O9 0.570169 0.654625 0.759788
O O10 0.439959 0.916204 0.678273
O O11 0.948194 0.857223 0.734245
O O12 0.938359 0.746022 0.374256
O O13 0.000000 0.000000 0.500000
O O14 0.978331 0.597410 0.858631
O O15 0.327902 0.274881 0.959698
O O16 0.500000 0.000000 0.000000
O O17 0.179525 0.516419 0.276894
O O18 0.000000 0.500000 0.500000
#
# Coordination Sequence:
#
# PCOD9095432 Si02
#       8
#     2   2   2   2   2   2   2   2
#     4  11  21  38  64  86 121 160 208 246 302 360
#     4  10  20  39  58  87 118 157 201 246 301 352
#     4  11  25  37  63  90 124 153 203 254 309 355
#     4  10  20  35  57  88 118 152 194 252 302 351
#     4   9  21  36  63  82 118 157 203 243 291 361
#     4  10  21  38  62  88 115 158 208 242 287 372
#     4  10  21  34  60  88 117 155 201 241 297 359
#     4  11  22  39  65  91 121 160 205 250 299 363
#
# _framework density 24.005666000000002
#
# number of rings (size 3 to 8) (size 9 to 14) (size 15 to 20)
#    0.000    1.750    3.750    1.125   12.250    0.000 
#    0.000    1.250    5.500    0.000    0.000    0.000 
#    0.000    0.000    0.000    0.000    0.000    0.000 
#
# Total GULP energy -89088.840667 kJ/mol
# GULP energy per Si atom -5568.052542 kJ/mol
# Density = 2.395103 g / cm^3
# Si number density = 24.005666 Si / 1000 Ang^3
#
#
#
# Elastic Constant Matrix: (Units=GPa)
#
#
# Indices 1 2 3 4 5 6 
#
# 1 80.5606 14.7535 56.5885 18.1784 -10.7963 22.6092
# 2 14.7535 98.6636 67.7042 32.7262 -1.6594 28.1679
# 3 56.5885 67.7042 128.8427 52.8667 -26.0526 11.8113
# 4 18.1784 32.7262 52.8667 58.9641 1.3350 18.0340
# 5 -10.7963 -1.6594 -26.0526 1.3350 43.3484 -1.2444
# 6 22.6092 28.1679 11.8113 18.0340 -1.2444 34.0438
#
#
#
# Elastic Compliance Matrix: (Units=1/GPa)
#
#
# Indices 1 2 3 4 5 6 
#
# 1 0.047456 0.032548 -0.048010 0.028342 -0.018312 -0.057473
# 2 0.032548 0.045438 -0.047641 0.025337 -0.021200 -0.056880
# 3 -0.048010 -0.047641 0.073739 -0.047741 0.034081 0.072255
# 4 0.028342 0.025337 -0.047741 0.053547 -0.023819 -0.052459
# 5 -0.018312 -0.021200 0.034081 -0.023819 0.039830 0.031951
# 6 -0.057473 -0.056880 0.072255 -0.052459 0.031951 0.118494
#
#
# Mechanical properties :
#
#
# Convention : Reuss Voigt Hill
#
# Bulk Modulus (GPa) = 24.73564 65.12881 44.93222
# Shear Modulus (GPa) = 9.64904 38.53932 24.09418
#
# Velocity S-wave (km/s) = 2.00704 4.01112 3.17154
# Velocity P-wave (km/s) = 3.96199 6.97436 5.67182
#
# Compressibility (1/GPa) = 0.04042750
#
# Stress axis : x y z
#
# Youngs Moduli (GPa) = 21.07196 22.00780 13.56141
#
# Poissons Ratio (x) = -0.71631 0.65108
# Poissons Ratio (y) = -0.68585 0.64608
# Poissons Ratio (z) = 1.01166 1.04848
#
# Static dielectric constant tensor:
#      x y z
#    x 1.880950 0.001780 0.002650 
#    y 0.001780 2.015950 -0.004610 
#    z 0.002650 -0.004610 2.065320 
# 
# From -- ./inp_files/277362.got.cif
#   From: 2010.05.17/outbox.cif.g08.bks.cpg/sg2_139_cif.got.tgz:277362.got - 2010.06.03 11:33:40.
