data_PCOD9095020
_publ_section_title
;
Structure prediction by ZEFSAII (Michael W. Deem and Ramdas Pophale) SiO2 
 PCOD9095020
Probable space group: P -1
;
_chemical_formula_sum "Si O2"
_cell_formula_units_Z 16
_cell_length_a 12.902368
_cell_length_b 17.464787
_cell_length_c 6.380888
_cell_angle_alpha 73.007997
_cell_angle_beta 63.854698
_cell_angle_gamma 119.410280
_cell_volume 854.055811
_symmetry_space_group_name_H-M "P -1"
_symmetry_group_IT_number 2
_symmetry_cell_setting 'triclinic'
loop_
_space_group_symop_operation_xyz
x,y,z
-x,-y,-z
loop_
_atom_site_type_symbol
_atom_site_label
_atom_site_fract_x
_atom_site_fract_y
_atom_site_fract_z
Si Si1 0.635659 0.555466 0.653694
Si Si2 0.166950 0.546224 0.915277
Si Si3 0.637746 0.661638 0.188076
Si Si4 0.500097 0.246606 0.817902
Si Si5 0.508104 0.093151 0.690074
Si Si6 0.327302 0.729533 0.972661
Si Si7 0.866787 0.651820 0.738579
Si Si8 0.754404 0.165043 0.760823
O O1 0.656928 0.645614 0.424753
O O2 0.547200 0.452669 0.647574
O O3 0.797329 0.610248 0.595162
O O4 0.500000 0.500000 0.000000
O O5 0.330689 0.645719 0.547420
O O6 0.203846 0.612452 0.044246
O O7 0.152280 0.444356 0.056920
O O8 0.000000 0.500000 0.000000
O O9 0.641277 0.757967 0.083041
O O10 0.762178 0.667814 0.940451
O O11 0.447669 0.134273 0.864091
O O12 0.551656 0.263782 0.999455
O O13 0.567861 0.164017 0.367782
O O14 0.665934 0.134338 0.639884
O O15 0.366160 0.955524 0.910546
O O16 0.239425 0.746648 0.196910
O O17 0.059145 0.771686 0.474528
#
# Coordination Sequence:
#
# PCOD9095020 Si02
#       8
#     2   2   2   2   2   2   2   2
#     4   9  18  32  51  74 104 144 183 215 254 317
#     4  11  22  34  51  84 118 139 172 223 275 328
#     4  10  20  35  53  76 109 148 181 217 269 320
#     4  10  20  35  56  79 106 143 184 223 267 325
#     4   9  20  38  59  81 106 139 185 232 273 321
#     4  10  20  35  58  79 104 144 181 222 275 327
#     4  11  22  34  53  82 113 144 179 219 266 327
#     4  10  21  38  57  81 110 142 182 228 275 323
#
# _framework density 18.734138999999999
#
# number of rings (size 3 to 8) (size 9 to 14) (size 15 to 20)
#    0.000    2.000    0.000    5.625    0.000    8.000 
#    0.000    0.625    0.000    1.500    0.000    0.000 
#    0.000    0.000    0.000    0.000    0.000    0.000 
#
# Total GULP energy -89271.781714 kJ/mol
# GULP energy per Si atom -5579.486357 kJ/mol
# Density = 1.869150 g / cm^3
# Si number density = 18.734139 Si / 1000 Ang^3
#
#
#
# Elastic Constant Matrix: (Units=GPa)
#
#
# Indices 1 2 3 4 5 6 
#
# 1 124.8342 35.0336 33.1797 2.9014 -0.1183 -0.4863
# 2 35.0336 59.2896 10.8504 -0.1887 -13.4317 1.5513
# 3 33.1797 10.8504 48.7411 6.2312 -1.6519 16.6554
# 4 2.9014 -0.1887 6.2312 18.1925 6.8393 1.2116
# 5 -0.1183 -13.4317 -1.6519 6.8393 30.3059 6.4150
# 6 -0.4863 1.5513 16.6554 1.2116 6.4150 21.8736
#
#
#
# Elastic Compliance Matrix: (Units=1/GPa)
#
#
# Indices 1 2 3 4 5 6 
#
# 1 0.013394 -0.007662 -0.012363 0.004030 -0.007517 0.012236
# 2 -0.007662 0.023987 0.003807 -0.004378 0.013599 -0.008516
# 3 -0.012363 0.003807 0.043424 -0.016229 0.015558 -0.037273
# 4 0.004030 -0.004378 -0.016229 0.066756 -0.021102 0.015248
# 5 -0.007517 0.013599 0.015558 -0.021102 0.050223 -0.026538
# 6 0.012236 -0.008516 -0.037273 0.015248 -0.026538 0.081913
#
#
# Mechanical properties :
#
#
# Convention : Reuss Voigt Hill
#
# Bulk Modulus (GPa) = 20.67510 43.44359 32.05935
# Shear Modulus (GPa) = 15.23202 24.32781 19.77992
#
# Velocity S-wave (km/s) = 2.85452 3.60749 3.25287
# Velocity P-wave (km/s) = 4.68235 6.37118 5.59090
#
# Compressibility (1/GPa) = 0.04836736
#
# Stress axis : x y z
#
# Youngs Moduli (GPa) = 74.66151 41.68955 23.02874
#
# Poissons Ratio (x) = 0.31942 0.28471
# Poissons Ratio (y) = 0.57205 -0.08766
# Poissons Ratio (z) = 0.92306 -0.15869
#
# Static dielectric constant tensor:
#      x y z
#    x 1.674630 -0.015400 0.016230 
#    y -0.015400 1.674710 0.008720 
#    z 0.016230 0.008720 1.652320 
# 
# From -- ./inp_files/66202.got.cif
#   From: 2010.05.17/outbox.cif.g08.bks.cpg/sg2_34_cif.got.tgz:66202.got - 2010.06.03 11:33:40.
