data_PCOD9095571
_publ_section_title
;
Structure prediction by ZEFSAII (Michael W. Deem and Ramdas Pophale) SiO2 
 PCOD9095571
Probable space group: P -1
;
_chemical_formula_sum "Si O2"
_cell_formula_units_Z 14
_cell_length_a 11.178283
_cell_length_b 8.348670
_cell_length_c 16.520394
_cell_angle_alpha 40.595587
_cell_angle_beta 137.807653
_cell_angle_gamma 109.429115
_cell_volume 572.999921
_symmetry_space_group_name_H-M "P -1"
_symmetry_group_IT_number 2
_symmetry_cell_setting 'triclinic'
loop_
_space_group_symop_operation_xyz
x,y,z
-x,-y,-z
loop_
_atom_site_type_symbol
_atom_site_label
_atom_site_fract_x
_atom_site_fract_y
_atom_site_fract_z
Si Si1 0.401234 0.176802 0.652317
Si Si2 0.992942 0.199806 0.259014
Si Si3 0.063947 0.672024 0.405170
Si Si4 0.714385 0.290414 0.234941
Si Si5 0.243201 0.411344 0.146954
Si Si6 0.395871 0.254264 0.444185
Si Si7 0.342153 0.156396 0.936459
O O1 0.242120 0.447314 0.522615
O O2 0.439732 0.292359 0.544184
O O3 0.310079 0.978223 0.653847
O O4 0.575903 0.976993 0.882514
O O5 0.169074 0.280473 0.321839
O O6 0.900610 0.186549 0.303636
O O7 0.104159 0.891254 0.388965
O O8 0.788188 0.418112 0.017738
O O9 0.000000 0.500000 0.500000
O O10 0.859128 0.859323 0.176747
O O11 0.721738 0.507537 0.219548
O O12 0.500000 0.500000 0.000000
O O13 0.346773 0.458173 0.261768
O O14 0.403185 0.067544 0.348049
O O15 0.000000 0.500000 0.000000
O O16 0.500000 0.000000 0.000000
#
# Coordination Sequence:
#
# PCOD9095571 Si02
#       7
#     2   2   2   2   2   2   2
#     4  11  23  38  58  90 126 161 209 253 303 365
#     4  11  22  39  63  92 125 166 207 255 307 366
#     4  12  23  38  56  88 130 171 206 243 303 365
#     4  10  20  35  58  88 121 165 207 247 303 363
#     4   9  20  42  67  92 118 150 208 267 317 368
#     4  10  22  39  68  94 116 158 209 263 313 370
#     4  11  22  36  54  80 124 167 201 250 295 357
#
# _framework density 24.432814
#
# number of rings (size 3 to 8) (size 9 to 14) (size 15 to 20)
#    0.000    1.429    2.857    3.429    2.000    3.429 
#    0.000    0.714    0.000    8.571    0.000    0.000 
#    0.000    0.000    0.000    0.000    0.000    0.000 
#
# Total GULP energy -78166.795020 kJ/mol
# GULP energy per Si atom -5583.342501 kJ/mol
# Density = 2.437720 g / cm^3
# Si number density = 24.432814 Si / 1000 Ang^3
#
#
#
# Elastic Constant Matrix: (Units=GPa)
#
#
# Indices 1 2 3 4 5 6 
#
# 1 80.4453 34.8648 38.8056 2.8253 -15.5098 -28.3818
# 2 34.8648 99.0293 17.8604 -16.7036 -7.2091 -14.8478
# 3 38.8056 17.8604 141.5303 21.9774 -30.3152 -17.8470
# 4 2.8253 -16.7036 21.9774 46.3908 -19.6790 0.6978
# 5 -15.5098 -7.2091 -30.3152 -19.6790 54.7993 8.4023
# 6 -28.3818 -14.8478 -17.8470 0.6978 8.4023 42.6697
#
#
#
# Elastic Compliance Matrix: (Units=1/GPa)
#
#
# Indices 1 2 3 4 5 6 
#
# 1 0.019931 -0.005063 -0.003110 -0.001156 0.001313 0.009955
# 2 -0.005063 0.013308 -0.000773 0.006354 0.002107 0.000421
# 3 -0.003110 -0.000773 0.009259 -0.003306 0.002794 0.001039
# 4 -0.001156 0.006354 -0.003306 0.029619 0.009674 -0.002330
# 5 0.001313 0.002107 0.002794 0.009674 0.024247 -0.002158
# 6 0.009955 0.000421 0.001039 -0.002330 -0.002158 0.031102
#
#
# Mechanical properties :
#
#
# Convention : Reuss Voigt Hill
#
# Bulk Modulus (GPa) = 40.64136 56.00739 48.32437
# Shear Modulus (GPa) = 32.56037 44.07022 38.31530
#
# Velocity S-wave (km/s) = 3.65451 4.25164 3.96433
# Velocity P-wave (km/s) = 5.87173 6.86110 6.38561
#
# Compressibility (1/GPa) = 0.02460548
#
# Stress axis : x y z
#
# Youngs Moduli (GPa) = 50.17225 75.14077 108.00754
#
# Poissons Ratio (x) = 0.38045 0.33588
# Poissons Ratio (y) = 0.25403 0.08354
# Poissons Ratio (z) = 0.15602 0.05812
#
# Static dielectric constant tensor:
#      x y z
#    x 1.985230 -0.014900 -0.069830 
#    y -0.014900 1.985230 0.028740 
#    z -0.069830 0.028740 2.045170 
# 
# From -- ./inp_files/314011.got.cif
#   From: 2010.05.17/outbox.cif.g08.bks.cpg/sg2_158_cif.got.tgz:314011.got - 2010.06.03 11:33:40.
