data_PCOD9095822
_publ_section_title
;
Structure prediction by ZEFSAII (Michael W. Deem and Ramdas Pophale) SiO2 
 PCOD9095822
Probable space group: P -1
;
_chemical_formula_sum "Si O2"
_cell_formula_units_Z 14
_cell_length_a 19.758737
_cell_length_b 13.748139
_cell_length_c 9.374317
_cell_angle_alpha 45.144647
_cell_angle_beta 117.975923
_cell_angle_gamma 152.784074
_cell_volume 720.727424
_symmetry_space_group_name_H-M "P -1"
_symmetry_group_IT_number 2
_symmetry_cell_setting 'triclinic'
loop_
_space_group_symop_operation_xyz
x,y,z
-x,-y,-z
loop_
_atom_site_type_symbol
_atom_site_label
_atom_site_fract_x
_atom_site_fract_y
_atom_site_fract_z
Si Si1 0.124881 0.402744 0.687291
Si Si2 0.540870 0.413817 0.838615
Si Si3 0.547264 0.917299 0.149302
Si Si4 0.809646 0.270591 0.825460
Si Si5 0.742863 0.684948 0.043018
Si Si6 0.890389 0.369691 0.388007
Si Si7 0.547558 0.722639 0.606404
O O1 0.169227 0.561813 0.426245
O O2 0.228941 0.429137 0.771592
O O3 0.156275 0.548910 0.705069
O O4 0.000000 0.500000 0.500000
O O5 0.567024 0.361566 0.779305
O O6 0.556638 0.601915 0.642160
O O7 0.663090 0.568514 0.927996
O O8 0.345955 0.066213 0.045122
O O9 0.534289 0.835569 0.377898
O O10 0.500000 0.000000 0.000000
O O11 0.736260 0.194783 0.985011
O O12 0.981585 0.458706 0.791799
O O13 0.610661 0.539153 0.173524
O O14 0.926162 0.048160 0.854168
O O15 0.720520 0.012891 0.566250
#
# Coordination Sequence:
#
# PCOD9095822 Si02
#       7
#     2   2   2   2   2   2   2
#     4  10  21  37  58  93 124 160 198 261 302 361
#     4  10  22  39  63  89 122 159 206 249 301 363
#     4  10  24  41  63  90 123 163 205 251 298 369
#     4   9  20  38  60  82 127 154 205 244 299 358
#     4  11  22  36  65  90 125 155 208 252 314 349
#     4  10  20  35  60  87 123 153 203 247 300 353
#     4  12  23  39  66  92 123 164 203 249 306 364
#
# _framework density 19.424818999999999
#
# number of rings (size 3 to 8) (size 9 to 14) (size 15 to 20)
#    0.857    0.857    0.000    6.000    2.000    1.714 
#    0.000    0.000    0.000    3.429    0.000    0.000 
#    0.000    0.000    0.000    0.000    0.000    0.000 
#
# Total GULP energy -78082.352902 kJ/mol
# GULP energy per Si atom -5577.310922 kJ/mol
# Density = 1.938061 g / cm^3
# Si number density = 19.424819 Si / 1000 Ang^3
#
#
#
# Elastic Constant Matrix: (Units=GPa)
#
#
# Indices 1 2 3 4 5 6 
#
# 1 69.4062 21.9193 1.9851 -10.7378 12.5586 -3.8325
# 2 21.9193 61.5882 20.9108 -4.3344 5.9310 -0.5310
# 3 1.9851 20.9108 69.1669 -3.3268 16.3642 -2.9766
# 4 -10.7378 -4.3344 -3.3268 31.7002 -1.1034 -4.5062
# 5 12.5586 5.9310 16.3642 -1.1034 41.9281 -3.5558
# 6 -3.8325 -0.5310 -2.9766 -4.5062 -3.5558 15.9990
#
#
#
# Elastic Compliance Matrix: (Units=1/GPa)
#
#
# Indices 1 2 3 4 5 6 
#
# 1 0.018696 -0.006772 0.003306 0.006348 -0.005301 0.005479
# 2 -0.006772 0.020671 -0.006503 -0.000372 0.001470 -0.001924
# 3 0.003306 -0.006503 0.018195 0.002342 -0.006847 0.003099
# 4 0.006348 -0.000372 0.002342 0.035535 -0.000830 0.011768
# 5 -0.005301 0.001470 -0.006847 -0.000830 0.028180 0.003534
# 6 0.005479 -0.001924 0.003099 0.011768 0.003534 0.068429
#
#
# Mechanical properties :
#
#
# Convention : Reuss Voigt Hill
#
# Bulk Modulus (GPa) = 26.57951 32.19906 29.38929
# Shear Modulus (GPa) = 22.50378 28.28188 25.39283
#
# Velocity S-wave (km/s) = 3.40738 3.81985 3.61950
# Velocity P-wave (km/s) = 5.40308 6.00560 5.71229
#
# Compressibility (1/GPa) = 0.03762296
#
# Stress axis : x y z
#
# Youngs Moduli (GPa) = 53.48817 48.37767 54.96018
#
# Poissons Ratio (x) = 0.32760 -0.18169
# Poissons Ratio (y) = 0.36221 0.35742
# Poissons Ratio (z) = -0.17682 0.31461
#
# Static dielectric constant tensor:
#      x y z
#    x 1.725190 -0.000990 0.005360 
#    y -0.000990 1.664630 0.008430 
#    z 0.005360 0.008430 1.676800 
# 
# From -- ./inp_files/465740.got.cif
#   From: 2010.05.17/outbox.cif.g08.bks.cpg/sg2_233_cif.got.tgz:465740.got - 2010.06.03 11:33:40.
