data_PCOD9095140
_publ_section_title
;
Structure prediction by ZEFSAII (Michael W. Deem and Ramdas Pophale) SiO2 
 PCOD9095140
Probable space group: P -1
;
_chemical_formula_sum "Si O2"
_cell_formula_units_Z 14
_cell_length_a 8.377550
_cell_length_b 8.596885
_cell_length_c 15.096537
_cell_angle_alpha 103.674980
_cell_angle_beta 145.262355
_cell_angle_gamma 93.510129
_cell_volume 534.050911
_symmetry_space_group_name_H-M "P -1"
_symmetry_group_IT_number 2
_symmetry_cell_setting 'triclinic'
loop_
_space_group_symop_operation_xyz
x,y,z
-x,-y,-z
loop_
_atom_site_type_symbol
_atom_site_label
_atom_site_fract_x
_atom_site_fract_y
_atom_site_fract_z
Si Si1 0.937614 0.293576 0.443273
Si Si2 0.846282 0.741163 0.200609
Si Si3 0.331136 0.793852 0.870769
Si Si4 0.413406 0.123754 0.311462
Si Si5 0.308864 0.539348 0.041274
Si Si6 0.036258 0.253994 0.027184
Si Si7 0.231291 0.173841 0.418712
O O1 0.658060 0.211547 0.230365
O O2 0.751737 0.182586 0.429297
O O3 0.000000 0.500000 0.500000
O O4 0.215191 0.256613 0.519656
O O5 0.679166 0.640138 0.200496
O O6 0.524843 0.711870 0.996946
O O7 0.922830 0.609476 0.155906
O O8 0.051988 0.956279 0.324720
O O9 0.965656 0.737429 0.711144
O O10 0.500000 0.000000 0.000000
O O11 0.242683 0.216077 0.188383
O O12 0.461213 0.180642 0.444328
O O13 0.168271 0.913666 0.154430
O O14 0.247202 0.425651 0.086908
O O15 0.207047 0.695241 0.026770
#
# Coordination Sequence:
#
# PCOD9095140 Si02
#       7
#     2   2   2   2   2   2   2
#     4  10  22  34  52  84 111 141 184 228 267 321
#     4  10  16  30  50  78 110 151 163 223 281 324
#     4   8  17  31  53  79 110 139 181 214 275 326
#     4  11  20  34  57  73 115 146 178 221 278 326
#     4  10  19  28  46  79 125 129 179 224 271 322
#     4  10  21  31  47  88 110 145 174 226 278 321
#     4   9  19  32  53  77 105 143 180 212 277 322
#
# _framework density 26.214728000000001
#
# number of rings (size 3 to 8) (size 9 to 14) (size 15 to 20)
#    0.857    1.429    1.429    2.571    6.000    0.571 
#    0.000    0.000    0.000    0.000    0.000   38.000 
#    0.000    0.000    0.000    0.000    0.000    0.000 
#
# Total GULP energy -78053.114900 kJ/mol
# GULP energy per Si atom -5575.222493 kJ/mol
# Density = 2.615506 g / cm^3
# Si number density = 26.214728 Si / 1000 Ang^3
#
#
#
# Elastic Constant Matrix: (Units=GPa)
#
#
# Indices 1 2 3 4 5 6 
#
# 1 157.8035 1.9908 42.3094 13.4767 -43.8931 15.5835
# 2 1.9908 77.7215 31.3195 12.8154 -6.3865 -7.4030
# 3 42.3094 31.3195 109.9410 13.0501 -7.5363 -2.8694
# 4 13.4767 12.8154 13.0501 27.2279 -19.0553 4.0583
# 5 -43.8931 -6.3865 -7.5363 -19.0553 2.8419 21.4868
# 6 15.5835 -7.4030 -2.8694 4.0583 21.4868 36.5789
#
#
#
# Elastic Compliance Matrix: (Units=1/GPa)
#
#
# Indices 1 2 3 4 5 6 
#
# 1 0.004989 0.001706 -0.001850 -0.008420 -0.007852 0.003621
# 2 0.001706 0.015750 -0.004359 -0.005278 0.001643 0.001739
# 3 -0.001850 -0.004359 0.011225 0.000295 0.003582 -0.001350
# 4 -0.008420 -0.005278 0.000295 0.029358 -0.017763 0.009719
# 5 -0.007852 0.001643 0.003582 -0.017763 -0.023210 0.019563
# 6 0.003621 0.001739 -0.001350 0.009719 0.019563 0.013472
#
#
# Mechanical properties :
#
#
# Convention : Reuss Voigt Hill
#
# Bulk Modulus (GPa) = 43.55814 55.18949 49.37381
# Shear Modulus (GPa) = 73.26731 31.31948 52.29339
#
# Velocity S-wave (km/s) = 5.29241 3.46023 4.47117
# Velocity P-wave (km/s) = 7.34834 6.08793 6.74763
#
# Compressibility (1/GPa) = 0.02295782
#
# Stress axis : x y z
#
# Youngs Moduli (GPa) = 200.43630 63.49131 89.08868
#
# Poissons Ratio (x) = -0.10831 0.16483
# Poissons Ratio (y) = -0.34192 0.38832
# Poissons Ratio (z) = 0.37085 0.27675
#
# Static dielectric constant tensor:
#      x y z
#    x 2.272330 -0.055860 -0.041600 
#    y -0.055860 2.017120 -0.042840 
#    z -0.041600 -0.042840 2.095260 
# 
# From -- ./inp_files/264120.got.cif
#   From: 2010.05.17/outbox.cif.g08.bks.cpg/sg2_133_cif.got.tgz:264120.got - 2010.06.03 11:33:40.
