data_PCOD9095885
_publ_section_title
;
Structure prediction by ZEFSAII (Michael W. Deem and Ramdas Pophale) SiO2 
 PCOD9095885
Probable space group: P -1
;
_chemical_formula_sum "Si O2"
_cell_formula_units_Z 14
_cell_length_a 9.336071
_cell_length_b 11.017500
_cell_length_c 7.507789
_cell_angle_alpha 74.621021
_cell_angle_beta 69.112545
_cell_angle_gamma 61.801795
_cell_volume 631.469664
_symmetry_space_group_name_H-M "P -1"
_symmetry_group_IT_number 2
_symmetry_cell_setting 'triclinic'
loop_
_space_group_symop_operation_xyz
x,y,z
-x,-y,-z
loop_
_atom_site_type_symbol
_atom_site_label
_atom_site_fract_x
_atom_site_fract_y
_atom_site_fract_z
Si Si1 0.940069 0.387215 0.640914
Si Si2 0.532641 0.790376 0.181114
Si Si3 0.392027 0.958874 0.818561
Si Si4 0.796666 0.219544 0.563575
Si Si5 0.167426 0.425736 0.068689
Si Si6 0.109536 0.987862 0.671485
Si Si7 0.245509 0.183109 0.411796
O O1 0.825892 0.350503 0.566534
O O2 0.838821 0.453877 0.839083
O O3 0.000000 0.500000 0.500000
O O4 0.123091 0.255341 0.606009
O O5 0.394673 0.758366 0.359841
O O6 0.600889 0.893868 0.203662
O O7 0.437560 0.875027 0.014302
O O8 0.679021 0.647079 0.105539
O O9 0.553233 0.870820 0.653316
O O10 0.217949 0.970376 0.807089
O O11 0.917302 0.100466 0.696548
O O12 0.871664 0.157020 0.362334
O O13 0.180238 0.294345 0.237139
O O14 0.000000 0.500000 0.000000
O O15 0.206473 0.048515 0.463555
#
# Coordination Sequence:
#
# PCOD9095885 Si02
#       7
#     2   2   2   2   2   2   2
#     4   9  20  39  59  80 114 161 202 242 286 349
#     4  10  22  37  57  91 129 151 200 242 300 361
#     4  10  20  36  61  93 122 159 185 246 311 366
#     4  10  21  36  58  90 121 154 193 261 289 355
#     4  10  22  37  59  86 115 168 205 234 289 361
#     4  10  20  35  60  92 121 152 195 245 314 346
#     4   9  18  36  61  86 116 148 205 245 283 356
#
# _framework density 22.170504000000001
#
# number of rings (size 3 to 8) (size 9 to 14) (size 15 to 20)
#    0.000    2.286    1.429    0.429    4.000    1.143 
#    0.000    5.714    0.000   15.429    0.000    0.000 
#    0.000    0.000    0.000    0.000    0.000    0.000 
#
# Total GULP energy -77989.163688 kJ/mol
# GULP energy per Si atom -5570.654549 kJ/mol
# Density = 2.212004 g / cm^3
# Si number density = 22.170504 Si / 1000 Ang^3
#
#
#
# Elastic Constant Matrix: (Units=GPa)
#
#
# Indices 1 2 3 4 5 6 
#
# 1 92.2476 30.8163 12.8310 15.4761 28.4094 1.1360
# 2 30.8163 71.2788 23.8099 22.6566 13.3930 -0.5386
# 3 12.8310 23.8099 32.1202 15.4145 9.9654 -4.6456
# 4 15.4761 22.6566 15.4145 47.0181 -7.8201 9.3321
# 5 28.4094 13.3930 9.9654 -7.8201 40.6409 6.1413
# 6 1.1360 -0.5386 -4.6456 9.3321 6.1413 41.3181
#
#
#
# Elastic Compliance Matrix: (Units=1/GPa)
#
#
# Indices 1 2 3 4 5 6 
#
# 1 0.017207 -0.003594 0.005122 -0.008846 -0.014436 0.004200
# 2 -0.003594 0.021881 -0.010070 -0.006963 -0.003778 0.001386
# 3 0.005122 -0.010070 0.054475 -0.020620 -0.019616 0.013426
# 4 -0.008846 -0.006963 -0.020620 0.041220 0.023733 -0.015004
# 5 -0.014436 -0.003778 -0.019616 0.023733 0.047476 -0.014275
# 6 0.004200 0.001386 0.013426 -0.015004 -0.014275 0.031125
#
#
# Mechanical properties :
#
#
# Convention : Reuss Voigt Hill
#
# Bulk Modulus (GPa) = 13.07556 36.72898 24.90227
# Shear Modulus (GPa) = 19.53432 34.34139 26.93785
#
# Velocity S-wave (km/s) = 2.97154 3.93996 3.48951
# Velocity P-wave (km/s) = 4.20523 6.10740 5.24329
#
# Compressibility (1/GPa) = 0.07647856
#
# Stress axis : x y z
#
# Youngs Moduli (GPa) = 58.11637 45.70273 18.35718
#
# Poissons Ratio (x) = 0.16426 -0.09403
# Poissons Ratio (y) = 0.20888 0.18485
# Poissons Ratio (z) = -0.29767 0.46021
#
# Static dielectric constant tensor:
#      x y z
#    x 1.846950 0.065610 0.004990 
#    y 0.065610 1.929900 0.031130 
#    z 0.004990 0.031130 1.911260 
# 
# From -- ./inp_files/178887.got.cif
#   From: 2010.05.17/outbox.cif.g08.bks.cpg/sg2_90_cif.got.tgz:178887.got - 2010.06.03 11:33:40.
