data_PCOD9095443
_publ_section_title
;
Structure prediction by ZEFSAII (Michael W. Deem and Ramdas Pophale) SiO2 
 PCOD9095443
Probable space group: P -1
;
_chemical_formula_sum "Si O2"
_cell_formula_units_Z 16
_cell_length_a 5.255863
_cell_length_b 15.142099
_cell_length_c 16.664933
_cell_angle_alpha 35.761097
_cell_angle_beta 96.958750
_cell_angle_gamma 85.613726
_cell_volume 733.618241
_symmetry_space_group_name_H-M "P -1"
_symmetry_group_IT_number 2
_symmetry_cell_setting 'triclinic'
loop_
_space_group_symop_operation_xyz
x,y,z
-x,-y,-z
loop_
_atom_site_type_symbol
_atom_site_label
_atom_site_fract_x
_atom_site_fract_y
_atom_site_fract_z
Si Si1 0.078264 0.470558 0.616402
Si Si2 0.307402 0.755563 0.434042
Si Si3 0.865939 0.266834 0.859527
Si Si4 0.540748 0.184324 0.781090
Si Si5 0.875346 0.894141 0.632337
Si Si6 0.856506 0.037316 0.266824
Si Si7 0.532543 0.853151 0.968320
Si Si8 0.363178 0.167153 0.475565
O O1 0.162727 0.621199 0.534553
O O2 0.322363 0.308405 0.735550
O O3 0.000000 0.500000 0.500000
O O4 0.862553 0.430796 0.695428
O O5 0.443980 0.745763 0.358826
O O6 0.496993 0.737655 0.531985
O O7 0.099804 0.935823 0.294633
O O8 0.815327 0.166970 0.853462
O O9 0.639473 0.253708 0.922526
O O10 0.148967 0.214463 0.956094
O O11 0.465653 0.023676 0.884382
O O12 0.796607 0.773578 0.656967
O O13 0.604465 0.013029 0.571082
O O14 0.000000 0.000000 0.500000
O O15 0.063974 0.845751 0.753277
O O16 0.819385 0.897498 0.424436
O O17 0.587537 0.110510 0.152365
#
# Coordination Sequence:
#
# PCOD9095443 Si02
#       8
#     2   2   2   2   2   2   2   2
#     4  12  26  40  58  81 118 165 212 254 299 349
#     4  11  22  36  59  86 118 160 203 244 302 357
#     4  12  27  41  59  83 115 165 206 260 297 348
#     4  12  24  41  61  83 120 161 207 255 302 347
#     4   8  16  31  53  87 123 145 181 231 303 370
#     4  10  20  35  57  89 120 153 188 246 303 362
#     4  12  25  40  61  86 119 156 210 250 303 355
#     4   9  17  32  56  84 120 151 186 235 299 369
#
# _framework density 21.809709000000002
#
# number of rings (size 3 to 8) (size 9 to 14) (size 15 to 20)
#    0.000    1.250    3.750    2.625    3.500    0.000 
#    0.000    0.000    0.000    0.000    0.000    1.750 
#    0.000    0.125    0.000    0.000    0.000    0.000 
#
# Total GULP energy -89245.514174 kJ/mol
# GULP energy per Si atom -5577.844636 kJ/mol
# Density = 2.176007 g / cm^3
# Si number density = 21.809709 Si / 1000 Ang^3
#
#
#
# Elastic Constant Matrix: (Units=GPa)
#
#
# Indices 1 2 3 4 5 6 
#
# 1 88.8542 25.4580 9.8680 9.9298 4.9533 18.7567
# 2 25.4580 87.9342 6.2390 36.7155 15.8094 35.6195
# 3 9.8680 6.2390 22.3409 9.1225 9.9017 13.3774
# 4 9.9298 36.7155 9.1225 29.9153 17.7778 12.9971
# 5 4.9533 15.8094 9.9017 17.7778 46.1603 11.7577
# 6 18.7567 35.6195 13.3774 12.9971 11.7577 54.2621
#
#
#
# Elastic Compliance Matrix: (Units=1/GPa)
#
#
# Indices 1 2 3 4 5 6 
#
# 1 0.012920 -0.003894 -0.004967 0.002312 0.000464 -0.001340
# 2 -0.003894 0.034953 0.017004 -0.042820 0.005554 -0.016738
# 3 -0.004967 0.017004 0.066672 -0.029579 -0.003612 -0.018015
# 4 0.002312 -0.042820 -0.029579 0.100607 -0.021867 0.015242
# 5 0.000464 0.005554 -0.003612 -0.021867 0.029971 -0.004172
# 6 -0.001340 -0.016738 -0.018015 0.015242 -0.004172 0.031574
#
#
# Mechanical properties :
#
#
# Convention : Reuss Voigt Hill
#
# Bulk Modulus (GPa) = 7.64337 31.36213 19.50275
# Shear Modulus (GPa) = 16.44626 36.57184 26.50905
#
# Velocity S-wave (km/s) = 2.74903 4.09939 3.49014
# Velocity P-wave (km/s) = 3.68625 6.06777 5.02027
#
# Compressibility (1/GPa) = 0.13083233
#
# Stress axis : x y z
#
# Youngs Moduli (GPa) = 77.39760 28.60968 14.99881
#
# Poissons Ratio (x) = 0.11141 0.07449
# Poissons Ratio (y) = 0.30140 -0.25504
# Poissons Ratio (z) = 0.38441 -0.48649
#
# Static dielectric constant tensor:
#      x y z
#    x 1.977790 -0.018680 0.030840 
#    y -0.018680 1.844740 0.041350 
#    z 0.030840 0.041350 1.870150 
# 
# From -- ./inp_files/116918.got.cif
#   From: 2010.05.17/outbox.cif.g08.bks.cpg/sg2_59_cif.got.tgz:116918.got - 2010.06.03 11:33:40.
