data_PCOD9095036
_publ_section_title
;
Structure prediction by ZEFSAII (Michael W. Deem and Ramdas Pophale) SiO2 
 PCOD9095036
Probable space group: P -1
;
_chemical_formula_sum "Si O2"
_cell_formula_units_Z 16
_cell_length_a 19.274518
_cell_length_b 9.857064
_cell_length_c 5.036694
_cell_angle_alpha 53.139072
_cell_angle_beta 90.954949
_cell_angle_gamma 113.223655
_cell_volume 671.393866
_symmetry_space_group_name_H-M "P -1"
_symmetry_group_IT_number 2
_symmetry_cell_setting 'triclinic'
loop_
_space_group_symop_operation_xyz
x,y,z
-x,-y,-z
loop_
_atom_site_type_symbol
_atom_site_label
_atom_site_fract_x
_atom_site_fract_y
_atom_site_fract_z
Si Si1 0.109678 0.600301 0.564659
Si Si2 0.687917 0.688708 0.296299
Si Si3 0.805981 0.038457 0.223329
Si Si4 0.998383 0.261080 0.610395
Si Si5 0.588197 0.672401 0.806441
Si Si6 0.331533 0.899921 0.728895
Si Si7 0.924613 0.918521 0.401512
Si Si8 0.722281 0.360425 0.449617
O O1 0.060274 0.686449 0.619526
O O2 0.187121 0.588972 0.665321
O O3 0.039939 0.397624 0.701838
O O4 0.139156 0.749443 0.140790
O O5 0.638645 0.629024 0.639207
O O6 0.717404 0.544849 0.347156
O O7 0.759285 0.896539 0.141248
O O8 0.628385 0.691685 0.070968
O O9 0.742008 0.057056 0.378576
O O10 0.850402 0.932928 0.487628
O O11 0.944984 0.049957 0.982642
O O12 0.075710 0.277307 0.449482
O O13 0.595693 0.883878 0.504770
O O14 0.500000 0.500000 0.000000
O O15 0.328384 0.750775 0.682077
O O16 0.311874 0.796023 0.132610
O O17 0.000000 0.000000 0.500000
#
# Coordination Sequence:
#
# PCOD9095036 Si02
#       8
#     2   2   2   2   2   2   2   2
#     4   9  18  36  57  76 112 158 204 256 311 365
#     4  11  23  42  66  99 127 166 213 255 310 377
#     4   9  20  38  60  83 120 165 211 259 308 372
#     4   9  19  36  51  78 111 153 207 253 317 367
#     4  11  23  44  70  97 130 167 204 251 311 383
#     4  10  22  41  64  92 126 167 211 252 313 375
#     4  10  20  35  53  81 117 154 207 261 312 356
#     4  11  22  40  63  93 129 164 211 260 308 366
#
# _framework density 23.831022000000001
#
# number of rings (size 3 to 8) (size 9 to 14) (size 15 to 20)
#    0.000    2.000    0.000    4.125    1.750    0.000 
#   18.000    5.625    0.000    0.000    0.000    0.000 
#    0.000    0.000    0.000    0.000    0.000    0.000 
#
# Total GULP energy -89295.746698 kJ/mol
# GULP energy per Si atom -5580.984169 kJ/mol
# Density = 2.377678 g / cm^3
# Si number density = 23.831022 Si / 1000 Ang^3
#
#
#
# Elastic Constant Matrix: (Units=GPa)
#
#
# Indices 1 2 3 4 5 6 
#
# 1 34.6942 30.1435 18.2322 -7.8634 -3.8807 3.6116
# 2 30.1435 125.6806 23.5168 1.1331 -7.1426 -10.7839
# 3 18.2322 23.5168 59.5085 5.4676 -15.2594 9.4446
# 4 -7.8634 1.1331 5.4676 35.8922 3.6090 1.5020
# 5 -3.8807 -7.1426 -15.2594 3.6090 28.3789 -5.0629
# 6 3.6116 -10.7839 9.4446 1.5020 -5.0629 44.3908
#
#
#
# Elastic Compliance Matrix: (Units=1/GPa)
#
#
# Indices 1 2 3 4 5 6 
#
# 1 0.046505 -0.009668 -0.012216 0.013060 -0.005117 -0.004558
# 2 -0.009668 0.010994 -0.001325 -0.002611 0.001784 0.004031
# 3 -0.012216 -0.001325 0.025344 -0.007576 0.012035 -0.003091
# 4 0.013060 -0.002611 -0.007576 0.032797 -0.007481 -0.002048
# 5 -0.005117 0.001784 0.012035 -0.007481 0.043025 0.003449
# 6 -0.004558 0.004031 -0.003091 -0.002048 0.003449 0.024998
#
#
# Mechanical properties :
#
#
# Convention : Reuss Voigt Hill
#
# Bulk Modulus (GPa) = 27.45394 40.40759 33.93077
# Shear Modulus (GPa) = 20.64227 31.59842 26.12034
#
# Velocity S-wave (km/s) = 2.94631 3.64529 3.31428
# Velocity P-wave (km/s) = 4.80828 5.89154 5.37726
#
# Compressibility (1/GPa) = 0.03642464
#
# Stress axis : x y z
#
# Youngs Moduli (GPa) = 21.50317 90.95748 39.45767
#
# Poissons Ratio (x) = 0.87934 0.48202
# Poissons Ratio (y) = 0.20788 0.05229
# Poissons Ratio (z) = 0.26269 0.12054
#
# Static dielectric constant tensor:
#      x y z
#    x 2.060650 -0.124730 -0.030210 
#    y -0.124730 2.038790 0.021370 
#    z -0.030210 0.021370 1.949660 
# 
# From -- ./inp_files/106315.got.cif
#   From: 2010.05.17/outbox.cif.g08.bks.cpg/sg2_54_cif.got.tgz:106315.got - 2010.06.03 11:33:40.
