data_PCOD9095775
_publ_section_title
;
Structure prediction by ZEFSAII (Michael W. Deem and Ramdas Pophale) SiO2 
 PCOD9095775
Probable space group: P -1
;
_chemical_formula_sum "Si O2"
_cell_formula_units_Z 14
_cell_length_a 7.481747
_cell_length_b 11.921222
_cell_length_c 9.747231
_cell_angle_alpha 132.780906
_cell_angle_beta 121.345234
_cell_angle_gamma 79.120040
_cell_volume 525.836759
_symmetry_space_group_name_H-M "P -1"
_symmetry_group_IT_number 2
_symmetry_cell_setting 'triclinic'
loop_
_space_group_symop_operation_xyz
x,y,z
-x,-y,-z
loop_
_atom_site_type_symbol
_atom_site_label
_atom_site_fract_x
_atom_site_fract_y
_atom_site_fract_z
Si Si1 0.733852 0.337291 0.898530
Si Si2 0.345522 0.083555 0.677221
Si Si3 0.447671 0.368355 0.562091
Si Si4 0.785903 0.404556 0.260807
Si Si5 0.035523 0.843288 0.749114
Si Si6 0.956134 0.874287 0.172992
Si Si7 0.407662 0.862535 0.735527
O O1 0.532378 0.201274 0.766507
O O2 0.645790 0.382347 0.758535
O O3 0.948953 0.275961 0.925411
O O4 0.774458 0.456017 0.141645
O O5 0.246583 0.154084 0.827910
O O6 0.149127 0.003123 0.433259
O O7 0.431780 0.945461 0.666148
O O8 0.400881 0.539705 0.690112
O O9 0.499757 0.287389 0.376636
O O10 0.214932 0.250119 0.416921
O O11 0.818167 0.227099 0.142315
O O12 0.000000 0.500000 0.500000
O O13 0.153840 0.807073 0.626662
O O14 0.068813 0.033410 0.902173
O O15 0.500000 0.000000 0.000000
#
# Coordination Sequence:
#
# PCOD9095775 Si02
#       7
#     2   2   2   2   2   2   2
#     4  12  21  39  67  92 122 166 206 252 314 362
#     4  10  20  35  59  99 124 152 198 254 315 368
#     4  11  23  41  64  87 125 166 207 253 299 364
#     4  10  25  43  61  88 124 171 214 249 298 368
#     4  10  22  41  61  89 126 161 202 254 307 361
#     4  10  20  35  63  95 126 153 197 264 309 361
#     4  11  23  38  63  96 124 157 203 253 316 371
#
# _framework density 26.624234999999999
#
# number of rings (size 3 to 8) (size 9 to 14) (size 15 to 20)
#    0.000    1.429    2.857    2.571    0.000    6.286 
#    0.000    2.857    0.000    6.000    0.000    0.000 
#    0.000    0.000    0.000    0.000    0.000    0.000 
#
# Total GULP energy -78247.038423 kJ/mol
# GULP energy per Si atom -5589.074173 kJ/mol
# Density = 2.656364 g / cm^3
# Si number density = 26.624235 Si / 1000 Ang^3
#
#
#
# Elastic Constant Matrix: (Units=GPa)
#
#
# Indices 1 2 3 4 5 6 
#
# 1 93.1198 39.1924 18.6584 20.9399 -23.7099 -21.6541
# 2 39.1924 134.3388 39.4715 -14.9711 -26.0021 -32.6948
# 3 18.6584 39.4715 117.8678 -8.5432 -19.0549 -6.2279
# 4 20.9399 -14.9711 -8.5432 25.3106 -3.5480 -14.1081
# 5 -23.7099 -26.0021 -19.0549 -3.5480 34.6267 13.4775
# 6 -21.6541 -32.6948 -6.2279 -14.1081 13.4775 52.6957
#
#
#
# Elastic Compliance Matrix: (Units=1/GPa)
#
#
# Indices 1 2 3 4 5 6 
#
# 1 0.020343 -0.008121 -0.001447 -0.023956 0.006497 -0.004926
# 2 -0.008121 0.016408 -0.001288 0.023166 0.003784 0.011926
# 3 -0.001447 -0.001288 0.010119 0.004385 0.004087 -0.000069
# 4 -0.023956 0.023166 0.004385 0.090885 0.001425 0.029015
# 5 0.006497 0.003784 0.004087 0.001425 0.040286 -0.004421
# 6 -0.004926 0.011926 -0.000069 0.029015 -0.004421 0.033243
#
#
# Mechanical properties :
#
#
# Convention : Reuss Voigt Hill
#
# Bulk Modulus (GPa) = 39.74821 59.99676 49.87248
# Shear Modulus (GPa) = 20.71415 39.06020 29.88717
#
# Velocity S-wave (km/s) = 2.79232 3.83442 3.35409
# Velocity P-wave (km/s) = 5.03566 6.49517 5.81142
#
# Compressibility (1/GPa) = 0.02515837
#
# Stress axis : x y z
#
# Youngs Moduli (GPa) = 49.15797 60.94577 98.81993
#
# Poissons Ratio (x) = 0.49491 0.14300
# Poissons Ratio (y) = 0.39919 0.12730
# Poissons Ratio (z) = 0.07114 0.07851
#
# Static dielectric constant tensor:
#      x y z
#    x 2.079870 0.009080 -0.019740 
#    y 0.009080 2.211340 0.069470 
#    z -0.019740 0.069470 2.117550 
# 
# From -- ./inp_files/396676.got.cif
#   From: 2010.05.17/outbox.cif.g08.bks.cpg/sg2_199_cif.got.tgz:396676.got - 2010.06.03 11:33:40.
