data_PCOD9095545
_publ_section_title
;
Structure prediction by ZEFSAII (Michael W. Deem and Ramdas Pophale) SiO2 
 PCOD9095545
Probable space group: P -1
;
_chemical_formula_sum "Si O2"
_cell_formula_units_Z 12
_cell_length_a 15.061192
_cell_length_b 8.487457
_cell_length_c 11.027618
_cell_angle_alpha 109.522934
_cell_angle_beta 141.879090
_cell_angle_gamma 96.270031
_cell_volume 630.511457
_symmetry_space_group_name_H-M "P -1"
_symmetry_group_IT_number 2
_symmetry_cell_setting 'triclinic'
loop_
_space_group_symop_operation_xyz
x,y,z
-x,-y,-z
loop_
_atom_site_type_symbol
_atom_site_label
_atom_site_fract_x
_atom_site_fract_y
_atom_site_fract_z
Si Si1 0.982541 0.223556 0.332042
Si Si2 0.162793 0.548510 0.817427
Si Si3 0.430578 0.207579 0.262241
Si Si4 0.343822 0.273216 0.700869
Si Si5 0.465064 0.612995 0.319034
Si Si6 0.485951 0.045301 0.858181
O O1 0.031987 0.325069 0.546028
O O2 0.153274 0.233339 0.483582
O O3 0.955241 0.372610 0.262270
O O4 0.785733 0.986510 0.050040
O O5 0.268016 0.538910 0.038730
O O6 0.325538 0.731998 0.943259
O O7 0.468227 0.421128 0.309747
O O8 0.468113 0.234869 0.453237
O O9 0.544768 0.144236 0.303052
O O10 0.405402 0.282400 0.632477
O O11 0.337209 0.085051 0.704599
O O12 0.500000 0.500000 0.000000
O O13 0.500000 0.000000 0.000000
#
# Coordination Sequence:
#
# PCOD9095545 Si02
#       6
#     2   2   2   2   2   2
#     4  10  20  37  56  91 110 146 196 233 280 334
#     4   9  20  37  59  84 115 151 186 234 286 333
#     4  10  23  38  58  88 115 150 193 230 285 338
#     4  11  20  37  60  84 115 152 187 234 286 333
#     4  10  21  41  60  80 119 156 184 233 286 341
#     4  10  20  35  58  87 111 150 190 233 280 341
#
# _framework density 19.032167999999999
#
# number of rings (size 3 to 8) (size 9 to 14) (size 15 to 20)
#    0.000    2.000    3.333    1.000    0.000    7.333 
#    6.000    0.000    0.000    4.000    0.000    0.000 
#    0.000    0.000    0.000    0.000    0.000    0.000 
#
# Total GULP energy -66902.416508 kJ/mol
# GULP energy per Si atom -5575.201376 kJ/mol
# Density = 1.898885 g / cm^3
# Si number density = 19.032168 Si / 1000 Ang^3
#
#
#
# Elastic Constant Matrix: (Units=GPa)
#
#
# Indices 1 2 3 4 5 6 
#
# 1 71.6675 49.7400 18.8487 -14.5683 -14.7425 -30.3960
# 2 49.7400 93.8561 29.1026 -22.9051 -10.7774 -25.9630
# 3 18.8487 29.1026 49.6154 -2.3498 1.1400 -1.0071
# 4 -14.5683 -22.9051 -2.3498 33.9246 -12.0997 2.3135
# 5 -14.7425 -10.7774 1.1400 -12.0997 29.5613 -15.9948
# 6 -30.3960 -25.9630 -1.0071 2.3135 -15.9948 41.0810
#
#
#
# Elastic Compliance Matrix: (Units=1/GPa)
#
#
# Indices 1 2 3 4 5 6 
#
# 1 -0.008690 -0.029392 0.019075 -0.039077 -0.055573 -0.043974
# 2 -0.029392 0.009636 0.004972 -0.015480 -0.032441 -0.027294
# 3 0.019075 0.004972 0.010872 0.023436 0.037076 0.030638
# 4 -0.039077 -0.015480 0.023436 -0.015575 -0.066592 -0.063173
# 5 -0.055573 -0.032441 0.037076 -0.066592 -0.082627 -0.089133
# 6 -0.043974 -0.027294 0.030638 -0.063173 -0.089133 -0.055839
#
#
# Mechanical properties :
#
#
# Convention : Reuss Voigt Hill
#
# Bulk Modulus (GPa) = 886.29658 45.61351 465.95504
# Shear Modulus (GPa) = -38.12194 28.74323 -4.68936
#
# Velocity S-wave (km/s) = -4.48037 3.89040 -1.57139
# Velocity P-wave (km/s) = 20.97449 6.64822 15.55841
#
# Compressibility (1/GPa) = 0.00112829
#
# Stress axis : x y z
#
# Youngs Moduli (GPa) = -115.07062 103.77649 91.97726
#
# Poissons Ratio (x) = 3.05015 -1.75446
# Poissons Ratio (y) = -3.38210 -0.45728
# Poissons Ratio (z) = 2.19497 -0.51595
#
# Static dielectric constant tensor:
#      x y z
#    x 1.677180 -0.020600 0.023750 
#    y -0.020600 1.712920 -0.007130 
#    z 0.023750 -0.007130 1.667030 
# 
# From -- ./inp_files/158531.got.cif
#   From: 2010.05.17/outbox.cif.g08.bks.cpg/sg2_80_cif.got.tgz:158531.got - 2010.06.03 11:33:40.
