data_PCOD9095615
_publ_section_title
;
Structure prediction by ZEFSAII (Michael W. Deem and Ramdas Pophale) SiO2 
 PCOD9095615
Probable space group: P -1
;
_chemical_formula_sum "Si O2"
_cell_formula_units_Z 12
_cell_length_a 9.759902
_cell_length_b 5.093701
_cell_length_c 11.410518
_cell_angle_alpha 123.976292
_cell_angle_beta 82.344782
_cell_angle_gamma 83.810422
_cell_volume 454.612013
_symmetry_space_group_name_H-M "P -1"
_symmetry_group_IT_number 2
_symmetry_cell_setting 'triclinic'
loop_
_space_group_symop_operation_xyz
x,y,z
-x,-y,-z
loop_
_atom_site_type_symbol
_atom_site_label
_atom_site_fract_x
_atom_site_fract_y
_atom_site_fract_z
Si Si1 0.172606 0.502210 0.660726
Si Si2 0.539328 0.668525 0.156509
Si Si3 0.530335 0.381936 0.331231
Si Si4 0.837583 0.495457 0.987108
Si Si5 0.857264 0.760977 0.815551
Si Si6 0.148271 0.808179 0.487869
O O1 0.300770 0.668871 0.712176
O O2 0.128468 0.642521 0.571329
O O3 0.027490 0.621417 0.777512
O O4 0.225892 0.109081 0.562601
O O5 0.483719 0.583913 0.268225
O O6 0.483213 0.048354 0.241994
O O7 0.500000 0.500000 0.000000
O O8 0.712362 0.590988 0.119423
O O9 0.500000 0.500000 0.500000
O O10 0.792719 0.739926 0.945155
O O11 0.837250 0.123112 0.860254
O O12 0.000000 0.500000 0.000000
O O13 0.803574 0.501384 0.677390
O O14 0.000000 0.000000 0.500000
#
# Coordination Sequence:
#
# PCOD9095615 Si02
#       6
#     2   2   2   2   2   2
#     4  11  21  39  64  97 139 176 228 295 349 417
#     4  12  28  51  73 106 148 189 238 301 360 426
#     4  12  27  49  75 102 136 192 249 297 353 426
#     4  12  24  41  67  97 132 179 230 285 349 421
#     4  11  21  37  62  97 134 177 222 283 355 420
#     4  10  20  35  58  95 136 177 220 279 352 418
#
# _framework density 26.396137
#
# number of rings (size 3 to 8) (size 9 to 14) (size 15 to 20)
#    0.000    0.667    0.000   10.500    0.000    4.000 
#    0.000    0.000    0.000    0.000    0.000    0.000 
#    0.000    0.000    0.000    0.000    0.000    0.000 
#
# Total GULP energy -67178.616426 kJ/mol
# GULP energy per Si atom -5598.218036 kJ/mol
# Density = 2.633606 g / cm^3
# Si number density = 26.396137 Si / 1000 Ang^3
#
#
#
# Elastic Constant Matrix: (Units=GPa)
#
#
# Indices 1 2 3 4 5 6 
#
# 1 108.8939 23.5453 27.5079 1.4225 -14.3688 9.0651
# 2 23.5453 184.7271 75.8929 -4.8289 8.3161 39.2933
# 3 27.5079 75.8929 148.1763 -1.2751 2.3392 27.2274
# 4 1.4225 -4.8289 -1.2751 72.2064 12.8822 0.2565
# 5 -14.3688 8.3161 2.3392 12.8822 39.1089 5.3682
# 6 9.0651 39.2933 27.2274 0.2565 5.3682 30.7452
#
#
#
# Elastic Compliance Matrix: (Units=1/GPa)
#
#
# Indices 1 2 3 4 5 6 
#
# 1 0.010448 -0.000605 -0.001362 -0.001097 0.004672 -0.001907
# 2 -0.000605 0.008346 -0.002680 0.000727 -0.000985 -0.007948
# 3 -0.001362 -0.002680 0.009164 0.000005 0.000111 -0.004309
# 4 -0.001097 0.000727 0.000005 0.014899 -0.005497 0.000226
# 5 0.004672 -0.000985 0.000111 -0.005497 0.030043 -0.005416
# 6 -0.001907 -0.007948 -0.004309 0.000226 -0.005416 0.048005
#
#
# Mechanical properties :
#
#
# Convention : Reuss Voigt Hill
#
# Bulk Modulus (GPa) = 53.58283 77.29882 65.44083
# Shear Modulus (GPa) = 36.65133 49.40218 43.02675
#
# Velocity S-wave (km/s) = 3.73032 4.33086 4.04176
# Velocity P-wave (km/s) = 6.23677 7.37266 6.82837
#
# Compressibility (1/GPa) = 0.01866269
#
# Stress axis : x y z
#
# Youngs Moduli (GPa) = 95.71360 119.82488 109.12146
#
# Poissons Ratio (x) = 0.07254 0.14866
# Poissons Ratio (y) = 0.05794 0.29241
# Poissons Ratio (z) = 0.13039 0.32110
#
# Static dielectric constant tensor:
#      x y z
#    x 2.138380 -0.044840 0.060120 
#    y -0.044840 2.079860 -0.114900 
#    z 0.060120 -0.114900 2.270710 
# 
# From -- ./inp_files/408868.got.cif
#   From: 2010.05.17/outbox.cif.g08.bks.cpg/sg2_205_cif.got.tgz:408868.got - 2010.06.03 11:33:40.
