data_PCOD9095726
_publ_section_title
;
Structure prediction by ZEFSAII (Michael W. Deem and Ramdas Pophale) SiO2 
 PCOD9095726
Probable space group: P -1
;
_chemical_formula_sum "Si O2"
_cell_formula_units_Z 12
_cell_length_a 7.665504
_cell_length_b 10.704838
_cell_length_c 21.871381
_cell_angle_alpha 20.516169
_cell_angle_beta 54.328429
_cell_angle_gamma 53.398660
_cell_volume 503.011127
_symmetry_space_group_name_H-M "P -1"
_symmetry_group_IT_number 2
_symmetry_cell_setting 'triclinic'
loop_
_space_group_symop_operation_xyz
x,y,z
-x,-y,-z
loop_
_atom_site_type_symbol
_atom_site_label
_atom_site_fract_x
_atom_site_fract_y
_atom_site_fract_z
Si Si1 0.943411 0.622589 0.268359
Si Si2 0.745659 0.256192 0.950242
Si Si3 0.323479 0.335277 0.857897
Si Si4 0.082813 0.737366 0.320992
Si Si5 0.706008 0.287200 0.188540
Si Si6 0.467014 0.638770 0.578672
O O1 0.055433 0.576097 0.333083
O O2 0.736475 0.420981 0.394426
O O3 0.125507 0.510682 0.228634
O O4 0.844768 0.056431 0.082815
O O5 0.497985 0.447515 0.921384
O O6 0.773304 0.889747 0.071231
O O7 0.217874 0.517852 0.856489
O O8 0.389943 0.656216 0.656757
O O9 0.500000 0.000000 0.000000
O O10 0.000000 0.500000 0.500000
O O11 0.337053 0.712759 0.296157
O O12 0.916889 0.114058 0.186980
O O13 0.583165 0.961812 0.385257
#
# Coordination Sequence:
#
# PCOD9095726 Si02
#       6
#     2   2   2   2   2   2
#     4  10  21  41  61  83 120 156 195 242 291 345
#     4   9  20  39  61  85 116 155 196 245 291 337
#     4   9  17  34  57  82 114 149 194 239 281 339
#     4  10  22  38  58  87 124 157 188 238 296 351
#     4  10  20  35  59  90 117 152 197 238 293 351
#     4  10  21  38  62  86 116 157 195 243 291 341
#
# _framework density 23.856331999999998
#
# number of rings (size 3 to 8) (size 9 to 14) (size 15 to 20)
#    0.000    2.333    0.000    2.500    0.000    5.333 
#    0.000   25.000    0.000    0.000    0.000    0.000 
#    0.000    0.000    0.000    0.000    0.000    0.000 
#
# Total GULP energy -66805.426602 kJ/mol
# GULP energy per Si atom -5567.118884 kJ/mol
# Density = 2.380203 g / cm^3
# Si number density = 23.856332 Si / 1000 Ang^3
#
#
#
# Elastic Constant Matrix: (Units=GPa)
#
#
# Indices 1 2 3 4 5 6 
#
# 1 77.3168 19.8572 19.7169 -10.0051 -4.7961 -1.4231
# 2 19.8572 62.6515 2.4731 -12.7733 0.7688 -6.3698
# 3 19.7169 2.4731 89.0005 6.7639 -6.6494 8.4670
# 4 -10.0051 -12.7733 6.7639 29.6624 1.1487 11.6390
# 5 -4.7961 0.7688 -6.6494 1.1487 39.7358 -0.3508
# 6 -1.4231 -6.3698 8.4670 11.6390 -0.3508 30.4666
#
#
#
# Elastic Compliance Matrix: (Units=1/GPa)
#
#
# Indices 1 2 3 4 5 6 
#
# 1 0.015495 -0.003934 -0.003500 0.004629 0.001219 -0.000880
# 2 -0.003934 0.018656 -0.000336 0.006275 -0.001061 0.001401
# 3 -0.003500 -0.000336 0.012639 -0.003310 0.001773 -0.002461
# 4 0.004629 0.006275 -0.003310 0.044509 -0.001532 -0.014573
# 5 0.001219 -0.001061 0.001773 -0.001532 0.025677 0.000223
# 6 -0.000880 0.001401 -0.002461 -0.014573 0.000223 0.039328
#
#
# Mechanical properties :
#
#
# Convention : Reuss Voigt Hill
#
# Bulk Modulus (GPa) = 32.00078 34.78482 33.39280
# Shear Modulus (GPa) = 27.43313 32.43440 29.93377
#
# Velocity S-wave (km/s) = 3.39474 3.69124 3.54609
# Velocity P-wave (km/s) = 5.36738 5.72535 5.54925
#
# Compressibility (1/GPa) = 0.03124924
#
# Stress axis : x y z
#
# Youngs Moduli (GPa) = 64.53625 53.60164 79.12075
#
# Poissons Ratio (x) = 0.21085 0.27696
# Poissons Ratio (y) = 0.25387 0.02661
# Poissons Ratio (z) = 0.22590 0.01803
#
# Static dielectric constant tensor:
#      x y z
#    x 2.139700 -0.014490 0.021480 
#    y -0.014490 1.916660 0.064690 
#    z 0.021480 0.064690 2.160160 
# 
# From -- ./inp_files/606970.got.cif
#   From: 2010.05.17/outbox.cif.g08.bks.cpg/sg2_304_cif.got.tgz:606970.got - 2010.06.03 11:33:40.
