data_PCOD9095037
_publ_section_title
;
Structure prediction by ZEFSAII (Michael W. Deem and Ramdas Pophale) SiO2 
 PCOD9095037
Probable space group: P -1
;
_chemical_formula_sum "Si O2"
_cell_formula_units_Z 16
_cell_length_a 13.173093
_cell_length_b 9.079502
_cell_length_c 7.999720
_cell_angle_alpha 123.594733
_cell_angle_beta 60.221132
_cell_angle_gamma 91.280329
_cell_volume 648.203569
_symmetry_space_group_name_H-M "P -1"
_symmetry_group_IT_number 2
_symmetry_cell_setting 'triclinic'
loop_
_space_group_symop_operation_xyz
x,y,z
-x,-y,-z
loop_
_atom_site_type_symbol
_atom_site_label
_atom_site_fract_x
_atom_site_fract_y
_atom_site_fract_z
Si Si1 0.446386 0.955055 0.319560
Si Si2 0.276941 0.887431 0.171718
Si Si3 0.087660 0.107572 0.217069
Si Si4 0.207619 0.233465 0.891688
Si Si5 0.854555 0.351749 0.717562
Si Si6 0.047372 0.718234 0.031400
Si Si7 0.315068 0.566581 0.664372
Si Si8 0.516380 0.274271 0.543686
O O1 0.543188 0.065435 0.312064
O O2 0.398902 0.918177 0.157512
O O3 0.496063 0.771282 0.280714
O O4 0.321182 0.097657 0.604409
O O5 0.226770 0.785178 0.296938
O O6 0.169608 0.067167 0.295314
O O7 0.304112 0.740518 0.906222
O O8 0.171102 0.128079 0.009653
O O9 0.961818 0.287597 0.451364
O O10 0.045071 0.926881 0.115762
O O11 0.220861 0.426339 0.071620
O O12 0.081440 0.300562 0.925643
O O13 0.925789 0.300815 0.805636
O O14 0.175035 0.574557 0.754400
O O15 0.401062 0.393972 0.595643
O O16 0.386606 0.615988 0.482574
#
# Coordination Sequence:
#
# PCOD9095037 Si02
#       8
#     2   2   2   2   2   2   2   2
#     4  11  22  38  60  86 112 152 191 231 283 337
#     4  10  21  38  59  79 114 152 190 231 282 338
#     4  10  20  35  53  81 119 153 184 226 279 340
#     4  12  22  35  58  89 120 146 188 234 282 337
#     4  10  20  35  53  81 119 153 184 226 279 340
#     4  10  20  36  61  83 115 152 186 229 282 344
#     4   9  20  41  59  85 113 149 190 236 284 326
#     4  10  22  40  62  82 114 148 194 238 274 336
#
# _framework density 24.683603999999999
#
# number of rings (size 3 to 8) (size 9 to 14) (size 15 to 20)
#    0.000    2.000    0.000    7.125    0.000    3.000 
#    0.000    2.500    0.000    0.000    0.000    0.000 
#    0.000    0.000    0.000    0.000    0.000    0.000 
#
# Total GULP energy -89403.211144 kJ/mol
# GULP energy per Si atom -5587.700696 kJ/mol
# Density = 2.462742 g / cm^3
# Si number density = 24.683604 Si / 1000 Ang^3
#
#
#
# Elastic Constant Matrix: (Units=GPa)
#
#
# Indices 1 2 3 4 5 6 
#
# 1 91.6281 -5.0981 -8.6072 1.3745 -11.0035 -3.3587
# 2 -5.0981 93.6957 22.8764 -5.0191 -11.2307 3.3914
# 3 -8.6072 22.8764 46.1634 2.1370 -20.5279 -1.7454
# 4 1.3745 -5.0191 2.1370 18.6135 1.4416 -10.7216
# 5 -11.0035 -11.2307 -20.5279 1.4416 30.9869 1.5899
# 6 -3.3587 3.3914 -1.7454 -10.7216 1.5899 23.4534
#
#
#
# Elastic Compliance Matrix: (Units=1/GPa)
#
#
# Indices 1 2 3 4 5 6 
#
# 1 0.012618 0.000061 0.006323 -0.001835 0.008734 0.000838
# 2 0.000061 0.012450 -0.006237 0.003718 0.000259 -0.000573
# 3 0.006323 -0.006237 0.037596 -0.009190 0.025386 -0.001317
# 4 -0.001835 0.003718 -0.009190 0.076436 -0.010702 0.034184
# 5 0.008734 0.000259 0.025386 -0.010702 0.053059 -0.005387
# 6 0.000838 -0.000573 -0.001317 0.034184 -0.005387 0.058735
#
#
# Mechanical properties :
#
#
# Convention : Reuss Voigt Hill
#
# Bulk Modulus (GPa) = 15.88363 27.75882 21.82123
# Shear Modulus (GPa) = 18.41036 29.43184 23.92110
#
# Velocity S-wave (km/s) = 2.73400 3.45681 3.11643
# Velocity P-wave (km/s) = 4.05156 5.21565 4.67002
#
# Compressibility (1/GPa) = 0.06295790
#
# Stress axis : x y z
#
# Youngs Moduli (GPa) = 79.25120 80.32188 26.59843
#
# Poissons Ratio (x) = -0.00490 -0.16818
# Poissons Ratio (y) = -0.00484 0.16590
# Poissons Ratio (z) = -0.50109 0.50097
#
# Static dielectric constant tensor:
#      x y z
#    x 2.016730 0.009130 -0.081000 
#    y 0.009130 2.011400 -0.007290 
#    z -0.081000 -0.007290 2.011820 
# 
# From -- ./inp_files/202151.got.cif
#   From: 2010.05.17/outbox.cif.g08.bks.cpg/sg2_102_cif.got.tgz:202151.got - 2010.06.03 11:33:40.
