data_PCOD9095966
_publ_section_title
;
Structure prediction by ZEFSAII (Michael W. Deem and Ramdas Pophale) SiO2 
 PCOD9095966
Probable space group: P -1
;
_chemical_formula_sum "Si O2"
_cell_formula_units_Z 16
_cell_length_a 15.733930
_cell_length_b 5.311814
_cell_length_c 15.062175
_cell_angle_alpha 62.142060
_cell_angle_beta 40.160515
_cell_angle_gamma 56.732221
_cell_volume 676.108288
_symmetry_space_group_name_H-M "P -1"
_symmetry_group_IT_number 2
_symmetry_cell_setting 'triclinic'
loop_
_space_group_symop_operation_xyz
x,y,z
-x,-y,-z
loop_
_atom_site_type_symbol
_atom_site_label
_atom_site_fract_x
_atom_site_fract_y
_atom_site_fract_z
Si Si1 0.775899 0.669806 0.426898
Si Si2 0.955876 0.113583 0.615629
Si Si3 0.336273 0.604966 0.601952
Si Si4 0.542113 0.869239 0.889246
Si Si5 0.268759 0.808020 0.095590
Si Si6 0.053743 0.718407 0.137128
Si Si7 0.784190 0.769044 0.594818
Si Si8 0.121114 0.627130 0.908033
O O1 0.706057 0.522453 0.433809
O O2 0.746522 0.619918 0.561214
O O3 0.943252 0.574639 0.290291
O O4 0.714281 0.033096 0.411672
O O5 0.836543 0.006281 0.773577
O O6 0.877509 0.476434 0.623411
O O7 0.106601 0.062173 0.548305
O O8 0.000000 0.000000 0.500000
O O9 0.500000 0.500000 0.500000
O O10 0.258305 0.493136 0.761671
O O11 0.633914 0.517339 0.890247
O O12 0.650953 0.965192 0.725268
O O13 0.393379 0.930330 0.949265
O O14 0.500000 0.000000 0.000000
O O15 0.160068 0.777309 0.113262
O O16 0.142755 0.565951 0.005227
O O17 0.948005 0.024654 0.125783
O O18 0.000000 0.500000 0.000000
#
# Coordination Sequence:
#
# PCOD9095966 Si02
#       8
#     2   2   2   2   2   2   2   2
#     4  11  23  43  68  98 130 166 218 267 317 392
#     4  10  20  35  61  88 123 162 205 262 319 378
#     4  11  25  45  68  94 135 170 208 268 331 384
#     4  10  22  41  57  84 128 166 208 261 315 378
#     4  10  21  39  59  87 122 165 209 259 317 378
#     4  10  21  39  64  92 126 160 219 267 318 376
#     4  10  22  37  58  92 122 163 214 259 317 378
#     4  10  21  40  64  92 123 166 209 268 318 382
#
# _framework density 23.664846000000001
#
# number of rings (size 3 to 8) (size 9 to 14) (size 15 to 20)
#    0.000    1.750    2.500    1.125    1.750    2.000 
#    4.500    0.000    0.000    0.000    0.000    0.000 
#    0.000    0.000    0.000    0.000    0.000    0.000 
#
# Total GULP energy -89302.053049 kJ/mol
# GULP energy per Si atom -5581.378316 kJ/mol
# Density = 2.361098 g / cm^3
# Si number density = 23.664846 Si / 1000 Ang^3
#
#
#
# Elastic Constant Matrix: (Units=GPa)
#
#
# Indices 1 2 3 4 5 6 
#
# 1 164.9855 16.6554 87.3964 27.0591 -14.1984 11.8665
# 2 16.6554 67.3858 23.6623 22.5066 -10.5923 2.0230
# 3 87.3964 23.6623 210.8043 41.0296 -24.1705 -0.6349
# 4 27.0591 22.5066 41.0296 30.9046 -1.2469 0.0944
# 5 -14.1984 -10.5923 -24.1705 -1.2469 43.8345 3.0195
# 6 11.8665 2.0230 -0.6349 0.0944 3.0195 27.4724
#
#
#
# Elastic Compliance Matrix: (Units=1/GPa)
#
#
# Indices 1 2 3 4 5 6 
#
# 1 0.008505 0.000662 -0.002555 -0.004458 0.001651 -0.003948
# 2 0.000662 0.021006 0.001433 -0.017541 0.005745 -0.002371
# 3 -0.002555 0.001433 0.007804 -0.009029 0.003508 0.000824
# 4 -0.004458 -0.017541 -0.009029 0.060639 -0.009199 0.003811
# 5 0.001651 0.005745 0.003508 -0.009199 0.026681 -0.003956
# 6 -0.003948 -0.002371 0.000824 0.003811 -0.003956 0.038721
#
#
# Mechanical properties :
#
#
# Convention : Reuss Voigt Hill
#
# Bulk Modulus (GPa) = 27.47597 77.62267 52.54932
# Shear Modulus (GPa) = 28.34332 41.47306 34.90819
#
# Velocity S-wave (km/s) = 3.46453 4.19085 3.84488
# Velocity P-wave (km/s) = 5.25734 7.50264 6.47801
#
# Compressibility (1/GPa) = 0.03639544
#
# Stress axis : x y z
#
# Youngs Moduli (GPa) = 117.57729 47.60547 128.13488
#
# Poissons Ratio (x) = -0.03152 0.32743
# Poissons Ratio (y) = -0.07784 -0.18367
# Poissons Ratio (z) = 0.30045 -0.06824
#
# Static dielectric constant tensor:
#      x y z
#    x 2.016300 -0.157260 0.055500 
#    y -0.157260 2.297640 -0.098030 
#    z 0.055500 -0.098030 1.995470 
# 
# From -- ./inp_files/83492.got.cif
#   From: 2010.05.17/outbox.cif.g08.bks.cpg/sg2_42_cif.got.tgz:83492.got - 2010.06.03 11:33:40.
