data_PCOD9095783
_publ_section_title
;
Structure prediction by ZEFSAII (Michael W. Deem and Ramdas Pophale) SiO2 
 PCOD9095783
Probable space group: P -1
;
_chemical_formula_sum "Si O2"
_cell_formula_units_Z 16
_cell_length_a 7.219218
_cell_length_b 21.164435
_cell_length_c 7.934259
_cell_angle_alpha 47.686977
_cell_angle_beta 102.118787
_cell_angle_gamma 76.263577
_cell_volume 746.562610
_symmetry_space_group_name_H-M "P -1"
_symmetry_group_IT_number 2
_symmetry_cell_setting 'triclinic'
loop_
_space_group_symop_operation_xyz
x,y,z
-x,-y,-z
loop_
_atom_site_type_symbol
_atom_site_label
_atom_site_fract_x
_atom_site_fract_y
_atom_site_fract_z
Si Si1 0.651066 0.086609 0.196853
Si Si2 0.431524 0.570034 0.698111
Si Si3 0.888615 0.051371 0.659017
Si Si4 0.674295 0.942745 0.986282
Si Si5 0.151388 0.445357 0.371313
Si Si6 0.363077 0.742609 0.592997
Si Si7 0.296152 0.429133 0.804569
Si Si8 0.685784 0.755112 0.385369
O O1 0.735056 0.085357 0.400968
O O2 0.481411 0.047546 0.219143
O O3 0.506472 0.195378 0.885807
O O4 0.862931 0.017757 0.240906
O O5 0.658325 0.545432 0.697300
O O6 0.316626 0.683128 0.545066
O O7 0.309229 0.529918 0.628994
O O8 0.500000 0.500000 0.000000
O O9 0.831554 0.152242 0.562766
O O10 0.179813 0.011932 0.121893
O O11 0.784538 0.826697 0.270200
O O12 0.500000 0.000000 0.000000
O O13 0.232087 0.413023 0.636710
O O14 0.142240 0.358173 0.427750
O O15 0.909239 0.543832 0.159422
O O16 0.549654 0.762119 0.513369
O O17 0.482068 0.664118 0.909930
#
# Coordination Sequence:
#
# PCOD9095783 Si02
#       8
#     2   2   2   2   2   2   2   2
#     4   9  22  36  57  84 112 152 186 228 278 327
#     4   9  20  37  56  84 112 143 186 232 277 330
#     4  11  19  39  60  80 118 150 184 232 276 330
#     4  10  20  37  57  83 116 146 188 228 279 329
#     4  10  20  39  61  83 113 148 185 232 283 333
#     4  10  20  35  60  84 112 150 186 230 279 332
#     4  10  21  38  61  83 112 148 185 232 286 331
#     4   9  20  37  53  87 113 144 189 227 275 330
#
# _framework density 21.431560000000001
#
# number of rings (size 3 to 8) (size 9 to 14) (size 15 to 20)
#    0.750    1.500    1.250    1.500    0.000    6.500 
#    6.750    2.500   11.000    0.000    0.000    0.000 
#    0.000    0.000    0.000    0.000    0.000    0.000 
#
# Total GULP energy -89257.724399 kJ/mol
# GULP energy per Si atom -5578.607775 kJ/mol
# Density = 2.138278 g / cm^3
# Si number density = 21.431560 Si / 1000 Ang^3
#
#
#
# Elastic Constant Matrix: (Units=GPa)
#
#
# Indices 1 2 3 4 5 6 
#
# 1 84.4217 39.1295 9.8399 -11.0469 -12.7361 3.8590
# 2 39.1295 103.1356 13.3611 -14.6924 -8.6051 -3.5353
# 3 9.8399 13.3611 54.2443 0.2767 -7.2798 -3.0064
# 4 -11.0469 -14.6924 0.2767 21.5978 2.2839 4.5870
# 5 -12.7361 -8.6051 -7.2798 2.2839 26.6867 3.4056
# 6 3.8590 -3.5353 -3.0064 4.5870 3.4056 35.3285
#
#
#
# Elastic Compliance Matrix: (Units=1/GPa)
#
#
# Indices 1 2 3 4 5 6 
#
# 1 0.015890 -0.004808 -0.001149 0.005012 0.005740 -0.003519
# 2 -0.004808 0.012733 -0.002170 0.006002 0.000607 0.000777
# 3 -0.001149 -0.002170 0.019850 -0.003104 0.004229 0.001593
# 4 0.005012 0.006002 -0.003104 0.054559 -0.000261 -0.007270
# 5 0.005740 0.000607 0.004229 -0.000261 0.042123 -0.004233
# 6 -0.003519 0.000777 0.001593 -0.007270 -0.004233 0.030255
#
#
# Mechanical properties :
#
#
# Convention : Reuss Voigt Hill
#
# Bulk Modulus (GPa) = 31.03654 40.71807 35.87730
# Shear Modulus (GPa) = 24.70314 28.68737 26.69525
#
# Velocity S-wave (km/s) = 3.39876 3.66260 3.53314
# Velocity P-wave (km/s) = 5.46948 6.07672 5.78108
#
# Compressibility (1/GPa) = 0.03222008
#
# Stress axis : x y z
#
# Youngs Moduli (GPa) = 62.93215 78.53368 50.37845
#
# Poissons Ratio (x) = 0.37756 0.05786
# Poissons Ratio (y) = 0.30255 0.10934
# Poissons Ratio (z) = 0.07228 0.17045
#
# Static dielectric constant tensor:
#      x y z
#    x 1.784200 0.028480 0.017110 
#    y 0.028480 1.798800 -0.009700 
#    z 0.017110 -0.009700 1.773700 
# 
# From -- ./inp_files/220668.got.cif
#   From: 2010.05.17/outbox.cif.g08.bks.cpg/sg2_111_cif.got.tgz:220668.got - 2010.06.03 11:33:40.
