data_PCOD9095998
_publ_section_title
;
Structure prediction by ZEFSAII (Michael W. Deem and Ramdas Pophale) SiO2 
 PCOD9095998
Probable space group: P -1
;
_chemical_formula_sum "Si O2"
_cell_formula_units_Z 12
_cell_length_a 16.782858
_cell_length_b 13.761746
_cell_length_c 7.276458
_cell_angle_alpha 130.836331
_cell_angle_beta 68.740678
_cell_angle_gamma 149.538456
_cell_volume 548.943395
_symmetry_space_group_name_H-M "P -1"
_symmetry_group_IT_number 2
_symmetry_cell_setting 'triclinic'
loop_
_space_group_symop_operation_xyz
x,y,z
-x,-y,-z
loop_
_atom_site_type_symbol
_atom_site_label
_atom_site_fract_x
_atom_site_fract_y
_atom_site_fract_z
Si Si1 0.695599 0.299671 0.631612
Si Si2 0.117059 0.702429 0.418214
Si Si3 0.675077 0.365164 0.312315
Si Si4 0.711028 0.128839 0.898173
Si Si5 0.915686 0.835476 0.176314
Si Si6 0.076190 0.944235 0.803505
O O1 0.811215 0.322193 0.556389
O O2 0.672889 0.322643 0.475420
O O3 0.500000 0.000000 0.500000
O O4 0.790031 0.543112 0.962828
O O5 0.241940 0.867904 0.333463
O O6 0.125221 0.860146 0.671383
O O7 0.905819 0.383910 0.154680
O O8 0.880967 0.694786 0.543751
O O9 0.476418 0.169738 0.214738
O O10 0.677664 0.237455 0.038025
O O11 0.807897 0.804310 0.111779
O O12 0.000000 0.000000 0.500000
O O13 0.047726 0.955283 0.049256
#
# Coordination Sequence:
#
# PCOD9095998 Si02
#       6
#     2   2   2   2   2   2
#     4  11  22  38  62  94 121 157 206 259 301 358
#     4  10  20  35  61  91 123 152 209 257 299 354
#     4   9  18  34  57  85 123 158 197 246 308 359
#     4   9  18  30  55  91 116 156 193 253 298 356
#     4  10  23  39  64  86 125 168 201 243 316 375
#     4   9  21  41  59  88 120 165 205 248 304 375
#
# _framework density 21.860175000000002
#
# number of rings (size 3 to 8) (size 9 to 14) (size 15 to 20)
#    0.000    2.333    1.667    0.000    7.000    6.000 
#    0.000    0.833    0.000    2.000    0.000    0.000 
#    0.000    0.000    0.000    0.000    0.000    0.000 
#
# Total GULP energy -66826.979010 kJ/mol
# GULP energy per Si atom -5568.914917 kJ/mol
# Density = 2.181042 g / cm^3
# Si number density = 21.860175 Si / 1000 Ang^3
#
#
#
# Elastic Constant Matrix: (Units=GPa)
#
#
# Indices 1 2 3 4 5 6 
#
# 1 77.7170 26.7232 38.0664 5.6113 -10.0006 5.0263
# 2 26.7232 70.7259 30.2967 -7.5394 -4.8662 2.0622
# 3 38.0664 30.2967 146.8017 -26.9578 -28.4596 0.2935
# 4 5.6113 -7.5394 -26.9578 34.4880 -2.0750 0.4890
# 5 -10.0006 -4.8662 -28.4596 -2.0750 31.0307 2.8413
# 6 5.0263 2.0622 0.2935 0.4890 2.8413 39.7584
#
#
#
# Elastic Compliance Matrix: (Units=1/GPa)
#
#
# Indices 1 2 3 4 5 6 
#
# 1 0.017854 -0.005411 -0.004973 -0.007950 -0.000018 -0.001841
# 2 -0.005411 0.017209 -0.001568 0.003405 -0.000235 -0.000222
# 3 -0.004973 -0.001568 0.012393 0.010774 0.010261 -0.000247
# 4 -0.007950 0.003405 0.010774 0.040099 0.010581 -0.000500
# 5 -0.000018 -0.000235 0.010261 0.010581 0.042598 -0.003236
# 6 -0.001841 -0.000222 -0.000247 -0.000500 -0.003236 0.025635
#
#
# Mechanical properties :
#
#
# Convention : Reuss Voigt Hill
#
# Bulk Modulus (GPa) = 42.45856 53.93525 48.19690
# Shear Modulus (GPa) = 26.66060 34.39931 30.52995
#
# Velocity S-wave (km/s) = 3.49606 3.97117 3.74117
# Velocity P-wave (km/s) = 5.98010 6.76412 6.38416
#
# Compressibility (1/GPa) = 0.02355238
#
# Stress axis : x y z
#
# Youngs Moduli (GPa) = 56.00964 58.11036 80.68898
#
# Poissons Ratio (x) = 0.31443 0.40124
# Poissons Ratio (y) = 0.30306 0.12654
# Poissons Ratio (z) = 0.27851 0.09113
#
# Static dielectric constant tensor:
#      x y z
#    x 1.845880 -0.018610 0.029260 
#    y -0.018610 1.943640 0.071630 
#    z 0.029260 0.071630 1.916970 
# 
# From -- ./inp_files/335116.got.cif
#   From: 2010.05.17/outbox.cif.g08.bks.cpg/sg2_168_cif.got.tgz:335116.got - 2010.06.03 11:33:40.
