data_PCOD9095135
_publ_section_title
;
Structure prediction by ZEFSAII (Michael W. Deem and Ramdas Pophale) SiO2 
 PCOD9095135
Probable space group: P -1
;
_chemical_formula_sum "Si O2"
_cell_formula_units_Z 14
_cell_length_a 9.235297
_cell_length_b 14.102238
_cell_length_c 12.312335
_cell_angle_alpha 136.545839
_cell_angle_beta 149.443126
_cell_angle_gamma 45.801358
_cell_volume 548.664991
_symmetry_space_group_name_H-M "P -1"
_symmetry_group_IT_number 2
_symmetry_cell_setting 'triclinic'
loop_
_space_group_symop_operation_xyz
x,y,z
-x,-y,-z
loop_
_atom_site_type_symbol
_atom_site_label
_atom_site_fract_x
_atom_site_fract_y
_atom_site_fract_z
Si Si1 0.961867 0.222413 0.152505
Si Si2 0.846507 0.483710 0.129190
Si Si3 0.716880 0.611011 0.366775
Si Si4 0.554225 0.669876 0.677084
Si Si5 0.438106 0.780111 0.906923
Si Si6 0.087925 0.083870 0.904773
Si Si7 0.070357 0.841874 0.363046
O O1 0.891124 0.351968 0.131232
O O2 0.708278 0.233241 0.084410
O O3 0.237057 0.248815 0.423988
O O4 0.991230 0.097156 0.979178
O O5 0.757286 0.613738 0.263507
O O6 0.166375 0.458290 0.261483
O O7 0.576747 0.450829 0.856554
O O8 0.000000 0.500000 0.500000
O O9 0.426620 0.665775 0.711838
O O10 0.315569 0.720198 0.472650
O O11 0.695532 0.809315 0.880339
O O12 0.256114 0.926403 0.863713
O O13 0.771629 0.788258 0.142468
O O14 0.873110 0.132185 0.706179
O O15 0.000000 0.000000 0.500000
#
# Coordination Sequence:
#
# PCOD9095135 Si02
#       7
#     2   2   2   2   2   2   2
#     4  10  22  35  56  88 122 150 186 242 301 342
#     4   9  20  39  64  87 108 146 199 243 285 360
#     4   9  19  40  65  84 110 145 191 246 300 341
#     4  10  20  36  60  84 112 156 203 238 278 339
#     4  11  21  35  53  86 125 154 193 240 283 342
#     4  10  20  35  55  80 117 160 205 231 276 347
#     4  11  19  37  59  78 117 166 202 236 273 327
#
# _framework density 25.516480999999999
#
# number of rings (size 3 to 8) (size 9 to 14) (size 15 to 20)
#    0.000    2.000    2.857    1.286    0.000   11.429 
#    0.000    1.429    0.000    8.571    0.000    0.000 
#    0.000    0.000    0.000    0.000    0.000    0.000 
#
# Total GULP energy -78124.586877 kJ/mol
# GULP energy per Si atom -5580.327634 kJ/mol
# Density = 2.545840 g / cm^3
# Si number density = 25.516481 Si / 1000 Ang^3
#
#
#
# Elastic Constant Matrix: (Units=GPa)
#
#
# Indices 1 2 3 4 5 6 
#
# 1 167.1970 38.9841 62.8601 -4.9965 -30.7423 -38.8131
# 2 38.9841 70.8214 49.7055 -11.5459 -4.0911 -18.6742
# 3 62.8601 49.7055 175.2504 -21.8230 -15.9895 -33.2829
# 4 -4.9965 -11.5459 -21.8230 35.8327 -1.6578 0.9162
# 5 -30.7423 -4.0911 -15.9895 -1.6578 30.8918 -1.0427
# 6 -38.8131 -18.6742 -33.2829 0.9162 -1.0427 41.7686
#
#
#
# Elastic Compliance Matrix: (Units=1/GPa)
#
#
# Indices 1 2 3 4 5 6 
#
# 1 0.010694 -0.002593 -0.000418 0.000661 0.010412 0.008691
# 2 -0.002593 0.019468 -0.003686 0.003509 -0.001612 0.003240
# 3 -0.000418 -0.003686 0.008712 0.004119 0.003992 0.004915
# 4 0.000661 0.003509 0.004119 0.031751 0.005123 0.004896
# 5 0.010412 -0.001612 0.003992 0.005123 0.045304 0.013154
# 6 0.008691 0.003240 0.004915 0.004896 0.013154 0.037603
#
#
# Mechanical properties :
#
#
# Convention : Reuss Voigt Hill
#
# Bulk Modulus (GPa) = 39.24617 79.59646 59.42132
# Shear Modulus (GPa) = 28.50313 39.14655 33.82484
#
# Velocity S-wave (km/s) = 3.34585 3.92109 3.64484
# Velocity P-wave (km/s) = 5.50821 7.19457 6.40711
#
# Compressibility (1/GPa) = 0.02548019
#
# Stress axis : x y z
#
# Youngs Moduli (GPa) = 93.50893 51.36724 114.78192
#
# Poissons Ratio (x) = 0.13318 0.04795
# Poissons Ratio (y) = 0.24244 0.42314
# Poissons Ratio (z) = 0.03906 0.18936
#
# Static dielectric constant tensor:
#      x y z
#    x 2.110200 -0.084020 -0.040130 
#    y -0.084020 2.156080 0.072860 
#    z -0.040130 0.072860 2.114940 
# 
# From -- ./inp_files/141114.got.cif
#   From: 2010.05.17/outbox.cif.g08.bks.cpg/sg2_71_cif.got.tgz:141114.got - 2010.06.03 11:33:40.
