data_PCOD9095729
_publ_section_title
;
Structure prediction by ZEFSAII (Michael W. Deem and Ramdas Pophale) SiO2 
 PCOD9095729
Probable space group: P -1
;
_chemical_formula_sum "Si O2"
_cell_formula_units_Z 16
_cell_length_a 8.115728
_cell_length_b 18.511291
_cell_length_c 15.094223
_cell_angle_alpha 148.396920
_cell_angle_beta 143.029057
_cell_angle_gamma 46.800952
_cell_volume 714.606120
_symmetry_space_group_name_H-M "P -1"
_symmetry_group_IT_number 2
_symmetry_cell_setting 'triclinic'
loop_
_space_group_symop_operation_xyz
x,y,z
-x,-y,-z
loop_
_atom_site_type_symbol
_atom_site_label
_atom_site_fract_x
_atom_site_fract_y
_atom_site_fract_z
Si Si1 0.194440 0.631074 0.860354
Si Si2 0.688717 0.321304 0.839281
Si Si3 0.370213 0.863360 0.917968
Si Si4 0.098848 0.083269 0.714550
Si Si5 0.912788 0.683469 0.484630
Si Si6 0.225130 0.415087 0.954629
Si Si7 0.896569 0.194871 0.492229
Si Si8 0.685369 0.824784 0.828819
O O1 0.067976 0.479876 0.662866
O O2 0.953068 0.732842 0.834239
O O3 0.309076 0.688994 0.064309
O O4 0.472584 0.607315 0.899083
O O5 0.409947 0.282952 0.628406
O O6 0.924576 0.219993 0.799951
O O7 0.735055 0.481889 0.004331
O O8 0.563494 0.812652 0.864590
O O9 0.113276 0.765658 0.721650
O O10 0.580680 0.882109 0.108362
O O11 0.264362 0.014753 0.001455
O O12 0.057369 0.969107 0.655526
O O13 0.000000 0.000000 0.500000
O O14 0.027300 0.735206 0.493999
O O15 0.087385 0.271505 0.723121
O O16 0.000000 0.500000 0.000000
O O17 0.570836 0.217567 0.387680
#
# Coordination Sequence:
#
# PCOD9095729 Si02
#       8
#     2   2   2   2   2   2   2   2
#     4  11  20  37  60  94 118 152 204 248 287 348
#     4  11  21  38  59  89 120 153 204 250 285 349
#     4   9  19  36  56  87 121 155 192 245 304 340
#     4  11  23  38  58  85 122 161 198 240 296 361
#     4  10  20  35  59  90 119 148 199 256 294 335
#     4  11  22  39  59  84 124 159 196 244 302 355
#     4  10  20  37  57  88 117 156 196 243 302 342
#     4   9  19  34  58  86 122 147 198 253 287 345
#
# _framework density 22.389958
#
# number of rings (size 3 to 8) (size 9 to 14) (size 15 to 20)
#    0.000    1.750    3.750    2.250    0.000    4.500 
#    0.000    1.250    0.000    3.000    0.000    0.000 
#    0.000    0.000    0.000    0.000    0.000    0.000 
#
# Total GULP energy -89336.009380 kJ/mol
# GULP energy per Si atom -5583.500586 kJ/mol
# Density = 2.233900 g / cm^3
# Si number density = 22.389958 Si / 1000 Ang^3
#
#
#
# Elastic Constant Matrix: (Units=GPa)
#
#
# Indices 1 2 3 4 5 6 
#
# 1 34.2288 26.1786 6.5166 -5.5141 14.7137 1.6329
# 2 26.1786 159.5006 54.2679 -7.1843 20.6831 -29.2884
# 3 6.5166 54.2679 151.6394 -16.0405 22.7312 12.7626
# 4 -5.5141 -7.1843 -16.0405 32.5022 1.8069 7.5988
# 5 14.7137 20.6831 22.7312 1.8069 13.5752 -12.2564
# 6 1.6329 -29.2884 12.7626 7.5988 -12.2564 6.0059
#
#
#
# Elastic Compliance Matrix: (Units=1/GPa)
#
#
# Indices 1 2 3 4 5 6 
#
# 1 0.024978 0.001981 -0.005148 -0.004492 0.003885 0.027423
# 2 0.001981 0.007814 0.000244 0.003659 -0.016996 -0.002268
# 3 -0.005148 0.000244 0.004481 -0.001586 0.007753 0.010896
# 4 -0.004492 0.003659 -0.001586 0.025702 0.012552 0.015531
# 5 0.003885 -0.016996 0.007753 0.012552 0.028845 -0.057430
# 6 0.027423 -0.002268 0.010896 0.015531 -0.057430 -0.012018
#
#
# Mechanical properties :
#
#
# Convention : Reuss Voigt Hill
#
# Bulk Modulus (GPa) = 31.81874 57.69946 44.75910
# Shear Modulus (GPa) = 52.01657 27.64370 39.83013
#
# Velocity S-wave (km/s) = 4.82520 3.51757 4.22231
# Velocity P-wave (km/s) = 6.72944 6.50568 6.61851
#
# Compressibility (1/GPa) = 0.03142802
#
# Stress axis : x y z
#
# Youngs Moduli (GPa) = 40.03517 127.98344 223.14744
#
# Poissons Ratio (x) = -0.25357 1.14877
# Poissons Ratio (y) = -0.07932 -0.05452
# Poissons Ratio (z) = 0.20610 -0.03127
#
# Static dielectric constant tensor:
#      x y z
#    x 1.914060 0.045320 -0.032290 
#    y 0.045320 1.805630 -0.053820 
#    z -0.032290 -0.053820 1.873070 
# 
# From -- ./inp_files/338162.got.cif
#   From: 2010.05.17/outbox.cif.g08.bks.cpg/sg2_170_cif.got.tgz:338162.got - 2010.06.03 11:33:40.
