data_PCOD9095941
_publ_section_title
;
Structure prediction by ZEFSAII (Michael W. Deem and Ramdas Pophale) SiO2 
 PCOD9095941
Probable space group: P -1
;
_chemical_formula_sum "Si O2"
_cell_formula_units_Z 13
_cell_length_a 12.280244
_cell_length_b 10.276599
_cell_length_c 6.841097
_cell_angle_alpha 73.075183
_cell_angle_beta 117.190718
_cell_angle_gamma 144.741569
_cell_volume 437.610222
_symmetry_space_group_name_H-M "P -1"
_symmetry_group_IT_number 2
_symmetry_cell_setting 'triclinic'
loop_
_space_group_symop_operation_xyz
x,y,z
-x,-y,-z
loop_
_atom_site_type_symbol
_atom_site_label
_atom_site_fract_x
_atom_site_fract_y
_atom_site_fract_z
Si Si1 0.385075 0.710002 0.158407
Si Si2 0.486548 0.254619 0.344867
Si Si3 0.781493 0.183081 0.858283
Si Si4 0.165681 0.914905 0.539019
Si Si5 0.315206 0.369155 0.076965
Si Si6 0.000000 0.500000 0.500000
Si Si7 0.021062 0.923031 0.775634
O O1 0.370614 0.639176 0.399232
O O2 0.243856 0.716313 0.050315
O O3 0.357321 0.568827 0.033746
O O4 0.627437 0.963516 0.246362
O O5 0.496861 0.417301 0.201025
O O6 0.448711 0.087677 0.253335
O O7 0.259792 0.046589 0.354605
O O8 0.871036 0.328695 0.668618
O O9 0.911759 0.170073 0.047939
O O10 0.092823 0.969403 0.592786
O O11 0.990010 0.647918 0.496815
O O12 0.206740 0.264580 0.247970
O O13 0.152584 0.158531 0.886984
#
# Coordination Sequence:
#
# PCOD9095941 Si02
#       7
#     2   2   2   2   2   1   2
#     4  10  20  35  61  86 111 150 185 237 273 336
#     4   8  19  36  57  83 110 148 188 232 269 337
#     4  10  20  38  61  81 118 142 192 228 288 324
#     4   9  21  35  56  86 116 142 194 224 288 324
#     4  10  20  37  60  77 117 154 191 219 287 322
#     4  10  20  36  58  84 112 146 184 238 270 344
#     4  10  22  39  56  84 115 155 180 236 274 344
#
# _framework density 29.706804000000002
#
# number of rings (size 3 to 8) (size 9 to 14) (size 15 to 20)
#    0.923    1.538    0.000    1.846    0.000    4.308 
#    0.000    3.077    0.000    0.000    0.000    0.000 
#    0.000    0.000    0.000    0.000    0.000    0.000 
#
# Total GULP energy -72403.827446 kJ/mol
# GULP energy per Si atom -5569.525188 kJ/mol
# Density = 2.963919 g / cm^3
# Si number density = 29.706804 Si / 1000 Ang^3
#
#
#
# Elastic Constant Matrix: (Units=GPa)
#
#
# Indices 1 2 3 4 5 6 
#
# 1 158.7778 34.8109 9.8686 9.2240 -21.2099 -51.4231
# 2 34.8109 158.7801 29.8589 -25.7751 -10.7692 -46.1031
# 3 9.8686 29.8589 55.8200 9.4684 -8.2123 -14.9127
# 4 9.2240 -25.7751 9.4684 45.4350 -2.3467 -19.4490
# 5 -21.2099 -10.7692 -8.2123 -2.3467 55.6955 2.0301
# 6 -51.4231 -46.1031 -14.9127 -19.4490 2.0301 57.0875
#
#
#
# Elastic Compliance Matrix: (Units=1/GPa)
#
#
# Indices 1 2 3 4 5 6 
#
# 1 0.010139 0.002638 -0.000037 0.005166 0.004114 0.012867
# 2 0.002638 0.015771 -0.006303 0.018269 0.003181 0.019577
# 3 -0.000037 -0.006303 0.022460 -0.009209 0.001780 -0.002457
# 4 0.005166 0.018269 -0.009209 0.047651 0.004945 0.033060
# 5 0.004114 0.003181 0.001780 0.004945 0.020327 0.007702
# 6 0.012867 0.019577 -0.002457 0.033060 0.007702 0.055265
#
#
# Mechanical properties :
#
#
# Convention : Reuss Voigt Hill
#
# Bulk Modulus (GPa) = 24.41067 58.05052 41.23059
# Shear Modulus (GPa) = 25.95083 51.56625 38.75854
#
# Velocity S-wave (km/s) = 2.95882 4.17086 3.61599
# Velocity P-wave (km/s) = 4.46182 6.54052 5.59849
#
# Compressibility (1/GPa) = 0.04096569
#
# Stress axis : x y z
#
# Youngs Moduli (GPa) = 98.63028 63.40908 44.52267
#
# Poissons Ratio (x) = -0.16728 0.00165
# Poissons Ratio (y) = -0.26019 0.28063
# Poissons Ratio (z) = 0.00365 0.39968
#
# Static dielectric constant tensor:
#      x y z
#    x 2.301950 0.014650 0.018710 
#    y 0.014650 2.312790 -0.079710 
#    z 0.018710 -0.079710 2.386230 
# 
# From -- ./inp_files/173333.got.cif
#   From: 2010.05.17/outbox.cif.g08.bks.cpg/sg2_87_cif.got.tgz:173333.got - 2010.06.03 11:33:40.
