data_PCOD9095697
_publ_section_title
;
Structure prediction by ZEFSAII (Michael W. Deem and Ramdas Pophale) SiO2 
 PCOD9095697
Probable space group: P -1
;
_chemical_formula_sum "Si O2"
_cell_formula_units_Z 16
_cell_length_a 21.040022
_cell_length_b 12.138505
_cell_length_c 8.426128
_cell_angle_alpha 87.729891
_cell_angle_beta 106.969236
_cell_angle_gamma 29.783972
_cell_volume 804.982571
_symmetry_space_group_name_H-M "P -1"
_symmetry_group_IT_number 2
_symmetry_cell_setting 'triclinic'
loop_
_space_group_symop_operation_xyz
x,y,z
-x,-y,-z
loop_
_atom_site_type_symbol
_atom_site_label
_atom_site_fract_x
_atom_site_fract_y
_atom_site_fract_z
Si Si1 0.776170 0.270030 0.611585
Si Si2 0.655942 0.573164 0.809599
Si Si3 0.688212 0.311016 0.026943
Si Si4 0.075048 0.747386 0.420510
Si Si5 0.084756 0.667930 0.800619
Si Si6 0.653438 0.904324 0.019728
Si Si7 0.607393 0.866903 0.334831
Si Si8 0.523094 0.341661 0.829816
O O1 0.760773 0.368078 0.750032
O O2 0.851811 0.240634 0.539486
O O3 0.591561 0.509825 0.414229
O O4 0.907881 0.968554 0.736499
O O5 0.498001 0.893864 0.638503
O O6 0.601798 0.545908 0.863541
O O7 0.775663 0.462126 0.017844
O O8 0.613914 0.424063 0.144148
O O9 0.639923 0.270510 0.911002
O O10 0.889473 0.023714 0.194766
O O11 0.066629 0.722409 0.598169
O O12 0.213548 0.454068 0.459847
O O13 0.167819 0.420475 0.888106
O O14 0.631441 0.900800 0.187641
O O15 0.506071 0.064414 0.806581
O O16 0.627048 0.073550 0.966689
#
# Coordination Sequence:
#
# PCOD9095697 Si02
#       8
#     2   2   2   2   2   2   2   2
#     4  12  22  35  60  88 116 148 194 231 280 341
#     4  11  22  36  56  89 121 149 180 236 292 335
#     4  11  23  38  60  81 119 149 191 238 274 341
#     4  11  20  36  61  88 109 146 193 245 270 326
#     4  10  20  35  59  88 114 141 187 243 282 319
#     4   9  17  34  59  83 112 143 186 239 283 322
#     4   9  18  33  58  87 114 144 182 240 287 324
#     4  11  22  40  58  85 111 156 194 225 284 338
#
# _framework density 19.876207000000001
#
# number of rings (size 3 to 8) (size 9 to 14) (size 15 to 20)
#    0.000    1.500    5.000    2.250    0.000    1.000 
#    0.000    3.750    0.000    1.500    0.000    0.000 
#    0.000    0.000    0.000    0.000    0.000    0.000 
#
# Total GULP energy -89358.716750 kJ/mol
# GULP energy per Si atom -5584.919797 kJ/mol
# Density = 1.983097 g / cm^3
# Si number density = 19.876207 Si / 1000 Ang^3
#
#
#
# Elastic Constant Matrix: (Units=GPa)
#
#
# Indices 1 2 3 4 5 6 
#
# 1 21.0647 6.4214 42.5584 9.1630 8.6880 30.1677
# 2 6.4214 105.5503 27.4218 -31.4120 -0.9311 23.4477
# 3 42.5584 27.4218 40.9096 -26.0459 12.4559 16.2671
# 4 9.1630 -31.4120 -26.0459 24.1140 6.8190 -9.2508
# 5 8.6880 -0.9311 12.4559 6.8190 14.3313 1.9206
# 6 30.1677 23.4477 16.2671 -9.2508 1.9206 29.6766
#
#
#
# Elastic Compliance Matrix: (Units=1/GPa)
#
#
# Indices 1 2 3 4 5 6 
#
# 1 0.018282 0.009767 0.032707 0.047734 -0.058158 -0.025586
# 2 0.009767 0.018480 0.004255 0.022433 -0.016573 -0.018797
# 3 0.032707 0.004255 0.018885 0.006534 -0.033342 -0.042767
# 4 0.047734 0.022433 0.006534 0.055860 -0.053174 -0.048976
# 5 -0.058158 -0.016573 -0.033342 -0.053174 0.149629 0.064233
# 6 -0.025586 -0.018797 -0.042767 -0.048976 0.064233 0.078576
#
#
# Mechanical properties :
#
#
# Convention : Reuss Voigt Hill
#
# Bulk Modulus (GPa) = 6.70673 35.59199 21.14936
# Shear Modulus (GPa) = 16.89447 19.69923 18.29685
#
# Velocity S-wave (km/s) = 2.91861 3.15158 3.03733
# Velocity P-wave (km/s) = 3.83918 5.58471 4.79209
#
# Compressibility (1/GPa) = 0.14910404
#
# Stress axis : x y z
#
# Youngs Moduli (GPa) = 54.69941 54.11202 52.95330
#
# Poissons Ratio (x) = -0.52852 -1.73193
# Poissons Ratio (y) = -0.53426 -0.22532
# Poissons Ratio (z) = -1.78903 -0.23025
#
# Static dielectric constant tensor:
#      x y z
#    x 1.677530 -0.020650 -0.030630 
#    y -0.020650 1.772230 0.000800 
#    z -0.030630 0.000800 1.697460 
# 
# From -- ./inp_files/199707.got.cif
#   From: 2010.05.17/outbox.cif.g08.bks.cpg/sg2_100_cif.got.tgz:199707.got - 2010.06.03 11:33:40.
