data_PCOD9095440
_publ_section_title
;
Structure prediction by ZEFSAII (Michael W. Deem and Ramdas Pophale) SiO2 
 PCOD9095440
Probable space group: P -1
;
_chemical_formula_sum "Si O2"
_cell_formula_units_Z 16
_cell_length_a 13.788818
_cell_length_b 17.431130
_cell_length_c 9.452496
_cell_angle_alpha 39.471745
_cell_angle_beta 48.651940
_cell_angle_gamma 25.300735
_cell_volume 611.406176
_symmetry_space_group_name_H-M "P -1"
_symmetry_group_IT_number 2
_symmetry_cell_setting 'triclinic'
loop_
_space_group_symop_operation_xyz
x,y,z
-x,-y,-z
loop_
_atom_site_type_symbol
_atom_site_label
_atom_site_fract_x
_atom_site_fract_y
_atom_site_fract_z
Si Si1 0.692107 0.728358 0.120176
Si Si2 0.676878 0.123935 0.864657
Si Si3 0.709063 0.926084 0.362805
Si Si4 0.945626 0.736330 0.708103
Si Si5 0.193048 0.488440 0.419620
Si Si6 0.479112 0.398460 0.065679
Si Si7 0.412704 0.519703 0.373828
Si Si8 0.976874 0.963995 0.305111
O O1 0.430142 0.898140 0.098023
O O2 0.747199 0.672142 0.312631
O O3 0.837587 0.515653 0.187563
O O4 0.781891 0.783637 0.894723
O O5 0.540559 0.346948 0.618530
O O6 0.938009 0.970033 0.819133
O O7 0.636324 0.100029 0.094901
O O8 0.829635 0.847082 0.509930
O O9 0.919410 0.712218 0.369007
O O10 0.500000 0.000000 0.500000
O O11 0.972410 0.852443 0.573401
O O12 0.307625 0.427744 0.244947
O O13 0.321322 0.491378 0.389226
O O14 0.500000 0.500000 0.000000
O O15 0.429673 0.500052 0.820138
O O16 0.738776 0.155041 0.182901
O O17 0.181688 0.766082 0.287106
#
# Coordination Sequence:
#
# PCOD9095440 Si02
#       8
#     2   2   2   2   2   2   2   2
#     4   9  18  37  59  82 124 152 192 236 302 351
#     4  11  21  32  57  95 122 146 188 257 293 337
#     4  11  20  34  60  90 116 151 202 241 289 354
#     4  10  20  35  57  89 115 157 191 245 290 352
#     4   9  19  39  59  82 116 162 197 231 295 361
#     4  10  22  39  57  82 120 166 190 237 301 361
#     4  10  20  36  56  87 121 151 194 244 297 342
#     4  12  22  36  62  93 117 149 206 247 290 345
#
# _framework density 26.169181999999999
#
# number of rings (size 3 to 8) (size 9 to 14) (size 15 to 20)
#    0.000    1.750    5.000    2.250    1.750    0.000 
#    0.000   10.625    0.000    0.750    0.000    0.000 
#    0.000    0.000    0.000    0.000    0.000    0.000 
#
# Total GULP energy -89301.384162 kJ/mol
# GULP energy per Si atom -5581.336510 kJ/mol
# Density = 2.610962 g / cm^3
# Si number density = 26.169182 Si / 1000 Ang^3
#
#
#
# Elastic Constant Matrix: (Units=GPa)
#
#
# Indices 1 2 3 4 5 6 
#
# 1 47.9029 33.6284 38.5930 6.9604 -5.1272 -20.3172
# 2 33.6284 115.8000 95.5871 32.4328 8.1830 -35.9020
# 3 38.5930 95.5871 224.5684 52.7918 -7.6660 -14.4475
# 4 6.9604 32.4328 52.7918 57.2650 -15.3855 -12.5820
# 5 -5.1272 8.1830 -7.6660 -15.3855 30.7409 8.4979
# 6 -20.3172 -35.9020 -14.4475 -12.5820 8.4979 32.1154
#
#
#
# Elastic Compliance Matrix: (Units=1/GPa)
#
#
# Indices 1 2 3 4 5 6 
#
# 1 0.033698 -0.001381 -0.005435 0.006629 0.002635 0.019230
# 2 -0.001381 0.031410 -0.010050 -0.007533 -0.024025 0.033124
# 3 -0.005435 -0.010050 0.009999 -0.004236 0.005841 -0.013381
# 4 0.006629 -0.007533 -0.004236 0.029500 0.016529 0.001051
# 5 0.002635 -0.024025 0.005841 0.016529 0.057766 -0.031372
# 6 0.019230 0.033124 -0.013381 0.001051 -0.031372 0.083027
#
#
# Mechanical properties :
#
#
# Convention : Reuss Voigt Hill
#
# Bulk Modulus (GPa) = 24.16893 80.43204 52.30049
# Shear Modulus (GPa) = 17.06927 38.72178 27.89552
#
# Velocity S-wave (km/s) = 2.55672 3.85082 3.26846
# Velocity P-wave (km/s) = 4.23928 7.11153 5.85429
#
# Compressibility (1/GPa) = 0.04137544
#
# Stress axis : x y z
#
# Youngs Moduli (GPa) = 29.67504 31.83714 100.00688
#
# Poissons Ratio (x) = 0.04396 0.54352
# Poissons Ratio (y) = 0.04097 1.00512
# Poissons Ratio (z) = 0.16128 0.31998
#
# Static dielectric constant tensor:
#      x y z
#    x 2.149000 0.079910 -0.054530 
#    y 0.079910 2.167990 0.010360 
#    z -0.054530 0.010360 2.119760 
# 
# From -- ./inp_files/467432.got.cif
#   From: 2010.05.17/outbox.cif.g08.bks.cpg/sg2_234_cif.got.tgz:467432.got - 2010.06.03 11:33:40.
