data_PCOD9095958
_publ_section_title
;
Structure prediction by ZEFSAII (Michael W. Deem and Ramdas Pophale) SiO2 
 PCOD9095958
Probable space group: P -1
;
_chemical_formula_sum "Si O2"
_cell_formula_units_Z 14
_cell_length_a 7.015062
_cell_length_b 6.971519
_cell_length_c 25.115011
_cell_angle_alpha 127.915389
_cell_angle_beta 41.922894
_cell_angle_gamma 119.326555
_cell_volume 646.181947
_symmetry_space_group_name_H-M "P -1"
_symmetry_group_IT_number 2
_symmetry_cell_setting 'triclinic'
loop_
_space_group_symop_operation_xyz
x,y,z
-x,-y,-z
loop_
_atom_site_type_symbol
_atom_site_label
_atom_site_fract_x
_atom_site_fract_y
_atom_site_fract_z
Si Si1 0.328427 0.874502 0.847601
Si Si2 0.326213 0.752082 0.378913
Si Si3 0.317821 0.307569 0.469368
Si Si4 0.714937 0.509809 0.761727
Si Si5 0.699497 0.825464 0.998903
Si Si6 0.688475 0.370901 0.042809
Si Si7 0.340965 0.638525 0.698905
O O1 0.587558 0.725489 0.790112
O O2 0.332497 0.859793 0.780663
O O3 0.345284 0.122200 0.920549
O O4 0.018525 0.745795 0.907078
O O5 0.306685 0.714673 0.312795
O O6 0.570459 0.594100 0.325148
O O7 0.017545 0.655385 0.448966
O O8 0.366020 0.034785 0.432733
O O9 0.500000 0.500000 0.500000
O O10 0.429501 0.322376 0.388601
O O11 0.518537 0.491261 0.851431
O O12 0.034294 0.583060 0.726335
O O13 0.455140 0.669840 0.992062
O O14 0.297917 0.902779 0.982045
O O15 0.000000 0.500000 0.000000
#
# Coordination Sequence:
#
# PCOD9095958 Si02
#       7
#     2   2   2   2   2   2   2
#     4   9  19  36  63  87 124 170 213 259 315 367
#     4  10  24  44  64  96 130 160 212 260 314 395
#     4  11  23  44  70  95 124 165 209 260 321 390
#     4  10  20  40  60  91 131 163 211 268 306 383
#     4   9  18  37  58  85 123 167 214 265 305 368
#     4  10  20  35  61  87 124 171 213 260 317 363
#     4  11  21  41  69  91 133 172 203 266 327 367
#
# _framework density 21.665724999999998
#
# number of rings (size 3 to 8) (size 9 to 14) (size 15 to 20)
#    0.000    2.000    2.857    0.429    0.000    1.714 
#    2.571    7.857    6.286    0.000    0.000    0.000 
#    0.000    0.000    0.000    0.000    0.000    0.000 
#
# Total GULP energy -78246.981495 kJ/mol
# GULP energy per Si atom -5589.070107 kJ/mol
# Density = 2.161641 g / cm^3
# Si number density = 21.665725 Si / 1000 Ang^3
#
#
#
# Elastic Constant Matrix: (Units=GPa)
#
#
# Indices 1 2 3 4 5 6 
#
# 1 142.9485 46.8290 51.2017 6.2132 -1.0236 30.2119
# 2 46.8290 86.7661 31.1231 6.6224 0.4695 33.4531
# 3 51.2017 31.1231 121.9104 3.7914 13.3083 21.9981
# 4 6.2132 6.6224 3.7914 20.0069 -1.4969 4.0151
# 5 -1.0236 0.4695 13.3083 -1.4969 47.1293 3.9545
# 6 30.2119 33.4531 21.9981 4.0151 3.9545 36.5457
#
#
#
# Elastic Compliance Matrix: (Units=1/GPa)
#
#
# Indices 1 2 3 4 5 6 
#
# 1 0.009767 -0.002670 -0.002824 -0.000711 0.001349 -0.003998
# 2 -0.002670 0.019151 -0.001221 -0.002282 0.001238 -0.014472
# 3 -0.002824 -0.001221 0.010471 -0.000411 -0.002809 -0.002502
# 4 -0.000711 -0.002282 -0.000411 0.051787 0.002019 -0.002984
# 5 0.001349 0.001238 -0.002809 0.002019 0.022361 -0.003199
# 6 -0.003998 -0.014472 -0.002502 -0.002984 -0.003199 0.046096
#
#
# Mechanical properties :
#
#
# Convention : Reuss Voigt Hill
#
# Bulk Modulus (GPa) = 38.52029 67.77029 53.14529
# Shear Modulus (GPa) = 27.51536 35.56779 31.54157
#
# Velocity S-wave (km/s) = 3.56756 4.05614 3.81967
# Velocity P-wave (km/s) = 5.89813 7.29960 6.63597
#
# Compressibility (1/GPa) = 0.02596034
#
# Stress axis : x y z
#
# Youngs Moduli (GPa) = 102.38098 52.21585 95.49764
#
# Poissons Ratio (x) = 0.13942 0.26972
# Poissons Ratio (y) = 0.27336 0.11656
# Poissons Ratio (z) = 0.28916 0.06373
#
# Static dielectric constant tensor:
#      x y z
#    x 1.792740 -0.054400 0.018670 
#    y -0.054400 1.819040 0.027550 
#    z 0.018670 0.027550 1.800490 
# 
# From -- ./inp_files/604038.got.cif
#   From: 2010.05.17/outbox.cif.g08.bks.cpg/sg2_303_cif.got.tgz:604038.got - 2010.06.03 11:33:40.
