data_PCOD9095017
_publ_section_title
;
Structure prediction by ZEFSAII (Michael W. Deem and Ramdas Pophale) SiO2 
 PCOD9095017
Probable space group: P -1
;
_chemical_formula_sum "Si O2"
_cell_formula_units_Z 16
_cell_length_a 11.468051
_cell_length_b 19.774657
_cell_length_c 5.609876
_cell_angle_alpha 72.367384
_cell_angle_beta 87.188063
_cell_angle_gamma 145.513635
_cell_volume 571.684438
_symmetry_space_group_name_H-M "P -1"
_symmetry_group_IT_number 2
_symmetry_cell_setting 'triclinic'
loop_
_space_group_symop_operation_xyz
x,y,z
-x,-y,-z
loop_
_atom_site_type_symbol
_atom_site_label
_atom_site_fract_x
_atom_site_fract_y
_atom_site_fract_z
Si Si1 0.152138 0.802101 0.881995
Si Si2 0.317077 0.627778 0.559230
Si Si3 0.681126 0.250316 0.292196
Si Si4 0.379422 0.412066 0.854430
Si Si5 0.230850 0.827932 0.365476
Si Si6 0.293485 0.534876 0.167749
Si Si7 0.156594 0.012662 0.957212
Si Si8 0.148336 0.003711 0.468911
O O1 0.180666 0.730716 0.918710
O O2 0.271033 0.896300 0.525161
O O3 0.879927 0.687096 0.026551
O O4 0.261619 0.873148 0.053785
O O5 0.166590 0.612255 0.709935
O O6 0.249295 0.559174 0.384102
O O7 0.574163 0.807224 0.288658
O O8 0.328706 0.582207 0.840091
O O9 0.610253 0.156445 0.605996
O O10 0.451569 0.165758 0.275288
O O11 0.500000 0.500000 0.500000
O O12 0.445255 0.363736 0.909387
O O13 0.500000 0.500000 0.000000
O O14 0.943110 0.645624 0.606567
O O15 0.093212 0.939127 0.797904
O O16 0.094058 0.940587 0.286650
O O17 0.000000 0.000000 0.000000
O O18 0.000000 0.000000 0.500000
#
# Coordination Sequence:
#
# PCOD9095017 Si02
#       8
#     2   2   2   2   2   2   2   2
#     4  10  20  35  53  75  93 148 191 232 261 301
#     4  11  23  34  52  79 115 140 171 233 269 333
#     4   9  22  34  53  73 115 141 178 219 271 332
#     4  12  20  38  58  70 100 141 203 246 255 308
#     4  10  21  34  49  73 103 146 187 218 269 309
#     4  12  23  35  51  79 106 147 191 223 281 303
#     4   9  18  34  53  74 103 140 170 207 270 332
#     4   9  17  30  53  77 102 133 169 218 265 319
#
# _framework density 27.987469000000001
#
# number of rings (size 3 to 8) (size 9 to 14) (size 15 to 20)
#    0.750    1.000    2.500    3.000    5.250    1.000 
#    0.000    0.000    0.000    0.000    0.000    0.000 
#    0.000   54.000    0.000    0.000    0.000    0.000 
#
# Total GULP energy -89197.378178 kJ/mol
# GULP energy per Si atom -5574.836136 kJ/mol
# Density = 2.792377 g / cm^3
# Si number density = 27.987469 Si / 1000 Ang^3
#
#
#
# Elastic Constant Matrix: (Units=GPa)
#
#
# Indices 1 2 3 4 5 6 
#
# 1 166.3143 61.2604 65.3832 9.5050 -3.5028 28.7923
# 2 61.2604 131.2183 81.7274 39.0210 -11.3821 12.4353
# 3 65.3832 81.7274 226.3188 76.3964 -0.6027 -2.4258
# 4 9.5050 39.0210 76.3964 68.0906 12.9563 5.0517
# 5 -3.5028 -11.3821 -0.6027 12.9563 48.0775 9.9888
# 6 28.7923 12.4353 -2.4258 5.0517 9.9888 43.5583
#
#
#
# Elastic Compliance Matrix: (Units=1/GPa)
#
#
# Indices 1 2 3 4 5 6 
#
# 1 0.009108 -0.003116 -0.003046 0.004379 -0.000090 -0.005788
# 2 -0.003116 0.012351 -0.001745 -0.005402 0.004542 -0.001978
# 3 -0.003046 -0.001745 0.009118 -0.009316 0.001195 0.003826
# 4 0.004379 -0.005402 -0.009316 0.029455 -0.008312 -0.003381
# 5 -0.000090 0.004542 0.001195 -0.008312 0.025375 -0.006026
# 6 -0.005788 -0.001978 0.003826 -0.003381 -0.006026 0.029335
#
#
# Mechanical properties :
#
#
# Convention : Reuss Voigt Hill
#
# Bulk Modulus (GPa) = 67.74869 104.51037 86.12953
# Shear Modulus (GPa) = 36.90629 52.97731 44.94180
#
# Velocity S-wave (km/s) = 3.63529 4.35546 4.01157
# Velocity P-wave (km/s) = 6.47146 7.91936 7.23174
#
# Compressibility (1/GPa) = 0.01476043
#
# Stress axis : x y z
#
# Youngs Moduli (GPa) = 109.79381 80.96722 109.67698
#
# Poissons Ratio (x) = 0.25231 0.33412
# Poissons Ratio (y) = 0.34214 0.19142
# Poissons Ratio (z) = 0.33447 0.14131
#
# Static dielectric constant tensor:
#      x y z
#    x 2.291030 0.007500 -0.133580 
#    y 0.007500 2.233990 -0.053180 
#    z -0.133580 -0.053180 2.317930 
# 
# From -- ./inp_files/82546.got.cif
#   From: 2010.05.17/outbox.cif.g08.bks.cpg/sg2_42_cif.got.tgz:82546.got - 2010.06.03 11:33:40.
