data_PCOD9095890
_publ_section_title
;
Structure prediction by ZEFSAII (Michael W. Deem and Ramdas Pophale) SiO2 
 PCOD9095890
Probable space group: P -1
;
_chemical_formula_sum "Si O2"
_cell_formula_units_Z 16
_cell_length_a 12.404820
_cell_length_b 16.034598
_cell_length_c 9.520783
_cell_angle_alpha 148.502124
_cell_angle_beta 64.596434
_cell_angle_gamma 135.077582
_cell_volume 615.335997
_symmetry_space_group_name_H-M "P -1"
_symmetry_group_IT_number 2
_symmetry_cell_setting 'triclinic'
loop_
_space_group_symop_operation_xyz
x,y,z
-x,-y,-z
loop_
_atom_site_type_symbol
_atom_site_label
_atom_site_fract_x
_atom_site_fract_y
_atom_site_fract_z
Si Si1 0.692912 0.167446 0.711246
Si Si2 0.550508 0.950458 0.761774
Si Si3 0.870682 0.073418 0.116583
Si Si4 0.684115 0.568647 0.424814
Si Si5 0.965262 0.158369 0.496212
Si Si6 0.891026 0.761573 0.026996
Si Si7 0.806568 0.377696 0.663790
Si Si8 0.531638 0.441732 0.632280
O O1 0.812390 0.122696 0.584273
O O2 0.807904 0.366041 0.812642
O O3 0.500000 0.000000 0.500000
O O4 0.662666 0.156370 0.879997
O O5 0.377482 0.755156 0.488068
O O6 0.595733 0.816901 0.601443
O O7 0.500000 0.000000 0.000000
O O8 0.892209 0.035514 0.207980
O O9 0.831166 0.223067 0.367232
O O10 0.037606 0.228177 0.148396
O O11 0.746976 0.815201 0.754893
O O12 0.606444 0.452933 0.454195
O O13 0.543295 0.456190 0.218796
O O14 0.840738 0.615127 0.346093
O O15 0.983432 0.017561 0.376679
O O16 0.923915 0.640303 0.931310
O O17 0.690542 0.610526 0.894158
#
# Coordination Sequence:
#
# PCOD9095890 Si02
#       8
#     2   2   2   2   2   2   2   2
#     4   9  20  39  58  83 114 148 190 241 299 347
#     4  10  20  37  57  80 109 155 192 236 292 355
#     4  10  16  30  52  85 118 151 188 238 283 331
#     4  10  18  31  52  84 118 154 190 232 285 337
#     4  10  18  33  58  81 116 151 188 241 290 334
#     4  10  17  31  52  91 115 147 191 238 277 337
#     4   9  19  31  56  86 117 148 189 240 286 333
#     4  10  19  31  52  83 117 145 198 230 272 342
#
# _framework density 26.002056
#
# number of rings (size 3 to 8) (size 9 to 14) (size 15 to 20)
#    0.000    2.250    2.500    1.875    0.000    0.000 
#    0.000    6.250    0.000    0.750    0.000    0.000 
#    0.000    0.000    0.000    0.000    0.000    0.000 
#
# Total GULP energy -89095.792471 kJ/mol
# GULP energy per Si atom -5568.487029 kJ/mol
# Density = 2.594287 g / cm^3
# Si number density = 26.002056 Si / 1000 Ang^3
#
#
#
# Elastic Constant Matrix: (Units=GPa)
#
#
# Indices 1 2 3 4 5 6 
#
# 1 102.6991 49.8138 16.8400 -5.3554 -15.0587 -11.0860
# 2 49.8138 123.0773 27.7815 -0.3817 -14.8267 -22.3073
# 3 16.8400 27.7815 36.7685 -18.4750 -9.8480 3.3451
# 4 -5.3554 -0.3817 -18.4750 35.4060 -3.9452 -5.7564
# 5 -15.0587 -14.8267 -9.8480 -3.9452 19.0145 -0.5779
# 6 -11.0860 -22.3073 3.3451 -5.7564 -0.5779 54.9005
#
#
#
# Elastic Compliance Matrix: (Units=1/GPa)
#
#
# Indices 1 2 3 4 5 6 
#
# 1 0.013243 -0.004382 0.001362 0.003838 0.008613 0.001304
# 2 -0.004382 0.013257 -0.011270 -0.005653 -0.000003 0.004596
# 3 0.001362 -0.011270 0.061355 0.034916 0.031190 -0.004053
# 4 0.003838 -0.005653 0.034916 0.050327 0.027216 0.001914
# 5 0.008613 -0.000003 0.031190 0.027216 0.081319 0.003547
# 6 0.001304 0.004596 -0.004053 0.001914 0.003547 0.020830
#
#
# Mechanical properties :
#
#
# Convention : Reuss Voigt Hill
#
# Bulk Modulus (GPa) = 16.86981 50.15731 33.51356
# Shear Modulus (GPa) = 17.32088 33.07151 25.19619
#
# Velocity S-wave (km/s) = 2.58376 3.57021 3.11627
# Velocity P-wave (km/s) = 3.92467 6.02718 5.08576
#
# Compressibility (1/GPa) = 0.05927749
#
# Stress axis : x y z
#
# Youngs Moduli (GPa) = 75.51229 75.43001 16.29848
#
# Poissons Ratio (x) = 0.33050 -0.02220
# Poissons Ratio (y) = 0.33086 0.18368
# Poissons Ratio (z) = -0.10287 0.85008
#
# Static dielectric constant tensor:
#      x y z
#    x 2.158460 0.017270 0.019730 
#    y 0.017270 2.112890 0.161800 
#    z 0.019730 0.161800 2.269390 
# 
# From -- ./inp_files/274612.got.cif
#   From: 2010.05.17/outbox.cif.g08.bks.cpg/sg2_138_cif.got.tgz:274612.got - 2010.06.03 11:33:40.
