data_PCOD9095867
_publ_section_title
;
Structure prediction by ZEFSAII (Michael W. Deem and Ramdas Pophale) SiO2 
 PCOD9095867
Probable space group: P -1
;
_chemical_formula_sum "Si O2"
_cell_formula_units_Z 16
_cell_length_a 18.242224
_cell_length_b 8.318966
_cell_length_c 9.310284
_cell_angle_alpha 97.704163
_cell_angle_beta 48.850994
_cell_angle_gamma 64.051121
_cell_volume 748.132600
_symmetry_space_group_name_H-M "P -1"
_symmetry_group_IT_number 2
_symmetry_cell_setting 'triclinic'
loop_
_space_group_symop_operation_xyz
x,y,z
-x,-y,-z
loop_
_atom_site_type_symbol
_atom_site_label
_atom_site_fract_x
_atom_site_fract_y
_atom_site_fract_z
Si Si1 0.937235 0.071282 0.929754
Si Si2 0.951057 0.729131 0.268504
Si Si3 0.866890 0.797309 0.047391
Si Si4 0.539138 0.205699 0.518282
Si Si5 0.482860 0.981124 0.230713
Si Si6 0.501037 0.466942 0.162207
Si Si7 0.662029 0.545745 0.448524
Si Si8 0.326725 0.013385 0.185956
O O1 0.013603 0.119571 0.741291
O O2 0.789538 0.329239 0.172740
O O3 0.923318 0.892492 0.900730
O O4 0.000000 0.000000 0.000000
O O5 0.904840 0.771918 0.165153
O O6 0.826748 0.819179 0.541472
O O7 0.069800 0.453176 0.104816
O O8 0.702463 0.996834 0.270206
O O9 0.500251 0.392717 0.702111
O O10 0.466963 0.319326 0.475081
O O11 0.480591 0.121717 0.671457
O O12 0.352421 0.254728 0.453172
O O13 0.422412 0.918134 0.193818
O O14 0.612958 0.911686 0.979363
O O15 0.362985 0.531184 0.387692
O O16 0.500000 0.500000 0.000000
O O17 0.630727 0.196620 0.979826
#
# Coordination Sequence:
#
# PCOD9095867 Si02
#       8
#     2   2   2   2   2   2   2   2
#     4  10  22  36  58  95 122 163 214 255 319 378
#     4  10  20  38  58  88 130 163 213 267 302 376
#     4  10  20  35  60  90 124 167 207 265 320 368
#     4  12  21  40  64  96 128 158 209 271 329 363
#     4  10  21  37  60  92 124 162 211 261 319 381
#     4  11  21  37  61  89 125 165 202 257 310 378
#     4  11  24  38  63  96 128 157 208 276 317 371
#     4  10  21  38  58  90 126 165 212 255 318 369
#
# _framework density 21.386583999999999
#
# number of rings (size 3 to 8) (size 9 to 14) (size 15 to 20)
#    0.000    1.500    3.750    1.500    5.250    0.000 
#    2.250    0.000    0.000    7.500    0.000    0.000 
#    0.000    0.000    0.000    0.000    0.000    0.000 
#
# Total GULP energy -89150.277327 kJ/mol
# GULP energy per Si atom -5571.892333 kJ/mol
# Density = 2.133791 g / cm^3
# Si number density = 21.386584 Si / 1000 Ang^3
#
#
#
# Elastic Constant Matrix: (Units=GPa)
#
#
# Indices 1 2 3 4 5 6 
#
# 1 42.4571 42.5845 31.2258 10.2630 -1.4838 -0.8833
# 2 42.5845 98.6633 47.7782 -13.7158 -0.0118 16.4382
# 3 31.2258 47.7782 106.7067 0.2511 -4.2781 1.2682
# 4 10.2630 -13.7158 0.2511 33.2011 1.8935 5.1337
# 5 -1.4838 -0.0118 -4.2781 1.8935 21.7428 3.6137
# 6 -0.8833 16.4382 1.2682 5.1337 3.6137 25.6602
#
#
#
# Elastic Compliance Matrix: (Units=1/GPa)
#
#
# Indices 1 2 3 4 5 6 
#
# 1 0.110820 -0.066163 -0.003229 -0.071039 0.003083 0.060137
# 2 -0.066163 0.056607 -0.005614 0.051460 -0.002048 -0.048270
# 3 -0.003229 -0.005614 0.012879 -0.001991 0.001991 0.002967
# 4 -0.071039 0.051460 -0.001991 0.081468 -0.003818 -0.051074
# 5 0.003083 -0.002048 0.001991 -0.003818 0.047696 -0.004633
# 6 0.060137 -0.048270 0.002967 -0.051074 -0.004633 0.082687
#
#
# Mechanical properties :
#
#
# Convention : Reuss Voigt Hill
#
# Bulk Modulus (GPa) = 33.00889 54.55600 43.78244
# Shear Modulus (GPa) = 9.05361 24.53673 16.79517
#
# Velocity S-wave (km/s) = 2.05973 3.39085 2.80538
# Velocity P-wave (km/s) = 4.59615 6.39494 5.56866
#
# Compressibility (1/GPa) = 0.03029487
#
# Stress axis : x y z
#
# Youngs Moduli (GPa) = 9.02364 17.66580 77.64399
#
# Poissons Ratio (x) = 1.16882 0.25071
# Poissons Ratio (y) = 0.59703 0.43589
# Poissons Ratio (z) = 0.02914 0.09917
#
# Static dielectric constant tensor:
#      x y z
#    x 1.764520 0.077090 -0.042480 
#    y 0.077090 1.936170 -0.014430 
#    z -0.042480 -0.014430 1.771240 
# 
# From -- ./inp_files/468966.got.cif
#   From: 2010.05.17/outbox.cif.g08.bks.cpg/sg2_235_cif.got.tgz:468966.got - 2010.06.03 11:33:40.
