data_PCOD9095733
_publ_section_title
;
Structure prediction by ZEFSAII (Michael W. Deem and Ramdas Pophale) SiO2 
 PCOD9095733
Probable space group: P -1
;
_chemical_formula_sum "Si O2"
_cell_formula_units_Z 16
_cell_length_a 12.150007
_cell_length_b 8.656880
_cell_length_c 20.920729
_cell_angle_alpha 142.394214
_cell_angle_beta 141.516699
_cell_angle_gamma 69.193246
_cell_volume 598.633363
_symmetry_space_group_name_H-M "P -1"
_symmetry_group_IT_number 2
_symmetry_cell_setting 'triclinic'
loop_
_space_group_symop_operation_xyz
x,y,z
-x,-y,-z
loop_
_atom_site_type_symbol
_atom_site_label
_atom_site_fract_x
_atom_site_fract_y
_atom_site_fract_z
Si Si1 0.349950 0.300705 0.759414
Si Si2 0.955413 0.155927 0.206374
Si Si3 0.540584 0.304015 0.244607
Si Si4 0.215202 0.759331 0.421251
Si Si5 0.089857 0.426372 0.607924
Si Si6 0.397802 0.634618 0.359109
Si Si7 0.726954 0.325877 0.983362
Si Si8 0.085440 0.795374 0.084593
O O1 0.287180 0.522102 0.783303
O O2 0.610336 0.480024 0.965083
O O3 0.332392 0.118960 0.625798
O O4 0.144560 0.981490 0.610903
O O5 0.957619 0.320925 0.325598
O O6 0.068232 0.480717 0.318725
O O7 0.110593 0.062727 0.229503
O O8 0.675922 0.841216 0.952371
O O9 0.779352 0.491916 0.372734
O O10 0.556193 0.560226 0.382666
O O11 0.434388 0.974434 0.133827
O O12 0.370310 0.683894 0.436292
O O13 0.008896 0.632369 0.234251
O O14 0.500000 0.000000 0.500000
O O15 0.129732 0.331444 0.104864
O O16 0.724959 0.145519 0.859629
O O17 0.000000 0.500000 0.000000
#
# Coordination Sequence:
#
# PCOD9095733 Si02
#       8
#     2   2   2   2   2   2   2   2
#     4  10  22  40  67  91 125 164 208 256 299 364
#     4   9  19  38  62  85 121 168 200 248 309 367
#     4  10  20  37  62  88 125 168 206 248 309 370
#     4   9  19  39  61  90 127 158 203 251 315 364
#     4  10  21  39  62  90 124 171 208 244 305 364
#     4  10  20  35  59  90 122 164 194 252 319 367
#     4  10  22  40  65  95 121 160 206 259 314 356
#     4  10  22  38  62  94 122 152 206 263 308 369
#
# _framework density 26.727544999999999
#
# number of rings (size 3 to 8) (size 9 to 14) (size 15 to 20)
#    0.000    2.250    0.000    1.875    5.250    3.500 
#    4.500   13.125    8.250    0.000    0.000    0.000 
#    0.000    0.000    0.000    0.000    0.000    0.000 
#
# Total GULP energy -89484.079596 kJ/mol
# GULP energy per Si atom -5592.754975 kJ/mol
# Density = 2.666671 g / cm^3
# Si number density = 26.727545 Si / 1000 Ang^3
#
#
#
# Elastic Constant Matrix: (Units=GPa)
#
#
# Indices 1 2 3 4 5 6 
#
# 1 217.0845 45.0233 27.1222 -2.4157 -0.5145 -2.0574
# 2 45.0233 91.1666 19.0427 -0.6745 3.7647 -11.1462
# 3 27.1222 19.0427 46.1534 -7.3100 -9.8070 10.5611
# 4 -2.4157 -0.6745 -7.3100 34.3539 -3.5057 2.4494
# 5 -0.5145 3.7647 -9.8070 -3.5057 33.7014 0.1371
# 6 -2.0574 -11.1462 10.5611 2.4494 0.1371 44.6725
#
#
#
# Elastic Compliance Matrix: (Units=1/GPa)
#
#
# Indices 1 2 3 4 5 6 
#
# 1 0.005346 -0.002058 -0.002508 -0.000268 -0.000448 0.000342
# 2 -0.002058 0.014244 -0.007040 -0.002137 -0.003915 0.005253
# 3 -0.002508 -0.007040 0.031958 0.008310 0.010953 -0.009917
# 4 -0.000268 -0.002137 0.008310 0.031730 0.005971 -0.004268
# 5 -0.000448 -0.003915 0.010953 0.005971 0.033927 -0.004018
# 6 0.000342 0.005253 -0.009917 -0.004268 -0.004018 0.026302
#
#
# Mechanical properties :
#
#
# Convention : Reuss Voigt Hill
#
# Bulk Modulus (GPa) = 35.29107 59.64232 47.46670
# Shear Modulus (GPa) = 28.38253 40.09333 34.23793
#
# Velocity S-wave (km/s) = 3.26225 3.87728 3.58299
# Velocity P-wave (km/s) = 5.23664 6.51213 5.90890
#
# Compressibility (1/GPa) = 0.02833578
#
# Stress axis : x y z
#
# Youngs Moduli (GPa) = 187.05991 70.20622 31.29087
#
# Poissons Ratio (x) = 0.14448 0.07849
# Poissons Ratio (y) = 0.38495 0.22028
# Poissons Ratio (z) = 0.46920 0.49424
#
# Static dielectric constant tensor:
#      x y z
#    x 2.196700 -0.054160 0.037330 
#    y -0.054160 2.049660 -0.038300 
#    z 0.037330 -0.038300 2.157610 
# 
# From -- ./inp_files/352012.got.cif
#   From: 2010.05.17/outbox.cif.g08.bks.cpg/sg2_177_cif.got.tgz:352012.got - 2010.06.03 11:33:40.
