data_PCOD9095157
_publ_section_title
;
Structure prediction by ZEFSAII (Michael W. Deem and Ramdas Pophale) SiO2 
 PCOD9095157
Probable space group: P -1
;
_chemical_formula_sum "Si O2"
_cell_formula_units_Z 12
_cell_length_a 9.993426
_cell_length_b 9.871091
_cell_length_c 11.891270
_cell_angle_alpha 96.153035
_cell_angle_beta 95.750373
_cell_angle_gamma 28.255789
_cell_volume 552.080102
_symmetry_space_group_name_H-M "P -1"
_symmetry_group_IT_number 2
_symmetry_cell_setting 'triclinic'
loop_
_space_group_symop_operation_xyz
x,y,z
-x,-y,-z
loop_
_atom_site_type_symbol
_atom_site_label
_atom_site_fract_x
_atom_site_fract_y
_atom_site_fract_z
Si Si1 0.631458 0.695112 0.501958
Si Si2 0.976428 0.239965 0.139435
Si Si3 0.654014 0.287611 0.250717
Si Si4 0.820718 0.788125 0.637319
Si Si5 0.521764 0.319291 0.009876
Si Si6 0.135503 0.779517 0.399604
O O1 0.648989 0.802355 0.602706
O O2 0.734460 0.467098 0.549598
O O3 0.865218 0.516292 0.410191
O O4 0.334288 0.965611 0.436553
O O5 0.841579 0.240668 0.206155
O O6 0.145649 0.186952 0.232737
O O7 0.723288 0.530192 0.071474
O O8 0.183815 0.991692 0.043032
O O9 0.513491 0.322492 0.143771
O O10 0.407901 0.578158 0.329226
O O11 0.869368 0.002021 0.313598
O O12 0.500000 0.500000 0.000000
O O13 0.000000 0.000000 0.500000
#
# Coordination Sequence:
#
# PCOD9095157 Si02
#       6
#     2   2   2   2   2   2
#     4  10  22  39  57  83 114 151 190 231 285 330
#     4  11  20  35  60  85 109 145 195 236 281 330
#     4  11  22  37  56  83 121 151 181 235 289 339
#     4  10  21  39  61  81 110 147 195 243 272 327
#     4  10  20  35  55  83 114 146 187 235 284 330
#     4  12  24  37  57  85 120 155 187 223 285 358
#
# _framework density 21.735976999999998
#
# number of rings (size 3 to 8) (size 9 to 14) (size 15 to 20)
#    0.000    1.333    0.000    8.500    0.000    4.000 
#    0.000    0.000    0.000    6.000    0.000    0.000 
#    0.000    0.000    0.000    0.000    0.000    0.000 
#
# Total GULP energy -67047.668295 kJ/mol
# GULP energy per Si atom -5587.305691 kJ/mol
# Density = 2.168650 g / cm^3
# Si number density = 21.735977 Si / 1000 Ang^3
#
#
#
# Elastic Constant Matrix: (Units=GPa)
#
#
# Indices 1 2 3 4 5 6 
#
# 1 33.6061 22.9034 33.2172 -0.2814 10.9413 10.8415
# 2 22.9034 142.2537 47.6449 -3.4728 -0.7974 -1.8767
# 3 33.2172 47.6449 131.2101 -15.0314 22.7002 5.2012
# 4 -0.2814 -3.4728 -15.0314 55.3856 -9.9131 -2.1743
# 5 10.9413 -0.7974 22.7002 -9.9131 23.3273 -0.6380
# 6 10.8415 -1.8767 5.2012 -2.1743 -0.6380 30.1762
#
#
#
# Elastic Compliance Matrix: (Units=1/GPa)
#
#
# Indices 1 2 3 4 5 6 
#
# 1 0.055948 -0.006978 -0.007748 -0.007075 -0.022499 -0.020185
# 2 -0.006978 0.009203 -0.002785 0.001169 0.006898 0.003789
# 3 -0.007748 -0.002785 0.012062 0.001747 -0.007443 0.000500
# 4 -0.007075 0.001169 0.001747 0.020609 0.010526 0.004021
# 5 -0.022499 0.006898 -0.007443 0.010526 0.065700 0.011943
# 6 -0.020185 0.003789 0.000500 0.004021 0.011943 0.041082
#
#
# Mechanical properties :
#
#
# Convention : Reuss Voigt Hill
#
# Bulk Modulus (GPa) = 23.70141 57.17789 40.43965
# Shear Modulus (GPa) = 19.70913 35.33145 27.52029
#
# Velocity S-wave (km/s) = 3.01450 4.03610 3.56211
# Velocity P-wave (km/s) = 4.80043 6.93418 5.96352
#
# Compressibility (1/GPa) = 0.04219158
#
# Stress axis : x y z
#
# Youngs Moduli (GPa) = 17.87370 108.65836 82.90432
#
# Poissons Ratio (x) = 0.75822 0.64233
# Poissons Ratio (y) = 0.12472 0.23089
# Poissons Ratio (z) = 0.13848 0.30261
#
# Static dielectric constant tensor:
#      x y z
#    x 1.856740 -0.024620 0.008210 
#    y -0.024620 1.765610 -0.031190 
#    z 0.008210 -0.031190 1.832850 
# 
# From -- ./inp_files/426198.got.cif
#   From: 2010.05.17/outbox.cif.g08.bks.cpg/sg2_214_cif.got.tgz:426198.got - 2010.06.03 11:33:40.
