data_PCOD9095122
_publ_section_title
;
Structure prediction by ZEFSAII (Michael W. Deem and Ramdas Pophale) SiO2 
 PCOD9095122
Probable space group: P -1
;
_chemical_formula_sum "Si O2"
_cell_formula_units_Z 16
_cell_length_a 23.700199
_cell_length_b 9.484551
_cell_length_c 9.235564
_cell_angle_alpha 103.615722
_cell_angle_beta 148.202522
_cell_angle_gamma 62.910844
_cell_volume 921.621753
_symmetry_space_group_name_H-M "P -1"
_symmetry_group_IT_number 2
_symmetry_cell_setting 'triclinic'
loop_
_space_group_symop_operation_xyz
x,y,z
-x,-y,-z
loop_
_atom_site_type_symbol
_atom_site_label
_atom_site_fract_x
_atom_site_fract_y
_atom_site_fract_z
Si Si1 0.595105 0.854099 0.356457
Si Si2 0.638114 0.611342 0.624710
Si Si3 0.297662 0.755244 0.302025
Si Si4 0.039099 0.838545 0.643251
Si Si5 0.603878 0.091823 0.681485
Si Si6 0.122260 0.481467 0.687248
Si Si7 0.195375 0.128280 0.690368
Si Si8 0.329734 0.978490 0.662852
O O1 0.643405 0.675605 0.492125
O O2 0.579874 0.981731 0.484378
O O3 0.681549 0.874222 0.431978
O O4 0.464452 0.906692 0.011165
O O5 0.628306 0.444710 0.568955
O O6 0.521859 0.762874 0.488504
O O7 0.765154 0.569488 0.969280
O O8 0.334560 0.818965 0.253575
O O9 0.321607 0.844519 0.510379
O O10 0.154670 0.808425 0.985688
O O11 0.916452 0.329948 0.397709
O O12 0.925784 0.860763 0.499919
O O13 0.000000 0.000000 0.500000
O O14 0.695665 0.971387 0.977604
O O15 0.170643 0.316586 0.655430
O O16 0.000000 0.500000 0.500000
O O17 0.234852 0.035842 0.601433
#
# Coordination Sequence:
#
# PCOD9095122 Si02
#       8
#     2   2   2   2   2   2   2   2
#     4  10  20  35  55  79 110 146 184 221 275 324
#     4  11  19  34  58  83 110 143 189 228 270 323
#     4  10  23  37  53  83 118 146 179 225 281 330
#     4  10  20  37  60  82 108 145 185 227 276 323
#     4  11  19  34  60  84 106 145 185 235 270 316
#     4   9  20  33  56  85 106 137 185 236 266 309
#     4  11  19  36  59  82 110 142 189 226 271 324
#     4  10  22  36  52  81 114 152 177 219 280 331
#
# _framework density 17.360702
#
# number of rings (size 3 to 8) (size 9 to 14) (size 15 to 20)
#    0.000    1.750    3.750    1.500    0.000    1.000 
#    0.000    1.250    0.000    7.500    0.000    0.000 
#    0.000    0.000    0.000    0.000    0.000    0.000 
#
# Total GULP energy -89174.734709 kJ/mol
# GULP energy per Si atom -5573.420919 kJ/mol
# Density = 1.732119 g / cm^3
# Si number density = 17.360702 Si / 1000 Ang^3
#
#
#
# Elastic Constant Matrix: (Units=GPa)
#
#
# Indices 1 2 3 4 5 6 
#
# 1 89.2682 45.6201 35.9125 0.3500 -0.2955 1.3972
# 2 45.6201 113.9407 30.4558 -7.5492 -1.7628 16.8048
# 3 35.9125 30.4558 71.0019 2.5657 14.7996 -4.8038
# 4 0.3500 -7.5492 2.5657 27.2004 1.3193 0.0516
# 5 -0.2955 -1.7628 14.7996 1.3193 23.9903 0.1304
# 6 1.3972 16.8048 -4.8038 0.0516 0.1304 22.4924
#
#
#
# Elastic Compliance Matrix: (Units=1/GPa)
#
#
# Indices 1 2 3 4 5 6 
#
# 1 0.016543 -0.004923 -0.007020 -0.001124 0.004228 0.001129
# 2 -0.004923 0.014252 -0.005428 0.004351 0.004159 -0.011536
# 3 -0.007020 -0.005428 0.023873 -0.002954 -0.015103 0.009685
# 4 -0.001124 0.004351 -0.002954 0.038270 0.000045 -0.003900
# 5 0.004228 0.004159 -0.015103 0.000045 0.051393 -0.006894
# 6 0.001129 -0.011536 0.009685 -0.003900 -0.006894 0.055126
#
#
# Mechanical properties :
#
#
# Convention : Reuss Voigt Hill
#
# Bulk Modulus (GPa) = 50.18411 55.35418 52.76915
# Shear Modulus (GPa) = 20.76048 25.55143 23.15596
#
# Velocity S-wave (km/s) = 3.46183 3.84056 3.65610
# Velocity P-wave (km/s) = 6.70437 7.18474 6.94871
#
# Compressibility (1/GPa) = 0.01992663
#
# Stress axis : x y z
#
# Youngs Moduli (GPa) = 60.44926 70.16340 41.88767
#
# Poissons Ratio (x) = 0.34539 0.29406
# Poissons Ratio (y) = 0.29757 0.22738
# Poissons Ratio (z) = 0.42436 0.38086
#
# Static dielectric constant tensor:
#      x y z
#    x 1.586530 0.017810 0.007480 
#    y 0.017810 1.617190 -0.003570 
#    z 0.007480 -0.003570 1.576330 
# 
# From -- ./inp_files/319132.got.cif
#   From: 2010.05.17/outbox.cif.g08.bks.cpg/sg2_160_cif.got.tgz:319132.got - 2010.06.03 11:33:40.
