data_PCOD9095870
_publ_section_title
;
Structure prediction by ZEFSAII (Michael W. Deem and Ramdas Pophale) SiO2 
 PCOD9095870
Probable space group: P -1
;
_chemical_formula_sum "Si O2"
_cell_formula_units_Z 16
_cell_length_a 12.454988
_cell_length_b 12.200847
_cell_length_c 9.441970
_cell_angle_alpha 63.531030
_cell_angle_beta 101.732656
_cell_angle_gamma 146.117008
_cell_volume 674.942035
_symmetry_space_group_name_H-M "P -1"
_symmetry_group_IT_number 2
_symmetry_cell_setting 'triclinic'
loop_
_space_group_symop_operation_xyz
x,y,z
-x,-y,-z
loop_
_atom_site_type_symbol
_atom_site_label
_atom_site_fract_x
_atom_site_fract_y
_atom_site_fract_z
Si Si1 0.060904 0.869400 0.275498
Si Si2 0.111629 0.534739 0.669077
Si Si3 0.521478 0.206094 0.543867
Si Si4 0.553653 0.909139 0.091597
Si Si5 0.980308 0.621415 0.976247
Si Si6 0.956670 0.267162 0.370511
Si Si7 0.671732 0.581913 0.193146
Si Si8 0.503898 0.661374 0.996720
O O1 0.006344 0.802071 0.464389
O O2 0.028750 0.701388 0.303101
O O3 0.901188 0.802600 0.187013
O O4 0.289776 0.126353 0.162691
O O5 0.316845 0.735027 0.516675
O O6 0.998605 0.555769 0.655307
O O7 0.164776 0.529748 0.840645
O O8 0.542050 0.225690 0.707704
O O9 0.573158 0.383050 0.378955
O O10 0.287623 0.954240 0.593756
O O11 0.482105 0.762799 0.023629
O O12 0.798900 0.128763 0.049215
O O13 0.500000 0.000000 0.000000
O O14 0.944459 0.659661 0.798708
O O15 0.000000 0.500000 0.000000
O O16 0.552189 0.596856 0.155734
O O17 0.660756 0.535618 0.050155
#
# Coordination Sequence:
#
# PCOD9095870 Si02
#       8
#     2   2   2   2   2   2   2   2
#     4  11  21  38  66  94 126 171 223 275 332 394
#     4  10  20  35  60  93 131 174 219 263 330 398
#     4  10  22  39  62  94 130 175 222 269 322 402
#     4  11  25  41  64  98 137 173 214 271 340 394
#     4   9  20  38  57  89 131 175 210 266 324 397
#     4  10  20  35  60  90 137 171 213 276 332 393
#     4  10  24  43  69  98 124 179 235 268 329 390
#     4  11  23  45  69  94 136 175 220 286 323 388
#
# _framework density 23.705739999999999
#
# number of rings (size 3 to 8) (size 9 to 14) (size 15 to 20)
#    0.000    1.750    2.500    1.125    1.750   10.500 
#    0.000    0.000    0.000    3.000    0.000    0.000 
#    0.000    0.000    0.000    0.000    0.000    0.000 
#
# Total GULP energy -89472.347240 kJ/mol
# GULP energy per Si atom -5592.021703 kJ/mol
# Density = 2.365178 g / cm^3
# Si number density = 23.705740 Si / 1000 Ang^3
#
#
#
# Elastic Constant Matrix: (Units=GPa)
#
#
# Indices 1 2 3 4 5 6 
#
# 1 62.8136 7.6631 27.8178 13.4300 12.6907 -2.7404
# 2 7.6631 71.1837 24.9966 15.8188 -7.4148 12.0322
# 3 27.8178 24.9966 186.3266 31.4737 -4.8104 5.2509
# 4 13.4300 15.8188 31.4737 42.4013 3.4683 1.0971
# 5 12.6907 -7.4148 -4.8104 3.4683 39.6200 0.4653
# 6 -2.7404 12.0322 5.2509 1.0971 0.4653 33.5424
#
#
#
# Elastic Compliance Matrix: (Units=1/GPa)
#
#
# Indices 1 2 3 4 5 6 
#
# 1 0.019304 -0.001666 -0.002349 -0.003286 -0.006525 0.002740
# 2 -0.001666 0.017198 -0.000862 -0.005435 0.004194 -0.006051
# 3 -0.002349 -0.000862 0.006565 -0.003929 0.001742 -0.000806
# 4 -0.003286 -0.005435 -0.003929 0.029785 -0.003065 0.001365
# 5 -0.006525 0.004194 0.001742 -0.003065 0.028625 -0.002607
# 6 0.002740 -0.006051 -0.000806 0.001365 -0.002607 0.032325
#
#
# Mechanical properties :
#
#
# Convention : Reuss Voigt Hill
#
# Bulk Modulus (GPa) = 30.01798 49.03096 39.52447
# Shear Modulus (GPa) = 32.32934 40.43584 36.38259
#
# Velocity S-wave (km/s) = 3.69694 4.13454 3.92185
# Velocity P-wave (km/s) = 5.55998 6.59702 6.10058
#
# Compressibility (1/GPa) = 0.03331336
#
# Stress axis : x y z
#
# Youngs Moduli (GPa) = 51.80242 58.14788 152.33341
#
# Poissons Ratio (x) = 0.09686 0.35785
# Poissons Ratio (y) = 0.08629 0.13124
# Poissons Ratio (z) = 0.12169 0.05009
#
# Static dielectric constant tensor:
#      x y z
#    x 1.946460 0.074880 0.004550 
#    y 0.074880 1.966680 0.016800 
#    z 0.004550 0.016800 1.936260 
# 
# From -- ./inp_files/312838.got.cif
#   From: 2010.05.17/outbox.cif.g08.bks.cpg/sg2_157_cif.got.tgz:312838.got - 2010.06.03 11:33:40.
