data_PCOD9095121
_publ_section_title
;
Structure prediction by ZEFSAII (Michael W. Deem and Ramdas Pophale) SiO2 
 PCOD9095121
Probable space group: P -1
;
_chemical_formula_sum "Si O2"
_cell_formula_units_Z 16
_cell_length_a 12.855455
_cell_length_b 18.250924
_cell_length_c 15.032013
_cell_angle_alpha 119.849680
_cell_angle_beta 18.410263
_cell_angle_gamma 112.555956
_cell_volume 914.069928
_symmetry_space_group_name_H-M "P -1"
_symmetry_group_IT_number 2
_symmetry_cell_setting 'triclinic'
loop_
_space_group_symop_operation_xyz
x,y,z
-x,-y,-z
loop_
_atom_site_type_symbol
_atom_site_label
_atom_site_fract_x
_atom_site_fract_y
_atom_site_fract_z
Si Si1 0.634003 0.183954 0.521370
Si Si2 0.954829 0.012287 0.880773
Si Si3 0.642793 0.867079 0.452086
Si Si4 0.819935 0.174595 0.857658
Si Si5 0.424234 0.056409 0.185565
Si Si6 0.647410 0.691484 0.815627
Si Si7 0.453993 0.598264 0.063843
Si Si8 0.239728 0.259993 0.061956
O O1 0.376073 0.191578 0.652956
O O2 0.863506 0.248896 0.362904
O O3 0.451363 0.200168 0.775053
O O4 0.878554 0.080995 0.262517
O O5 0.232311 0.050323 0.631236
O O6 0.735522 0.089081 0.171637
O O7 0.682439 0.003581 0.021699
O O8 0.902125 0.817235 0.290007
O O9 0.041354 0.096872 0.562755
O O10 0.544489 0.141282 0.114959
O O11 0.610013 0.260351 0.023709
O O12 0.500000 0.000000 0.000000
O O13 0.607658 0.759540 0.973157
O O14 0.052760 0.658480 0.440665
O O15 0.551799 0.609744 0.888973
O O16 0.500000 0.500000 0.000000
O O17 0.711546 0.643032 0.931989
#
# Coordination Sequence:
#
# PCOD9095121 Si02
#       8
#     2   2   2   2   2   2   2   2
#     4  12  20  34  54  73 107 135 182 228 255 300
#     4  10  21  33  48  71 100 142 189 224 261 292
#     4  10  21  37  49  72  99 149 186 220 255 289
#     4  10  21  35  49  71 105 133 178 217 244 317
#     4  10  21  30  47  69 101 140 176 218 267 296
#     4  10  20  35  55  79 110 130 166 203 265 309
#     4  10  20  37  57  84 113 129 158 200 264 338
#     4  10  22  32  52  85 101 132 165 208 277 301
#
# _framework density 17.504131999999998
#
# number of rings (size 3 to 8) (size 9 to 14) (size 15 to 20)
#    0.750    1.000    1.250    3.750    3.500    0.000 
#    0.000    0.000    0.000    0.000    0.000    5.250 
#    0.000    0.000    0.000    0.000    0.000    0.000 
#
# Total GULP energy -89147.584210 kJ/mol
# GULP energy per Si atom -5571.724013 kJ/mol
# Density = 1.746429 g / cm^3
# Si number density = 17.504132 Si / 1000 Ang^3
#
#
#
# Elastic Constant Matrix: (Units=GPa)
#
#
# Indices 1 2 3 4 5 6 
#
# 1 78.4985 24.9474 20.7798 5.3272 -11.6392 -1.3606
# 2 24.9474 52.9497 12.2497 -5.3465 -12.7068 -3.2745
# 3 20.7798 12.2497 52.1908 -11.9616 5.6077 -5.7680
# 4 5.3272 -5.3465 -11.9616 20.3839 -11.7421 4.4217
# 5 -11.6392 -12.7068 5.6077 -11.7421 19.1088 -3.2778
# 6 -1.3606 -3.2745 -5.7680 4.4217 -3.2778 14.7882
#
#
#
# Elastic Compliance Matrix: (Units=1/GPa)
#
#
# Indices 1 2 3 4 5 6 
#
# 1 0.018201 -0.006944 -0.008110 -0.009758 0.002946 0.000544
# 2 -0.006944 0.036371 -0.002050 0.032941 0.041835 0.006039
# 3 -0.008110 -0.002050 0.026986 0.013525 -0.005203 0.004128
# 4 -0.009758 0.032941 0.013525 0.117140 0.083128 -0.004928
# 5 0.002946 0.041835 -0.005203 0.083128 0.136778 0.012966
# 6 0.000544 0.006039 0.004128 -0.004928 0.012966 0.074967
#
#
# Mechanical properties :
#
#
# Convention : Reuss Voigt Hill
#
# Bulk Modulus (GPa) = 21.11922 33.28810 27.20366
# Shear Modulus (GPa) = 10.85934 19.23364 15.04649
#
# Velocity S-wave (km/s) = 2.49346 3.31842 2.93507
# Velocity P-wave (km/s) = 4.51456 5.80871 5.20204
#
# Compressibility (1/GPa) = 0.04735023
#
# Stress axis : x y z
#
# Youngs Moduli (GPa) = 54.94126 27.49442 37.05687
#
# Poissons Ratio (x) = 0.19093 0.30053
# Poissons Ratio (y) = 0.38152 0.07596
# Poissons Ratio (z) = 0.44557 0.05636
#
# Static dielectric constant tensor:
#      x y z
#    x 1.639180 0.007670 0.009850 
#    y 0.007670 1.595610 -0.021870 
#    z 0.009850 -0.021870 1.601280 
# 
# From -- ./inp_files/100798.got.cif
#   From: 2010.05.17/outbox.cif.g08.bks.cpg/sg2_51_cif.got.tgz:100798.got - 2010.06.03 11:33:40.
