data_PCOD9095053
_publ_section_title
;
Structure prediction by ZEFSAII (Michael W. Deem and Ramdas Pophale) SiO2 
 PCOD9095053
Probable space group: P -1
;
_chemical_formula_sum "Si O2"
_cell_formula_units_Z 16
_cell_length_a 9.252831
_cell_length_b 12.971986
_cell_length_c 7.283065
_cell_angle_alpha 101.991800
_cell_angle_beta 61.116453
_cell_angle_gamma 73.698137
_cell_volume 670.538680
_symmetry_space_group_name_H-M "P -1"
_symmetry_group_IT_number 2
_symmetry_cell_setting 'triclinic'
loop_
_space_group_symop_operation_xyz
x,y,z
-x,-y,-z
loop_
_atom_site_type_symbol
_atom_site_label
_atom_site_fract_x
_atom_site_fract_y
_atom_site_fract_z
Si Si1 0.927248 0.692074 0.596494
Si Si2 0.671375 0.521648 0.167581
Si Si3 0.287235 0.871600 0.243293
Si Si4 0.391217 0.358772 0.079600
Si Si5 0.259684 0.655502 0.635385
Si Si6 0.202318 0.299170 0.694423
Si Si7 0.107022 0.120608 0.575671
Si Si8 0.579105 0.213528 0.236922
O O1 0.927435 0.633829 0.376272
O O2 0.853920 0.825381 0.616629
O O3 0.112258 0.660170 0.579670
O O4 0.782177 0.667674 0.793539
O O5 0.656049 0.523096 0.957742
O O6 0.465105 0.584481 0.400727
O O7 0.769972 0.406911 0.187609
O O8 0.774590 0.604272 0.164395
O O9 0.449782 0.750079 0.169021
O O10 0.102197 0.858442 0.310755
O O11 0.236383 0.982486 0.444902
O O12 0.356486 0.882324 0.999084
O O13 0.485735 0.335660 0.214550
O O14 0.260241 0.777672 0.742911
O O15 0.134532 0.200504 0.746668
O O16 0.410645 0.220873 0.461843
#
# Coordination Sequence:
#
# PCOD9095053 Si02
#       8
#     2   2   2   2   2   2   2   2
#     4   9  19  34  52  76 105 134 170 210 251 300
#     4  10  20  35  54  76 104 137 171 209 253 299
#     4   9  17  32  55  78 100 131 170 210 254 302
#     4   9  19  34  52  76 105 134 170 210 251 300
#     4  10  20  35  54  76 104 137 171 209 253 299
#     4   8  18  34  51  75 106 134 166 208 254 300
#     4   9  17  32  55  78 100 131 170 210 254 302
#     4   8  18  34  51  75 106 134 166 208 254 300
#
# _framework density 23.861412999999999
#
# number of rings (size 3 to 8) (size 9 to 14) (size 15 to 20)
#    1.500    1.500    0.000    0.750    0.000    4.500 
#    0.000    1.250    0.000    0.000    0.000    0.000 
#    0.000    0.000    0.000    0.000    0.000    0.000 
#
# Total GULP energy -89127.360222 kJ/mol
# GULP energy per Si atom -5570.460014 kJ/mol
# Density = 2.380710 g / cm^3
# Si number density = 23.861413 Si / 1000 Ang^3
#
#
#
# Elastic Constant Matrix: (Units=GPa)
#
#
# Indices 1 2 3 4 5 6 
#
# 1 144.2458 18.0305 12.8932 14.4486 11.0200 14.5513
# 2 18.0305 42.2548 12.7539 1.9788 -1.3425 7.7011
# 3 12.8932 12.7539 39.0028 5.1817 -8.4972 -0.2673
# 4 14.4486 1.9788 5.1817 29.1546 -3.1093 6.8875
# 5 11.0200 -1.3425 -8.4972 -3.1093 11.3533 -0.9763
# 6 14.5513 7.7011 -0.2673 6.8875 -0.9763 26.5343
#
#
#
# Elastic Compliance Matrix: (Units=1/GPa)
#
#
# Indices 1 2 3 4 5 6 
#
# 1 0.009674 -0.002048 -0.005277 -0.004340 -0.015131 -0.004194
# 2 -0.002048 0.028682 -0.009456 0.002456 -0.001713 -0.007997
# 3 -0.005277 -0.009456 0.037849 -0.001821 0.032494 0.007688
# 4 -0.004340 0.002456 -0.001821 0.039981 0.013381 -0.008236
# 5 -0.015131 -0.001713 0.032494 0.013381 0.131450 0.010485
# 6 -0.004194 -0.007997 0.007688 -0.008236 0.010485 0.044909
#
#
# Mechanical properties :
#
#
# Convention : Reuss Voigt Hill
#
# Bulk Modulus (GPa) = 23.45030 34.76204 29.10617
# Shear Modulus (GPa) = 14.69195 25.53016 20.11106
#
# Velocity S-wave (km/s) = 2.48406 3.27453 2.90630
# Velocity P-wave (km/s) = 4.25164 5.37557 4.84630
#
# Compressibility (1/GPa) = 0.04264337
#
# Stress axis : x y z
#
# Youngs Moduli (GPa) = 103.36869 34.86479 26.42052
#
# Poissons Ratio (x) = 0.07142 0.13941
# Poissons Ratio (y) = 0.21175 0.24983
# Poissons Ratio (z) = 0.54544 0.32968
#
# Static dielectric constant tensor:
#      x y z
#    x 1.917460 0.005580 0.014810 
#    y 0.005580 1.931330 -0.004640 
#    z 0.014810 -0.004640 1.948250 
# 
# From -- ./inp_files/197170.got.cif
#   From: 2010.05.17/outbox.cif.g08.bks.cpg/sg2_99_cif.got.tgz:197170.got - 2010.06.03 11:33:40.
