data_PCOD9095134
_publ_section_title
;
Structure prediction by ZEFSAII (Michael W. Deem and Ramdas Pophale) SiO2 
 PCOD9095134
Probable space group: P -1
;
_chemical_formula_sum "Si O2"
_cell_formula_units_Z 16
_cell_length_a 9.139891
_cell_length_b 14.183489
_cell_length_c 14.278350
_cell_angle_alpha 114.119472
_cell_angle_beta 79.190900
_cell_angle_gamma 151.130383
_cell_volume 752.278248
_symmetry_space_group_name_H-M "P -1"
_symmetry_group_IT_number 2
_symmetry_cell_setting 'triclinic'
loop_
_space_group_symop_operation_xyz
x,y,z
-x,-y,-z
loop_
_atom_site_type_symbol
_atom_site_label
_atom_site_fract_x
_atom_site_fract_y
_atom_site_fract_z
Si Si1 0.283458 0.321964 0.042098
Si Si2 0.946887 0.647316 0.118987
Si Si3 0.433374 0.363805 0.557895
Si Si4 0.299519 0.511793 0.616664
Si Si5 0.156472 0.648103 0.268708
Si Si6 0.264232 0.124388 0.650652
Si Si7 0.901671 0.026441 0.805006
Si Si8 0.120280 0.731515 0.923229
O O1 0.564440 0.431740 0.105069
O O2 0.091248 0.300156 0.100092
O O3 0.500000 0.500000 0.000000
O O4 0.008424 0.086242 0.924742
O O5 0.116166 0.682743 0.190263
O O6 0.114084 0.863517 0.177821
O O7 0.980249 0.622105 0.000316
O O8 0.415225 0.473194 0.628027
O O9 0.696024 0.501973 0.501450
O O10 0.456633 0.306288 0.621582
O O11 0.080491 0.122358 0.453535
O O12 0.972601 0.354582 0.637035
O O13 0.573351 0.764180 0.714072
O O14 0.522135 0.837938 0.324077
O O15 0.944679 0.410680 0.187476
O O16 0.180765 0.146581 0.756361
O O17 0.500000 0.000000 0.000000
#
# Coordination Sequence:
#
# PCOD9095134 Si02
#       8
#     2   2   2   2   2   2   2   2
#     4   8  16  33  55  75 109 151 181 208 254 315
#     4  10  20  35  55  80 117 151 182 214 260 323
#     4   9  21  42  58  77 104 143 178 230 285 329
#     4  10  21  37  58  81 110 134 179 232 281 329
#     4  12  22  34  56  86 109 143 186 225 265 323
#     4  10  20  37  62  79 105 141 186 225 272 330
#     4   9  17  36  58  80 106 149 184 214 261 328
#     4  10  20  36  54  81 118 146 179 228 270 302
#
# _framework density 21.268727999999999
#
# number of rings (size 3 to 8) (size 9 to 14) (size 15 to 20)
#    0.000    2.500    0.000    4.875    0.000    1.000 
#    0.000   13.750    0.000    0.000    0.000    0.000 
#    0.000    0.000    0.000    0.000    0.000    0.000 
#
# Total GULP energy -89325.094894 kJ/mol
# GULP energy per Si atom -5582.818431 kJ/mol
# Density = 2.122032 g / cm^3
# Si number density = 21.268728 Si / 1000 Ang^3
#
#
#
# Elastic Constant Matrix: (Units=GPa)
#
#
# Indices 1 2 3 4 5 6 
#
# 1 110.6048 13.2086 44.6893 -16.4239 8.4176 9.2402
# 2 13.2086 27.9853 6.8894 -7.9436 -1.7811 3.8828
# 3 44.6893 6.8894 69.3768 -7.5239 -14.6587 2.8433
# 4 -16.4239 -7.9436 -7.5239 35.2015 1.3077 -9.5772
# 5 8.4176 -1.7811 -14.6587 1.3077 40.7737 -0.6563
# 6 9.2402 3.8828 2.8433 -9.5772 -0.6563 25.1321
#
#
#
# Elastic Compliance Matrix: (Units=1/GPa)
#
#
# Indices 1 2 3 4 5 6 
#
# 1 0.014881 -0.003599 -0.010234 0.003496 -0.007063 -0.002610
# 2 -0.003599 0.039828 -0.000393 0.006537 0.002096 -0.002240
# 3 -0.010234 -0.000393 0.023206 0.000121 0.010459 0.001517
# 4 0.003496 0.006537 0.000121 0.034532 -0.001326 0.010816
# 5 -0.007063 0.002096 0.010459 -0.001326 0.029900 0.001365
# 6 -0.002610 -0.002240 0.001517 0.010816 0.001365 0.045081
#
#
# Mechanical properties :
#
#
# Convention : Reuss Voigt Hill
#
# Bulk Modulus (GPa) = 20.21747 37.50460 28.86103
# Shear Modulus (GPa) = 21.51755 29.76677 25.64216
#
# Velocity S-wave (km/s) = 3.18417 3.74512 3.47598
# Velocity P-wave (km/s) = 4.80052 6.03102 5.45060
#
# Compressibility (1/GPa) = 0.04946218
#
# Stress axis : x y z
#
# Youngs Moduli (GPa) = 67.20097 25.10776 43.09159
#
# Poissons Ratio (x) = 0.09037 0.44101
# Poissons Ratio (y) = 0.24187 0.01694
# Poissons Ratio (z) = 0.68776 0.00987
#
# Static dielectric constant tensor:
#      x y z
#    x 1.768670 0.009550 0.000020 
#    y 0.009550 1.814690 0.018070 
#    z 0.000020 0.018070 1.805660 
# 
# From -- ./inp_files/504186.got.cif
#   From: 2010.05.17/outbox.cif.g08.bks.cpg/sg2_253_cif.got.tgz:504186.got - 2010.06.03 11:33:40.
