data_PCOD9095622
_publ_section_title
;
Structure prediction by ZEFSAII (Michael W. Deem and Ramdas Pophale) SiO2 
 PCOD9095622
Probable space group: P -1
;
_chemical_formula_sum "Si O2"
_cell_formula_units_Z 16
_cell_length_a 10.925286
_cell_length_b 20.608241
_cell_length_c 15.800976
_cell_angle_alpha 21.637708
_cell_angle_beta 39.173554
_cell_angle_gamma 35.457566
_cell_volume 758.259742
_symmetry_space_group_name_H-M "P -1"
_symmetry_group_IT_number 2
_symmetry_cell_setting 'triclinic'
loop_
_space_group_symop_operation_xyz
x,y,z
-x,-y,-z
loop_
_atom_site_type_symbol
_atom_site_label
_atom_site_fract_x
_atom_site_fract_y
_atom_site_fract_z
Si Si1 0.560797 0.115392 0.156902
Si Si2 0.731077 0.697560 0.545543
Si Si3 0.724075 0.315411 0.596212
Si Si4 0.865978 0.290925 0.739709
Si Si5 0.537327 0.895816 0.978191
Si Si6 0.516702 0.675500 0.526816
Si Si7 0.979017 0.549423 0.165386
Si Si8 0.203676 0.498917 0.939153
O O1 0.491157 0.136807 0.068405
O O2 0.380804 0.281335 0.103940
O O3 0.609912 0.896861 0.418041
O O4 0.771889 0.157953 0.999785
O O5 0.575040 0.649473 0.627037
O O6 0.878404 0.534152 0.727093
O O7 0.892149 0.741670 0.341303
O O8 0.500000 0.500000 0.500000
O O9 0.830851 0.261317 0.696348
O O10 0.884251 0.394464 0.371416
O O11 0.641747 0.150224 0.819573
O O12 0.712552 0.510110 0.576392
O O13 0.515615 0.111477 0.738686
O O14 0.771382 0.741062 0.062941
O O15 0.313578 0.626828 0.681543
O O16 0.124060 0.573409 0.985048
O O17 0.000000 0.500000 0.000000
#
# Coordination Sequence:
#
# PCOD9095622 Si02
#       8
#     2   2   2   2   2   2   2   2
#     4   9  18  34  59  84 107 148 194 228 266 334
#     4  10  20  36  55  85 115 145 182 230 290 331
#     4   8  16  31  56  81 112 146 181 228 277 323
#     4   9  17  33  58  82 114 148 184 226 278 336
#     4   9  17  36  57  86 111 145 190 231 276 328
#     4  10  22  35  60  85 113 149 188 231 273 331
#     4  10  20  35  59  80 117 151 183 226 284 328
#     4  11  22  39  61  80 109 149 199 233 266 331
#
# _framework density 21.100949
#
# number of rings (size 3 to 8) (size 9 to 14) (size 15 to 20)
#    0.000    2.500    1.250    0.750    1.750    2.500 
#    0.000    5.625    5.500    0.000    0.000    0.000 
#    0.000    0.000    0.000    0.000    0.000    0.000 
#
# Total GULP energy -89252.623970 kJ/mol
# GULP energy per Si atom -5578.288998 kJ/mol
# Density = 2.105292 g / cm^3
# Si number density = 21.100949 Si / 1000 Ang^3
#
#
#
# Elastic Constant Matrix: (Units=GPa)
#
#
# Indices 1 2 3 4 5 6 
#
# 1 66.8465 2.8829 16.8961 -11.6653 -8.6392 -15.5145
# 2 2.8829 57.8122 35.4511 -12.4703 -13.3489 -2.4216
# 3 16.8961 35.4511 73.9155 -22.2409 -17.5446 -7.6249
# 4 -11.6653 -12.4703 -22.2409 33.8049 -4.7989 -0.6371
# 5 -8.6392 -13.3489 -17.5446 -4.7989 27.7212 -0.9605
# 6 -15.5145 -2.4216 -7.6249 -0.6371 -0.9605 24.1362
#
#
#
# Elastic Compliance Matrix: (Units=1/GPa)
#
#
# Indices 1 2 3 4 5 6 
#
# 1 0.021714 0.004274 0.000940 0.011680 0.011978 0.015468
# 2 0.004274 0.026414 -0.009030 0.006700 0.009604 0.003104
# 3 0.000940 -0.009030 0.028248 0.018221 0.017316 0.009792
# 4 0.011680 0.006700 0.018221 0.052360 0.028031 0.016433
# 5 0.011978 0.009604 0.017316 0.028031 0.060842 0.017294
# 6 0.015468 0.003104 0.009792 0.016433 0.017294 0.055901
#
#
# Mechanical properties :
#
#
# Convention : Reuss Voigt Hill
#
# Bulk Modulus (GPa) = 14.54692 34.33717 24.44205
# Shear Modulus (GPa) = 18.11420 26.68871 22.40145
#
# Velocity S-wave (km/s) = 2.93312 3.56028 3.26181
# Velocity P-wave (km/s) = 4.28717 5.76272 5.07882
#
# Compressibility (1/GPa) = 0.06874305
#
# Stress axis : x y z
#
# Youngs Moduli (GPa) = 46.05323 37.85827 35.40083
#
# Poissons Ratio (x) = -0.16180 -0.03326
# Poissons Ratio (y) = -0.19683 0.31967
# Poissons Ratio (z) = -0.04327 0.34187
#
# Static dielectric constant tensor:
#      x y z
#    x 1.783030 0.002950 -0.004710 
#    y 0.002950 1.744480 -0.001870 
#    z -0.004710 -0.001870 1.818250 
# 
# From -- ./inp_files/258990.got.cif
#   From: 2010.05.17/outbox.cif.g08.bks.cpg/sg2_130_cif.got.tgz:258990.got - 2010.06.03 11:33:40.
