data_PCOD9095282
_publ_section_title
;
Structure prediction by ZEFSAII (Michael W. Deem and Ramdas Pophale) SiO2 
 PCOD9095282
Probable space group: P -1
;
_chemical_formula_sum "Si O2"
_cell_formula_units_Z 14
_cell_length_a 15.671967
_cell_length_b 9.848289
_cell_length_c 15.697568
_cell_angle_alpha 36.639086
_cell_angle_beta 147.495460
_cell_angle_gamma 139.411092
_cell_volume 750.684616
_symmetry_space_group_name_H-M "P -1"
_symmetry_group_IT_number 2
_symmetry_cell_setting 'triclinic'
loop_
_space_group_symop_operation_xyz
x,y,z
-x,-y,-z
loop_
_atom_site_type_symbol
_atom_site_label
_atom_site_fract_x
_atom_site_fract_y
_atom_site_fract_z
Si Si1 0.035864 0.746453 0.171027
Si Si2 0.504435 0.420667 0.141578
Si Si3 0.294629 0.507039 0.064296
Si Si4 0.853873 0.312060 0.516396
Si Si5 0.805858 0.372867 0.907193
Si Si6 0.677421 0.794280 0.602746
Si Si7 0.331172 0.893666 0.228369
O O1 0.084841 0.711902 0.325093
O O2 0.189926 0.740014 0.245626
O O3 0.872907 0.562506 0.094620
O O4 0.000000 0.000000 0.000000
O O5 0.439171 0.567475 0.085901
O O6 0.685102 0.393890 0.329167
O O7 0.377324 0.161620 0.164531
O O8 0.500000 0.500000 0.000000
O O9 0.262323 0.673436 0.030273
O O10 0.318048 0.285911 0.253510
O O11 0.000000 0.500000 0.500000
O O12 0.805204 0.046895 0.570687
O O13 0.724411 0.580092 0.702377
O O14 0.744500 0.148254 0.908768
O O15 0.000000 0.500000 0.000000
O O16 0.499649 0.817743 0.415914
#
# Coordination Sequence:
#
# PCOD9095282 Si02
#       7
#     2   2   2   2   2   2   2
#     4  12  19  33  59  88 117 149 195 243 286 339
#     4  11  23  38  58  85 119 154 194 242 293 343
#     4  10  20  35  56  85 117 143 196 236 283 338
#     4  11  23  36  58  87 118 154 193 241 295 344
#     4  10  20  35  57  88 113 151 191 242 287 343
#     4   9  20  36  55  84 116 145 195 238 287 342
#     4  11  20  35  60  84 113 154 193 240 287 343
#
# _framework density 18.649642
#
# number of rings (size 3 to 8) (size 9 to 14) (size 15 to 20)
#    0.857    0.571    4.286    2.143    0.000    2.286 
#    0.000    0.714    0.000    0.857    0.000    0.000 
#    0.000    0.000    0.000    0.000    0.000    0.000 
#
# Total GULP energy -77992.933727 kJ/mol
# GULP energy per Si atom -5570.923838 kJ/mol
# Density = 1.860719 g / cm^3
# Si number density = 18.649642 Si / 1000 Ang^3
#
#
#
# Elastic Constant Matrix: (Units=GPa)
#
#
# Indices 1 2 3 4 5 6 
#
# 1 100.6258 23.6207 19.5206 9.4571 -11.5532 6.2179
# 2 23.6207 35.5722 16.2932 22.5026 -2.8318 6.0860
# 3 19.5206 16.2932 81.9914 18.1947 -18.7474 6.0888
# 4 9.4571 22.5026 18.1947 27.2390 0.1023 -3.8257
# 5 -11.5532 -2.8318 -18.7474 0.1023 26.8577 4.1948
# 6 6.2179 6.0860 6.0888 -3.8257 4.1948 26.3965
#
#
#
# Elastic Compliance Matrix: (Units=1/GPa)
#
#
# Indices 1 2 3 4 5 6 
#
# 1 0.012651 -0.011253 -0.001342 0.005823 0.003258 0.000250
# 2 -0.011253 0.090700 0.009440 -0.082320 0.017106 -0.035088
# 3 -0.001342 0.009440 0.020470 -0.022832 0.016754 -0.012554
# 4 0.005823 -0.082320 -0.022832 0.124468 -0.029714 0.045636
# 5 0.003258 0.017106 0.016754 -0.029714 0.055639 -0.021724
# 6 0.000250 -0.035088 -0.012554 0.045636 -0.021724 0.058877
#
#
# Mechanical properties :
#
#
# Convention : Reuss Voigt Hill
#
# Bulk Modulus (GPa) = 8.50990 37.45092 22.98041
# Shear Modulus (GPa) = 12.24636 26.68232 19.46434
#
# Velocity S-wave (km/s) = 2.56531 3.78658 3.23412
# Velocity P-wave (km/s) = 3.65340 6.26438 5.12786
#
# Compressibility (1/GPa) = 0.11751015
#
# Stress axis : x y z
#
# Youngs Moduli (GPa) = 79.04580 11.02538 48.85280
#
# Poissons Ratio (x) = 0.12407 0.06555
# Poissons Ratio (y) = 0.88952 -0.46116
# Poissons Ratio (z) = 0.10606 -0.10408
#
# Static dielectric constant tensor:
#      x y z
#    x 1.699410 -0.034060 -0.027050 
#    y -0.034060 1.691030 0.032120 
#    z -0.027050 0.032120 1.695890 
# 
# From -- ./inp_files/245181.got.cif
#   From: 2010.05.17/outbox.cif.g08.bks.cpg/sg2_123_cif.got.tgz:245181.got - 2010.06.03 11:33:40.
