data_PCOD9095185
_publ_section_title
;
Structure prediction by ZEFSAII (Michael W. Deem and Ramdas Pophale) SiO2 
 PCOD9095185
Probable space group: P -1
;
_chemical_formula_sum "Si O2"
_cell_formula_units_Z 16
_cell_length_a 13.855940
_cell_length_b 9.468076
_cell_length_c 8.778410
_cell_angle_alpha 101.732753
_cell_angle_beta 51.036026
_cell_angle_gamma 133.211324
_cell_volume 597.876680
_symmetry_space_group_name_H-M "P -1"
_symmetry_group_IT_number 2
_symmetry_cell_setting 'triclinic'
loop_
_space_group_symop_operation_xyz
x,y,z
-x,-y,-z
loop_
_atom_site_type_symbol
_atom_site_label
_atom_site_fract_x
_atom_site_fract_y
_atom_site_fract_z
Si Si1 0.939925 0.120049 0.469779
Si Si2 0.604078 0.301646 0.775551
Si Si3 0.712052 0.553336 0.236097
Si Si4 0.789163 0.156038 0.994632
Si Si5 0.250798 0.316009 0.424873
Si Si6 0.852925 0.890226 0.987380
Si Si7 0.343467 0.755202 0.616597
Si Si8 0.897746 0.515553 0.794830
O O1 0.060339 0.216169 0.523164
O O2 0.937171 0.270486 0.417935
O O3 0.069504 0.134982 0.234012
O O4 0.761879 0.869514 0.616773
O O5 0.414325 0.053070 0.914485
O O6 0.600442 0.470059 0.774974
O O7 0.699423 0.330280 0.529294
O O8 0.725662 0.385829 0.822064
O O9 0.752029 0.650576 0.385452
O O10 0.677854 0.660495 0.185528
O O11 0.584204 0.313855 0.363752
O O12 0.855658 0.582469 0.997910
O O13 0.835083 0.038775 0.989284
O O14 0.798976 0.271919 0.155300
O O15 0.893183 0.344778 0.811108
O O16 0.000000 0.000000 0.000000
O O17 0.500000 0.000000 0.500000
#
# Coordination Sequence:
#
# PCOD9095185 Si02
#       8
#     2   2   2   2   2   2   2   2
#     4   9  18  33  57  80 106 149 185 222 283 321
#     4   9  17  33  59  83 115 145 177 227 281 327
#     4   9  17  32  55  78 107 145 181 219 276 317
#     4  10  20  35  55  86 109 145 190 223 274 336
#     4   9  16  32  58  79 105 150 182 219 277 330
#     4  11  21  36  56  79 110 147 187 234 271 319
#     4   8  16  33  55  79 110 143 173 222 274 331
#     4   9  18  32  55  85 111 143 181 228 276 327
#
# _framework density 26.761369999999999
#
# number of rings (size 3 to 8) (size 9 to 14) (size 15 to 20)
#    0.000    2.750    1.250    0.375    0.000    0.000 
#    0.000   18.125    0.000    3.750    0.000    0.000 
#    0.000    0.000    0.000    0.000    0.000    0.000 
#
# Total GULP energy -89240.901197 kJ/mol
# GULP energy per Si atom -5577.556325 kJ/mol
# Density = 2.670046 g / cm^3
# Si number density = 26.761370 Si / 1000 Ang^3
#
#
#
# Elastic Constant Matrix: (Units=GPa)
#
#
# Indices 1 2 3 4 5 6 
#
# 1 99.8086 53.8899 26.8069 -1.5420 22.7535 -30.0111
# 2 53.8899 200.9174 52.0063 -49.0943 16.8579 -34.2547
# 3 26.8069 52.0063 96.5296 -0.7218 29.9380 -20.3002
# 4 -1.5420 -49.0943 -0.7218 68.1110 -6.6494 25.7892
# 5 22.7535 16.8579 29.9380 -6.6494 25.2683 -11.7866
# 6 -30.0111 -34.2547 -20.3002 25.7892 -11.7866 59.3532
#
#
#
# Elastic Compliance Matrix: (Units=1/GPa)
#
#
# Indices 1 2 3 4 5 6 
#
# 1 0.017304 -0.004999 0.004325 -0.007543 -0.015872 0.007470
# 2 -0.004999 0.008778 -0.005595 0.007261 0.006617 -0.001216
# 3 0.004325 -0.005595 0.020716 -0.007847 -0.024645 0.004559
# 4 -0.007543 0.007261 -0.007847 0.024925 0.012869 -0.010582
# 5 -0.015872 0.006617 -0.024645 0.012869 0.081044 -0.002133
# 6 0.007470 -0.001216 0.004559 -0.010582 -0.002133 0.025657
#
#
# Mechanical properties :
#
#
# Convention : Reuss Voigt Hill
#
# Bulk Modulus (GPa) = 29.18794 73.62910 51.40852
# Shear Modulus (GPa) = 24.70582 48.18332 36.44457
#
# Velocity S-wave (km/s) = 3.04170 4.24781 3.69431
# Velocity P-wave (km/s) = 4.82352 7.18550 6.11955
#
# Compressibility (1/GPa) = 0.03426072
#
# Stress axis : x y z
#
# Youngs Moduli (GPa) = 57.78863 113.92418 48.27148
#
# Poissons Ratio (x) = 0.56948 -0.20875
# Poissons Ratio (y) = 0.28887 0.27006
# Poissons Ratio (z) = -0.24991 0.63736
#
# Static dielectric constant tensor:
#      x y z
#    x 2.133890 0.013980 -0.104290 
#    y 0.013980 2.226660 -0.018390 
#    z -0.104290 -0.018390 2.390710 
# 
# From -- ./inp_files/326279.got.cif
#   From: 2010.05.17/outbox.cif.g08.bks.cpg/sg2_164_cif.got.tgz:326279.got - 2010.06.03 11:33:40.
