data_PCOD9095915
_publ_section_title
;
Structure prediction by ZEFSAII (Michael W. Deem and Ramdas Pophale) SiO2 
 PCOD9095915
Probable space group: P -1
;
_chemical_formula_sum "Si O2"
_cell_formula_units_Z 16
_cell_length_a 17.908831
_cell_length_b 11.673429
_cell_length_c 11.764045
_cell_angle_alpha 63.492222
_cell_angle_beta 44.672849
_cell_angle_gamma 29.934548
_cell_volume 754.837359
_symmetry_space_group_name_H-M "P -1"
_symmetry_group_IT_number 2
_symmetry_cell_setting 'triclinic'
loop_
_space_group_symop_operation_xyz
x,y,z
-x,-y,-z
loop_
_atom_site_type_symbol
_atom_site_label
_atom_site_fract_x
_atom_site_fract_y
_atom_site_fract_z
Si Si1 0.566272 0.695879 0.999469
Si Si2 0.744631 0.574295 0.438801
Si Si3 0.962292 0.159187 0.553520
Si Si4 0.802282 0.914952 0.972333
Si Si5 0.272548 0.110258 0.701237
Si Si6 0.986410 0.404365 0.693281
Si Si7 0.756175 0.901500 0.665508
Si Si8 0.698188 0.302696 0.961627
O O1 0.379689 0.903522 0.011549
O O2 0.483089 0.853493 0.133153
O O3 0.788179 0.532947 0.797371
O O4 0.617642 0.491887 0.054948
O O5 0.785829 0.437676 0.561498
O O6 0.722706 0.748332 0.410861
O O7 0.958240 0.335667 0.233275
O O8 0.499977 0.802975 0.559803
O O9 0.886328 0.176411 0.744457
O O10 0.161248 0.045455 0.409435
O O11 0.000000 0.000000 0.500000
O O12 0.768169 0.084530 0.002358
O O13 0.763786 0.851909 0.140512
O O14 0.065307 0.271938 0.787946
O O15 0.898229 0.641700 0.686721
O O16 0.191344 0.176188 0.487905
O O17 0.500000 0.500000 0.000000
#
# Coordination Sequence:
#
# PCOD9095915 Si02
#       8
#     2   2   2   2   2   2   2   2
#     4  11  21  39  66  93 124 163 219 272 312 365
#     4  11  22  39  62  94 127 167 215 260 321 371
#     4  12  19  38  67  93 127 155 216 280 307 356
#     4  11  22  40  64  95 126 164 215 266 316 372
#     4  11  25  39  61  91 137 172 202 256 323 397
#     4  11  24  41  60  93 135 170 208 256 325 390
#     4  11  23  38  64  93 126 165 217 264 317 369
#     4  10  20  35  60  96 123 156 211 271 315 360
#
# _framework density 21.196618999999998
#
# number of rings (size 3 to 8) (size 9 to 14) (size 15 to 20)
#    0.000    1.000    5.000    3.000    0.000    2.000 
#    0.000    0.625    0.000    3.750    0.000    0.000 
#    0.000    0.000    0.000    0.000    0.000    0.000 
#
# Total GULP energy -89226.541838 kJ/mol
# GULP energy per Si atom -5576.658865 kJ/mol
# Density = 2.114837 g / cm^3
# Si number density = 21.196619 Si / 1000 Ang^3
#
#
#
# Elastic Constant Matrix: (Units=GPa)
#
#
# Indices 1 2 3 4 5 6 
#
# 1 44.3106 16.0979 16.2489 7.3687 -0.3113 8.5764
# 2 16.0979 65.3728 9.0574 4.2244 -0.1297 5.2302
# 3 16.2489 9.0574 73.1776 14.6075 8.6109 -4.6165
# 4 7.3687 4.2244 14.6075 28.2772 10.7425 -2.7100
# 5 -0.3113 -0.1297 8.6109 10.7425 29.7286 5.0745
# 6 8.5764 5.2302 -4.6165 -2.7100 5.0745 32.7785
#
#
#
# Elastic Compliance Matrix: (Units=1/GPa)
#
#
# Indices 1 2 3 4 5 6 
#
# 1 0.029644 -0.005278 -0.005808 -0.007157 0.006139 -0.009274
# 2 -0.005278 0.016941 -0.000905 -0.001239 0.001021 -0.001710
# 3 -0.005808 -0.000905 0.016813 -0.005204 -0.003769 0.004185
# 4 -0.007157 -0.001239 -0.005204 0.047324 -0.017020 0.007885
# 5 0.006139 0.001021 -0.003769 -0.017020 0.042709 -0.010319
# 6 -0.009274 -0.001710 0.004185 0.007885 -0.010319 0.036046
#
#
# Mechanical properties :
#
#
# Convention : Reuss Voigt Hill
#
# Bulk Modulus (GPa) = 25.37107 29.51884 27.44496
# Shear Modulus (GPa) = 22.06543 27.58732 24.82637
#
# Velocity S-wave (km/s) = 3.22994 3.61154 3.42605
# Velocity P-wave (km/s) = 5.08973 5.59887 5.35036
#
# Compressibility (1/GPa) = 0.03941497
#
# Stress axis : x y z
#
# Youngs Moduli (GPa) = 33.73402 59.02828 59.47665
#
# Poissons Ratio (x) = 0.31157 0.34543
# Poissons Ratio (y) = 0.17806 0.05385
# Poissons Ratio (z) = 0.19592 0.05344
#
# Static dielectric constant tensor:
#      x y z
#    x 1.803620 0.009230 0.018620 
#    y 0.009230 1.773410 0.016950 
#    z 0.018620 0.016950 1.615640 
# 
# From -- ./inp_files/308619.got.cif
#   From: 2010.05.17/outbox.cif.g08.bks.cpg/sg2_155_cif.got.tgz:308619.got - 2010.06.03 11:33:40.
