data_PCOD9095169
_publ_section_title
;
Structure prediction by ZEFSAII (Michael W. Deem and Ramdas Pophale) SiO2 
 PCOD9095169
Probable space group: P -1
;
_chemical_formula_sum "Si O2"
_cell_formula_units_Z 14
_cell_length_a 10.756559
_cell_length_b 9.106606
_cell_length_c 15.271859
_cell_angle_alpha 31.280878
_cell_angle_beta 73.980380
_cell_angle_gamma 67.104458
_cell_volume 710.545448
_symmetry_space_group_name_H-M "P -1"
_symmetry_group_IT_number 2
_symmetry_cell_setting 'triclinic'
loop_
_space_group_symop_operation_xyz
x,y,z
-x,-y,-z
loop_
_atom_site_type_symbol
_atom_site_label
_atom_site_fract_x
_atom_site_fract_y
_atom_site_fract_z
Si Si1 0.612169 0.629573 0.243679
Si Si2 0.863991 0.811825 0.433670
Si Si3 0.363617 0.027933 0.456632
Si Si4 0.319776 0.119684 0.070821
Si Si5 0.578249 0.738992 0.842561
Si Si6 0.691559 0.754159 0.344021
Si Si7 0.871235 0.205885 0.677429
O O1 0.694364 0.744291 0.243939
O O2 0.455094 0.834780 0.176372
O O3 0.623485 0.288652 0.427967
O O4 0.668309 0.665783 0.118755
O O5 0.761085 0.909349 0.483520
O O6 0.783928 0.897452 0.312810
O O7 0.906507 0.450111 0.608136
O O8 0.998651 0.909522 0.351774
O O9 0.350590 0.276012 0.257659
O O10 0.500000 0.000000 0.500000
O O11 0.329646 0.255396 0.094795
O O12 0.184564 0.023571 0.144161
O O13 0.460736 0.056834 0.700185
O O14 0.500000 0.500000 0.000000
O O15 0.743249 0.414858 0.540493
#
# Coordination Sequence:
#
# PCOD9095169 Si02
#       7
#     2   2   2   2   2   2   2
#     4  10  21  34  58  85 111 142 193 224 281 327
#     4   9  20  35  62  81 109 149 189 225 271 336
#     4  12  20  35  58  85 108 146 183 236 281 327
#     4  10  20  35  55  84 114 150 179 235 274 328
#     4  11  22  34  57  87 116 138 184 235 285 321
#     4   9  18  38  57  78 111 150 176 230 270 333
#     4   9  18  38  59  77 114 150 188 219 277 336
#
# _framework density 19.703173
#
# number of rings (size 3 to 8) (size 9 to 14) (size 15 to 20)
#    0.857    1.143    1.429    3.429    0.000    4.571 
#    0.000    4.286    3.143    0.000    0.000    0.000 
#    0.000    0.000    0.000    0.000    0.000    0.000 
#
# Total GULP energy -77961.403038 kJ/mol
# GULP energy per Si atom -5568.671646 kJ/mol
# Density = 1.965833 g / cm^3
# Si number density = 19.703173 Si / 1000 Ang^3
#
#
#
# Elastic Constant Matrix: (Units=GPa)
#
#
# Indices 1 2 3 4 5 6 
#
# 1 47.8459 26.4593 39.5084 18.3518 -19.1395 -5.7558
# 2 26.4593 78.8840 36.0854 23.1280 -7.8508 -2.8458
# 3 39.5084 36.0854 92.0554 27.8950 -25.5423 -6.5451
# 4 18.3518 23.1280 27.8950 27.1159 -1.3063 -1.0917
# 5 -19.1395 -7.8508 -25.5423 -1.3063 29.8802 5.9134
# 6 -5.7558 -2.8458 -6.5451 -1.0917 5.9134 26.1156
#
#
#
# Elastic Compliance Matrix: (Units=1/GPa)
#
#
# Indices 1 2 3 4 5 6 
#
# 1 0.043822 -0.004454 -0.005098 -0.019501 0.021240 0.002271
# 2 -0.004454 0.018133 -0.002237 -0.010169 -0.000468 0.000115
# 3 -0.005098 -0.002237 0.023904 -0.018464 0.015716 0.000293
# 4 -0.019501 -0.010169 -0.018464 0.076396 -0.027485 -0.000617
# 5 0.021240 -0.000468 0.015716 -0.027485 0.060421 -0.006261
# 6 0.002271 0.000115 0.000293 -0.000617 -0.006261 0.040270
#
#
# Mechanical properties :
#
#
# Convention : Reuss Voigt Hill
#
# Bulk Modulus (GPa) = 16.05569 46.98795 31.52182
# Shear Modulus (GPa) = 16.27160 24.40447 20.33804
#
# Velocity S-wave (km/s) = 2.87685 3.52320 3.21631
# Velocity P-wave (km/s) = 4.38196 6.36005 5.46131
#
# Compressibility (1/GPa) = 0.06228323
#
# Stress axis : x y z
#
# Youngs Moduli (GPa) = 22.81936 55.14843 41.83371
#
# Poissons Ratio (x) = 0.24561 0.21325
# Poissons Ratio (y) = 0.10163 0.09358
# Poissons Ratio (z) = 0.11632 0.12336
#
# Static dielectric constant tensor:
#      x y z
#    x 1.716050 0.001120 0.014160 
#    y 0.001120 1.738930 -0.002860 
#    z 0.014160 -0.002860 1.698330 
# 
# From -- ./inp_files/514792.got.cif
#   From: 2010.05.17/outbox.cif.g08.bks.cpg/sg2_258_cif.got.tgz:514792.got - 2010.06.03 11:33:40.
