data_PCOD9095624
_publ_section_title
;
Structure prediction by ZEFSAII (Michael W. Deem and Ramdas Pophale) SiO2 
 PCOD9095624
Probable space group: P -1
;
_chemical_formula_sum "Si O2"
_cell_formula_units_Z 14
_cell_length_a 9.145251
_cell_length_b 9.412293
_cell_length_c 10.157494
_cell_angle_alpha 107.563842
_cell_angle_beta 62.802648
_cell_angle_gamma 130.904738
_cell_volume 587.755371
_symmetry_space_group_name_H-M "P -1"
_symmetry_group_IT_number 2
_symmetry_cell_setting 'triclinic'
loop_
_space_group_symop_operation_xyz
x,y,z
-x,-y,-z
loop_
_atom_site_type_symbol
_atom_site_label
_atom_site_fract_x
_atom_site_fract_y
_atom_site_fract_z
Si Si1 0.305863 0.437505 0.650284
Si Si2 0.722344 0.085178 0.494795
Si Si3 0.123123 0.812523 0.807940
Si Si4 0.524874 0.261058 0.975854
Si Si5 0.263250 0.305058 0.908373
Si Si6 0.915735 0.380758 0.698774
Si Si7 0.491166 0.142741 0.234910
O O1 0.500000 0.500000 0.500000
O O2 0.273303 0.308448 0.748457
O O3 0.375384 0.635316 0.733098
O O4 0.090211 0.352473 0.643439
O O5 0.847751 0.094294 0.320485
O O6 0.821933 0.292074 0.569825
O O7 0.500000 0.000000 0.500000
O O8 0.679971 0.964492 0.609261
O O9 0.338240 0.890748 0.814194
O O10 0.017580 0.596653 0.746312
O O11 0.964486 0.802971 0.968107
O O12 0.619806 0.475273 0.039399
O O13 0.424053 0.127532 0.107384
O O14 0.376431 0.229832 0.909852
O O15 0.718269 0.269535 0.847388
#
# Coordination Sequence:
#
# PCOD9095624 Si02
#       7
#     2   2   2   2   2   2   2
#     4  10  21  37  59  85 111 141 185 232 274 328
#     4  10  21  35  55  83 114 147 184 230 278 326
#     4   9  18  35  58  81 109 146 189 224 268 329
#     4   9  18  33  56  83 110 142 185 227 273 327
#     4   9  18  33  55  83 110 140 182 234 273 315
#     4  10  20  35  59  82 107 147 190 227 271 328
#     4   9  19  36  56  80 113 148 179 225 280 326
#
# _framework density 23.819431999999999
#
# number of rings (size 3 to 8) (size 9 to 14) (size 15 to 20)
#    0.000    2.571    0.000    1.286    0.000   12.000 
#    0.000    2.857    0.000    5.143    0.000    0.000 
#    0.000    0.000    0.000    0.000    0.000    0.000 
#
# Total GULP energy -78210.675707 kJ/mol
# GULP energy per Si atom -5586.476836 kJ/mol
# Density = 2.376522 g / cm^3
# Si number density = 23.819432 Si / 1000 Ang^3
#
#
#
# Elastic Constant Matrix: (Units=GPa)
#
#
# Indices 1 2 3 4 5 6 
#
# 1 138.4301 39.8067 89.7938 -18.9715 0.2156 3.5555
# 2 39.8067 88.3440 23.5531 -6.7544 11.6237 -4.3191
# 3 89.7938 23.5531 189.3323 -50.9607 19.5292 0.2672
# 4 -18.9715 -6.7544 -50.9607 50.1455 -0.1684 3.2181
# 5 0.2156 11.6237 19.5292 -0.1684 23.6156 -2.6941
# 6 3.5555 -4.3191 0.2672 3.2181 -2.6941 36.0166
#
#
#
# Elastic Compliance Matrix: (Units=1/GPa)
#
#
# Indices 1 2 3 4 5 6 
#
# 1 0.013001 -0.005315 -0.007161 -0.002984 0.008286 -0.000981
# 2 -0.005315 0.014508 0.002152 0.002010 -0.008696 0.001418
# 3 -0.007161 0.002152 0.012275 0.010073 -0.011171 -0.000862
# 4 -0.002984 0.002010 0.010073 0.029473 -0.009410 -0.002876
# 5 0.008286 -0.008696 -0.011171 -0.009410 0.056092 0.003259
# 6 -0.000981 0.001418 -0.000862 -0.002876 0.003259 0.028539
#
#
# Mechanical properties :
#
#
# Convention : Reuss Voigt Hill
#
# Bulk Modulus (GPa) = 52.26045 80.26817 66.26431
# Shear Modulus (GPa) = 27.63728 39.48574 33.56151
#
# Velocity S-wave (km/s) = 3.40999 4.07592 3.75773
# Velocity P-wave (km/s) = 6.12306 7.47814 6.83427
#
# Compressibility (1/GPa) = 0.01913493
#
# Stress axis : x y z
#
# Youngs Moduli (GPa) = 76.91884 68.92870 81.46614
#
# Poissons Ratio (x) = 0.36637 0.58339
# Poissons Ratio (y) = 0.40883 -0.17531
# Poissons Ratio (z) = 0.55082 -0.14833
#
# Static dielectric constant tensor:
#      x y z
#    x 1.853930 -0.038990 0.003480 
#    y -0.038990 2.008990 0.045800 
#    z 0.003480 0.045800 1.932810 
# 
# From -- ./inp_files/180112.got.cif
#   From: 2010.05.17/outbox.cif.g08.bks.cpg/sg2_91_cif.got.tgz:180112.got - 2010.06.03 11:33:40.
