data_PCOD9095817
_publ_section_title
;
Structure prediction by ZEFSAII (Michael W. Deem and Ramdas Pophale) SiO2 
 PCOD9095817
Probable space group: P -1
;
_chemical_formula_sum "Si O2"
_cell_formula_units_Z 16
_cell_length_a 9.878051
_cell_length_b 22.155718
_cell_length_c 9.256227
_cell_angle_alpha 145.825078
_cell_angle_beta 100.828580
_cell_angle_gamma 55.183589
_cell_volume 735.272108
_symmetry_space_group_name_H-M "P -1"
_symmetry_group_IT_number 2
_symmetry_cell_setting 'triclinic'
loop_
_space_group_symop_operation_xyz
x,y,z
-x,-y,-z
loop_
_atom_site_type_symbol
_atom_site_label
_atom_site_fract_x
_atom_site_fract_y
_atom_site_fract_z
Si Si1 0.739210 0.353984 0.310778
Si Si2 0.113455 0.186535 0.834293
Si Si3 0.684301 0.032257 0.028783
Si Si4 0.266690 0.541773 0.176826
Si Si5 0.885553 0.730055 0.304976
Si Si6 0.707137 0.243301 0.551457
Si Si7 0.910559 0.024401 0.688245
Si Si8 0.582305 0.981225 0.181780
O O1 0.500000 0.500000 0.500000
O O2 0.771174 0.410540 0.568808
O O3 0.784157 0.203592 0.063112
O O4 0.903332 0.289306 0.089053
O O5 0.065889 0.290314 0.894614
O O6 0.199118 0.025212 0.460756
O O7 0.293391 0.115342 0.839849
O O8 0.699698 0.149181 0.251369
O O9 0.713268 0.979552 0.096863
O O10 0.848046 0.870859 0.646627
O O11 0.468638 0.101147 0.073143
O O12 0.281184 0.648547 0.308480
O O13 0.084426 0.577458 0.136338
O O14 0.494900 0.359196 0.831901
O O15 0.646168 0.829067 0.466528
O O16 0.900313 0.109751 0.431331
O O17 0.000000 0.000000 0.500000
#
# Coordination Sequence:
#
# PCOD9095817 Si02
#       8
#     2   2   2   2   2   2   2   2
#     4  11  25  38  59  91 126 161 197 252 317 362
#     4  11  20  37  60  87 123 160 201 248 303 363
#     4   9  20  37  62  83 120 150 215 242 301 356
#     4  11  23  37  61  89 130 155 202 256 309 359
#     4  10  20  36  61  90 119 157 205 247 302 355
#     4  11  22  38  62  93 119 162 202 254 307 364
#     4  10  20  35  60  87 119 153 202 242 306 368
#     4   9  20  37  62  88 118 160 210 247 292 360
#
# _framework density 21.760649999999998
#
# number of rings (size 3 to 8) (size 9 to 14) (size 15 to 20)
#    0.750    1.000    1.250    4.875    3.500    1.000 
#    0.000    0.625    2.750    0.750    0.000    0.000 
#    0.000    0.000    0.000    0.000    0.000    0.000 
#
# Total GULP energy -89261.464165 kJ/mol
# GULP energy per Si atom -5578.841510 kJ/mol
# Density = 2.171112 g / cm^3
# Si number density = 21.760650 Si / 1000 Ang^3
#
#
#
# Elastic Constant Matrix: (Units=GPa)
#
#
# Indices 1 2 3 4 5 6 
#
# 1 42.7901 24.0578 6.1164 -1.6912 -14.3859 -2.6494
# 2 24.0578 132.7148 27.6213 1.1051 -17.5889 -9.6743
# 3 6.1164 27.6213 67.3538 8.8153 -21.3028 -2.9352
# 4 -1.6912 1.1051 8.8153 32.3795 2.7300 -8.5884
# 5 -14.3859 -17.5889 -21.3028 2.7300 34.4362 -6.9714
# 6 -2.6494 -9.6743 -2.9352 -8.5884 -6.9714 29.9953
#
#
#
# Elastic Compliance Matrix: (Units=1/GPa)
#
#
# Indices 1 2 3 4 5 6 
#
# 1 0.030028 -0.003968 0.003252 0.001040 0.013484 0.005122
# 2 -0.003968 0.009313 -0.002846 0.000906 0.001889 0.003073
# 3 0.003252 -0.002846 0.021040 -0.005843 0.013993 0.003007
# 4 0.001040 0.000906 -0.005843 0.035205 -0.003679 0.009037
# 5 0.013484 0.001889 0.013993 -0.003679 0.047236 0.013094
# 6 0.005122 0.003073 0.003007 0.009037 0.013094 0.040707
#
#
# Mechanical properties :
#
#
# Convention : Reuss Voigt Hill
#
# Bulk Modulus (GPa) = 18.77692 39.82775 29.30234
# Shear Modulus (GPa) = 23.99157 31.69974 27.84565
#
# Velocity S-wave (km/s) = 3.32402 3.82087 3.58108
# Velocity P-wave (km/s) = 4.83526 6.14881 5.53117
#
# Compressibility (1/GPa) = 0.05325686
#
# Stress axis : x y z
#
# Youngs Moduli (GPa) = 33.30273 107.37106 47.52771
#
# Poissons Ratio (x) = 0.42609 -0.15458
# Poissons Ratio (y) = 0.13216 0.13527
# Poissons Ratio (z) = -0.10831 0.30560
#
# Static dielectric constant tensor:
#      x y z
#    x 1.852470 -0.006210 -0.004840 
#    y -0.006210 1.825310 0.011540 
#    z -0.004840 0.011540 1.823720 
# 
# From -- ./inp_files/285211.got.cif
#   From: 2010.05.17/outbox.cif.g08.bks.cpg/sg2_143_cif.got.tgz:285211.got - 2010.06.03 11:33:40.
