data_PCOD9095791
_publ_section_title
;
Structure prediction by ZEFSAII (Michael W. Deem and Ramdas Pophale) SiO2 
 PCOD9095791
Probable space group: P -1
;
_chemical_formula_sum "Si O2"
_cell_formula_units_Z 10
_cell_length_a 9.335924
_cell_length_b 17.854238
_cell_length_c 6.654982
_cell_angle_alpha 36.016595
_cell_angle_beta 50.503047
_cell_angle_gamma 45.938857
_cell_volume 461.576372
_symmetry_space_group_name_H-M "P -1"
_symmetry_group_IT_number 2
_symmetry_cell_setting 'triclinic'
loop_
_space_group_symop_operation_xyz
x,y,z
-x,-y,-z
loop_
_atom_site_type_symbol
_atom_site_label
_atom_site_fract_x
_atom_site_fract_y
_atom_site_fract_z
Si Si1 0.268658 0.082607 0.095115
Si Si2 0.724700 0.309472 0.256203
Si Si3 0.086104 0.372145 0.855733
Si Si4 0.021930 0.002321 0.211146
Si Si5 0.367769 0.492025 0.449220
O O1 0.183777 0.996425 0.509758
O O2 0.113767 0.107100 0.991638
O O3 0.223254 0.228699 0.930419
O O4 0.500000 0.000000 0.000000
O O5 0.806535 0.145977 0.554360
O O6 0.511698 0.385163 0.387583
O O7 0.717849 0.366136 0.912677
O O8 0.888939 0.348174 0.149715
O O9 0.206848 0.425973 0.788031
O O10 0.000000 0.500000 0.500000
O O11 0.000000 0.000000 0.000000
O O12 0.500000 0.500000 0.500000
#
# Coordination Sequence:
#
# PCOD9095791 Si02
#       5
#     2   2   2   2   2
#     4  10  21  39  61  86 118 155 198 247 291 348
#     4   9  20  38  55  83 118 146 191 243 290 351
#     4   9  19  37  57  82 116 149 187 240 295 342
#     4  10  22  39  60  86 120 159 196 239 295 353
#     4  10  20  35  60  85 111 150 193 242 295 345
#
# _framework density 21.664888999999999
#
# number of rings (size 3 to 8) (size 9 to 14) (size 15 to 20)
#    0.000    2.400    0.000    1.200    0.000    8.000 
#    0.000   14.000    0.000    0.000    0.000    0.000 
#    0.000    0.000    0.000    0.000    0.000    0.000 
#
# Total GULP energy -55754.022281 kJ/mol
# GULP energy per Si atom -5575.402228 kJ/mol
# Density = 2.161558 g / cm^3
# Si number density = 21.664889 Si / 1000 Ang^3
#
#
#
# Elastic Constant Matrix: (Units=GPa)
#
#
# Indices 1 2 3 4 5 6 
#
# 1 154.1798 13.6504 41.3291 -0.1147 -3.6112 25.8106
# 2 13.6504 79.9399 30.7489 -6.2446 1.8158 -21.3143
# 3 41.3291 30.7489 49.2511 3.1726 4.6461 4.9652
# 4 -0.1147 -6.2446 3.1726 36.9342 1.2118 -6.5007
# 5 -3.6112 1.8158 4.6461 1.2118 33.1088 5.1662
# 6 25.8106 -21.3143 4.9652 -6.5007 5.1662 40.6621
#
#
#
# Elastic Compliance Matrix: (Units=1/GPa)
#
#
# Indices 1 2 3 4 5 6 
#
# 1 0.009566 -0.000476 -0.007388 -0.000554 0.003046 -0.005895
# 2 -0.000476 0.024165 -0.016728 0.008509 -0.001934 0.016618
# 3 -0.007388 -0.016728 0.038749 -0.007753 -0.003544 -0.009600
# 4 -0.000554 0.008509 -0.007753 0.031197 -0.002303 0.011039
# 5 0.003046 -0.001934 -0.003544 -0.002303 0.032314 -0.006989
# 6 -0.005895 0.016618 -0.009600 0.011039 -0.006989 0.040871
#
#
# Mechanical properties :
#
#
# Convention : Reuss Voigt Hill
#
# Bulk Modulus (GPa) = 42.92584 50.53639 46.73111
# Shear Modulus (GPa) = 21.38487 35.31716 28.35102
#
# Velocity S-wave (km/s) = 3.14518 4.04190 3.62140
# Velocity P-wave (km/s) = 5.74858 6.72009 6.25323
#
# Compressibility (1/GPa) = 0.02329599
#
# Stress axis : x y z
#
# Youngs Moduli (GPa) = 104.53404 41.38281 25.80723
#
# Poissons Ratio (x) = 0.01971 0.19065
# Poissons Ratio (y) = 0.04978 0.43170
# Poissons Ratio (z) = 0.77225 0.69225
#
# Static dielectric constant tensor:
#      x y z
#    x 1.896660 0.048790 -0.077800 
#    y 0.048790 1.848640 -0.027870 
#    z -0.077800 -0.027870 1.832110 
# 
# From -- ./inp_files/27420.got.cif
#   From: 2010.05.17/outbox.cif.g08.bks.cpg/sg2_14_cif.got.tgz:27420.got - 2010.06.03 11:33:40.
