data_PCOD9095629
_publ_section_title
;
Structure prediction by ZEFSAII (Michael W. Deem and Ramdas Pophale) SiO2 
 PCOD9095629
Probable space group: P -1
;
_chemical_formula_sum "Si O2"
_cell_formula_units_Z 10
_cell_length_a 17.735628
_cell_length_b 6.709149
_cell_length_c 10.795544
_cell_angle_alpha 74.054720
_cell_angle_beta 148.692315
_cell_angle_gamma 124.643831
_cell_volume 477.625121
_symmetry_space_group_name_H-M "P -1"
_symmetry_group_IT_number 2
_symmetry_cell_setting 'triclinic'
loop_
_space_group_symop_operation_xyz
x,y,z
-x,-y,-z
loop_
_atom_site_type_symbol
_atom_site_label
_atom_site_fract_x
_atom_site_fract_y
_atom_site_fract_z
Si Si1 0.231153 0.213757 0.307744
Si Si2 0.546520 0.814384 0.556566
Si Si3 0.439717 0.313549 0.825123
Si Si4 0.116805 0.821875 0.588944
Si Si5 0.792003 0.811905 0.107100
O O1 0.342770 0.495715 0.335769
O O2 0.337986 0.107573 0.423282
O O3 0.302326 0.301646 0.534495
O O4 0.000000 0.000000 0.000000
O O5 0.500000 0.000000 0.500000
O O6 0.688423 0.840957 0.850162
O O7 0.314019 0.002287 0.753953
O O8 0.500000 0.500000 0.000000
O O9 0.642799 0.497063 0.005874
O O10 0.000000 0.500000 0.500000
O O11 0.978877 0.860114 0.322353
O O12 0.159792 0.975807 0.754001
#
# Coordination Sequence:
#
# PCOD9095629 Si02
#       5
#     2   2   2   2   2
#     4  10  21  38  61  87 118 156 199 244 291 351
#     4  10  22  39  60  86 120 158 196 242 296 351
#     4   9  19  37  57  82 117 150 187 241 296 343
#     4  10  20  35  59  83 109 150 195 240 289 343
#     4   9  20  37  54  81 118 149 187 240 291 344
#
# _framework density 20.936921999999999
#
# number of rings (size 3 to 8) (size 9 to 14) (size 15 to 20)
#    0.000    2.400    0.000    1.200    0.000    8.000 
#    0.000   12.000    0.000    0.000    0.000    0.000 
#    0.000    0.000    0.000    0.000    0.000    0.000 
#
# Total GULP energy -55716.647583 kJ/mol
# GULP energy per Si atom -5571.664758 kJ/mol
# Density = 2.088927 g / cm^3
# Si number density = 20.936922 Si / 1000 Ang^3
#
#
#
# Elastic Constant Matrix: (Units=GPa)
#
#
# Indices 1 2 3 4 5 6 
#
# 1 82.1587 35.4503 54.4848 -0.0921 9.4906 2.4854
# 2 35.4503 93.9647 34.4161 17.5335 2.3302 -8.7806
# 3 54.4848 34.4161 139.2751 11.9149 -4.2122 -2.8492
# 4 -0.0921 17.5335 11.9149 34.6558 11.1780 6.8699
# 5 9.4906 2.3302 -4.2122 11.1780 33.0705 1.2866
# 6 2.4854 -8.7806 -2.8492 6.8699 1.2866 27.3975
#
#
#
# Elastic Compliance Matrix: (Units=1/GPa)
#
#
# Indices 1 2 3 4 5 6 
#
# 1 0.022895 -0.008341 -0.008448 0.012331 -0.010907 -0.008208
# 2 -0.008341 0.016525 0.000532 -0.011931 0.004985 0.008866
# 3 -0.008448 0.000532 0.011183 -0.006755 0.005958 0.003514
# 4 0.012331 -0.011931 -0.006755 0.046517 -0.018642 -0.016434
# 5 -0.010907 0.004985 0.005958 -0.018642 0.039844 0.006010
# 6 -0.008208 0.008866 0.003514 -0.016434 0.006010 0.044290
#
#
# Mechanical properties :
#
#
# Convention : Reuss Voigt Hill
#
# Bulk Modulus (GPa) = 55.27824 62.67789 58.97807
# Shear Modulus (GPa) = 22.74814 31.76125 27.25470
#
# Velocity S-wave (km/s) = 3.29980 3.89909 3.61190
# Velocity P-wave (km/s) = 6.40139 7.09028 6.75462
#
# Compressibility (1/GPa) = 0.01809030
#
# Stress axis : x y z
#
# Youngs Moduli (GPa) = 43.67727 60.51335 89.41787
#
# Poissons Ratio (x) = 0.50473 0.75542
# Poissons Ratio (y) = 0.36430 -0.04759
# Poissons Ratio (z) = 0.36900 -0.03221
#
# Static dielectric constant tensor:
#      x y z
#    x 1.847250 0.018350 -0.026620 
#    y 0.018350 1.740560 0.022760 
#    z -0.026620 0.022760 1.772240 
# 
# From -- ./inp_files/21784.got.cif
#   From: 2010.05.17/outbox.cif.g08.bks.cpg/sg2_11_cif.got.tgz:21784.got - 2010.06.03 11:33:40.
