data_PCOD9095768
_publ_section_title
;
Structure prediction by ZEFSAII (Michael W. Deem and Ramdas Pophale) SiO2 
 PCOD9095768
Probable space group: P -1
;
_chemical_formula_sum "Si O2"
_cell_formula_units_Z 16
_cell_length_a 9.819874
_cell_length_b 26.204497
_cell_length_c 19.122516
_cell_angle_alpha 162.436945
_cell_angle_beta 26.803442
_cell_angle_gamma 151.522246
_cell_volume 655.182800
_symmetry_space_group_name_H-M "P -1"
_symmetry_group_IT_number 2
_symmetry_cell_setting 'triclinic'
loop_
_space_group_symop_operation_xyz
x,y,z
-x,-y,-z
loop_
_atom_site_type_symbol
_atom_site_label
_atom_site_fract_x
_atom_site_fract_y
_atom_site_fract_z
Si Si1 0.233153 0.348406 0.977094
Si Si2 0.598923 0.322656 0.488509
Si Si3 0.450136 0.995831 0.737066
Si Si4 0.707970 0.683567 0.242115
Si Si5 0.180950 0.570643 0.621105
Si Si6 0.395082 0.945848 0.553507
Si Si7 0.235044 0.254028 0.272737
Si Si8 0.702179 0.966194 0.927483
O O1 0.093355 0.333901 0.943041
O O2 0.494494 0.232838 0.713621
O O3 0.408148 0.543317 0.169086
O O4 0.990232 0.298546 0.086468
O O5 0.316396 0.344583 0.698674
O O6 0.587006 0.366667 0.468535
O O7 0.676009 0.129042 0.202258
O O8 0.896467 0.447887 0.548737
O O9 0.678516 0.881576 0.510828
O O10 0.545313 0.060599 0.700016
O O11 0.119201 0.856881 0.704501
O O12 0.397524 0.152428 0.010313
O O13 0.261540 0.442692 0.476607
O O14 0.500000 0.000000 0.500000
O O15 0.042379 0.962820 0.740626
O O16 0.376046 0.214106 0.230132
O O17 0.500000 0.000000 0.000000
#
# Coordination Sequence:
#
# PCOD9095768 Si02
#       8
#     2   2   2   2   2   2   2   2
#     4   9  17  27  45  78 111 133 162 219 293 328
#     4  10  18  32  52  81 112 138 180 232 279 319
#     4   9  15  27  50  78 106 134 181 225 275 320
#     4   9  15  27  43  73 108 136 164 215 273 329
#     4  10  18  29  55  89 111 134 173 243 290 313
#     4  10  20  32  52  82 111 137 179 235 281 319
#     4  10  16  30  52  79 103 143 187 228 264 326
#     4  11  23  37  56  78 110 154 192 223 266 334
#
# _framework density 24.420666000000001
#
# number of rings (size 3 to 8) (size 9 to 14) (size 15 to 20)
#    0.000    2.250    3.750    2.250    1.750    2.000 
#    0.000    0.625    0.000    3.750    0.000    0.000 
#    0.000    0.000    0.000    0.000    0.000    0.000 
#
# Total GULP energy -89085.365873 kJ/mol
# GULP energy per Si atom -5567.835367 kJ/mol
# Density = 2.436508 g / cm^3
# Si number density = 24.420666 Si / 1000 Ang^3
#
#
#
# Elastic Constant Matrix: (Units=GPa)
#
#
# Indices 1 2 3 4 5 6 
#
# 1 71.8927 46.7718 23.1886 -24.4996 -4.7440 -54.0319
# 2 46.7718 97.3747 23.7916 -5.3093 11.6389 -48.2066
# 3 23.1886 23.7916 91.0388 -12.6033 17.6500 -24.4299
# 4 -24.4996 -5.3093 -12.6033 27.5797 -22.2991 6.6704
# 5 -4.7440 11.6389 17.6500 -22.2991 35.9523 -9.5314
# 6 -54.0319 -48.2066 -24.4299 6.6704 -9.5314 66.7433
#
#
#
# Elastic Compliance Matrix: (Units=1/GPa)
#
#
# Indices 1 2 3 4 5 6 
#
# 1 -0.031104 0.007056 0.001931 -0.061698 -0.051039 -0.020499
# 2 0.007056 0.014737 -0.001393 0.010994 0.007871 0.015872
# 3 0.001931 -0.001393 0.013068 0.005366 -0.001151 0.004639
# 4 -0.061698 0.010994 0.005366 -0.048912 -0.056116 -0.043169
# 5 -0.051039 0.007871 -0.001151 -0.056116 -0.024716 -0.033976
# 6 -0.020499 0.015872 0.004639 -0.043169 -0.033976 0.011012
#
#
# Mechanical properties :
#
#
# Convention : Reuss Voigt Hill
#
# Bulk Modulus (GPa) = 84.11442 49.75668 66.93555
# Shear Modulus (GPa) = -64.81604 37.15867 -13.82868
#
# Velocity S-wave (km/s) = -5.15743 3.90501 -2.38222
# Velocity P-wave (km/s) = 0.97300 6.38367 4.46119
#
# Compressibility (1/GPa) = 0.01188857
#
# Stress axis : x y z
#
# Youngs Moduli (GPa) = -32.15023 67.85724 76.52520
#
# Poissons Ratio (x) = -0.47882 -0.14779
# Poissons Ratio (y) = 0.22686 0.10664
# Poissons Ratio (z) = 0.06209 0.09456
#
# Static dielectric constant tensor:
#      x y z
#    x 2.097630 0.025600 0.008790 
#    y 0.025600 2.075930 -0.028160 
#    z 0.008790 -0.028160 1.956570 
# 
# From -- ./inp_files/596419.got.cif
#   From: 2010.05.17/outbox.cif.g08.bks.cpg/sg2_299_cif.got.tgz:596419.got - 2010.06.03 11:33:40.
