data_PCOD9095423
_publ_section_title
;
Structure prediction by ZEFSAII (Michael W. Deem and Ramdas Pophale) SiO2 
 PCOD9095423
Probable space group: P -1
;
_chemical_formula_sum "Si O2"
_cell_formula_units_Z 16
_cell_length_a 6.776518
_cell_length_b 22.316540
_cell_length_c 11.544252
_cell_angle_alpha 151.248184
_cell_angle_beta 92.910495
_cell_angle_gamma 92.718208
_cell_volume 823.181948
_symmetry_space_group_name_H-M "P -1"
_symmetry_group_IT_number 2
_symmetry_cell_setting 'triclinic'
loop_
_space_group_symop_operation_xyz
x,y,z
-x,-y,-z
loop_
_atom_site_type_symbol
_atom_site_label
_atom_site_fract_x
_atom_site_fract_y
_atom_site_fract_z
Si Si1 0.198764 0.689479 0.788124
Si Si2 0.136005 0.186858 0.523207
Si Si3 0.447432 0.788912 0.542926
Si Si4 0.994387 0.105608 0.937815
Si Si5 0.877757 0.112895 0.192346
Si Si6 0.086588 0.607570 0.093035
Si Si7 0.582810 0.725636 0.697626
Si Si8 0.171017 0.494135 0.658610
O O1 0.406090 0.722661 0.779943
O O2 0.227812 0.611612 0.772087
O O3 0.033935 0.594532 0.545278
O O4 0.096134 0.811815 0.019958
O O5 0.360810 0.179387 0.480497
O O6 0.031919 0.212670 0.440458
O O7 0.074831 0.301281 0.786328
O O8 0.039793 0.046720 0.331443
O O9 0.328528 0.900582 0.766670
O O10 0.285212 0.689738 0.298417
O O11 0.511059 0.742457 0.591765
O O12 0.864564 0.138555 0.101365
O O13 0.224622 0.165375 0.077677
O O14 0.000000 0.000000 0.000000
O O15 0.139893 0.543610 0.868919
O O16 0.000000 0.500000 0.000000
O O17 0.663657 0.594564 0.485464
#
# Coordination Sequence:
#
# PCOD9095423 Si02
#       8
#     2   2   2   2   2   2   2   2
#     4  10  21  39  62  86 111 153 194 244 299 332
#     4  10  22  37  54  87 122 153 195 231 290 350
#     4  11  21  34  58  87 116 159 186 228 301 348
#     4  10  20  35  57  87 120 147 193 246 285 341
#     4   9  18  32  49  81 119 148 179 232 278 336
#     4  11  24  40  57  83 123 154 190 239 284 352
#     4  11  20  34  62  89 115 149 195 243 292 344
#     4  10  23  40  59  85 119 149 198 245 283 343
#
# _framework density 19.436771
#
# number of rings (size 3 to 8) (size 9 to 14) (size 15 to 20)
#    0.000    1.750    2.500    1.875    3.500    8.000 
#    0.000    0.625    0.000    1.500    0.000    0.000 
#    0.000    0.000    0.000    0.000    0.000    0.000 
#
# Total GULP energy -89135.705910 kJ/mol
# GULP energy per Si atom -5570.981619 kJ/mol
# Density = 1.939253 g / cm^3
# Si number density = 19.436771 Si / 1000 Ang^3
#
#
#
# Elastic Constant Matrix: (Units=GPa)
#
#
# Indices 1 2 3 4 5 6 
#
# 1 124.3801 45.5872 41.3712 11.3941 -17.1377 5.0545
# 2 45.5872 106.5968 44.2338 21.6793 -11.1634 -5.0159
# 3 41.3712 44.2338 64.7606 18.1667 -10.9069 0.0802
# 4 11.3941 21.6793 18.1667 29.6954 -6.4535 -3.0912
# 5 -17.1377 -11.1634 -10.9069 -6.4535 23.2159 8.5486
# 6 5.0545 -5.0159 0.0802 -3.0912 8.5486 27.0399
#
#
#
# Elastic Compliance Matrix: (Units=1/GPa)
#
#
# Indices 1 2 3 4 5 6 
#
# 1 0.011709 -0.002812 -0.004767 0.001552 0.007255 -0.004813
# 2 -0.002812 0.014519 -0.006790 -0.005241 -0.000807 0.002895
# 3 -0.004767 -0.006790 0.026258 -0.008660 0.004157 -0.002751
# 4 0.001552 -0.005241 -0.008660 0.043706 0.006023 0.001856
# 5 0.007255 -0.000807 0.004157 0.006023 0.058822 -0.019426
# 6 -0.004813 0.002895 -0.002751 0.001856 -0.019426 0.044781
#
#
# Mechanical properties :
#
#
# Convention : Reuss Voigt Hill
#
# Bulk Modulus (GPa) = 42.10894 62.01353 52.06124
# Shear Modulus (GPa) = 21.14626 26.95991 24.05308
#
# Velocity S-wave (km/s) = 3.30199 3.72836 3.52163
# Velocity P-wave (km/s) = 6.02072 7.10695 6.58627
#
# Compressibility (1/GPa) = 0.02374793
#
# Stress axis : x y z
#
# Youngs Moduli (GPa) = 85.40359 68.87667 38.08404
#
# Poissons Ratio (x) = 0.19365 0.18156
# Poissons Ratio (y) = 0.24012 0.25859
# Poissons Ratio (z) = 0.40714 0.46767
#
# Static dielectric constant tensor:
#      x y z
#    x 1.727800 -0.018020 -0.011180 
#    y -0.018020 1.758840 0.012560 
#    z -0.011180 0.012560 1.739330 
# 
# From -- ./inp_files/371124.got.cif
#   From: 2010.05.17/outbox.cif.g08.bks.cpg/sg2_186_cif.got.tgz:371124.got - 2010.06.03 11:33:40.
