data_PCOD9095127
_publ_section_title
;
Structure prediction by ZEFSAII (Michael W. Deem and Ramdas Pophale) SiO2 
 PCOD9095127
Probable space group: P -1
;
_chemical_formula_sum "Si O2"
_cell_formula_units_Z 16
_cell_length_a 8.362857
_cell_length_b 22.421521
_cell_length_c 11.851821
_cell_angle_alpha 28.407904
_cell_angle_beta 47.897092
_cell_angle_gamma 41.606814
_cell_volume 701.458005
_symmetry_space_group_name_H-M "P -1"
_symmetry_group_IT_number 2
_symmetry_cell_setting 'triclinic'
loop_
_space_group_symop_operation_xyz
x,y,z
-x,-y,-z
loop_
_atom_site_type_symbol
_atom_site_label
_atom_site_fract_x
_atom_site_fract_y
_atom_site_fract_z
Si Si1 0.313726 0.542631 0.750749
Si Si2 0.354211 0.188409 0.547905
Si Si3 0.265115 0.262310 0.978692
Si Si4 0.255944 0.935175 0.047806
Si Si5 0.242025 0.272162 0.225432
Si Si6 0.547720 0.260187 0.528549
Si Si7 0.834174 0.416635 0.483513
Si Si8 0.964247 0.659323 0.262902
O O1 0.469058 0.589218 0.682176
O O2 0.328425 0.584779 0.542693
O O3 0.041759 0.636520 0.766775
O O4 0.351553 0.384492 0.995170
O O5 0.366563 0.166170 0.445087
O O6 0.556112 0.218357 0.464569
O O7 0.104217 0.327724 0.455288
O O8 0.328331 0.059363 0.830506
O O9 0.211499 0.424229 0.748118
O O10 0.070012 0.272044 0.958779
O O11 0.530379 0.172540 0.952631
O O12 0.257509 0.213375 0.190550
O O13 0.249077 0.853983 0.299215
O O14 0.000000 0.000000 0.000000
O O15 0.301768 0.261262 0.689186
O O16 0.847177 0.350604 0.711565
O O17 0.000000 0.500000 0.500000
#
# Coordination Sequence:
#
# PCOD9095127 Si02
#       8
#     2   2   2   2   2   2   2   2
#     4   9  17  32  57  82 110 142 181 229 268 323
#     4  10  20  35  57  81 113 146 181 224 267 328
#     4   9  18  33  56  82 110 143 180 223 274 328
#     4  11  22  37  57  82 108 143 185 228 277 325
#     4   9  18  34  54  81 110 144 183 220 272 326
#     4  10  20  35  55  80 108 145 186 225 275 320
#     4   8  15  32  54  80 105 135 179 223 267 313
#     4   8  15  30  51  77 109 137 172 222 273 315
#
# _framework density 22.809636000000001
#
# number of rings (size 3 to 8) (size 9 to 14) (size 15 to 20)
#    0.000    2.750    0.000    2.625    0.000    1.000 
#    0.000   26.250    0.000    7.500    0.000    0.000 
#    0.000    0.000    0.000    0.000    0.000    0.000 
#
# Total GULP energy -89209.938441 kJ/mol
# GULP energy per Si atom -5575.621153 kJ/mol
# Density = 2.275772 g / cm^3
# Si number density = 22.809636 Si / 1000 Ang^3
#
#
#
# Elastic Constant Matrix: (Units=GPa)
#
#
# Indices 1 2 3 4 5 6 
#
# 1 70.3864 10.6020 20.7163 9.4211 11.0618 21.8498
# 2 10.6020 69.2601 14.1156 -5.2252 9.5268 11.0140
# 3 20.7163 14.1156 46.6579 0.0357 4.3371 4.3625
# 4 9.4211 -5.2252 0.0357 32.7468 9.5917 12.1850
# 5 11.0618 9.5268 4.3371 9.5917 41.4049 2.2540
# 6 21.8498 11.0140 4.3625 12.1850 2.2540 32.5937
#
#
#
# Elastic Compliance Matrix: (Units=1/GPa)
#
#
# Indices 1 2 3 4 5 6 
#
# 1 0.021216 0.001169 -0.008112 0.000365 -0.004445 -0.013361
# 2 0.001169 0.017804 -0.004639 0.007175 -0.005122 -0.008507
# 3 -0.008112 -0.004639 0.026094 0.000217 0.000265 0.003413
# 4 0.000365 0.007175 0.000217 0.041054 -0.010338 -0.017331
# 5 -0.004445 -0.005122 0.000265 -0.010338 0.028527 0.006567
# 6 -0.013361 -0.008507 0.003413 -0.017331 0.006567 0.048081
#
#
# Mechanical properties :
#
#
# Convention : Reuss Voigt Hill
#
# Bulk Modulus (GPa) = 23.83795 30.79692 27.31744
# Shear Modulus (GPa) = 22.73538 30.74044 26.73791
#
# Velocity S-wave (km/s) = 3.16055 3.67508 3.42748
# Velocity P-wave (km/s) = 4.87773 5.61599 5.25983
#
# Compressibility (1/GPa) = 0.04194992
#
# Stress axis : x y z
#
# Youngs Moduli (GPa) = 47.13460 56.16848 38.32334
#
# Poissons Ratio (x) = -0.06567 0.31086
# Poissons Ratio (y) = -0.05511 0.17779
# Poissons Ratio (z) = 0.38233 0.26058
#
# Static dielectric constant tensor:
#      x y z
#    x 1.951080 0.030790 0.061570 
#    y 0.030790 1.901380 0.046530 
#    z 0.061570 0.046530 1.868770 
# 
# From -- ./inp_files/406509.got.cif
#   From: 2010.05.17/outbox.cif.g08.bks.cpg/sg2_204_cif.got.tgz:406509.got - 2010.06.03 11:33:40.
