data_PCOD9095064
_publ_section_title
;
Structure prediction by ZEFSAII (Michael W. Deem and Ramdas Pophale) SiO2 
 PCOD9095064
Probable space group: P -1
;
_chemical_formula_sum "Si O2"
_cell_formula_units_Z 16
_cell_length_a 11.434956
_cell_length_b 9.375011
_cell_length_c 13.575322
_cell_angle_alpha 109.856955
_cell_angle_beta 42.768655
_cell_angle_gamma 139.496302
_cell_volume 557.527642
_symmetry_space_group_name_H-M "P -1"
_symmetry_group_IT_number 2
_symmetry_cell_setting 'triclinic'
loop_
_space_group_symop_operation_xyz
x,y,z
-x,-y,-z
loop_
_atom_site_type_symbol
_atom_site_label
_atom_site_fract_x
_atom_site_fract_y
_atom_site_fract_z
Si Si1 0.600117 0.742142 0.904511
Si Si2 0.180668 0.187011 0.720108
Si Si3 0.150182 0.626422 0.810860
Si Si4 0.200696 0.006988 0.838106
Si Si5 0.095563 0.530781 0.267900
Si Si6 0.208522 0.444427 0.350538
Si Si7 0.536005 0.116595 0.145636
Si Si8 0.770324 0.727363 0.526113
O O1 0.693553 0.646352 0.780065
O O2 0.584388 0.846394 0.847456
O O3 0.291034 0.533542 0.097418
O O4 0.839342 0.966807 0.886189
O O5 0.225262 0.057140 0.717006
O O6 0.419982 0.461296 0.689030
O O7 0.210629 0.231267 0.593664
O O8 0.147863 0.594124 0.688868
O O9 0.430733 0.798401 0.743549
O O10 0.871657 0.341200 0.957163
O O11 0.104287 0.775175 0.879327
O O12 0.512608 0.255685 0.746905
O O13 0.000000 0.000000 0.000000
O O14 0.995002 0.384492 0.397189
O O15 0.340474 0.832605 0.191057
O O16 0.133356 0.354403 0.489008
O O17 0.000000 0.000000 0.500000
#
# Coordination Sequence:
#
# PCOD9095064 Si02
#       8
#     2   2   2   2   2   2   2   2
#     4  11  20  36  57  90 121 151 196 239 295 354
#     4  10  22  36  61  87 115 157 191 247 297 349
#     4  10  20  35  54  77 122 171 187 221 287 358
#     4  11  20  34  57  95 125 147 192 243 297 352
#     4  11  21  38  56  86 124 158 192 235 295 356
#     4  11  21  35  61  85 115 154 191 253 289 336
#     4  10  22  38  52  80 128 166 189 228 287 366
#     4  10  21  41  56  86 117 149 200 248 303 337
#
# _framework density 28.698128000000001
#
# number of rings (size 3 to 8) (size 9 to 14) (size 15 to 20)
#    0.000    1.500    2.500    4.875    0.000    0.000 
#    6.750    0.000    0.000    0.750    0.000    2.625 
#    0.000    0.000    0.000    0.000    0.000    0.000 
#
# Total GULP energy -89512.725203 kJ/mol
# GULP energy per Si atom -5594.545325 kJ/mol
# Density = 2.863281 g / cm^3
# Si number density = 28.698128 Si / 1000 Ang^3
#
#
#
# Elastic Constant Matrix: (Units=GPa)
#
#
# Indices 1 2 3 4 5 6 
#
# 1 216.4081 69.8461 28.9611 -5.3055 61.7088 33.0271
# 2 69.8461 165.2365 23.0620 -7.1252 8.9680 18.6005
# 3 28.9611 23.0620 102.7879 6.5934 14.3103 -5.2166
# 4 -5.3055 -7.1252 6.5934 34.1475 2.4728 -0.2782
# 5 61.7088 8.9680 14.3103 2.4728 68.8311 -17.5811
# 6 33.0271 18.6005 -5.2166 -0.2782 -17.5811 67.1948
#
#
#
# Elastic Compliance Matrix: (Units=1/GPa)
#
#
# Indices 1 2 3 4 5 6 
#
# 1 0.009310 -0.002447 -0.001196 0.001802 -0.009496 -0.006468
# 2 -0.002447 0.007308 -0.001244 0.001285 0.001309 -0.000569
# 3 -0.001196 -0.001244 0.010651 -0.002454 -0.000477 0.001624
# 4 0.001802 0.001285 -0.002454 0.030500 -0.002895 -0.002063
# 5 -0.009496 0.001309 -0.000477 -0.002895 0.025892 0.011031
# 6 -0.006468 -0.000569 0.001624 -0.002063 0.011031 0.021223
#
#
# Mechanical properties :
#
#
# Convention : Reuss Voigt Hill
#
# Bulk Modulus (GPa) = 57.15691 80.90788 69.03240
# Shear Modulus (GPa) = 41.49753 58.20556 49.85155
#
# Velocity S-wave (km/s) = 3.80676 4.50844 4.17238
# Velocity P-wave (km/s) = 6.26751 7.44012 6.87885
#
# Compressibility (1/GPa) = 0.01749570
#
# Stress axis : x y z
#
# Youngs Moduli (GPa) = 107.41213 136.82833 93.88739
#
# Poissons Ratio (x) = 0.33485 0.11228
# Poissons Ratio (y) = 0.26286 0.11678
# Poissons Ratio (z) = 0.12845 0.17019
#
# Static dielectric constant tensor:
#      x y z
#    x 2.223740 -0.013620 0.047190 
#    y -0.013620 2.248580 0.155330 
#    z 0.047190 0.155330 2.418270 
# 
# From -- ./inp_files/455563.got.cif
#   From: 2010.05.17/outbox.cif.g08.bks.cpg/sg2_228_cif.got.tgz:455563.got - 2010.06.03 11:33:40.
