data_PCOD9095414
_publ_section_title
;
Structure prediction by ZEFSAII (Michael W. Deem and Ramdas Pophale) SiO2 
 PCOD9095414
Probable space group: P -1
;
_chemical_formula_sum "Si O2"
_cell_formula_units_Z 16
_cell_length_a 10.051406
_cell_length_b 16.590980
_cell_length_c 9.799988
_cell_angle_alpha 122.936778
_cell_angle_beta 44.102225
_cell_angle_gamma 90.549809
_cell_volume 723.726913
_symmetry_space_group_name_H-M "P -1"
_symmetry_group_IT_number 2
_symmetry_cell_setting 'triclinic'
loop_
_space_group_symop_operation_xyz
x,y,z
-x,-y,-z
loop_
_atom_site_type_symbol
_atom_site_label
_atom_site_fract_x
_atom_site_fract_y
_atom_site_fract_z
Si Si1 0.761176 0.446512 0.193680
Si Si2 0.446367 0.127783 0.192791
Si Si3 0.289144 0.239313 0.936614
Si Si4 0.900695 0.380373 0.728408
Si Si5 0.779292 0.845151 0.353674
Si Si6 0.689835 0.087302 0.719865
Si Si7 0.606891 0.291906 0.834064
Si Si8 0.861506 0.517027 0.445160
O O1 0.500000 0.500000 0.500000
O O2 0.828846 0.514090 0.303137
O O3 0.760141 0.460321 0.044725
O O4 0.965428 0.296589 0.934591
O O5 0.430151 0.134328 0.373477
O O6 0.170108 0.250728 0.459843
O O7 0.644741 0.117061 0.940730
O O8 0.500000 0.000000 0.000000
O O9 0.298181 0.151917 0.740734
O O10 0.412327 0.169014 0.924834
O O11 0.470258 0.272466 0.801378
O O12 0.012368 0.375259 0.257272
O O13 0.962136 0.447270 0.644389
O O14 0.743090 0.345046 0.746836
O O15 0.811011 0.946298 0.461920
O O16 0.792593 0.151826 0.637885
O O17 0.394546 0.383518 0.190970
#
# Coordination Sequence:
#
# PCOD9095414 Si02
#       8
#     2   2   2   2   2   2   2   2
#     4  10  20  35  57  86 120 145 198 238 290 350
#     4   9  18  34  58  85 109 151 194 236 289 341
#     4   9  20  34  57  85 116 155 195 234 289 351
#     4  11  20  36  56  84 120 152 187 246 288 342
#     4   9  18  34  61  87 113 154 193 237 294 342
#     4   9  18  36  57  86 113 152 191 237 288 339
#     4  10  21  33  58  85 116 149 201 228 287 348
#     4  11  20  37  56  85 115 157 192 238 294 340
#
# _framework density 22.107786999999998
#
# number of rings (size 3 to 8) (size 9 to 14) (size 15 to 20)
#    0.750    1.500    2.500    1.125    0.000    0.500 
#    0.000    6.875    0.000    3.000    0.000    0.000 
#    0.000    0.000    0.000    0.000    0.000    0.000 
#
# Total GULP energy -89145.066834 kJ/mol
# GULP energy per Si atom -5571.566677 kJ/mol
# Density = 2.205747 g / cm^3
# Si number density = 22.107787 Si / 1000 Ang^3
#
#
#
# Elastic Constant Matrix: (Units=GPa)
#
#
# Indices 1 2 3 4 5 6 
#
# 1 53.3594 2.2407 25.6116 -0.8125 13.8406 6.4401
# 2 2.2407 69.4228 29.0691 6.8483 -0.2606 13.3242
# 3 25.6116 29.0691 64.5222 13.2935 21.7061 12.4478
# 4 -0.8125 6.8483 13.2935 25.3580 0.3728 -5.5276
# 5 13.8406 -0.2606 21.7061 0.3728 23.7212 -3.6830
# 6 6.4401 13.3242 12.4478 -5.5276 -3.6830 32.1941
#
#
#
# Elastic Compliance Matrix: (Units=1/GPa)
#
#
# Indices 1 2 3 4 5 6 
#
# 1 0.025357 0.003381 -0.010076 0.004736 -0.005992 -0.002448
# 2 0.003381 0.020512 -0.013969 0.001226 0.010654 -0.002335
# 3 -0.010076 -0.013969 0.049455 -0.026365 -0.042327 -0.020694
# 4 0.004736 0.001226 -0.026365 0.057373 0.023782 0.021310
# 5 -0.005992 0.010654 -0.042327 0.023782 0.088373 0.027348
# 6 -0.002448 -0.002335 -0.020694 0.021310 0.027348 0.047306
#
#
# Mechanical properties :
#
#
# Convention : Reuss Voigt Hill
#
# Bulk Modulus (GPa) = 18.52017 33.46080 25.99049
# Shear Modulus (GPa) = 14.38005 24.94688 19.66346
#
# Velocity S-wave (km/s) = 2.55316 3.36284 2.98558
# Velocity P-wave (km/s) = 4.13363 5.49968 4.86484
#
# Compressibility (1/GPa) = 0.05399517
#
# Stress axis : x y z
#
# Youngs Moduli (GPa) = 39.43667 48.75229 20.22029
#
# Poissons Ratio (x) = -0.16482 0.20374
# Poissons Ratio (y) = -0.13333 0.28247
# Poissons Ratio (z) = 0.39736 0.68104
#
# Static dielectric constant tensor:
#      x y z
#    x 1.893220 -0.013380 -0.004910 
#    y -0.013380 1.861690 -0.004730 
#    z -0.004910 -0.004730 1.837860 
# 
# From -- ./inp_files/436846.got.cif
#   From: 2010.05.17/outbox.cif.g08.bks.cpg/sg2_219_cif.got.tgz:436846.got - 2010.06.03 11:33:40.
