data_PCOD9095215
_publ_section_title
;
Structure prediction by ZEFSAII (Michael W. Deem and Ramdas Pophale) SiO2 
 PCOD9095215
Probable space group: P -1
;
_chemical_formula_sum "Si O2"
_cell_formula_units_Z 16
_cell_length_a 20.801186
_cell_length_b 10.029329
_cell_length_c 16.094847
_cell_angle_alpha 136.498615
_cell_angle_beta 18.802422
_cell_angle_gamma 134.424407
_cell_volume 743.625420
_symmetry_space_group_name_H-M "P -1"
_symmetry_group_IT_number 2
_symmetry_cell_setting 'triclinic'
loop_
_space_group_symop_operation_xyz
x,y,z
-x,-y,-z
loop_
_atom_site_type_symbol
_atom_site_label
_atom_site_fract_x
_atom_site_fract_y
_atom_site_fract_z
Si Si1 0.062845 0.286106 0.806278
Si Si2 0.145505 0.449665 0.224357
Si Si3 0.485015 0.286106 0.384108
Si Si4 0.266904 0.214778 0.358376
Si Si5 0.435562 0.550334 0.194576
Si Si6 0.310222 0.978425 0.575113
Si Si7 0.897532 0.978425 0.987803
Si Si8 0.697316 0.214779 0.927964
O O1 0.277560 0.262515 0.576138
O O2 0.102912 0.257490 0.647179
O O3 0.909219 0.126863 0.963851
O O4 0.000000 0.500000 0.000000
O O5 0.092695 0.240547 0.154809
O O6 0.160584 0.619983 0.214645
O O7 0.000000 0.500000 0.500000
O O8 0.364396 0.439624 0.991021
O O9 0.500000 0.500000 0.500000
O O10 0.471503 0.126862 0.401567
O O11 0.654396 0.257491 0.095695
O O12 0.291057 0.380016 0.333714
O O13 0.230585 1.000000 0.269415
O O14 0.483263 0.217177 0.142063
O O15 0.347156 0.759453 0.405339
O O16 0.500000 0.500000 0.000000
O O17 0.099052 0.028929 0.816361
O O18 0.282690 0.000000 0.717310
#
# Coordination Sequence:
#
# PCOD9095215 Si02
#       8
#     2   2   2   2   2   2   2   2
#     4  10  20  35  56  80 108 142 178 219 266 318
#     4  11  22  36  57  82 109 143 183 227 273 323
#     4  10  20  35  56  80 108 142 178 219 266 318
#     4   9  18  34  55  77 103 139 180 218 261 316
#     4  11  22  36  57  82 109 143 183 227 273 323
#     4  10  21  37  57  82 113 146 179 221 273 324
#     4  10  21  37  57  82 113 146 179 221 273 324
#     4   9  18  34  55  77 103 139 180 218 261 316
#
# _framework density 21.516209
#
# number of rings (size 3 to 8) (size 9 to 14) (size 15 to 20)
#    0.000    2.000    0.000    3.750    0.000    5.500 
#    0.000    1.250    0.000    5.250    0.000    0.000 
#    0.000    0.000    0.000    0.000    0.000    0.000 
#
# Total GULP energy -89446.324392 kJ/mol
# GULP energy per Si atom -5590.395275 kJ/mol
# Density = 2.146724 g / cm^3
# Si number density = 21.516209 Si / 1000 Ang^3
#
#
#
# Elastic Constant Matrix: (Units=GPa)
#
#
# Indices 1 2 3 4 5 6 
#
# 1 57.5501 37.3701 46.8440 -18.2778 31.8522 -4.2706
# 2 37.3701 215.7843 78.6035 -9.6690 72.1776 -25.1320
# 3 46.8440 78.6035 122.5585 -1.0766 67.0042 -21.9235
# 4 -18.2778 -9.6690 -1.0766 37.5362 -0.4180 11.7217
# 5 31.8522 72.1776 67.0042 -0.4180 71.1736 -3.1476
# 6 -4.2706 -25.1320 -21.9235 11.7217 -3.1476 32.8849
#
#
#
# Elastic Compliance Matrix: (Units=1/GPa)
#
#
# Indices 1 2 3 4 5 6 
#
# 1 0.036829 -0.000901 -0.014271 0.021417 -0.002596 -0.013303
# 2 -0.000901 0.007849 0.000645 -0.000249 -0.007916 0.005643
# 3 -0.014271 0.000645 0.026644 -0.012144 -0.018584 0.018953
# 4 0.021417 -0.000249 -0.012144 0.043153 0.001436 -0.020749
# 5 -0.002596 -0.007916 -0.018584 0.001436 0.040060 -0.015454
# 6 -0.013303 0.005643 0.018953 -0.020749 -0.015454 0.051546
#
#
# Mechanical properties :
#
#
# Convention : Reuss Voigt Hill
#
# Bulk Modulus (GPa) = 23.65853 80.16979 51.91416
# Shear Modulus (GPa) = 20.06228 43.85728 31.95978
#
# Velocity S-wave (km/s) = 3.05688 4.51969 3.85825
# Velocity P-wave (km/s) = 4.84550 8.03604 6.63539
#
# Compressibility (1/GPa) = 0.04226806
#
# Stress axis : x y z
#
# Youngs Moduli (GPa) = 27.15236 127.40267 37.53224
#
# Poissons Ratio (x) = 0.11479 0.53563
# Poissons Ratio (y) = 0.02446 -0.02422
# Poissons Ratio (z) = 0.38750 -0.08221
#
# Static dielectric constant tensor:
#      x y z
#    x 1.814880 -0.007060 -0.030190 
#    y -0.007060 1.738710 -0.022790 
#    z -0.030190 -0.022790 1.790860 
# 
# From -- ./inp_files/207119.got.cif
#   From: 2010.05.17/outbox.cif.g08.bks.cpg/sg2_104_cif.got.tgz:207119.got - 2010.06.03 11:33:40.
