data_PCOD9095928
_publ_section_title
;
Structure prediction by ZEFSAII (Michael W. Deem and Ramdas Pophale) SiO2 
 PCOD9095928
Probable space group: P -1
;
_chemical_formula_sum "Si O2"
_cell_formula_units_Z 14
_cell_length_a 8.397891
_cell_length_b 15.864199
_cell_length_c 12.290567
_cell_angle_alpha 62.722456
_cell_angle_beta 52.444829
_cell_angle_gamma 107.378526
_cell_volume 659.772090
_symmetry_space_group_name_H-M "P -1"
_symmetry_group_IT_number 2
_symmetry_cell_setting 'triclinic'
loop_
_space_group_symop_operation_xyz
x,y,z
-x,-y,-z
loop_
_atom_site_type_symbol
_atom_site_label
_atom_site_fract_x
_atom_site_fract_y
_atom_site_fract_z
Si Si1 0.643543 0.362820 0.887738
Si Si2 0.530644 0.292927 0.601447
Si Si3 0.709728 0.453102 0.206725
Si Si4 0.296101 0.331027 0.235195
Si Si5 0.178006 0.769800 0.187991
Si Si6 0.444913 0.905673 0.241843
Si Si7 0.406996 0.397567 0.762105
O O1 0.627683 0.248823 0.923832
O O2 0.496584 0.375112 0.848234
O O3 0.055362 0.546523 0.627771
O O4 0.424966 0.295345 0.127613
O O5 0.545107 0.334247 0.447509
O O6 0.407569 0.137283 0.754371
O O7 0.335914 0.290106 0.765168
O O8 0.427454 0.366113 0.282205
O O9 0.837191 0.606031 0.108143
O O10 0.000000 0.500000 0.000000
O O11 0.884087 0.191177 0.489771
O O12 0.500000 0.500000 0.000000
O O13 0.288839 0.826972 0.232768
O O14 0.767856 0.587167 0.460210
O O15 0.291183 0.905634 0.994396
#
# Coordination Sequence:
#
# PCOD9095928 Si02
#       7
#     2   2   2   2   2   2   2
#     4  11  19  36  61  85 113 144 185 238 274 328
#     4  11  20  35  57  87 114 142 186 232 281 327
#     4  12  22  34  55  89 114 146 183 234 280 330
#     4  12  20  36  59  85 113 145 189 233 276 328
#     4  10  20  35  61  84 113 142 192 232 273 328
#     4  11  20  36  60  86 109 148 189 230 277 333
#     4  11  20  38  58  88 111 147 185 235 276 327
#
# _framework density 21.219450999999999
#
# number of rings (size 3 to 8) (size 9 to 14) (size 15 to 20)
#    0.000    0.857    8.571    1.286    0.000    0.571 
#    0.000    0.714    0.000    0.857    0.000    0.000 
#    0.000    0.000    0.000    0.000    0.000    0.000 
#
# Total GULP energy -78302.183535 kJ/mol
# GULP energy per Si atom -5593.013110 kJ/mol
# Density = 2.117115 g / cm^3
# Si number density = 21.219451 Si / 1000 Ang^3
#
#
#
# Elastic Constant Matrix: (Units=GPa)
#
#
# Indices 1 2 3 4 5 6 
#
# 1 104.2378 30.8471 39.5987 0.5633 24.7826 -22.2106
# 2 30.8471 116.7391 53.5328 20.6810 0.3219 -51.9223
# 3 39.5987 53.5328 65.0716 8.2917 21.4450 -10.3421
# 4 0.5633 20.6810 8.2917 44.3117 -11.3091 0.2910
# 5 24.7826 0.3219 21.4450 -11.3091 42.5409 -0.5234
# 6 -22.2106 -51.9223 -10.3421 0.2910 -0.5234 38.0494
#
#
#
# Elastic Compliance Matrix: (Units=1/GPa)
#
#
# Indices 1 2 3 4 5 6 
#
# 1 0.020751 0.026149 -0.026495 -0.007913 -0.000534 0.040647
# 2 0.026149 0.111772 -0.088081 -0.031414 0.021749 0.144387
# 3 -0.026495 -0.088081 0.093139 0.017727 -0.027501 -0.110860
# 4 -0.007913 -0.031414 0.017727 0.035526 0.004828 -0.042874
# 5 -0.000534 0.021749 -0.027501 0.004828 0.039076 0.022392
# 6 0.040647 0.144387 -0.110860 -0.042874 0.022392 0.217543
#
#
# Mechanical properties :
#
#
# Convention : Reuss Voigt Hill
#
# Bulk Modulus (GPa) = 20.48927 59.33397 39.91162
# Shear Modulus (GPa) = 7.03303 35.78507 21.40905
#
# Velocity S-wave (km/s) = 1.82253 4.11107 3.17982
# Velocity P-wave (km/s) = 3.75575 7.11036 5.68608
#
# Compressibility (1/GPa) = 0.04880603
#
# Stress axis : x y z
#
# Youngs Moduli (GPa) = 48.19008 8.94675 10.73669
#
# Poissons Ratio (x) = -0.23395 0.28447
# Poissons Ratio (y) = -1.26011 0.94570
# Poissons Ratio (z) = 1.27681 0.78804
#
# Static dielectric constant tensor:
#      x y z
#    x 1.801990 -0.015930 -0.023910 
#    y -0.015930 1.814500 0.021250 
#    z -0.023910 0.021250 1.739430 
# 
# From -- ./inp_files/159122.got.cif
#   From: 2010.05.17/outbox.cif.g08.bks.cpg/sg2_80_cif.got.tgz:159122.got - 2010.06.03 11:33:40.
