data_PCOD9095293
_publ_section_title
;
Structure prediction by ZEFSAII (Michael W. Deem and Ramdas Pophale) SiO2 
 PCOD9095293
Probable space group: P -1
;
_chemical_formula_sum "Si O2"
_cell_formula_units_Z 16
_cell_length_a 13.431886
_cell_length_b 17.634300
_cell_length_c 5.303322
_cell_angle_alpha 66.722131
_cell_angle_beta 59.904185
_cell_angle_gamma 46.571370
_cell_volume 786.725210
_symmetry_space_group_name_H-M "P -1"
_symmetry_group_IT_number 2
_symmetry_cell_setting 'triclinic'
loop_
_space_group_symop_operation_xyz
x,y,z
-x,-y,-z
loop_
_atom_site_type_symbol
_atom_site_label
_atom_site_fract_x
_atom_site_fract_y
_atom_site_fract_z
Si Si1 0.662081 0.694215 0.856615
Si Si2 0.872275 0.457574 0.115015
Si Si3 0.325533 0.855971 0.130910
Si Si4 0.753153 0.006673 0.446490
Si Si5 0.208603 0.188957 0.320243
Si Si6 0.129450 0.436880 0.620868
Si Si7 0.019302 0.247195 0.984347
Si Si8 0.954059 0.111144 0.501154
O O1 0.705168 0.763731 0.824712
O O2 0.723752 0.668081 0.527283
O O3 0.756888 0.574957 0.998280
O O4 0.492254 0.755911 0.021263
O O5 0.841252 0.484712 0.413567
O O6 0.884365 0.366163 0.079759
O O7 0.041566 0.415148 0.946676
O O8 0.305462 0.916049 0.339072
O O9 0.214559 0.827620 0.299014
O O10 0.282722 0.932347 0.847783
O O11 0.698885 0.936176 0.597654
O O12 0.928721 0.922491 0.383505
O O13 0.136867 0.209817 0.108836
O O14 0.089466 0.238978 0.636636
O O15 0.000000 0.500000 0.500000
O O16 0.974979 0.171748 0.183345
O O17 0.000000 0.000000 0.500000
#
# Coordination Sequence:
#
# PCOD9095293 Si02
#       8
#     2   2   2   2   2   2   2   2
#     4  11  24  35  58  87 131 158 194 238 303 370
#     4  10  20  35  56  86 119 159 201 239 292 347
#     4  11  24  40  62  88 121 164 193 245 308 352
#     4  10  22  41  63  87 118 154 206 253 289 355
#     4  11  22  37  60  93 119 153 198 249 303 347
#     4   9  17  33  55  79 114 156 196 239 275 348
#     4  11  22  36  64  91 116 153 204 254 289 340
#     4   9  20  42  66  88 113 152 209 253 290 347
#
# _framework density 20.337468000000001
#
# number of rings (size 3 to 8) (size 9 to 14) (size 15 to 20)
#    0.000    1.750    1.250    4.875    3.500    4.000 
#    0.000    0.625    0.000    0.750    0.000    0.000 
#    0.000    0.000    0.000    0.000    0.000    0.000 
#
# Total GULP energy -89088.243486 kJ/mol
# GULP energy per Si atom -5568.015218 kJ/mol
# Density = 2.029118 g / cm^3
# Si number density = 20.337468 Si / 1000 Ang^3
#
#
#
# Elastic Constant Matrix: (Units=GPa)
#
#
# Indices 1 2 3 4 5 6 
#
# 1 47.2254 32.1526 24.8982 14.0550 -6.0967 -4.5370
# 2 32.1526 76.3938 20.9302 14.0214 -18.6729 -2.5216
# 3 24.8982 20.9302 51.7077 13.0786 1.2629 -11.0711
# 4 14.0550 14.0214 13.0786 38.2320 0.0692 -4.9160
# 5 -6.0967 -18.6729 1.2629 0.0692 34.4800 10.5707
# 6 -4.5370 -2.5216 -11.0711 -4.9160 10.5707 33.7153
#
#
#
# Elastic Compliance Matrix: (Units=1/GPa)
#
#
# Indices 1 2 3 4 5 6 
#
# 1 0.036631 -0.010753 -0.012171 -0.005508 0.001457 -0.001131
# 2 -0.010753 0.022193 -0.004411 -0.003404 0.011967 -0.005484
# 3 -0.012171 -0.004411 0.030124 -0.002878 -0.008783 0.010258
# 4 -0.005508 -0.003404 -0.002878 0.030910 -0.003939 0.003801
# 5 0.001457 0.011967 -0.008783 -0.003939 0.040709 -0.015131
# 6 -0.001131 -0.005484 0.010258 0.003801 -0.015131 0.037765
#
#
# Mechanical properties :
#
#
# Convention : Reuss Voigt Hill
#
# Bulk Modulus (GPa) = 29.17232 36.80988 32.99110
# Shear Modulus (GPa) = 18.90868 27.77521 23.34195
#
# Velocity S-wave (km/s) = 3.05248 3.69957 3.39149
# Velocity P-wave (km/s) = 5.17675 6.03224 5.62080
#
# Compressibility (1/GPa) = 0.03427907
#
# Stress axis : x y z
#
# Youngs Moduli (GPa) = 27.29896 45.05870 33.19573
#
# Poissons Ratio (x) = 0.48452 0.40402
# Poissons Ratio (y) = 0.29355 0.14643
# Poissons Ratio (z) = 0.33225 0.19875
#
# Static dielectric constant tensor:
#      x y z
#    x 1.805550 0.059960 0.089260 
#    y 0.059960 1.798500 -0.006640 
#    z 0.089260 -0.006640 1.926740 
# 
# From -- ./inp_files/80311.got.cif
#   From: 2010.05.17/outbox.cif.g08.bks.cpg/sg2_41_cif.got.tgz:80311.got - 2010.06.03 11:33:40.
