data_PCOD9095681
_publ_section_title
;
Structure prediction by ZEFSAII (Michael W. Deem and Ramdas Pophale) SiO2 
 PCOD9095681
Probable space group: P -1
;
_chemical_formula_sum "Si O2"
_cell_formula_units_Z 14
_cell_length_a 12.450960
_cell_length_b 6.869328
_cell_length_c 13.521329
_cell_angle_alpha 138.445963
_cell_angle_beta 45.793822
_cell_angle_gamma 131.952188
_cell_volume 523.057887
_symmetry_space_group_name_H-M "P -1"
_symmetry_group_IT_number 2
_symmetry_cell_setting 'triclinic'
loop_
_space_group_symop_operation_xyz
x,y,z
-x,-y,-z
loop_
_atom_site_type_symbol
_atom_site_label
_atom_site_fract_x
_atom_site_fract_y
_atom_site_fract_z
Si Si1 0.758207 0.048973 0.632244
Si Si2 0.503852 0.499802 0.674586
Si Si3 0.836247 0.352680 0.903593
Si Si4 0.238117 0.040969 0.745495
Si Si5 0.412627 0.993921 0.805500
Si Si6 0.009221 0.921094 0.683381
Si Si7 0.338478 0.278594 0.149488
O O1 0.674862 0.696458 0.594967
O O2 0.885670 0.066914 0.474853
O O3 0.835199 0.276119 0.759034
O O4 0.602884 0.127016 0.721699
O O5 0.383070 0.157007 0.618047
O O6 0.529668 0.527196 0.787039
O O7 0.400892 0.681374 0.752721
O O8 0.684893 0.070430 0.926608
O O9 0.975432 0.253963 0.830416
O O10 0.818166 0.676195 0.067926
O O11 0.305505 0.912319 0.747069
O O12 0.093576 0.853924 0.701034
O O13 0.363408 0.227116 0.998664
O O14 0.832473 0.689003 0.705809
#
# Coordination Sequence:
#
# PCOD9095681 Si02
#       7
#     2   2   2   2   2   2   2
#     4   9  19  38  62  81 115 158 192 229 297 337
#     4   9  19  37  57  86 113 150 193 240 277 343
#     4   9  18  35  60  83 110 149 196 235 275 340
#     4  12  22  34  62  92 116 146 198 239 287 338
#     4  10  20  35  59  87 115 155 187 240 286 346
#     4  10  21  36  61  86 117 156 186 240 292 347
#     4   9  18  37  60  79 117 151 194 232 285 334
#
# _framework density 26.765682000000002
#
# number of rings (size 3 to 8) (size 9 to 14) (size 15 to 20)
#    1.714    0.571    1.429    2.143    0.000    4.000 
#    0.000    0.000    3.143    1.714    0.000    0.000 
#    0.000    0.000    0.000    0.000    0.000    0.000 
#
# Total GULP energy -78145.632788 kJ/mol
# GULP energy per Si atom -5581.830913 kJ/mol
# Density = 2.670476 g / cm^3
# Si number density = 26.765682 Si / 1000 Ang^3
#
#
#
# Elastic Constant Matrix: (Units=GPa)
#
#
# Indices 1 2 3 4 5 6 
#
# 1 202.3520 33.3186 47.1637 -13.9494 12.1236 -4.7916
# 2 33.3186 24.5942 21.1205 -6.8202 3.6133 -4.1952
# 3 47.1637 21.1205 125.2747 -12.9413 -4.3228 7.8313
# 4 -13.9494 -6.8202 -12.9413 32.7690 -0.7632 -5.8647
# 5 12.1236 3.6133 -4.3228 -0.7632 40.9378 -0.7225
# 6 -4.7916 -4.1952 7.8313 -5.8647 -0.7225 31.5974
#
#
#
# Elastic Compliance Matrix: (Units=1/GPa)
#
#
# Indices 1 2 3 4 5 6 
#
# 1 0.006593 -0.007358 -0.001232 0.000837 -0.001410 0.000451
# 2 -0.007358 0.061813 -0.007552 0.008536 -0.003730 0.010462
# 3 -0.001232 -0.007552 0.010143 0.001348 0.002068 -0.003406
# 4 0.000837 0.008536 0.001348 0.034491 -0.000087 0.007326
# 5 -0.001410 -0.003730 0.002068 -0.000087 0.025379 -0.000657
# 6 0.000451 0.010462 -0.003406 0.007326 -0.000657 0.035294
#
#
# Mechanical properties :
#
#
# Convention : Reuss Voigt Hill
#
# Bulk Modulus (GPa) = 21.61453 61.71403 41.66428
# Shear Modulus (GPa) = 22.58143 37.76875 30.17509
#
# Velocity S-wave (km/s) = 2.90775 3.76052 3.36129
# Velocity P-wave (km/s) = 4.40072 6.47785 5.53755
#
# Compressibility (1/GPa) = 0.04626517
#
# Stress axis : x y z
#
# Youngs Moduli (GPa) = 151.66516 16.17773 98.58897
#
# Poissons Ratio (x) = 0.11904 0.12148
# Poissons Ratio (y) = 1.11596 0.74455
# Poissons Ratio (z) = 0.18689 0.12218
#
# Static dielectric constant tensor:
#      x y z
#    x 2.047690 -0.112220 -0.037820 
#    y -0.112220 2.233280 0.037770 
#    z -0.037820 0.037770 2.131350 
# 
# From -- ./inp_files/418027.got.cif
#   From: 2010.05.17/outbox.cif.g08.bks.cpg/sg2_210_cif.got.tgz:418027.got - 2010.06.03 11:33:40.
