data_PCOD9095156
_publ_section_title
;
Structure prediction by ZEFSAII (Michael W. Deem and Ramdas Pophale) SiO2 
 PCOD9095156
Probable space group: P -1
;
_chemical_formula_sum "Si O2"
_cell_formula_units_Z 14
_cell_length_a 12.446091
_cell_length_b 13.888371
_cell_length_c 14.198067
_cell_angle_alpha 139.510113
_cell_angle_beta 152.693462
_cell_angle_gamma 46.091395
_cell_volume 729.749373
_symmetry_space_group_name_H-M "P -1"
_symmetry_group_IT_number 2
_symmetry_cell_setting 'triclinic'
loop_
_space_group_symop_operation_xyz
x,y,z
-x,-y,-z
loop_
_atom_site_type_symbol
_atom_site_label
_atom_site_fract_x
_atom_site_fract_y
_atom_site_fract_z
Si Si1 0.770986 0.715968 0.621857
Si Si2 0.110174 0.072407 0.731901
Si Si3 0.438696 0.876360 0.976616
Si Si4 0.365700 0.921794 0.558648
Si Si5 0.742529 0.379605 0.044164
Si Si6 0.637025 0.866483 0.453058
Si Si7 0.382603 0.572441 0.810146
O O1 0.819161 0.799058 0.621717
O O2 0.700159 0.551847 0.417621
O O3 0.012074 0.699016 0.853819
O O4 0.557514 0.808466 0.575041
O O5 0.879690 0.147632 0.658288
O O6 0.327239 0.163493 0.932997
O O7 0.236271 0.947222 0.804302
O O8 0.000000 0.000000 0.500000
O O9 0.511964 0.003439 0.201377
O O10 0.293055 0.059231 0.533949
O O11 0.630651 0.266738 0.126539
O O12 0.757563 0.430252 0.202100
O O13 0.542870 0.261034 0.798895
O O14 0.645560 0.515909 0.006046
O O15 0.500000 0.000000 0.500000
#
# Coordination Sequence:
#
# PCOD9095156 Si02
#       7
#     2   2   2   2   2   2   2
#     4  10  22  34  53  83 119 153 183 222 276 332
#     4   9  21  38  60  85 107 134 191 243 278 332
#     4  10  20  38  62  82 105 147 187 232 287 320
#     4  10  20  35  55  83 113 145 185 233 278 324
#     4  10  20  36  53  79 121 152 189 222 264 338
#     4   9  19  32  50  83 116 146 186 219 269 329
#     4  10  21  36  55  82 112 151 192 223 271 332
#
# _framework density 19.184670000000001
#
# number of rings (size 3 to 8) (size 9 to 14) (size 15 to 20)
#    0.000    2.286    1.429    0.429    2.000    8.000 
#    0.000    0.714    0.000    8.571    0.000    0.000 
#    0.000    0.000    0.000    0.000    0.000    0.000 
#
# Total GULP energy -78018.277768 kJ/mol
# GULP energy per Si atom -5572.734126 kJ/mol
# Density = 1.914101 g / cm^3
# Si number density = 19.184670 Si / 1000 Ang^3
#
#
#
# Elastic Constant Matrix: (Units=GPa)
#
#
# Indices 1 2 3 4 5 6 
#
# 1 63.1681 17.1898 19.8455 -12.2646 2.0278 -6.1403
# 2 17.1898 60.7713 20.6883 -7.1172 0.6182 -4.9735
# 3 19.8455 20.6883 38.0292 -12.0876 -6.8360 -0.8864
# 4 -12.2646 -7.1172 -12.0876 38.0840 -3.9882 1.5991
# 5 2.0278 0.6182 -6.8360 -3.9882 21.4265 -10.1225
# 6 -6.1403 -4.9735 -0.8864 1.5991 -10.1225 29.0535
#
#
#
# Elastic Compliance Matrix: (Units=1/GPa)
#
#
# Indices 1 2 3 4 5 6 
#
# 1 0.020085 -0.002079 -0.008942 0.002823 -0.003032 0.002404
# 2 -0.002079 0.020896 -0.011044 -0.000682 -0.003251 0.001706
# 3 -0.008942 -0.011044 0.043874 0.010806 0.018841 0.003528
# 4 0.002823 -0.000682 0.010806 0.031437 0.010315 0.002673
# 5 -0.003032 -0.003251 0.018841 0.010315 0.065143 0.021506
# 6 0.002404 0.001706 0.003528 0.002673 0.021506 0.042673
#
#
# Mechanical properties :
#
#
# Convention : Reuss Voigt Hill
#
# Bulk Modulus (GPa) = 24.55519 30.82397 27.68958
# Shear Modulus (GPa) = 17.74233 24.66248 21.20240
#
# Velocity S-wave (km/s) = 3.04438 3.58932 3.32802
# Velocity P-wave (km/s) = 5.01845 5.76884 5.40668
#
# Compressibility (1/GPa) = 0.04072460
#
# Stress axis : x y z
#
# Youngs Moduli (GPa) = 49.78843 47.85686 22.79264
#
# Poissons Ratio (x) = 0.09949 0.20382
# Poissons Ratio (y) = 0.10350 0.25172
# Poissons Ratio (z) = 0.44522 0.52853
#
# Static dielectric constant tensor:
#      x y z
#    x 1.718090 -0.015170 -0.017560 
#    y -0.015170 1.677890 -0.010580 
#    z -0.017560 -0.010580 1.751280 
# 
# From -- ./inp_files/576194.got.cif
#   From: 2010.05.17/outbox.cif.g08.bks.cpg/sg2_289_cif.got.tgz:576194.got - 2010.06.03 11:33:40.
