data_PCOD9095431
_publ_section_title
;
Structure prediction by ZEFSAII (Michael W. Deem and Ramdas Pophale) SiO2 
 PCOD9095431
Probable space group: P -1
;
_chemical_formula_sum "Si O2"
_cell_formula_units_Z 14
_cell_length_a 11.662461
_cell_length_b 22.005757
_cell_length_c 19.252998
_cell_angle_alpha 162.005174
_cell_angle_beta 150.521345
_cell_angle_gamma 29.452617
_cell_volume 720.778643
_symmetry_space_group_name_H-M "P -1"
_symmetry_group_IT_number 2
_symmetry_cell_setting 'triclinic'
loop_
_space_group_symop_operation_xyz
x,y,z
-x,-y,-z
loop_
_atom_site_type_symbol
_atom_site_label
_atom_site_fract_x
_atom_site_fract_y
_atom_site_fract_z
Si Si1 0.873854 0.846645 0.997977
Si Si2 0.566141 0.093274 0.472495
Si Si3 0.656272 0.729808 0.034177
Si Si4 0.395541 0.031744 0.866270
Si Si5 0.737749 0.568798 0.221568
Si Si6 0.773927 0.898524 0.507801
Si Si7 0.780651 0.279207 0.661478
O O1 0.750626 0.881871 0.047415
O O2 0.661538 0.900632 0.888519
O O3 0.037922 0.002490 0.248735
O O4 0.056167 0.620766 0.846541
O O5 0.352593 0.252029 0.574398
O O6 0.684659 0.222301 0.622915
O O7 0.497045 0.918480 0.201197
O O8 0.754890 0.965387 0.490435
O O9 0.935331 0.736870 0.199382
O O10 0.594398 0.786196 0.982880
O O11 0.648365 0.508988 0.815936
O O12 0.272196 0.883152 0.597050
O O13 0.827304 0.663667 0.303179
O O14 0.500000 0.500000 0.000000
O O15 0.500000 0.000000 0.500000
#
# Coordination Sequence:
#
# PCOD9095431 Si02
#       7
#     2   2   2   2   2   2   2
#     4  11  22  40  61  86 127 157 190 247 299 352
#     4  10  20  35  57  88 118 145 195 248 292 341
#     4  10  21  36  61  85 117 158 202 246 287 345
#     4  10  23  40  59  89 123 158 195 241 299 354
#     4  11  23  35  60  91 118 153 195 245 295 353
#     4  10  20  35  58  89 118 150 195 241 292 346
#     4  10  21  37  61  85 116 158 204 244 285 350
#
# _framework density 19.423438999999998
#
# number of rings (size 3 to 8) (size 9 to 14) (size 15 to 20)
#    0.000    1.714    2.857    3.429    2.000    3.429 
#    0.000    5.714    0.000   15.429    0.000    0.000 
#    0.000    0.000    0.000    0.000    0.000    0.000 
#
# Total GULP energy -78151.863263 kJ/mol
# GULP energy per Si atom -5582.275947 kJ/mol
# Density = 1.937923 g / cm^3
# Si number density = 19.423439 Si / 1000 Ang^3
#
#
#
# Elastic Constant Matrix: (Units=GPa)
#
#
# Indices 1 2 3 4 5 6 
#
# 1 86.4156 51.6354 33.2792 10.7874 3.7321 21.7863
# 2 51.6354 118.9590 30.8395 16.0614 8.2884 15.5743
# 3 33.2792 30.8395 46.3214 21.1862 9.9025 17.1330
# 4 10.7874 16.0614 21.1862 37.1754 6.7795 4.6161
# 5 3.7321 8.2884 9.9025 6.7795 25.8984 10.5723
# 6 21.7863 15.5743 17.1330 4.6161 10.5723 36.8889
#
#
#
# Elastic Compliance Matrix: (Units=1/GPa)
#
#
# Indices 1 2 3 4 5 6 
#
# 1 0.020185 -0.005914 -0.010443 0.002540 0.004880 -0.006291
# 2 -0.005914 0.011975 -0.002777 -0.001623 -0.001659 0.000405
# 3 -0.010443 -0.002777 0.044132 -0.018719 -0.005850 -0.009138
# 4 0.002540 -0.001623 -0.018719 0.037783 -0.004378 0.004406
# 5 0.004880 -0.001659 -0.005850 -0.004378 0.046864 -0.012348
# 6 -0.006291 0.000405 -0.009138 0.004406 -0.012348 0.037884
#
#
# Mechanical properties :
#
#
# Convention : Reuss Voigt Hill
#
# Bulk Modulus (GPa) = 26.29865 53.68934 39.99400
# Shear Modulus (GPa) = 20.01886 29.05535 24.53711
#
# Velocity S-wave (km/s) = 3.21386 3.87187 3.55811
# Velocity P-wave (km/s) = 5.22886 6.90580 6.12499
#
# Compressibility (1/GPa) = 0.03802476
#
# Stress axis : x y z
#
# Youngs Moduli (GPa) = 49.54080 83.50951 22.65944
#
# Poissons Ratio (x) = 0.49385 0.23664
# Poissons Ratio (y) = 0.29297 0.06292
# Poissons Ratio (z) = 0.51736 0.23187
#
# Static dielectric constant tensor:
#      x y z
#    x 1.723270 0.017580 -0.007970 
#    y 0.017580 1.688660 0.025080 
#    z -0.007970 0.025080 1.681580 
# 
# From -- ./inp_files/402267.got.cif
#   From: 2010.05.17/outbox.cif.g08.bks.cpg/sg2_202_cif.got.tgz:402267.got - 2010.06.03 11:33:40.
