data_PCOD9095592
_publ_section_title
;
Structure prediction by ZEFSAII (Michael W. Deem and Ramdas Pophale) SiO2 
 PCOD9095592
Probable space group: P -1
;
_chemical_formula_sum "Si O2"
_cell_formula_units_Z 16
_cell_length_a 16.426386
_cell_length_b 9.112194
_cell_length_c 13.036936
_cell_angle_alpha 48.829761
_cell_angle_beta 144.720761
_cell_angle_gamma 113.974080
_cell_volume 808.910749
_symmetry_space_group_name_H-M "P -1"
_symmetry_group_IT_number 2
_symmetry_cell_setting 'triclinic'
loop_
_space_group_symop_operation_xyz
x,y,z
-x,-y,-z
loop_
_atom_site_type_symbol
_atom_site_label
_atom_site_fract_x
_atom_site_fract_y
_atom_site_fract_z
Si Si1 0.980193 0.215715 0.322791
Si Si2 0.853462 0.747134 0.169504
Si Si3 0.156568 0.431084 0.550306
Si Si4 0.435164 0.598358 0.779178
Si Si5 0.685291 0.958454 0.598513
Si Si6 0.009289 0.271071 0.094225
Si Si7 0.315985 0.421423 0.101117
Si Si8 0.855273 0.100063 0.874685
O O1 0.093965 0.327113 0.439704
O O2 0.002190 0.177047 0.242073
O O3 0.000000 0.000000 0.500000
O O4 0.816961 0.381972 0.090585
O O5 0.806496 0.731061 0.244202
O O6 0.017953 0.607038 0.374267
O O7 0.751781 0.670062 0.022283
O O8 0.852596 0.968187 0.032947
O O9 0.287811 0.534347 0.629328
O O10 0.548126 0.523173 0.835526
O O11 0.411028 0.843910 0.652795
O O12 0.500000 0.500000 0.000000
O O13 0.836411 0.854975 0.740735
O O14 0.639078 0.765367 0.683796
O O15 0.722935 0.079380 0.679877
O O16 0.000000 0.500000 0.000000
O O17 0.883016 0.292747 0.867038
O O18 0.000000 0.000000 0.000000
#
# Coordination Sequence:
#
# PCOD9095592 Si02
#       8
#     2   2   2   2   2   2   2   2
#     4  11  24  39  65  91 128 166 203 254 315 373
#     4   9  17  34  59  86 119 148 210 260 298 355
#     4  10  20  35  58  90 121 160 203 257 309 355
#     4  12  24  38  64  92 125 162 209 263 306 364
#     4  10  22  39  64  88 124 166 207 256 310 362
#     4  11  21  36  62  95 126 153 207 258 314 368
#     4  10  21  41  60  94 123 162 207 255 309 369
#     4   9  18  32  58  89 117 154 199 256 306 357
#
# _framework density 19.779684
#
# number of rings (size 3 to 8) (size 9 to 14) (size 15 to 20)
#    0.000    1.750    2.500    2.625    5.250    0.000 
#    0.000    0.625    0.000    1.500    0.000    0.000 
#    0.000    0.000    0.000    0.000    0.000    0.000 
#
# Total GULP energy -89097.803358 kJ/mol
# GULP energy per Si atom -5568.612710 kJ/mol
# Density = 1.973466 g / cm^3
# Si number density = 19.779684 Si / 1000 Ang^3
#
#
#
# Elastic Constant Matrix: (Units=GPa)
#
#
# Indices 1 2 3 4 5 6 
#
# 1 121.5909 36.0882 38.2689 1.7721 -8.0487 14.7040
# 2 36.0882 91.7464 23.7845 -1.9027 -0.9484 -0.5111
# 3 38.2689 23.7845 78.5979 -20.6859 -11.3462 10.7967
# 4 1.7721 -1.9027 -20.6859 30.1096 10.6583 -4.6409
# 5 -8.0487 -0.9484 -11.3462 10.6583 36.7669 1.3279
# 6 14.7040 -0.5111 10.7967 -4.6409 1.3279 34.9261
#
#
#
# Elastic Compliance Matrix: (Units=1/GPa)
#
#
# Indices 1 2 3 4 5 6 
#
# 1 0.011677 -0.003337 -0.005321 -0.006191 0.002776 -0.004248
# 2 -0.003337 0.012951 -0.002856 -0.000083 -0.001345 0.002517
# 3 -0.005321 -0.002856 0.020144 0.013173 0.001243 -0.002326
# 4 -0.006191 -0.000083 0.013173 0.047405 -0.011224 0.005259
# 5 0.002776 -0.001345 0.001243 -0.011224 0.031563 -0.004264
# 6 -0.004248 0.002517 -0.002326 0.005259 -0.004264 0.032037
#
#
# Mechanical properties :
#
#
# Convention : Reuss Voigt Hill
#
# Bulk Modulus (GPa) = 45.98965 54.24648 50.11807
# Shear Modulus (GPa) = 26.87396 33.28009 30.07702
#
# Velocity S-wave (km/s) = 3.69001 4.10633 3.90372
# Velocity P-wave (km/s) = 6.43866 7.06877 6.76106
#
# Compressibility (1/GPa) = 0.02174402
#
# Stress axis : x y z
#
# Youngs Moduli (GPa) = 85.63702 77.21344 49.64280
#
# Poissons Ratio (x) = 0.25768 0.26414
# Poissons Ratio (y) = 0.28579 0.14179
# Poissons Ratio (z) = 0.45565 0.22053
#
# Static dielectric constant tensor:
#      x y z
#    x 1.721500 0.079600 0.045670 
#    y 0.079600 1.718270 -0.033510 
#    z 0.045670 -0.033510 1.660020 
# 
# From -- ./inp_files/446845.got.cif
#   From: 2010.05.17/outbox.cif.g08.bks.cpg/sg2_224_cif.got.tgz:446845.got - 2010.06.03 11:33:40.
