data_PCOD9095195
_publ_section_title
;
Structure prediction by ZEFSAII (Michael W. Deem and Ramdas Pophale) SiO2 
 PCOD9095195
Probable space group: P -1
;
_chemical_formula_sum "Si O2"
_cell_formula_units_Z 12
_cell_length_a 9.256993
_cell_length_b 6.737273
_cell_length_c 11.276445
_cell_angle_alpha 109.456122
_cell_angle_beta 95.640370
_cell_angle_gamma 132.171155
_cell_volume 436.219543
_symmetry_space_group_name_H-M "P -1"
_symmetry_group_IT_number 2
_symmetry_cell_setting 'triclinic'
loop_
_space_group_symop_operation_xyz
x,y,z
-x,-y,-z
loop_
_atom_site_type_symbol
_atom_site_label
_atom_site_fract_x
_atom_site_fract_y
_atom_site_fract_z
Si Si1 0.393075 0.393042 0.161271
Si Si2 0.986120 0.261984 0.346976
Si Si3 0.192622 0.321953 0.899845
Si Si4 0.275578 0.205816 0.554141
Si Si5 0.357919 0.784744 0.633044
Si Si6 0.801924 0.107981 0.763487
O O1 0.592059 0.499367 0.124503
O O2 0.511963 0.650081 0.328748
O O3 0.257132 0.065332 0.150638
O O4 0.260823 0.382270 0.053023
O O5 0.792193 0.220279 0.303570
O O6 0.216965 0.625901 0.466149
O O7 0.966686 0.055071 0.210981
O O8 0.916274 0.070282 0.426943
O O9 0.065968 0.390412 0.855327
O O10 0.329261 0.510736 0.616585
O O11 0.243226 0.082498 0.396228
O O12 0.620007 0.089645 0.725627
#
# Coordination Sequence:
#
# PCOD9095195 Si02
#       6
#     2   2   2   2   2   2
#     4   9  20  35  56  85 116 147 193 232 283 344
#     4  10  21  35  59  86 118 148 190 235 292 336
#     4  10  20  36  59  83 114 157 186 233 289 339
#     4  10  20  36  61  84 113 148 191 236 282 335
#     4  10  20  35  55  90 115 145 192 241 279 338
#     4  11  21  34  60  85 113 149 196 235 281 337
#
# _framework density 27.509084000000001
#
# number of rings (size 3 to 8) (size 9 to 14) (size 15 to 20)
#    0.000    2.000    1.667    3.000    4.667    0.667 
#    0.000    3.333    0.000    9.000    0.000    0.000 
#    0.000    0.000    0.000    0.000    0.000    0.000 
#
# Total GULP energy -67037.114941 kJ/mol
# GULP energy per Si atom -5586.426245 kJ/mol
# Density = 2.744647 g / cm^3
# Si number density = 27.509084 Si / 1000 Ang^3
#
#
#
# Elastic Constant Matrix: (Units=GPa)
#
#
# Indices 1 2 3 4 5 6 
#
# 1 212.9782 22.5071 58.7858 9.9367 38.6743 20.7014
# 2 22.5071 65.6616 34.6578 -18.8639 -1.7031 6.1313
# 3 58.7858 34.6578 161.2461 -7.2497 24.7591 4.5438
# 4 9.9367 -18.8639 -7.2497 40.8305 0.6200 9.1158
# 5 38.6743 -1.7031 24.7591 0.6200 45.7628 14.3603
# 6 20.7014 6.1313 4.5438 9.1158 14.3603 32.9309
#
#
#
# Elastic Compliance Matrix: (Units=1/GPa)
#
#
# Indices 1 2 3 4 5 6 
#
# 1 0.006273 -0.002317 -0.001196 -0.002592 -0.004495 -0.000669
# 2 -0.002317 0.022982 -0.004504 0.012284 0.007927 -0.009057
# 3 -0.001196 -0.004504 0.008167 -0.000857 -0.004383 0.002612
# 4 -0.002592 0.012284 -0.000857 0.033374 0.006635 -0.012671
# 5 -0.004495 0.007927 -0.004383 0.006635 0.032659 -0.014124
# 6 -0.000669 -0.009057 0.002612 -0.012671 -0.014124 0.041780
#
#
# Mechanical properties :
#
#
# Convention : Reuss Voigt Hill
#
# Bulk Modulus (GPa) = 46.76121 74.64303 60.70212
# Shear Modulus (GPa) = 29.69156 45.50053 37.59604
#
# Velocity S-wave (km/s) = 3.28889 4.07137 3.70087
# Velocity P-wave (km/s) = 5.60872 7.02099 6.35421
#
# Compressibility (1/GPa) = 0.02138525
#
# Stress axis : x y z
#
# Youngs Moduli (GPa) = 159.42395 43.51271 122.44564
#
# Poissons Ratio (x) = 0.10084 0.14647
# Poissons Ratio (y) = 0.36946 0.55154
# Poissons Ratio (z) = 0.19070 0.19600
#
# Static dielectric constant tensor:
#      x y z
#    x 2.276180 0.068780 0.084860 
#    y 0.068780 2.241730 0.073550 
#    z 0.084860 0.073550 2.117890 
# 
# From -- ./inp_files/376908.got.cif
#   From: 2010.05.17/outbox.cif.g08.bks.cpg/sg2_189_cif.got.tgz:376908.got - 2010.06.03 11:33:40.
