data_PCOD9095415
_publ_section_title
;
Structure prediction by ZEFSAII (Michael W. Deem and Ramdas Pophale) SiO2 
 PCOD9095415
Probable space group: P -1
;
_chemical_formula_sum "Si O2"
_cell_formula_units_Z 14
_cell_length_a 6.992184
_cell_length_b 15.191355
_cell_length_c 12.537004
_cell_angle_alpha 151.231179
_cell_angle_beta 82.920745
_cell_angle_gamma 102.273495
_cell_volume 620.600214
_symmetry_space_group_name_H-M "P -1"
_symmetry_group_IT_number 2
_symmetry_cell_setting 'triclinic'
loop_
_space_group_symop_operation_xyz
x,y,z
-x,-y,-z
loop_
_atom_site_type_symbol
_atom_site_label
_atom_site_fract_x
_atom_site_fract_y
_atom_site_fract_z
Si Si1 0.934111 0.815687 0.737948
Si Si2 0.299552 0.482085 0.423725
Si Si3 0.265032 0.413941 0.110159
Si Si4 0.600538 0.778331 0.435997
Si Si5 0.964613 0.282444 0.596471
Si Si6 0.505197 0.863237 0.756716
Si Si7 0.786640 0.967084 0.423099
O O1 0.884157 0.630789 0.617681
O O2 0.714472 0.810804 0.705343
O O3 0.055949 0.814738 0.621237
O O4 0.000000 0.000000 0.000000
O O5 0.500000 0.500000 0.500000
O O6 0.296865 0.387838 0.207101
O O7 0.318805 0.696512 0.617625
O O8 0.448708 0.576421 0.229806
O O9 0.080378 0.512143 0.201226
O O10 0.240535 0.215974 0.844299
O O11 0.525025 0.893670 0.660752
O O12 0.632220 0.906652 0.465266
O O13 0.814670 0.725637 0.388227
O O14 0.809907 0.156746 0.554332
O O15 0.500000 0.000000 0.000000
O O16 0.000000 0.000000 0.500000
#
# Coordination Sequence:
#
# PCOD9095415 Si02
#       7
#     2   2   2   2   2   2   2
#     4  10  20  35  57  86 125 158 201 266 313 369
#     4   9  20  39  60  89 126 165 208 259 321 384
#     4  11  22  41  69  90 129 176 214 265 332 384
#     4   9  21  41  63  91 130 167 216 267 322 382
#     4  10  23  41  62  95 130 165 221 266 318 391
#     4   9  19  37  60  86 122 161 206 258 313 384
#     4  10  22  43  66  94 133 167 217 278 320 379
#
# _framework density 22.558806000000001
#
# number of rings (size 3 to 8) (size 9 to 14) (size 15 to 20)
#    0.000    2.286    0.000    2.143    4.000    3.429 
#    7.714    2.857    6.286    0.000    0.000    0.000 
#    0.000    0.000    0.000    0.000    0.000    0.000 
#
# Total GULP energy -78030.090290 kJ/mol
# GULP energy per Si atom -5573.577878 kJ/mol
# Density = 2.250746 g / cm^3
# Si number density = 22.558806 Si / 1000 Ang^3
#
#
#
# Elastic Constant Matrix: (Units=GPa)
#
#
# Indices 1 2 3 4 5 6 
#
# 1 92.9653 36.2680 -10.0743 1.9389 10.8246 2.4442
# 2 36.2680 141.7180 22.1350 -19.2735 6.8588 4.8095
# 3 -10.0743 22.1350 87.7375 -23.6889 13.0563 -0.1528
# 4 1.9389 -19.2735 -23.6889 22.1523 0.1975 -0.1505
# 5 10.8246 6.8588 13.0563 0.1975 32.4585 3.6129
# 6 2.4442 4.8095 -0.1528 -0.1505 3.6129 40.1424
#
#
#
# Elastic Compliance Matrix: (Units=1/GPa)
#
#
# Indices 1 2 3 4 5 6 
#
# 1 0.013093 -0.003750 0.002767 -0.001407 -0.004687 0.000079
# 2 -0.003750 0.009203 -0.000625 0.007665 -0.000399 -0.000812
# 3 0.002767 -0.000625 0.018163 0.018716 -0.008299 0.000793
# 4 -0.001407 0.007665 0.018716 0.072032 -0.009154 0.000332
# 5 -0.004687 -0.000399 -0.008299 -0.009154 0.036183 -0.002989
# 6 0.000079 -0.000812 0.000793 0.000332 -0.002989 0.025277
#
#
# Mechanical properties :
#
#
# Convention : Reuss Voigt Hill
#
# Bulk Modulus (GPa) = 26.85116 46.56423 36.70770
# Shear Modulus (GPa) = 26.37414 37.22343 31.79879
#
# Velocity S-wave (km/s) = 3.42296 4.06650 3.75853
# Velocity P-wave (km/s) = 5.24889 6.53718 5.92813
#
# Compressibility (1/GPa) = 0.03724233
#
# Stress axis : x y z
#
# Youngs Moduli (GPa) = 76.37929 108.66190 55.05826
#
# Poissons Ratio (x) = 0.40749 -0.15235
# Poissons Ratio (y) = 0.28642 0.03440
# Poissons Ratio (z) = -0.21135 0.06790
#
# Static dielectric constant tensor:
#      x y z
#    x 1.940710 -0.060010 -0.044350 
#    y -0.060010 1.913800 -0.041780 
#    z -0.044350 -0.041780 1.860260 
# 
# From -- ./inp_files/241060.got.cif
#   From: 2010.05.17/outbox.cif.g08.bks.cpg/sg2_121_cif.got.tgz:241060.got - 2010.06.03 11:33:40.
