data_PCOD9095880
_publ_section_title
;
Structure prediction by ZEFSAII (Michael W. Deem and Ramdas Pophale) SiO2 
 PCOD9095880
Probable space group: P -1
;
_chemical_formula_sum "Si O2"
_cell_formula_units_Z 16
_cell_length_a 8.700996
_cell_length_b 11.288416
_cell_length_c 17.062654
_cell_angle_alpha 116.600364
_cell_angle_beta 55.829294
_cell_angle_gamma 71.665500
_cell_volume 798.252180
_symmetry_space_group_name_H-M "P -1"
_symmetry_group_IT_number 2
_symmetry_cell_setting 'triclinic'
loop_
_space_group_symop_operation_xyz
x,y,z
-x,-y,-z
loop_
_atom_site_type_symbol
_atom_site_label
_atom_site_fract_x
_atom_site_fract_y
_atom_site_fract_z
Si Si1 0.614764 0.847018 0.851423
Si Si2 0.392114 0.170265 0.890087
Si Si3 0.260482 0.518672 0.096374
Si Si4 0.117898 0.938994 0.036981
Si Si5 0.781282 0.289266 0.695625
Si Si6 0.160970 0.712558 0.651995
Si Si7 0.994888 0.905140 0.585256
Si Si8 0.891177 0.351369 0.983713
O O1 0.955608 0.692663 0.703095
O O2 0.462591 0.998435 0.865321
O O3 0.457133 0.793457 0.891485
O O4 0.500000 0.000000 0.000000
O O5 0.097195 0.318681 0.972285
O O6 0.662800 0.042078 0.718575
O O7 0.381408 0.304337 0.989783
O O8 0.164609 0.611170 0.237438
O O9 0.037633 0.659331 0.130628
O O10 0.500000 0.500000 0.000000
O O11 0.082185 0.817218 0.052233
O O12 0.954327 0.135189 0.197266
O O13 0.000000 0.000000 0.000000
O O14 0.839052 0.265005 0.579843
O O15 0.981799 0.065570 0.610425
O O16 0.445521 0.431376 0.843165
O O17 0.500000 0.500000 0.500000
O O18 0.101150 0.819194 0.617584
#
# Coordination Sequence:
#
# PCOD9095880 Si02
#       8
#     2   2   2   2   2   2   2   2
#     4   9  21  37  61  87 122 162 204 252 296 361
#     4  11  20  38  61  90 123 157 202 253 307 364
#     4  10  20  35  60  92 113 158 204 246 301 359
#     4  11  22  40  63  93 123 159 215 252 298 364
#     4  10  22  37  63  89 119 164 199 247 312 371
#     4  10  23  41  64  89 125 169 201 255 313 363
#     4  10  21  40  61  85 129 159 197 249 316 364
#     4  11  22  36  67  90 123 159 206 256 300 369
#
# _framework density 20.043790000000001
#
# number of rings (size 3 to 8) (size 9 to 14) (size 15 to 20)
#    0.000    1.750    3.750    1.125   10.500    0.000 
#    0.000    2.500    2.750    0.000    0.000    0.000 
#    0.000    0.000    0.000    0.000    0.000    0.000 
#
# Total GULP energy -89209.110622 kJ/mol
# GULP energy per Si atom -5575.569414 kJ/mol
# Density = 1.999817 g / cm^3
# Si number density = 20.043790 Si / 1000 Ang^3
#
#
#
# Elastic Constant Matrix: (Units=GPa)
#
#
# Indices 1 2 3 4 5 6 
#
# 1 114.4917 26.5128 58.8287 0.5459 1.1463 -13.7792
# 2 26.5128 68.7593 28.9006 0.7619 -1.0614 -10.2490
# 3 58.8287 28.9006 99.6097 1.7738 6.9583 -19.6336
# 4 0.5459 0.7619 1.7738 23.3225 -9.1032 3.4429
# 5 1.1463 -1.0614 6.9583 -9.1032 34.0914 -4.2583
# 6 -13.7792 -10.2490 -19.6336 3.4429 -4.2583 31.4614
#
#
#
# Elastic Compliance Matrix: (Units=1/GPa)
#
#
# Indices 1 2 3 4 5 6 
#
# 1 0.012833 -0.001893 -0.006979 0.000652 0.001200 0.000739
# 2 -0.001893 0.017159 -0.003411 -0.000038 0.001641 0.002858
# 3 -0.006979 -0.003411 0.016649 -0.003207 -0.003362 0.006118
# 4 0.000652 -0.000038 -0.003207 0.048985 0.013047 -0.005323
# 5 0.001200 0.001641 -0.003362 0.013047 0.033777 0.002106
# 6 0.000739 0.002858 0.006118 -0.005323 0.002106 0.037725
#
#
# Mechanical properties :
#
#
# Convention : Reuss Voigt Hill
#
# Bulk Modulus (GPa) = 45.30367 56.81612 51.05990
# Shear Modulus (GPa) = 25.11913 29.01631 27.06772
#
# Velocity S-wave (km/s) = 3.54391 3.80892 3.67881
# Velocity P-wave (km/s) = 6.27672 6.91024 6.60108
#
# Compressibility (1/GPa) = 0.02207327
#
# Stress axis : x y z
#
# Youngs Moduli (GPa) = 77.92622 58.27871 60.06541
#
# Poissons Ratio (x) = 0.11033 0.41922
# Poissons Ratio (y) = 0.14752 0.20488
# Poissons Ratio (z) = 0.54387 0.19879
#
# Static dielectric constant tensor:
#      x y z
#    x 1.739270 -0.000480 0.005160 
#    y -0.000480 1.877310 -0.037540 
#    z 0.005160 -0.037540 1.709470 
# 
# From -- ./inp_files/329342.got.cif
#   From: 2010.05.17/outbox.cif.g08.bks.cpg/sg2_165_cif.got.tgz:329342.got - 2010.06.03 11:33:40.
