data_PCOD9095325
_publ_section_title
;
Structure prediction by ZEFSAII (Michael W. Deem and Ramdas Pophale) SiO2 
 PCOD9095325
Probable space group: P -1
;
_chemical_formula_sum "Si O2"
_cell_formula_units_Z 12
_cell_length_a 9.493924
_cell_length_b 8.668606
_cell_length_c 8.953705
_cell_angle_alpha 100.802523
_cell_angle_beta 45.998440
_cell_angle_gamma 102.196859
_cell_volume 517.222721
_symmetry_space_group_name_H-M "P -1"
_symmetry_group_IT_number 2
_symmetry_cell_setting 'triclinic'
loop_
_space_group_symop_operation_xyz
x,y,z
-x,-y,-z
loop_
_atom_site_type_symbol
_atom_site_label
_atom_site_fract_x
_atom_site_fract_y
_atom_site_fract_z
Si Si1 0.042510 0.225903 0.435772
Si Si2 0.286620 0.344288 0.757126
Si Si3 0.362338 0.431892 0.392041
Si Si4 0.326405 0.957042 0.238774
Si Si5 0.953443 0.164187 0.141355
Si Si6 0.489141 0.855277 0.629773
O O1 0.180815 0.386290 0.406718
O O2 0.178667 0.092581 0.365074
O O3 0.003284 0.187601 0.283844
O O4 0.831249 0.199195 0.671880
O O5 0.279425 0.443653 0.625624
O O6 0.473117 0.422270 0.728880
O O7 0.348758 0.180819 0.615879
O O8 0.087506 0.305225 0.984131
O O9 0.490232 0.282986 0.287987
O O10 0.443984 0.979902 0.311231
O O11 0.500000 0.000000 0.000000
O O12 0.725506 0.170332 0.280886
O O13 0.000000 0.000000 0.000000
#
# Coordination Sequence:
#
# PCOD9095325 Si02
#       6
#     2   2   2   2   2   2
#     4  10  22  36  54  86 115 143 194 235 275 336
#     4   9  20  41  62  79 116 151 194 232 283 330
#     4   8  19  43  62  77 112 155 196 236 264 340
#     4  10  20  35  57  79 113 155 189 227 277 338
#     4  12  24  34  58  91 120 150 178 238 296 334
#     4   9  20  37  57  85 110 150 191 229 279 339
#
# _framework density 23.200835000000001
#
# number of rings (size 3 to 8) (size 9 to 14) (size 15 to 20)
#    1.000    1.333    0.000    2.000    4.667    5.333 
#    0.000    0.833    0.000    0.000    0.000    0.000 
#    0.000    0.000    0.000    0.000    0.000    0.000 
#
# Total GULP energy -66876.163547 kJ/mol
# GULP energy per Si atom -5573.013629 kJ/mol
# Density = 2.314803 g / cm^3
# Si number density = 23.200835 Si / 1000 Ang^3
#
#
#
# Elastic Constant Matrix: (Units=GPa)
#
#
# Indices 1 2 3 4 5 6 
#
# 1 129.8826 27.5092 26.2805 -7.9236 -5.3653 44.9436
# 2 27.5092 55.0380 19.6143 -13.1889 -2.9934 32.6471
# 3 26.2805 19.6143 105.4087 -20.7692 -11.8398 15.5511
# 4 -7.9236 -13.1889 -20.7692 26.1074 7.9746 -7.4206
# 5 -5.3653 -2.9934 -11.8398 7.9746 15.5042 -4.8329
# 6 44.9436 32.6471 15.5511 -7.4206 -4.8329 45.8400
#
#
#
# Elastic Compliance Matrix: (Units=1/GPa)
#
#
# Indices 1 2 3 4 5 6 
#
# 1 0.011960 0.002128 -0.001559 0.000028 -0.000638 -0.012775
# 2 0.002128 0.035427 -0.001842 0.012293 -0.008120 -0.025558
# 3 -0.001559 -0.001842 0.012055 0.006783 0.004937 0.000370
# 4 0.000028 0.012293 0.006783 0.055482 -0.022364 -0.004460
# 5 -0.000638 -0.008120 0.004937 -0.022364 0.080992 0.009653
# 6 -0.012775 -0.025558 0.000370 -0.004460 0.009653 0.052714
#
#
# Mechanical properties :
#
#
# Convention : Reuss Voigt Hill
#
# Bulk Modulus (GPa) = 17.57612 48.57080 33.07346
# Shear Modulus (GPa) = 18.50883 31.95201 25.23042
#
# Velocity S-wave (km/s) = 2.82754 3.71508 3.30127
# Velocity P-wave (km/s) = 4.27224 6.27557 5.36819
#
# Compressibility (1/GPa) = 0.05689538
#
# Stress axis : x y z
#
# Youngs Moduli (GPa) = 83.61082 28.22715 82.95357
#
# Poissons Ratio (x) = -0.06006 0.12934
# Poissons Ratio (y) = -0.17791 0.15280
# Poissons Ratio (z) = 0.13036 0.05199
#
# Static dielectric constant tensor:
#      x y z
#    x 1.867110 0.078180 0.215740 
#    y 0.078180 1.711360 -0.576710 
#    z 0.215740 -0.576710 0.751650 
# 
# From -- ./inp_files/166501.got.cif
#   From: 2010.05.17/outbox.cif.g08.bks.cpg/sg2_84_cif.got.tgz:166501.got - 2010.06.03 11:33:40.
