data_PCOD9095309
_publ_section_title
;
Structure prediction by ZEFSAII (Michael W. Deem and Ramdas Pophale) SiO2 
 PCOD9095309
Probable space group: P -1
;
_chemical_formula_sum "Si O2"
_cell_formula_units_Z 16
_cell_length_a 5.435469
_cell_length_b 15.248366
_cell_length_c 11.275092
_cell_angle_alpha 111.512915
_cell_angle_beta 114.205759
_cell_angle_gamma 63.209289
_cell_volume 741.616133
_symmetry_space_group_name_H-M "P -1"
_symmetry_group_IT_number 2
_symmetry_cell_setting 'triclinic'
loop_
_space_group_symop_operation_xyz
x,y,z
-x,-y,-z
loop_
_atom_site_type_symbol
_atom_site_label
_atom_site_fract_x
_atom_site_fract_y
_atom_site_fract_z
Si Si1 0.289911 0.618524 0.501664
Si Si2 0.325477 0.944454 0.076814
Si Si3 0.316328 0.146731 0.097804
Si Si4 0.766484 0.189731 0.840200
Si Si5 0.161744 0.325627 0.343929
Si Si6 0.304800 0.515055 0.806740
Si Si7 0.180913 0.670167 0.253045
Si Si8 0.688179 0.612221 0.037084
O O1 0.500000 0.500000 0.500000
O O2 0.523581 0.673556 0.563238
O O3 0.100101 0.649526 0.359291
O O4 0.062993 0.660170 0.584973
O O5 0.354098 0.897441 0.189711
O O6 0.444298 0.035533 0.128061
O O7 0.450862 0.856436 0.959325
O O8 0.000000 0.000000 0.000000
O O9 0.218191 0.230692 0.220579
O O10 0.045737 0.162463 0.965299
O O11 0.828776 0.219959 0.735721
O O12 0.541105 0.293147 0.896449
O O13 0.991885 0.425281 0.284050
O O14 0.498629 0.412034 0.733229
O O15 0.239559 0.483480 0.908451
O O16 0.510160 0.583011 0.883315
O O17 0.972154 0.641447 0.104384
#
# Coordination Sequence:
#
# PCOD9095309 Si02
#       8
#     2   2   2   2   2   2   2   2
#     4  12  27  44  64  89 132 192 234 267 308 366
#     4   9  20  38  65  95 132 155 200 264 356 409
#     4  10  21  40  65 101 125 162 205 275 342 397
#     4  10  20  35  62  93 124 162 202 266 335 399
#     4  12  26  42  68  94 133 176 230 272 315 388
#     4  10  21  36  57  89 122 169 209 281 323 379
#     4  11  23  37  60  85 132 173 228 258 319 385
#     4  10  20  35  56  90 126 162 213 264 337 384
#
# _framework density 21.574506
#
# number of rings (size 3 to 8) (size 9 to 14) (size 15 to 20)
#    0.000    1.500    2.500    2.250    7.000    1.000 
#    0.000    0.000    0.000    1.500    0.000    0.000 
#    0.000    0.000    0.000    0.000    0.000    0.000 
#
# Total GULP energy -89162.917081 kJ/mol
# GULP energy per Si atom -5572.682318 kJ/mol
# Density = 2.152540 g / cm^3
# Si number density = 21.574506 Si / 1000 Ang^3
#
#
#
# Elastic Constant Matrix: (Units=GPa)
#
#
# Indices 1 2 3 4 5 6 
#
# 1 93.8328 27.3193 20.8344 3.9688 -12.1703 -6.5159
# 2 27.3193 91.5067 23.8735 -14.8616 -18.1101 8.6983
# 3 20.8344 23.8735 49.4369 -4.7644 -10.7840 0.9023
# 4 3.9688 -14.8616 -4.7644 23.1238 -3.1490 -13.5502
# 5 -12.1703 -18.1101 -10.7840 -3.1490 36.2766 -1.5165
# 6 -6.5159 8.6983 0.9023 -13.5502 -1.5165 39.1654
#
#
#
# Elastic Compliance Matrix: (Units=1/GPa)
#
#
# Indices 1 2 3 4 5 6 
#
# 1 0.012981 -0.003432 -0.003989 -0.004145 0.001164 0.001625
# 2 -0.003432 0.016060 -0.003781 0.011067 0.006704 0.000038
# 3 -0.003989 -0.003781 0.025228 0.004983 0.004769 0.001504
# 4 -0.004145 0.011067 0.004983 0.065361 0.012118 0.019820
# 5 0.001164 0.006704 0.004769 0.012118 0.033945 0.004102
# 6 0.001625 0.000038 0.001504 0.019820 0.004102 0.032776
#
#
# Mechanical properties :
#
#
# Convention : Reuss Voigt Hill
#
# Bulk Modulus (GPa) = 31.38150 42.09231 36.73691
# Shear Modulus (GPa) = 22.79201 30.56310 26.67756
#
# Velocity S-wave (km/s) = 3.25381 3.76790 3.52025
# Velocity P-wave (km/s) = 5.35664 6.20338 5.79550
#
# Compressibility (1/GPa) = 0.03186591
#
# Stress axis : x y z
#
# Youngs Moduli (GPa) = 77.03401 62.26710 39.63916
#
# Poissons Ratio (x) = 0.21372 0.15810
# Poissons Ratio (y) = 0.26440 0.14986
# Poissons Ratio (z) = 0.30725 0.23541
#
# Static dielectric constant tensor:
#      x y z
#    x 1.969630 0.078550 -0.008000 
#    y 0.078550 1.802910 0.007410 
#    z -0.008000 0.007410 1.831170 
# 
# From -- ./inp_files/367020.got.cif
#   From: 2010.05.17/outbox.cif.g08.bks.cpg/sg2_184_cif.got.tgz:367020.got - 2010.06.03 11:33:40.
