data_PCOD9095194
_publ_section_title
;
Structure prediction by ZEFSAII (Michael W. Deem and Ramdas Pophale) SiO2 
 PCOD9095194
Probable space group: P -1
;
_chemical_formula_sum "Si O2"
_cell_formula_units_Z 16
_cell_length_a 19.326102
_cell_length_b 7.249862
_cell_length_c 13.981081
_cell_angle_alpha 110.141447
_cell_angle_beta 20.889127
_cell_angle_gamma 109.889910
_cell_volume 654.753104
_symmetry_space_group_name_H-M "P -1"
_symmetry_group_IT_number 2
_symmetry_cell_setting 'triclinic'
loop_
_space_group_symop_operation_xyz
x,y,z
-x,-y,-z
loop_
_atom_site_type_symbol
_atom_site_label
_atom_site_fract_x
_atom_site_fract_y
_atom_site_fract_z
Si Si1 0.532062 0.234613 0.012071
Si Si2 0.862247 0.317823 0.486171
Si Si3 0.489849 0.035284 0.630988
Si Si4 0.825213 0.350370 0.823323
Si Si5 0.526813 0.600513 0.585122
Si Si6 0.197962 0.267337 0.593653
Si Si7 0.080264 0.959467 0.205232
Si Si8 0.151025 0.892362 0.716391
O O1 0.630090 0.319433 0.802916
O O2 0.698566 0.298183 0.884949
O O3 0.335063 0.299917 0.329333
O O4 0.500000 0.000000 0.000000
O O5 0.919279 0.283977 0.294682
O O6 0.984702 0.505498 0.401981
O O7 0.925532 0.123609 0.426889
O O8 0.515135 0.827612 0.612061
O O9 0.500000 0.000000 0.500000
O O10 0.669624 0.167708 0.461900
O O11 0.275028 0.082161 0.944552
O O12 0.887026 0.149330 0.757619
O O13 0.665497 0.450245 0.114148
O O14 0.500000 0.500000 0.500000
O O15 0.719875 0.591000 0.401140
O O16 0.982026 0.219402 0.820969
O O17 0.223428 0.055641 0.573916
O O18 0.000000 0.000000 0.000000
#
# Coordination Sequence:
#
# PCOD9095194 Si02
#       8
#     2   2   2   2   2   2   2   2
#     4  11  20  42  68  88 123 170 207 253 320 370
#     4  11  23  41  68  87 125 172 203 256 318 366
#     4  10  20  35  55  89 124 156 213 252 294 380
#     4  10  24  40  60  97 123 153 220 255 302 384
#     4   9  20  36  59  83 122 166 195 254 315 363
#     4   9  19  38  61  85 120 164 204 250 309 376
#     4  10  21  39  61  90 128 158 203 263 315 358
#     4  10  20  35  61  88 121 165 205 244 308 377
#
# _framework density 24.436691
#
# number of rings (size 3 to 8) (size 9 to 14) (size 15 to 20)
#    0.000    2.000    2.500    2.625    5.250    0.500 
#    2.250    1.875    0.000    0.000    0.000    0.000 
#    0.000    0.000    0.000    0.000    0.000    0.000 
#
# Total GULP energy -89217.902679 kJ/mol
# GULP energy per Si atom -5576.118917 kJ/mol
# Density = 2.438107 g / cm^3
# Si number density = 24.436691 Si / 1000 Ang^3
#
#
#
# Elastic Constant Matrix: (Units=GPa)
#
#
# Indices 1 2 3 4 5 6 
#
# 1 61.3364 8.0081 29.0919 -2.5078 2.6147 21.8715
# 2 8.0081 79.9509 23.4170 -16.8677 3.2523 6.0049
# 3 29.0919 23.4170 101.0053 -10.0495 9.2379 15.3247
# 4 -2.5078 -16.8677 -10.0495 32.5006 6.3686 6.2328
# 5 2.6147 3.2523 9.2379 6.3686 37.6042 -2.0346
# 6 21.8715 6.0049 15.3247 6.2328 -2.0346 40.7690
#
#
#
# Elastic Compliance Matrix: (Units=1/GPa)
#
#
# Indices 1 2 3 4 5 6 
#
# 1 0.022476 0.000610 -0.004486 0.003097 -0.001634 -0.011016
# 2 0.000610 0.015171 -0.002169 0.008323 -0.002401 -0.003139
# 3 -0.004486 -0.002169 0.012805 0.003701 -0.003426 -0.002824
# 4 0.003097 0.008323 0.003701 0.040382 -0.009274 -0.010914
# 5 -0.001634 -0.002401 -0.003426 -0.009274 0.029619 0.005414
# 6 -0.011016 -0.003139 -0.002824 -0.010914 0.005414 0.033901
#
#
# Mechanical properties :
#
#
# Convention : Reuss Voigt Hill
#
# Bulk Modulus (GPa) = 26.06747 40.36963 33.21855
# Shear Modulus (GPa) = 27.89673 34.29313 31.09493
#
# Velocity S-wave (km/s) = 3.38241 3.75019 3.57104
# Velocity P-wave (km/s) = 5.09360 5.94204 5.53410
#
# Compressibility (1/GPa) = 0.03836199
#
# Stress axis : x y z
#
# Youngs Moduli (GPa) = 44.49161 65.91453 78.09195
#
# Poissons Ratio (x) = -0.04020 0.35033
# Poissons Ratio (y) = -0.02713 0.16939
# Poissons Ratio (z) = 0.19959 0.14297
#
# Static dielectric constant tensor:
#      x y z
#    x 2.029160 0.058650 -0.074220 
#    y 0.058650 2.063030 0.072980 
#    z -0.074220 0.072980 2.105370 
# 
# From -- ./inp_files/225849.got.cif
#   From: 2010.05.17/outbox.cif.g08.bks.cpg/sg2_113_cif.got.tgz:225849.got - 2010.06.03 11:33:40.
