data_PCOD9095675
_publ_section_title
;
Structure prediction by ZEFSAII (Michael W. Deem and Ramdas Pophale) SiO2 
 PCOD9095675
Probable space group: P -1
;
_chemical_formula_sum "Si O2"
_cell_formula_units_Z 15
_cell_length_a 9.754182
_cell_length_b 10.735972
_cell_length_c 16.463094
_cell_angle_alpha 134.714404
_cell_angle_beta 151.598716
_cell_angle_gamma 55.624975
_cell_volume 575.162547
_symmetry_space_group_name_H-M "P -1"
_symmetry_group_IT_number 2
_symmetry_cell_setting 'triclinic'
loop_
_space_group_symop_operation_xyz
x,y,z
-x,-y,-z
loop_
_atom_site_type_symbol
_atom_site_label
_atom_site_fract_x
_atom_site_fract_y
_atom_site_fract_z
Si Si1 0.411352 0.616392 0.380158
Si Si2 0.874430 0.656265 0.780008
Si Si3 0.000000 0.000000 0.500000
Si Si4 0.368002 0.803099 0.988192
Si Si5 0.969902 0.053399 0.807424
Si Si6 0.374671 0.827862 0.682955
Si Si7 0.525953 0.648095 0.838748
Si Si8 0.397476 0.032214 0.569014
O O1 0.683474 0.589025 0.568718
O O2 0.144271 0.491089 0.227449
O O3 0.450297 0.537934 0.275276
O O4 0.402990 0.821473 0.469188
O O5 0.673536 0.792336 0.779017
O O6 0.188102 0.730057 0.939654
O O7 0.883666 0.205858 0.530256
O O8 0.770262 0.932797 0.424023
O O9 0.416873 0.663328 0.880315
O O10 0.173671 0.933671 0.902790
O O11 0.653138 0.955928 0.225391
O O12 0.790235 0.933288 0.590753
O O13 0.735065 0.114577 0.773584
O O14 0.166348 0.220268 0.945253
O O15 0.350930 0.740637 0.718951
#
# Coordination Sequence:
#
# PCOD9095675 Si02
#       8
#     2   2   1   2   2   2   2   2
#     4  10  21  39  55  86 117 162 184 229 295 346
#     4  10  20  37  59  85 118 153 194 229 289 349
#     4  12  20  34  56  88 110 148 190 242 276 338
#     4  11  19  37  61  91 112 148 198 244 279 336
#     4  10  21  40  58  87 117 152 192 238 288 341
#     4  10  20  35  59  86 116 150 190 246 286 333
#     4  10  22  37  61  86 118 151 194 238 285 344
#     4  11  22  38  61  84 119 153 191 238 290 339
#
# _framework density 26.079584000000001
#
# number of rings (size 3 to 8) (size 9 to 14) (size 15 to 20)
#    0.000    1.600    2.667    3.600    0.000    3.200 
#    0.000    1.333    0.000    4.000    0.000    0.000 
#    0.000    0.000    0.000    0.000    0.000    0.000 
#
# Total GULP energy -83699.531438 kJ/mol
# GULP energy per Si atom -5579.968763 kJ/mol
# Density = 2.602023 g / cm^3
# Si number density = 26.079584 Si / 1000 Ang^3
#
#
#
# Elastic Constant Matrix: (Units=GPa)
#
#
# Indices 1 2 3 4 5 6 
#
# 1 180.6554 28.0783 15.3864 -0.7005 5.2861 -27.6011
# 2 28.0783 61.7799 20.5439 5.8000 5.2836 -3.6589
# 3 15.3864 20.5439 60.4414 -11.8011 11.3514 -5.3357
# 4 -0.7005 5.8000 -11.8011 37.7076 -2.8111 -4.9052
# 5 5.2861 5.2836 11.3514 -2.8111 46.8517 1.9346
# 6 -27.6011 -3.6589 -5.3357 -4.9052 1.9346 37.4393
#
#
#
# Elastic Compliance Matrix: (Units=1/GPa)
#
#
# Indices 1 2 3 4 5 6 
#
# 1 0.006742 -0.002839 0.000013 0.001158 -0.000576 0.004876
# 2 -0.002839 0.020419 -0.007432 -0.005800 -0.000451 -0.001893
# 3 0.000013 -0.007432 0.021745 0.008119 -0.004096 0.003658
# 4 0.001158 -0.005800 0.008119 0.030697 0.000173 0.005457
# 5 -0.000576 -0.000451 -0.004096 0.000173 0.022553 -0.002195
# 6 0.004876 -0.001893 0.003658 0.005457 -0.002195 0.031469
#
#
# Mechanical properties :
#
#
# Convention : Reuss Voigt Hill
#
# Bulk Modulus (GPa) = 35.22379 47.87709 41.55044
# Shear Modulus (GPa) = 30.56120 40.32425 35.44272
#
# Velocity S-wave (km/s) = 3.42693 3.93644 3.69049
# Velocity P-wave (km/s) = 5.40316 6.24969 5.84178
#
# Compressibility (1/GPa) = 0.02838990
#
# Stress axis : x y z
#
# Youngs Moduli (GPa) = 148.32703 48.97309 45.98698
#
# Poissons Ratio (x) = 0.13904 -0.00061
# Poissons Ratio (y) = 0.42113 0.34180
# Poissons Ratio (z) = -0.00198 0.36399
#
# Static dielectric constant tensor:
#      x y z
#    x 2.095200 0.074010 -0.323900 
#    y 0.074010 2.238840 -0.271760 
#    z -0.323900 -0.271760 3.168660 
# 
# From -- ./inp_files/348983.got.cif
#   From: 2010.05.17/outbox.cif.g08.bks.cpg/sg2_175_cif.got.tgz:348983.got - 2010.06.03 11:33:40.
