data_PCOD9095686
_publ_section_title
;
Structure prediction by ZEFSAII (Michael W. Deem and Ramdas Pophale) SiO2 
 PCOD9095686
Probable space group: P -1
;
_chemical_formula_sum "Si O2"
_cell_formula_units_Z 16
_cell_length_a 17.388883
_cell_length_b 11.330259
_cell_length_c 15.632664
_cell_angle_alpha 22.996240
_cell_angle_beta 146.212912
_cell_angle_gamma 146.117315
_cell_volume 638.371490
_symmetry_space_group_name_H-M "P -1"
_symmetry_group_IT_number 2
_symmetry_cell_setting 'triclinic'
loop_
_space_group_symop_operation_xyz
x,y,z
-x,-y,-z
loop_
_atom_site_type_symbol
_atom_site_label
_atom_site_fract_x
_atom_site_fract_y
_atom_site_fract_z
Si Si1 0.867039 0.711678 0.277003
Si Si2 0.466915 0.987939 0.588941
Si Si3 0.891179 0.739224 0.481870
Si Si4 0.545806 0.675749 0.030479
Si Si5 0.905850 0.578870 0.783517
Si Si6 0.818923 0.056381 0.594764
Si Si7 0.423248 0.286734 0.777477
Si Si8 0.366701 0.507496 0.314163
O O1 0.872458 0.620752 0.444700
O O2 0.713319 0.777818 0.086884
O O3 0.857195 0.438268 0.379736
O O4 0.020630 0.976030 0.226777
O O5 0.499655 0.710428 0.749856
O O6 0.307972 0.020524 0.399875
O O7 0.571448 0.338208 0.462675
O O8 0.459403 0.816498 0.789211
O O9 0.908296 0.519953 0.722944
O O10 0.750594 0.860926 0.294983
O O11 0.035015 0.038330 0.415367
O O12 0.532768 0.791139 0.035975
O O13 0.744884 0.409712 0.780611
O O14 0.000000 0.500000 0.000000
O O15 0.735018 0.823877 0.598075
O O16 0.552147 0.297031 0.823338
O O17 0.500000 0.500000 0.500000
#
# Coordination Sequence:
#
# PCOD9095686 Si02
#       8
#     2   2   2   2   2   2   2   2
#     4   9  17  34  60  87 119 158 201 238 304 360
#     4   9  18  33  56  85 124 157 197 245 298 354
#     4  10  21  40  64  88 122 159 204 254 298 369
#     4   9  18  33  55  88 120 160 200 240 291 366
#     4  11  24  43  64  89 119 163 210 251 302 362
#     4   9  18  34  59  87 119 161 193 246 305 359
#     4  10  20  35  59  87 117 156 198 250 305 352
#     4  11  21  41  61  87 126 160 200 257 305 358
#
# _framework density 25.063773999999999
#
# number of rings (size 3 to 8) (size 9 to 14) (size 15 to 20)
#    0.000    2.250    2.500    0.375    0.000    3.000 
#    2.250    0.625    0.000    0.750    0.000    0.000 
#    0.000    0.000    0.000    0.000    0.000    0.000 
#
# Total GULP energy -89123.388156 kJ/mol
# GULP energy per Si atom -5570.211760 kJ/mol
# Density = 2.500673 g / cm^3
# Si number density = 25.063774 Si / 1000 Ang^3
#
#
#
# Elastic Constant Matrix: (Units=GPa)
#
#
# Indices 1 2 3 4 5 6 
#
# 1 137.7082 28.9324 42.3746 5.2324 -19.1618 22.1725
# 2 28.9324 135.5665 15.1680 5.6505 -5.7367 14.3837
# 3 42.3746 15.1680 50.7197 15.1683 -14.5855 7.5528
# 4 5.2324 5.6505 15.1683 41.9110 -5.0963 7.2821
# 5 -19.1618 -5.7367 -14.5855 -5.0963 30.5548 3.6797
# 6 22.1725 14.3837 7.5528 7.2821 3.6797 59.4912
#
#
#
# Elastic Compliance Matrix: (Units=1/GPa)
#
#
# Indices 1 2 3 4 5 6 
#
# 1 0.010905 -0.001028 -0.008068 0.002724 0.003652 -0.003351
# 2 -0.001028 0.007894 -0.001096 -0.000245 0.000440 -0.001384
# 3 -0.008068 -0.001096 0.032060 -0.009385 0.008494 -0.000175
# 4 0.002724 -0.000245 -0.009385 0.027793 0.002216 -0.003303
# 5 0.003652 0.000440 0.008494 0.002216 0.040163 -0.005301
# 6 -0.003351 -0.001384 -0.000175 -0.003303 -0.005301 0.019147
#
#
# Mechanical properties :
#
#
# Convention : Reuss Voigt Hill
#
# Bulk Modulus (GPa) = 32.81473 55.21603 44.01538
# Shear Modulus (GPa) = 29.67267 42.22602 35.94935
#
# Velocity S-wave (km/s) = 3.44450 4.10902 3.79134
# Velocity P-wave (km/s) = 5.37962 6.67758 6.06343
#
# Compressibility (1/GPa) = 0.03047412
#
# Stress axis : x y z
#
# Youngs Moduli (GPa) = 91.70431 126.67671 31.19132
#
# Poissons Ratio (x) = 0.13022 0.25166
# Poissons Ratio (y) = 0.09427 0.03419
# Poissons Ratio (z) = 0.73991 0.13884
#
# Static dielectric constant tensor:
#      x y z
#    x 2.044570 -0.057020 0.038140 
#    y -0.057020 2.043680 -0.043160 
#    z 0.038140 -0.043160 2.038470 
# 
# From -- ./inp_files/537915.got.cif
#   From: 2010.05.17/outbox.cif.g08.bks.cpg/sg2_269_cif.got.tgz:537915.got - 2010.06.03 11:33:40.
