data_PCOD9095691
_publ_section_title
;
Structure prediction by ZEFSAII (Michael W. Deem and Ramdas Pophale) SiO2 
 PCOD9095691
Probable space group: P -1
;
_chemical_formula_sum "Si O2"
_cell_formula_units_Z 16
_cell_length_a 7.577443
_cell_length_b 18.755368
_cell_length_c 9.147742
_cell_angle_alpha 69.898220
_cell_angle_beta 46.876130
_cell_angle_gamma 42.173678
_cell_volume 600.820168
_symmetry_space_group_name_H-M "P -1"
_symmetry_group_IT_number 2
_symmetry_cell_setting 'triclinic'
loop_
_space_group_symop_operation_xyz
x,y,z
-x,-y,-z
loop_
_atom_site_type_symbol
_atom_site_label
_atom_site_fract_x
_atom_site_fract_y
_atom_site_fract_z
Si Si1 0.415916 0.983378 0.399047
Si Si2 0.071418 0.780515 0.894718
Si Si3 0.666177 0.162704 0.528995
Si Si4 0.337731 0.696291 0.409739
Si Si5 0.437193 0.120166 0.119447
Si Si6 0.883042 0.457075 0.385795
Si Si7 0.410069 0.751109 0.018661
Si Si8 0.374753 0.476780 0.218384
O O1 0.578812 0.007226 0.176640
O O2 0.997780 0.074211 0.517934
O O3 0.500000 0.000000 0.500000
O O4 0.515451 0.871988 0.399375
O O5 0.190696 0.827171 0.703314
O O6 0.186825 0.768473 0.001309
O O7 0.303945 0.651621 0.812997
O O8 0.676475 0.856561 0.002324
O O9 0.457758 0.279439 0.645004
O O10 0.543934 0.570904 0.414353
O O11 0.937524 0.785678 0.641979
O O12 0.334099 0.721110 0.226914
O O13 0.666634 0.141734 0.996272
O O14 0.787693 0.442091 0.606926
O O15 0.171836 0.351837 0.191181
O O16 0.095750 0.482236 0.305398
O O17 0.500000 0.500000 0.000000
#
# Coordination Sequence:
#
# PCOD9095691 Si02
#       8
#     2   2   2   2   2   2   2   2
#     4   9  17  34  64  94 111 152 208 248 318 377
#     4   9  19  39  55  84 123 153 205 249 298 364
#     4   9  18  36  63  82 125 162 184 266 318 347
#     4  10  21  39  57  89 126 159 215 249 305 369
#     4  10  22  40  61  87 123 157 204 259 312 367
#     4  10  21  37  56  86 126 164 210 256 296 356
#     4  11  23  36  61  87 122 171 204 255 301 352
#     4  10  20  35  59  87 120 164 208 252 300 357
#
# _framework density 26.630265999999999
#
# number of rings (size 3 to 8) (size 9 to 14) (size 15 to 20)
#    0.000    2.500    2.500    1.125    1.750    2.500 
#    0.000    5.625    0.000   24.000    0.000    0.000 
#    0.000    0.000    0.000    0.000    0.000    0.000 
#
# Total GULP energy -89536.864798 kJ/mol
# GULP energy per Si atom -5596.054050 kJ/mol
# Density = 2.656965 g / cm^3
# Si number density = 26.630266 Si / 1000 Ang^3
#
#
#
# Elastic Constant Matrix: (Units=GPa)
#
#
# Indices 1 2 3 4 5 6 
#
# 1 141.8751 21.7077 57.9484 -10.9020 25.1516 13.6500
# 2 21.7077 102.3155 30.9320 -3.6861 -8.3003 5.6323
# 3 57.9484 30.9320 161.8571 -15.6308 18.3174 -3.9301
# 4 -10.9020 -3.6861 -15.6308 30.8619 -4.2339 -6.3569
# 5 25.1516 -8.3003 18.3174 -4.2339 43.3467 -3.8261
# 6 13.6500 5.6323 -3.9301 -6.3569 -3.8261 38.4365
#
#
#
# Elastic Compliance Matrix: (Units=1/GPa)
#
#
# Indices 1 2 3 4 5 6 
#
# 1 0.009663 -0.001422 -0.002674 0.000385 -0.005059 -0.003937
# 2 -0.001422 0.011049 -0.002037 0.000105 0.003729 -0.000934
# 3 -0.002674 -0.002037 0.008086 0.003170 -0.001732 0.002427
# 4 0.000385 0.000105 0.003170 0.035808 0.002515 0.006345
# 5 -0.005059 0.003729 -0.001732 0.002515 0.028075 0.004284
# 6 -0.003937 -0.000934 0.002427 0.006345 0.004284 0.029276
#
#
# Mechanical properties :
#
#
# Convention : Reuss Voigt Hill
#
# Bulk Modulus (GPa) = 60.48595 69.69157 65.08876
# Shear Modulus (GPa) = 35.78235 42.22631 39.00433
#
# Velocity S-wave (km/s) = 3.66959 3.98634 3.83124
# Velocity P-wave (km/s) = 6.38099 6.88584 6.63822
#
# Compressibility (1/GPa) = 0.01653276
#
# Stress axis : x y z
#
# Youngs Moduli (GPa) = 103.48361 90.50664 123.67190
#
# Poissons Ratio (x) = 0.12868 0.33068
# Poissons Ratio (y) = 0.14713 0.25193
# Poissons Ratio (z) = 0.27670 0.18437
#
# Static dielectric constant tensor:
#      x y z
#    x 2.094300 0.040880 -0.000720 
#    y 0.040880 2.188680 0.094700 
#    z -0.000720 0.094700 2.093990 
# 
# From -- ./inp_files/225341.got.cif
#   From: 2010.05.17/outbox.cif.g08.bks.cpg/sg2_113_cif.got.tgz:225341.got - 2010.06.03 11:33:40.
