data_PCOD9095485
_publ_section_title
;
Structure prediction by ZEFSAII (Michael W. Deem and Ramdas Pophale) SiO2 
 PCOD9095485
Probable space group: P -1
;
_chemical_formula_sum "Si O2"
_cell_formula_units_Z 16
_cell_length_a 16.873192
_cell_length_b 12.662951
_cell_length_c 8.910248
_cell_angle_alpha 30.603220
_cell_angle_beta 46.131710
_cell_angle_gamma 45.021827
_cell_volume 666.398002
_symmetry_space_group_name_H-M "P -1"
_symmetry_group_IT_number 2
_symmetry_cell_setting 'triclinic'
loop_
_space_group_symop_operation_xyz
x,y,z
-x,-y,-z
loop_
_atom_site_type_symbol
_atom_site_label
_atom_site_fract_x
_atom_site_fract_y
_atom_site_fract_z
Si Si1 0.695455 0.819670 0.564833
Si Si2 0.974094 0.060329 0.191639
Si Si3 0.575847 0.077319 0.681499
Si Si4 0.055611 0.294052 0.531069
Si Si5 0.621733 0.675903 0.539266
Si Si6 0.974445 0.666490 0.969872
Si Si7 0.759218 0.206343 0.833554
Si Si8 0.269238 0.985471 0.182494
O O1 0.824748 0.671006 0.615243
O O2 0.625842 0.727520 0.646286
O O3 0.625066 0.890908 0.721849
O O4 0.718942 0.031427 0.197913
O O5 0.102955 0.889192 0.246273
O O6 0.990975 0.216857 0.845040
O O7 0.947988 0.200223 0.209122
O O8 0.907380 0.906944 0.390790
O O9 0.501881 0.282769 0.429323
O O10 0.679452 0.102750 0.616767
O O11 0.500000 0.000000 0.000000
O O12 0.969731 0.502666 0.310294
O O13 0.708269 0.440638 0.683324
O O14 0.667126 0.854729 0.174786
O O15 0.860239 0.853273 0.846377
O O16 0.000000 0.500000 0.000000
O O17 0.715059 0.207044 0.721042
#
# Coordination Sequence:
#
# PCOD9095485 Si02
#       8
#     2   2   2   2   2   2   2   2
#     4  10  21  37  57  86 115 140 184 238 275 323
#     4   9  20  36  55  83 116 148 185 228 270 324
#     4  10  21  39  60  81 112 149 183 229 285 331
#     4  10  20  35  58  82 113 150 186 225 273 327
#     4  10  20  37  62  81 106 147 187 233 283 328
#     4  11  21  34  56  83 116 153 184 221 274 334
#     4   9  19  36  58  83 111 145 186 230 275 325
#     4   9  20  38  55  80 115 146 186 231 271 327
#
# _framework density 24.009675000000001
#
# number of rings (size 3 to 8) (size 9 to 14) (size 15 to 20)
#    0.000    2.250    0.000    3.000    0.000    4.500 
#    0.000    3.750    0.000    0.000    0.000    0.000 
#    0.000    0.000    0.000    0.000    0.000    0.000 
#
# Total GULP energy -89333.881600 kJ/mol
# GULP energy per Si atom -5583.367600 kJ/mol
# Density = 2.395503 g / cm^3
# Si number density = 24.009675 Si / 1000 Ang^3
#
#
#
# Elastic Constant Matrix: (Units=GPa)
#
#
# Indices 1 2 3 4 5 6 
#
# 1 140.4509 46.4517 35.7258 -0.9270 40.4100 29.5368
# 2 46.4517 118.3684 19.7805 10.7947 10.9866 35.1662
# 3 35.7258 19.7805 52.0483 1.4662 17.9773 5.4697
# 4 -0.9270 10.7947 1.4662 23.8730 1.0290 6.5799
# 5 40.4100 10.9866 17.9773 1.0290 27.8603 2.9966
# 6 29.5368 35.1662 5.4697 6.5799 2.9966 44.9147
#
#
#
# Elastic Compliance Matrix: (Units=1/GPa)
#
#
# Indices 1 2 3 4 5 6 
#
# 1 0.015845 -0.002038 -0.002546 0.004721 -0.019862 -0.007880
# 2 -0.002038 0.012113 -0.002602 -0.003396 0.000778 -0.007381
# 3 -0.002546 -0.002602 0.026031 -0.000384 -0.012216 0.001412
# 4 0.004721 -0.003396 -0.000384 0.045742 -0.006232 -0.006685
# 5 -0.019862 0.000778 -0.012216 -0.006232 0.071424 0.010088
# 6 -0.007880 -0.007381 0.001412 -0.006685 0.010088 0.033360
#
#
# Mechanical properties :
#
#
# Convention : Reuss Voigt Hill
#
# Bulk Modulus (GPa) = 25.24139 57.19816 41.21978
# Shear Modulus (GPa) = 21.54319 33.25691 27.40005
#
# Velocity S-wave (km/s) = 2.99870 3.72579 3.38184
# Velocity P-wave (km/s) = 4.74610 6.51025 5.69688
#
# Compressibility (1/GPa) = 0.03961747
#
# Stress axis : x y z
#
# Youngs Moduli (GPa) = 63.11251 82.55386 38.41597
#
# Poissons Ratio (x) = 0.16828 0.09779
# Poissons Ratio (y) = 0.12865 0.09995
# Poissons Ratio (z) = 0.16065 0.21478
#
# Static dielectric constant tensor:
#      x y z
#    x 2.053880 -0.017930 -0.055820 
#    y -0.017930 1.928900 0.049730 
#    z -0.055820 0.049730 1.913610 
# 
# From -- ./inp_files/331544.got.cif
#   From: 2010.05.17/outbox.cif.g08.bks.cpg/sg2_166_cif.got.tgz:331544.got - 2010.06.03 11:33:40.
