data_PCOD9095102
_publ_section_title
;
Structure prediction by ZEFSAII (Michael W. Deem and Ramdas Pophale) SiO2 
 PCOD9095102
Probable space group: P -1
;
_chemical_formula_sum "Si O2"
_cell_formula_units_Z 15
_cell_length_a 13.146204
_cell_length_b 11.801854
_cell_length_c 9.279340
_cell_angle_alpha 112.678125
_cell_angle_beta 42.463421
_cell_angle_gamma 134.796454
_cell_volume 662.091087
_symmetry_space_group_name_H-M "P -1"
_symmetry_group_IT_number 2
_symmetry_cell_setting 'triclinic'
loop_
_space_group_symop_operation_xyz
x,y,z
-x,-y,-z
loop_
_atom_site_type_symbol
_atom_site_label
_atom_site_fract_x
_atom_site_fract_y
_atom_site_fract_z
Si Si1 0.681949 0.439212 0.174879
Si Si2 0.254354 0.550413 0.421051
Si Si3 0.773273 0.033488 0.229279
Si Si4 0.254033 0.335173 0.544615
Si Si5 0.699441 0.789503 0.973759
Si Si6 0.325072 0.770383 0.694158
Si Si7 0.000000 0.000000 0.500000
Si Si8 0.882573 0.641803 0.791249
O O1 0.443996 0.347212 0.374639
O O2 0.779687 0.604780 0.245868
O O3 0.715568 0.330837 0.170856
O O4 0.780287 0.499033 0.946020
O O5 0.302264 0.465335 0.439030
O O6 0.212110 0.641136 0.614794
O O7 0.083915 0.412995 0.419151
O O8 0.461715 0.693995 0.187224
O O9 0.729378 0.117416 0.200488
O O10 0.932468 0.178942 0.246285
O O11 0.564908 0.893190 0.465992
O O12 0.814818 0.933891 0.046304
O O13 0.061955 0.151720 0.608535
O O14 0.721269 0.659216 0.928014
O O15 0.804759 0.862803 0.745921
#
# Coordination Sequence:
#
# PCOD9095102 Si02
#       8
#     2   2   2   2   2   2   1   2
#     4  10  21  35  61  84 114 153 200 232 290 342
#     4  10  20  40  61  85 124 152 190 232 306 344
#     4  10  23  40  61  84 120 154 204 232 290 340
#     4  10  20  35  54  89 118 150 187 242 286 352
#     4  11  22  37  59  89 122 155 184 247 293 353
#     4   9  22  43  62  81 115 166 194 238 279 354
#     4  12  22  32  56  88 126 146 184 238 306 336
#     4  12  21  35  60  94 114 149 193 250 292 345
#
# _framework density 22.655493
#
# number of rings (size 3 to 8) (size 9 to 14) (size 15 to 20)
#    0.000    1.600    2.667    2.400    3.733    1.067 
#    0.000    0.000    2.933    3.200    0.000    0.000 
#    0.000    0.000    0.000    0.000    0.000    0.000 
#
# Total GULP energy -83610.958395 kJ/mol
# GULP energy per Si atom -5574.063893 kJ/mol
# Density = 2.260393 g / cm^3
# Si number density = 22.655493 Si / 1000 Ang^3
#
#
#
# Elastic Constant Matrix: (Units=GPa)
#
#
# Indices 1 2 3 4 5 6 
#
# 1 41.1868 23.5097 21.8149 4.5874 17.0505 -8.1670
# 2 23.5097 101.4417 2.1550 3.7939 17.9088 -2.8634
# 3 21.8149 2.1550 56.7195 -10.7756 19.4483 -5.6128
# 4 4.5874 3.7939 -10.7756 26.3308 5.4966 4.3845
# 5 17.0505 17.9088 19.4483 5.4966 23.9779 9.1821
# 6 -8.1670 -2.8634 -5.6128 4.3845 9.1821 33.7958
#
#
#
# Elastic Compliance Matrix: (Units=1/GPa)
#
#
# Indices 1 2 3 4 5 6 
#
# 1 0.048160 -0.004891 -0.007672 -0.007762 -0.029897 0.019079
# 2 -0.004891 0.013808 0.008780 0.005143 -0.017225 0.005459
# 3 -0.007672 0.008780 0.042856 0.024929 -0.047590 0.015703
# 4 -0.007762 0.005143 0.024929 0.054900 -0.032851 0.004503
# 5 -0.029897 -0.017225 -0.047590 -0.032851 0.141391 -0.050741
# 6 0.019079 0.005459 0.015703 0.004503 -0.050741 0.050472
#
#
# Mechanical properties :
#
#
# Convention : Reuss Voigt Hill
#
# Bulk Modulus (GPa) = 10.28210 32.70079 21.49144
# Shear Modulus (GPa) = 12.76905 26.94547 19.85726
#
# Velocity S-wave (km/s) = 2.37664 3.45245 2.96377
# Velocity P-wave (km/s) = 3.47556 5.50979 4.60637
#
# Compressibility (1/GPa) = 0.09725643
#
# Stress axis : x y z
#
# Youngs Moduli (GPa) = 20.76425 72.42313 23.33405
#
# Poissons Ratio (x) = 0.35425 0.17902
# Poissons Ratio (y) = 0.10157 -0.20488
# Poissons Ratio (z) = 0.15931 -0.63589
#
# Static dielectric constant tensor:
#      x y z
#    x 1.878610 0.046900 -0.015850 
#    y 0.046900 1.812330 -0.001490 
#    z -0.015850 -0.001490 1.824620 
# 
# From -- ./inp_files/174792.got.cif
#   From: 2010.05.17/outbox.cif.g08.bks.cpg/sg2_88_cif.got.tgz:174792.got - 2010.06.03 11:33:40.
