data_PCOD9095948
_publ_section_title
;
Structure prediction by ZEFSAII (Michael W. Deem and Ramdas Pophale) SiO2 
 PCOD9095948
Probable space group: P -1
;
_chemical_formula_sum "Si O2"
_cell_formula_units_Z 14
_cell_length_a 8.483124
_cell_length_b 8.106293
_cell_length_c 9.756632
_cell_angle_alpha 70.165503
_cell_angle_beta 116.585063
_cell_angle_gamma 81.263783
_cell_volume 526.327056
_symmetry_space_group_name_H-M "P -1"
_symmetry_group_IT_number 2
_symmetry_cell_setting 'triclinic'
loop_
_space_group_symop_operation_xyz
x,y,z
-x,-y,-z
loop_
_atom_site_type_symbol
_atom_site_label
_atom_site_fract_x
_atom_site_fract_y
_atom_site_fract_z
Si Si1 0.746302 0.975695 0.230593
Si Si2 0.781141 0.392619 0.830781
Si Si3 0.299772 0.981332 0.406103
Si Si4 0.105688 0.347675 0.372682
Si Si5 0.725292 0.380342 0.125655
Si Si6 0.868038 0.313394 0.597849
Si Si7 0.625962 0.094109 0.839686
O O1 0.739392 0.173047 0.230149
O O2 0.576511 0.923832 0.238532
O O3 0.709494 0.014508 0.042289
O O4 0.944888 0.809307 0.373635
O O5 0.787110 0.592029 0.732653
O O6 0.911747 0.273510 0.790782
O O7 0.612204 0.311588 0.768750
O O8 0.812573 0.370521 0.009764
O O9 0.288555 0.773799 0.478447
O O10 0.259231 0.013452 0.217972
O O11 0.500000 0.000000 0.500000
O O12 0.159417 0.130448 0.412234
O O13 0.173137 0.465809 0.479215
O O14 0.875200 0.439135 0.254471
O O15 0.500000 0.500000 0.000000
#
# Coordination Sequence:
#
# PCOD9095948 Si02
#       7
#     2   2   2   2   2   2   2
#     4  10  20  35  61  86 130 156 177 249 305 357
#     4   8  20  33  54  85 119 155 187 242 299 347
#     4  11  23  42  63  83 115 161 209 246 280 345
#     4  10  22  37  59  84 120 154 199 246 288 348
#     4  11  22  32  53  92 127 155 192 231 305 364
#     4   9  21  38  57  88 114 154 198 239 302 345
#     4   9  21  36  56  92 119 154 196 235 302 354
#
# _framework density 26.599430000000002
#
# number of rings (size 3 to 8) (size 9 to 14) (size 15 to 20)
#    0.857    1.429    1.429    0.429   10.000    2.286 
#    0.000    0.714    0.000    0.857    0.000    0.000 
#    0.000    0.000    0.000    0.000    0.000    0.000 
#
# Total GULP energy -78071.844084 kJ/mol
# GULP energy per Si atom -5576.560292 kJ/mol
# Density = 2.653889 g / cm^3
# Si number density = 26.599430 Si / 1000 Ang^3
#
#
#
# Elastic Constant Matrix: (Units=GPa)
#
#
# Indices 1 2 3 4 5 6 
#
# 1 96.0067 72.1783 31.1738 3.0241 7.7419 5.7173
# 2 72.1783 166.9488 57.8064 16.8961 5.6684 26.5273
# 3 31.1738 57.8064 78.0654 13.2636 9.8284 -5.6115
# 4 3.0241 16.8961 13.2636 43.4622 -7.7241 -6.9620
# 5 7.7419 5.6684 9.8284 -7.7241 52.5772 19.1057
# 6 5.7173 26.5273 -5.6115 -6.9620 19.1057 67.5907
#
#
#
# Elastic Compliance Matrix: (Units=1/GPa)
#
#
# Indices 1 2 3 4 5 6 
#
# 1 0.016000 -0.006955 -0.001199 0.001952 -0.001819 0.001992
# 2 -0.006955 0.012457 -0.006738 -0.002772 0.002678 -0.005903
# 3 -0.001199 -0.006738 0.019935 -0.003441 -0.005349 0.005558
# 4 0.001952 -0.002772 -0.003441 0.026015 0.003646 0.002286
# 5 -0.001819 0.002678 -0.005349 0.003646 0.023276 -0.007545
# 6 0.001992 -0.005903 0.005558 0.002286 -0.007545 0.019773
#
#
# Mechanical properties :
#
#
# Convention : Reuss Voigt Hill
#
# Bulk Modulus (GPa) = 53.73379 73.70420 63.71900
# Shear Modulus (GPa) = 32.58549 44.71683 38.65116
#
# Velocity S-wave (km/s) = 3.50386 4.10459 3.81607
# Velocity P-wave (km/s) = 6.05098 7.08750 6.58965
#
# Compressibility (1/GPa) = 0.01861026
#
# Stress axis : x y z
#
# Youngs Moduli (GPa) = 62.49827 80.27565 50.16220
#
# Poissons Ratio (x) = 0.55829 0.06015
# Poissons Ratio (y) = 0.43466 0.33797
# Poissons Ratio (z) = 0.07494 0.54086
#
# Static dielectric constant tensor:
#      x y z
#    x 2.159100 0.015160 -0.148670 
#    y 0.015160 2.035060 -0.028100 
#    z -0.148670 -0.028100 2.222660 
# 
# From -- ./inp_files/170529.got.cif
#   From: 2010.05.17/outbox.cif.g08.bks.cpg/sg2_86_cif.got.tgz:170529.got - 2010.06.03 11:33:40.
