data_PCOD9095787
_publ_section_title
;
Structure prediction by ZEFSAII (Michael W. Deem and Ramdas Pophale) SiO2 
 PCOD9095787
Probable space group: P -1
;
_chemical_formula_sum "Si O2"
_cell_formula_units_Z 16
_cell_length_a 12.033574
_cell_length_b 15.410830
_cell_length_c 15.340330
_cell_angle_alpha 26.650895
_cell_angle_beta 139.305831
_cell_angle_gamma 145.172902
_cell_volume 725.407081
_symmetry_space_group_name_H-M "P -1"
_symmetry_group_IT_number 2
_symmetry_cell_setting 'triclinic'
loop_
_space_group_symop_operation_xyz
x,y,z
-x,-y,-z
loop_
_atom_site_type_symbol
_atom_site_label
_atom_site_fract_x
_atom_site_fract_y
_atom_site_fract_z
Si Si1 0.036103 0.745543 0.522209
Si Si2 0.174452 0.236606 0.791800
Si Si3 0.611392 0.372334 0.905537
Si Si4 0.352094 0.594080 0.306686
Si Si5 0.480796 0.873287 0.292118
Si Si6 0.321136 0.221633 0.348940
Si Si7 0.651170 0.223329 0.436562
Si Si8 0.129230 0.794780 0.250043
O O1 0.176845 0.659781 0.638394
O O2 0.935489 0.794058 0.336304
O O3 0.863478 0.570847 0.636762
O O4 0.163962 0.979995 0.437123
O O5 0.401401 0.361248 0.796169
O O6 0.088680 0.343514 0.715480
O O7 0.132119 0.001050 0.017514
O O8 0.665210 0.384957 0.825248
O O9 0.743324 0.590927 0.845072
O O10 0.567863 0.133842 0.127981
O O11 0.500000 0.500000 0.500000
O O12 0.454206 0.818758 0.223308
O O13 0.615238 0.810979 0.486545
O O14 0.256535 0.727948 0.324310
O O15 0.508347 0.305016 0.320189
O O16 0.740987 0.147211 0.637612
O O17 0.500000 0.000000 0.500000
#
# Coordination Sequence:
#
# PCOD9095787 Si02
#       8
#     2   2   2   2   2   2   2   2
#     4  10  20  35  60  84 115 153 190 233 284 341
#     4   9  16  32  54  85 113 144 188 232 281 335
#     4  11  22  38  60  84 114 154 191 236 288 335
#     4  12  22  39  58  83 112 152 198 236 282 334
#     4  10  21  39  59  82 116 149 190 242 285 338
#     4  10  20  38  61  86 116 149 188 233 290 349
#     4   8  16  32  56  86 115 152 185 225 291 346
#     4   8  16  29  55  83 112 143 185 238 280 331
#
# _framework density 22.056581999999999
#
# number of rings (size 3 to 8) (size 9 to 14) (size 15 to 20)
#    0.000    2.250    2.500    0.375    0.000    1.500 
#    0.000    6.875    0.000   67.500    0.000    0.000 
#    0.000    0.000    0.000    0.000    0.000    0.000 
#
# Total GULP energy -89176.789594 kJ/mol
# GULP energy per Si atom -5573.549350 kJ/mol
# Density = 2.200638 g / cm^3
# Si number density = 22.056582 Si / 1000 Ang^3
#
#
#
# Elastic Constant Matrix: (Units=GPa)
#
#
# Indices 1 2 3 4 5 6 
#
# 1 95.0434 18.2864 15.5669 -13.4155 -23.1243 -9.9522
# 2 18.2864 65.2275 20.9358 -24.7562 -2.8488 -13.5463
# 3 15.5669 20.9358 69.5600 -18.8767 -6.0002 -3.6981
# 4 -13.4155 -24.7562 -18.8767 21.4907 -3.3218 6.1003
# 5 -23.1243 -2.8488 -6.0002 -3.3218 30.5601 -7.0944
# 6 -9.9522 -13.5463 -3.6981 6.1003 -7.0944 36.0531
#
#
#
# Elastic Compliance Matrix: (Units=1/GPa)
#
#
# Indices 1 2 3 4 5 6 
#
# 1 0.016550 0.002829 0.001393 0.015521 0.016219 0.006340
# 2 0.002829 0.030616 0.001932 0.038150 0.011443 0.008279
# 3 0.001393 0.001932 0.020081 0.021640 0.007770 0.001038
# 4 0.015521 0.038150 0.021640 0.122549 0.034469 0.006885
# 5 0.016219 0.011443 0.007770 0.034469 0.054701 0.014505
# 6 0.006340 0.008279 0.001038 0.006885 0.014505 0.034393
#
#
# Mechanical properties :
#
#
# Convention : Reuss Voigt Hill
#
# Bulk Modulus (GPa) = 12.56991 37.71210 25.14100
# Shear Modulus (GPa) = 17.05898 29.29021 23.17460
#
# Velocity S-wave (km/s) = 2.78406 3.64807 3.24495
# Velocity P-wave (km/s) = 4.00574 5.90589 5.04606
#
# Compressibility (1/GPa) = 0.07955508
#
# Stress axis : x y z
#
# Youngs Moduli (GPa) = 60.42356 32.66242 49.79894
#
# Poissons Ratio (x) = -0.09240 -0.06936
# Poissons Ratio (y) = -0.17093 -0.09623
# Poissons Ratio (z) = -0.08416 -0.06312
#
# Static dielectric constant tensor:
#      x y z
#    x 1.894340 -0.009350 0.023650 
#    y -0.009350 1.847190 -0.052950 
#    z 0.023650 -0.052950 1.800370 
# 
# From -- ./inp_files/455975.got.cif
#   From: 2010.05.17/outbox.cif.g08.bks.cpg/sg2_228_cif.got.tgz:455975.got - 2010.06.03 11:33:40.
