data_PCOD9095108
_publ_section_title
;
Structure prediction by ZEFSAII (Michael W. Deem and Ramdas Pophale) SiO2 
 PCOD9095108
Probable space group: P -1
;
_chemical_formula_sum "Si O2"
_cell_formula_units_Z 14
_cell_length_a 21.066866
_cell_length_b 6.615878
_cell_length_c 7.766778
_cell_angle_alpha 41.755752
_cell_angle_beta 53.989978
_cell_angle_gamma 55.046534
_cell_volume 564.726167
_symmetry_space_group_name_H-M "P -1"
_symmetry_group_IT_number 2
_symmetry_cell_setting 'triclinic'
loop_
_space_group_symop_operation_xyz
x,y,z
-x,-y,-z
loop_
_atom_site_type_symbol
_atom_site_label
_atom_site_fract_x
_atom_site_fract_y
_atom_site_fract_z
Si Si1 0.499728 0.863212 0.276035
Si Si2 0.090052 0.723784 0.726146
Si Si3 0.750337 0.410102 0.850499
Si Si4 0.748521 0.105891 0.661905
Si Si5 0.675194 0.974662 0.417614
Si Si6 0.085701 0.005969 0.174522
Si Si7 0.674263 0.683287 0.242409
O O1 0.500000 0.500000 0.500000
O O2 0.583155 0.874035 0.227510
O O3 0.416146 0.035220 0.390515
O O4 0.500000 0.000000 0.000000
O O5 0.166175 0.856775 0.572045
O O6 0.002972 0.903204 0.827547
O O7 0.080887 0.810993 0.481302
O O8 0.102471 0.349309 0.967958
O O9 0.743353 0.261473 0.764277
O O10 0.734329 0.772219 0.594118
O O11 0.838104 0.218442 0.899476
O O12 0.683594 0.319939 0.137295
O O13 0.680649 0.322848 0.509830
O O14 0.732899 0.773127 0.948656
O O15 0.699922 0.802291 0.307134
#
# Coordination Sequence:
#
# PCOD9095108 Si02
#       7
#     2   2   2   2   2   2   2
#     4  12  25  40  55  76 104 130 166 216 267 310
#     4   9  15  23  38  65 103 139 164 195 246 297
#     4   9  16  28  47  72 100 133 170 204 242 295
#     4   9  16  28  47  72 100 133 170 204 242 295
#     4  10  20  35  55  75 100 134 172 209 250 303
#     4   9  15  23  38  65 103 139 164 195 246 297
#     4  10  20  35  55  75 100 134 172 209 250 303
#
# _framework density 24.790776000000001
#
# number of rings (size 3 to 8) (size 9 to 14) (size 15 to 20)
#    0.000    2.286    0.000    6.429    0.000    0.000 
#    0.000    5.714    0.000    0.000    0.000    0.000 
#    0.000   22.857    0.000    0.000    0.000    0.000 
#
# Total GULP energy -78192.322295 kJ/mol
# GULP energy per Si atom -5585.165878 kJ/mol
# Density = 2.473435 g / cm^3
# Si number density = 24.790776 Si / 1000 Ang^3
#
#
#
# Elastic Constant Matrix: (Units=GPa)
#
#
# Indices 1 2 3 4 5 6 
#
# 1 67.3118 24.0815 44.8859 10.2054 -1.4480 -33.6180
# 2 24.0815 66.9866 47.2163 -10.7624 5.1848 -30.5512
# 3 44.8859 47.2163 188.0264 -12.9516 3.0615 -14.8651
# 4 10.2054 -10.7624 -12.9516 47.0895 -0.0660 -11.7412
# 5 -1.4480 5.1848 3.0615 -0.0660 37.4950 1.2522
# 6 -33.6180 -30.5512 -14.8651 -11.7412 1.2522 57.3415
#
#
#
# Elastic Compliance Matrix: (Units=1/GPa)
#
#
# Indices 1 2 3 4 5 6 
#
# 1 0.025339 -0.000468 -0.005238 -0.003941 0.001049 0.012419
# 2 -0.000468 0.026816 -0.004818 0.008539 -0.003805 0.014596
# 3 -0.005238 -0.004818 0.007598 0.001274 -0.000040 -0.003407
# 4 -0.003941 0.008539 0.001274 0.026387 -0.001658 0.008008
# 5 0.001049 -0.003805 -0.000040 -0.001658 0.027316 -0.002359
# 6 0.012419 0.014596 -0.003407 0.008008 -0.002359 0.033305
#
#
# Mechanical properties :
#
#
# Convention : Reuss Voigt Hill
#
# Bulk Modulus (GPa) = 25.83667 61.63244 43.73456
# Shear Modulus (GPa) = 27.66861 42.12794 34.89828
#
# Velocity S-wave (km/s) = 3.34441 4.12678 3.75602
# Velocity P-wave (km/s) = 5.03567 6.90087 6.04070
#
# Compressibility (1/GPa) = 0.03870468
#
# Stress axis : x y z
#
# Youngs Moduli (GPa) = 39.46472 37.29144 131.61479
#
# Poissons Ratio (x) = 0.01744 0.68944
# Poissons Ratio (y) = 0.01845 0.63415
# Poissons Ratio (z) = 0.20673 0.17968
#
# Static dielectric constant tensor:
#      x y z
#    x 2.040410 0.039450 -0.034730 
#    y 0.039450 2.060830 -0.000140 
#    z -0.034730 -0.000140 1.926090 
# 
# From -- ./inp_files/225268.got.cif
#   From: 2010.05.17/outbox.cif.g08.bks.cpg/sg2_113_cif.got.tgz:225268.got - 2010.06.03 11:33:40.
