data_PCOD9095988
_publ_section_title
;
Structure prediction by ZEFSAII (Michael W. Deem and Ramdas Pophale) SiO2 
 PCOD9095988
Probable space group: P -1
;
_chemical_formula_sum "Si O2"
_cell_formula_units_Z 16
_cell_length_a 14.037837
_cell_length_b 16.937755
_cell_length_c 8.637040
_cell_angle_alpha 112.648724
_cell_angle_beta 97.482662
_cell_angle_gamma 25.789040
_cell_volume 694.405684
_symmetry_space_group_name_H-M "P -1"
_symmetry_group_IT_number 2
_symmetry_cell_setting 'triclinic'
loop_
_space_group_symop_operation_xyz
x,y,z
-x,-y,-z
loop_
_atom_site_type_symbol
_atom_site_label
_atom_site_fract_x
_atom_site_fract_y
_atom_site_fract_z
Si Si1 0.108307 0.155110 0.609357
Si Si2 0.462096 0.977741 0.819216
Si Si3 0.864303 0.181155 0.498661
Si Si4 0.910118 0.458783 0.967456
Si Si5 0.918156 0.344900 0.399939
Si Si6 0.412470 0.868963 0.961494
Si Si7 0.280794 0.329743 0.583384
Si Si8 0.445687 0.649459 0.689138
O O1 0.014792 0.291409 0.550503
O O2 0.051307 0.107896 0.499598
O O3 0.411780 0.911212 0.510424
O O4 0.936671 0.332445 0.850930
O O5 0.410015 0.927033 0.847619
O O6 0.709085 0.761561 0.595364
O O7 0.500000 0.000000 0.000000
O O8 0.223418 0.214045 0.846720
O O9 0.586888 0.459940 0.679734
O O10 0.800357 0.186288 0.327563
O O11 0.000000 0.000000 0.500000
O O12 0.843359 0.559283 0.190970
O O13 0.674642 0.675590 0.966071
O O14 0.830669 0.497940 0.401009
O O15 0.668516 0.490679 0.488555
O O16 0.159557 0.102362 0.182346
O O17 0.400413 0.777580 0.857049
#
# Coordination Sequence:
#
# PCOD9095988 Si02
#       8
#     2   2   2   2   2   2   2   2
#     4  10  21  38  61  90 124 163 212 255 304 363
#     4  11  26  44  66  96 125 158 203 261 319 374
#     4  10  20  35  61  90 127 167 208 263 307 351
#     4  11  22  40  66  93 120 163 210 249 311 378
#     4  11  20  37  63  91 119 169 210 247 305 367
#     4  12  22  41  67  90 126 169 209 254 311 377
#     4  11  21  38  66  92 120 161 209 254 309 373
#     4  10  22  39  58  90 128 168 211 257 308 360
#
# _framework density 23.041288000000002
#
# number of rings (size 3 to 8) (size 9 to 14) (size 15 to 20)
#    0.000    1.250    6.250    0.750    1.750    1.000 
#    0.000    7.500    0.000    9.000    0.000    0.000 
#    0.000    0.000    0.000    0.000    0.000    0.000 
#
# Total GULP energy -89130.357045 kJ/mol
# GULP energy per Si atom -5570.647315 kJ/mol
# Density = 2.298884 g / cm^3
# Si number density = 23.041288 Si / 1000 Ang^3
#
#
#
# Elastic Constant Matrix: (Units=GPa)
#
#
# Indices 1 2 3 4 5 6 
#
# 1 46.3364 22.5622 28.3412 5.9806 19.2724 3.9031
# 2 22.5622 121.1642 26.3915 12.0406 6.2146 11.9342
# 3 28.3412 26.3915 162.2698 29.5760 16.3106 4.5641
# 4 5.9806 12.0406 29.5760 33.2188 -7.1661 -2.3995
# 5 19.2724 6.2146 16.3106 -7.1661 31.8112 -2.7690
# 6 3.9031 11.9342 4.5641 -2.3995 -2.7690 33.7842
#
#
#
# Elastic Compliance Matrix: (Units=1/GPa)
#
#
# Indices 1 2 3 4 5 6 
#
# 1 0.035090 -0.003702 -0.001578 -0.008701 -0.022118 -0.004964
# 2 -0.003702 0.009624 -0.000252 -0.002923 -0.000443 -0.003182
# 3 -0.001578 -0.000252 0.008681 -0.008700 -0.005578 -0.001977
# 4 -0.008701 -0.002923 -0.008700 0.045663 0.021303 0.008202
# 5 -0.022118 -0.000443 -0.005578 0.021303 0.053395 0.009355
# 6 -0.004964 -0.003182 -0.001977 0.008202 0.009355 0.032913
#
#
# Mechanical properties :
#
#
# Convention : Reuss Voigt Hill
#
# Bulk Modulus (GPa) = 23.62331 53.81779 38.72055
# Shear Modulus (GPa) = 23.74828 36.59454 30.17141
#
# Velocity S-wave (km/s) = 3.21391 3.98957 3.62256
# Velocity P-wave (km/s) = 4.90379 6.68057 5.85991
#
# Compressibility (1/GPa) = 0.04233108
#
# Stress axis : x y z
#
# Youngs Moduli (GPa) = 28.49825 103.90488 115.19431
#
# Poissons Ratio (x) = 0.38471 0.18175
# Poissons Ratio (y) = 0.10551 0.02900
# Poissons Ratio (z) = 0.04496 0.02616
#
# Static dielectric constant tensor:
#      x y z
#    x 1.932430 -0.003880 0.044400 
#    y -0.003880 1.891340 -0.041540 
#    z 0.044400 -0.041540 1.957760 
# 
# From -- ./inp_files/337843.got.cif
#   From: 2010.05.17/outbox.cif.g08.bks.cpg/sg2_169_cif.got.tgz:337843.got - 2010.06.03 11:33:40.
