data_PCOD9095482
_publ_section_title
;
Structure prediction by ZEFSAII (Michael W. Deem and Ramdas Pophale) SiO2 
 PCOD9095482
Probable space group: P -1
;
_chemical_formula_sum "Si O2"
_cell_formula_units_Z 16
_cell_length_a 17.286357
_cell_length_b 20.259495
_cell_length_c 8.837956
_cell_angle_alpha 124.336656
_cell_angle_beta 114.239525
_cell_angle_gamma 19.396977
_cell_volume 760.975573
_symmetry_space_group_name_H-M "P -1"
_symmetry_group_IT_number 2
_symmetry_cell_setting 'triclinic'
loop_
_space_group_symop_operation_xyz
x,y,z
-x,-y,-z
loop_
_atom_site_type_symbol
_atom_site_label
_atom_site_fract_x
_atom_site_fract_y
_atom_site_fract_z
Si Si1 0.937592 0.371481 0.404115
Si Si2 0.745319 0.956405 0.051357
Si Si3 0.167374 0.012816 0.276165
Si Si4 0.799555 0.725243 0.337390
Si Si5 0.613325 0.473034 0.465919
Si Si6 0.922241 0.682651 0.049910
Si Si7 0.356835 0.825375 0.526117
Si Si8 0.384773 0.380762 0.112744
O O1 0.632751 0.626236 0.493122
O O2 0.034773 0.264819 0.176458
O O3 0.084289 0.177658 0.381533
O O4 0.025983 0.378325 0.542073
O O5 0.700674 0.919630 0.074323
O O6 0.808655 0.979204 0.229599
O O7 0.506113 0.198474 0.069461
O O8 0.899917 0.202801 0.278684
O O9 0.244618 0.930684 0.405273
O O10 0.408767 0.780393 0.059632
O O11 0.826965 0.736671 0.204972
O O12 0.500000 0.000000 0.500000
O O13 0.913909 0.534152 0.175542
O O14 0.500000 0.500000 0.500000
O O15 0.423462 0.677785 0.449752
O O16 0.645648 0.517168 0.668769
O O17 0.118591 0.582024 0.099212
#
# Coordination Sequence:
#
# PCOD9095482 Si02
#       8
#     2   2   2   2   2   2   2   2
#     4  10  21  37  56  83 113 148 196 240 280 334
#     4  10  20  35  58  82 107 146 191 232 282 334
#     4  10  20  37  62  85 113 154 191 231 285 341
#     4  11  23  39  57  82 120 155 190 242 292 331
#     4  10  22  38  58  89 122 148 184 234 285 345
#     4  11  23  39  59  83 112 152 197 237 283 341
#     4  10  20  37  61  84 113 154 194 231 282 340
#     4  10  21  40  61  83 114 149 191 238 284 339
#
# _framework density 21.025642000000001
#
# number of rings (size 3 to 8) (size 9 to 14) (size 15 to 20)
#    0.000    1.750    0.000    6.000    0.000    3.500 
#    0.000   10.625    0.000    0.000    0.000    0.000 
#    0.000    0.000    0.000    0.000    0.000    0.000 
#
# Total GULP energy -89392.930299 kJ/mol
# GULP energy per Si atom -5587.058144 kJ/mol
# Density = 2.097779 g / cm^3
# Si number density = 21.025642 Si / 1000 Ang^3
#
#
#
# Elastic Constant Matrix: (Units=GPa)
#
#
# Indices 1 2 3 4 5 6 
#
# 1 82.3741 41.3820 20.1944 8.2633 -1.7187 13.2901
# 2 41.3820 63.5170 15.2091 3.4180 -6.7006 29.3831
# 3 20.1944 15.2091 82.5563 4.4915 -18.9322 5.9270
# 4 8.2633 3.4180 4.4915 23.6084 2.6856 -12.5047
# 5 -1.7187 -6.7006 -18.9322 2.6856 21.9506 -4.8112
# 6 13.2901 29.3831 5.9270 -12.5047 -4.8112 33.2581
#
#
#
# Elastic Compliance Matrix: (Units=1/GPa)
#
#
# Indices 1 2 3 4 5 6 
#
# 1 0.019506 -0.014281 -0.003458 -0.001306 -0.004720 0.004265
# 2 -0.014281 0.048978 0.001235 -0.028267 0.007999 -0.047255
# 3 -0.003458 0.001235 0.016486 -0.005047 0.014403 -0.002461
# 4 -0.001306 -0.028267 -0.005047 0.077726 -0.010743 0.054065
# 5 -0.004720 0.007999 0.014403 -0.010743 0.060707 -0.003005
# 6 0.004265 -0.047255 -0.002461 0.054065 -0.003005 0.090445
#
#
# Mechanical properties :
#
#
# Convention : Reuss Voigt Hill
#
# Bulk Modulus (GPa) = 19.24506 42.44651 30.84579
# Shear Modulus (GPa) = 13.72963 25.87421 19.80192
#
# Velocity S-wave (km/s) = 2.55815 3.51180 3.07220
# Velocity P-wave (km/s) = 4.23066 6.05603 5.22369
#
# Compressibility (1/GPa) = 0.05196139
#
# Stress axis : x y z
#
# Youngs Moduli (GPa) = 51.26544 20.41752 60.65931
#
# Poissons Ratio (x) = 0.29158 0.20977
# Poissons Ratio (y) = 0.73212 -0.07492
# Poissons Ratio (z) = 0.17728 -0.02522
#
# Static dielectric constant tensor:
#      x y z
#    x 1.748000 0.008990 -0.023420 
#    y 0.008990 1.781820 0.015360 
#    z -0.023420 0.015360 1.771850 
# 
# From -- ./inp_files/337848.got.cif
#   From: 2010.05.17/outbox.cif.g08.bks.cpg/sg2_169_cif.got.tgz:337848.got - 2010.06.03 11:33:40.
