data_PCOD9095738
_publ_section_title
;
Structure prediction by ZEFSAII (Michael W. Deem and Ramdas Pophale) SiO2 
 PCOD9095738
Probable space group: P -1
;
_chemical_formula_sum "Si O2"
_cell_formula_units_Z 16
_cell_length_a 10.120413
_cell_length_b 16.217778
_cell_length_c 9.799798
_cell_angle_alpha 126.862418
_cell_angle_beta 85.524184
_cell_angle_gamma 137.443744
_cell_volume 644.191602
_symmetry_space_group_name_H-M "P -1"
_symmetry_group_IT_number 2
_symmetry_cell_setting 'triclinic'
loop_
_space_group_symop_operation_xyz
x,y,z
-x,-y,-z
loop_
_atom_site_type_symbol
_atom_site_label
_atom_site_fract_x
_atom_site_fract_y
_atom_site_fract_z
Si Si1 0.166812 0.886326 0.217364
Si Si2 0.206417 0.402368 0.343811
Si Si3 0.817974 0.678088 0.298664
Si Si4 0.704890 0.276131 0.687814
Si Si5 0.217630 0.965379 0.800451
Si Si6 0.430214 0.265549 0.578631
Si Si7 0.388801 0.306476 0.145180
Si Si8 0.194322 0.691653 0.973662
O O1 0.121432 0.758211 0.997830
O O2 0.941288 0.738372 0.202295
O O3 0.456822 0.052367 0.420959
O O4 0.217059 0.037422 0.320197
O O5 0.358768 0.579918 0.404459
O O6 0.235174 0.310448 0.176255
O O7 0.405312 0.547754 0.601584
O O8 0.924259 0.200755 0.240512
O O9 0.701542 0.715856 0.353073
O O10 0.580412 0.444910 0.135469
O O11 0.061426 0.838297 0.545737
O O12 0.580866 0.308332 0.731899
O O13 0.783200 0.292683 0.846894
O O14 0.954429 0.449793 0.738639
O O15 0.528136 0.153403 0.954107
O O16 0.211322 0.085003 0.943826
#
# Coordination Sequence:
#
# PCOD9095738 Si02
#       8
#     2   2   2   2   2   2   2   2
#     4  10  21  37  60  81 116 154 178 232 286 328
#     4   9  19  39  56  82 115 147 190 226 283 336
#     4  10  20  35  59  91 114 142 189 228 289 341
#     4   9  22  37  58  78 119 145 189 233 277 325
#     4  11  21  35  62  86 111 149 191 235 275 324
#     4   9  20  40  56  82 120 146 181 237 282 336
#     4   9  20  35  59  86 113 146 184 239 278 326
#     4  11  22  38  58  86 109 150 199 226 271 342
#
# _framework density 24.837332
#
# number of rings (size 3 to 8) (size 9 to 14) (size 15 to 20)
#    0.750    1.500    1.250    1.875    3.500    1.000 
#    6.750    1.875    0.000    0.000    0.000    0.000 
#    0.000    0.000    0.000    0.000    0.000    0.000 
#
# Total GULP energy -89325.036409 kJ/mol
# GULP energy per Si atom -5582.814776 kJ/mol
# Density = 2.478080 g / cm^3
# Si number density = 24.837332 Si / 1000 Ang^3
#
#
#
# Elastic Constant Matrix: (Units=GPa)
#
#
# Indices 1 2 3 4 5 6 
#
# 1 66.8664 35.8823 -5.1109 5.7739 -3.8269 0.1937
# 2 35.8823 104.1412 27.0528 30.0220 -8.9890 -0.4930
# 3 -5.1109 27.0528 63.1243 18.3572 -3.4159 -5.3930
# 4 5.7739 30.0220 18.3572 22.0195 4.3668 1.9583
# 5 -3.8269 -8.9890 -3.4159 4.3668 30.2330 17.6068
# 6 0.1937 -0.4930 -5.3930 1.9583 17.6068 31.2835
#
#
#
# Elastic Compliance Matrix: (Units=1/GPa)
#
#
# Indices 1 2 3 4 5 6 
#
# 1 0.019814 -0.009010 0.004506 0.003377 -0.000483 0.000573
# 2 -0.009010 0.022582 -0.001727 -0.029020 0.012564 -0.005140
# 3 0.004506 -0.001727 0.022899 -0.018902 0.003598 0.003051
# 4 0.003377 -0.029020 -0.018902 0.105074 -0.029018 0.006017
# 5 -0.000483 0.012564 0.003598 -0.029018 0.059224 -0.030694
# 6 0.000573 -0.005140 0.003051 0.006017 -0.030694 0.049306
#
#
# Mechanical properties :
#
#
# Convention : Reuss Voigt Hill
#
# Bulk Modulus (GPa) = 18.92761 38.86448 28.89605
# Shear Modulus (GPa) = 16.18276 28.46104 22.32190
#
# Velocity S-wave (km/s) = 2.55532 3.38878 3.00112
# Velocity P-wave (km/s) = 4.04269 5.56717 4.86502
#
# Compressibility (1/GPa) = 0.05283287
#
# Stress axis : x y z
#
# Youngs Moduli (GPa) = 50.47000 44.28389 43.66991
#
# Poissons Ratio (x) = 0.39900 -0.19679
# Poissons Ratio (y) = 0.45474 0.07542
# Poissons Ratio (z) = -0.22743 0.07648
#
# Static dielectric constant tensor:
#      x y z
#    x 2.046970 -0.054660 0.050190 
#    y -0.054660 1.944920 -0.009650 
#    z 0.050190 -0.009650 1.990280 
# 
# From -- ./inp_files/436887.got.cif
#   From: 2010.05.17/outbox.cif.g08.bks.cpg/sg2_219_cif.got.tgz:436887.got - 2010.06.03 11:33:40.
