data_PCOD9095583
_publ_section_title
;
Structure prediction by ZEFSAII (Michael W. Deem and Ramdas Pophale) SiO2 
 PCOD9095583
Probable space group: P -1
;
_chemical_formula_sum "Si O2"
_cell_formula_units_Z 16
_cell_length_a 10.279242
_cell_length_b 12.633684
_cell_length_c 11.529588
_cell_angle_alpha 39.607106
_cell_angle_beta 55.797185
_cell_angle_gamma 82.441793
_cell_volume 647.609781
_symmetry_space_group_name_H-M "P -1"
_symmetry_group_IT_number 2
_symmetry_cell_setting 'triclinic'
loop_
_space_group_symop_operation_xyz
x,y,z
-x,-y,-z
loop_
_atom_site_type_symbol
_atom_site_label
_atom_site_fract_x
_atom_site_fract_y
_atom_site_fract_z
Si Si1 0.493218 0.275879 0.574128
Si Si2 0.773651 0.887948 0.724749
Si Si3 0.251225 0.529461 0.071416
Si Si4 0.297413 0.492061 0.488139
Si Si5 0.848814 0.599307 0.010374
Si Si6 0.102812 0.789454 0.944414
Si Si7 0.538785 0.087223 0.036286
Si Si8 0.316909 0.239229 0.386541
O O1 0.365523 0.352061 0.529592
O O2 0.569469 0.376407 0.578816
O O3 0.692513 0.375113 0.322053
O O4 0.389627 0.035702 0.832282
O O5 0.692578 0.817311 0.697066
O O6 0.737729 0.709377 0.977478
O O7 0.666467 0.977647 0.756957
O O8 0.000000 0.000000 0.500000
O O9 0.233237 0.375915 0.307547
O O10 0.234130 0.707715 0.969272
O O11 0.103999 0.406644 0.142579
O O12 0.455705 0.623895 0.826347
O O13 0.082360 0.339238 0.772317
O O14 0.328387 0.668876 0.239442
O O15 0.021186 0.718289 0.913239
O O16 0.206041 0.029935 0.687922
O O17 0.500000 0.000000 0.000000
#
# Coordination Sequence:
#
# PCOD9095583 Si02
#       8
#     2   2   2   2   2   2   2   2
#     4   9  18  32  53  80 117 152 189 237 296 353
#     4  11  21  36  61  91 123 152 197 256 296 348
#     4  10  23  39  57  89 120 160 198 237 303 374
#     4   9  19  34  52  82 116 152 193 245 293 348
#     4  10  20  35  58  89 123 148 193 254 294 347
#     4  11  21  36  62  89 120 152 200 253 294 353
#     4  10  21  34  56  83 122 160 192 240 308 355
#     4  10  23  40  58  86 124 162 189 246 309 351
#
# _framework density 24.706235
#
# number of rings (size 3 to 8) (size 9 to 14) (size 15 to 20)
#    0.000    2.000    2.500    0.750    3.500    7.000 
#    0.000    0.000    0.000    1.500    3.250    0.000 
#    0.000    0.000    0.000    0.000    0.000    0.000 
#
# Total GULP energy -89378.726613 kJ/mol
# GULP energy per Si atom -5586.170413 kJ/mol
# Density = 2.465000 g / cm^3
# Si number density = 24.706235 Si / 1000 Ang^3
#
#
#
# Elastic Constant Matrix: (Units=GPa)
#
#
# Indices 1 2 3 4 5 6 
#
# 1 79.7808 39.2957 49.1926 -14.7076 21.3862 -14.9401
# 2 39.2957 99.0373 52.4934 -21.7307 8.4961 -25.0919
# 3 49.1926 52.4934 202.3378 -32.4455 29.1924 -41.1666
# 4 -14.7076 -21.7307 -32.4455 33.5895 -20.5215 12.4275
# 5 21.3862 8.4961 29.1924 -20.5215 37.2941 -16.6107
# 6 -14.9401 -25.0919 -41.1666 12.4275 -16.6107 46.5431
#
#
#
# Elastic Compliance Matrix: (Units=1/GPa)
#
#
# Indices 1 2 3 4 5 6 
#
# 1 0.019140 -0.006913 -0.002479 -0.004210 -0.010911 -0.002545
# 2 -0.006913 0.016378 -0.001025 0.009921 0.009340 0.006388
# 3 -0.002479 -0.001025 0.007240 0.003618 -0.000238 0.004004
# 4 -0.004210 0.009921 0.003618 0.054116 0.028382 0.002877
# 5 -0.010911 0.009340 -0.000238 0.028382 0.052269 0.012399
# 6 -0.002545 0.006388 0.004004 0.002877 0.012399 0.031311
#
#
# Mechanical properties :
#
#
# Convention : Reuss Voigt Hill
#
# Bulk Modulus (GPa) = 45.61328 73.67993 59.64660
# Shear Modulus (GPa) = 23.96992 39.49696 31.73344
#
# Velocity S-wave (km/s) = 3.11818 4.00267 3.58778
# Velocity P-wave (km/s) = 5.60949 7.15884 6.43099
#
# Compressibility (1/GPa) = 0.02192344
#
# Stress axis : x y z
#
# Youngs Moduli (GPa) = 52.24750 61.05885 138.12178
#
# Poissons Ratio (x) = 0.42211 0.34234
# Poissons Ratio (y) = 0.36120 0.14160
# Poissons Ratio (z) = 0.12950 0.06260
#
# Static dielectric constant tensor:
#      x y z
#    x 2.032340 0.030400 0.089320 
#    y 0.030400 1.951400 -0.036820 
#    z 0.089320 -0.036820 2.027810 
# 
# From -- ./inp_files/522128.got.cif
#   From: 2010.05.17/outbox.cif.g08.bks.cpg/sg2_262_cif.got.tgz:522128.got - 2010.06.03 11:33:40.
