data_PCOD9095450
_publ_section_title
;
Structure prediction by ZEFSAII (Michael W. Deem and Ramdas Pophale) SiO2 
 PCOD9095450
Probable space group: P -1
;
_chemical_formula_sum "Si O2"
_cell_formula_units_Z 12
_cell_length_a 17.376776
_cell_length_b 5.233960
_cell_length_c 9.327130
_cell_angle_alpha 123.636326
_cell_angle_beta 125.192390
_cell_angle_gamma 42.352853
_cell_volume 454.236381
_symmetry_space_group_name_H-M "P -1"
_symmetry_group_IT_number 2
_symmetry_cell_setting 'triclinic'
loop_
_space_group_symop_operation_xyz
x,y,z
-x,-y,-z
loop_
_atom_site_type_symbol
_atom_site_label
_atom_site_fract_x
_atom_site_fract_y
_atom_site_fract_z
Si Si1 0.634439 0.260808 0.978206
Si Si2 0.304913 0.928967 0.341355
Si Si3 0.513219 0.011600 0.346960
Si Si4 0.122020 0.838917 0.163192
Si Si5 0.265735 0.341793 0.890596
Si Si6 0.983694 0.169776 0.381876
O O1 0.702733 0.018610 0.824136
O O2 0.525427 0.232512 0.842530
O O3 0.635728 0.623952 0.058108
O O4 0.692970 0.074918 0.140232
O O5 0.415484 0.461323 0.333236
O O6 0.354429 0.108056 0.548057
O O7 0.179553 0.061274 0.309013
O O8 0.500000 0.000000 0.500000
O O9 0.219427 0.531283 0.058031
O O10 0.084592 0.822894 0.277194
O O11 0.000000 0.000000 0.000000
O O12 0.149018 0.616471 0.755087
O O13 0.000000 0.500000 0.500000
O O14 0.000000 0.000000 0.500000
#
# Coordination Sequence:
#
# PCOD9095450 Si02
#       6
#     2   2   2   2   2   2
#     4  10  16  30  51  82 112 143 181 229 279 333
#     4   9  17  30  48  83 120 150 176 231 294 330
#     4   9  16  27  49  78 126 142 177 228 298 333
#     4   9  19  36  59  85 116 147 191 236 278 337
#     4  10  20  34  58  83 112 146 191 233 280 330
#     4  11  24  41  56  81 116 156 192 231 285 341
#
# _framework density 26.417960999999998
#
# number of rings (size 3 to 8) (size 9 to 14) (size 15 to 20)
#    0.000    2.333    3.333    1.000    0.000    2.667 
#    0.000   10.000    0.000    0.000    0.000    7.000 
#    0.000    0.000    0.000    0.000    0.000    0.000 
#
# Total GULP energy -66851.595246 kJ/mol
# GULP energy per Si atom -5570.966271 kJ/mol
# Density = 2.635783 g / cm^3
# Si number density = 26.417961 Si / 1000 Ang^3
#
#
#
# Elastic Constant Matrix: (Units=GPa)
#
#
# Indices 1 2 3 4 5 6 
#
# 1 208.2567 62.0585 60.0819 -37.5430 10.2482 15.7617
# 2 62.0585 90.0846 37.1249 -15.8122 -22.3061 22.3465
# 3 60.0819 37.1249 133.4333 -33.8006 4.7589 25.9592
# 4 -37.5430 -15.8122 -33.8006 49.6364 11.7572 -12.2186
# 5 10.2482 -22.3061 4.7589 11.7572 60.1328 -15.2510
# 6 15.7617 22.3465 25.9592 -12.2186 -15.2510 46.0115
#
#
#
# Elastic Compliance Matrix: (Units=1/GPa)
#
#
# Indices 1 2 3 4 5 6 
#
# 1 0.007542 -0.005138 -0.000704 0.004582 -0.003979 0.000207
# 2 -0.005138 0.018134 -0.003008 -0.002819 0.007473 -0.003622
# 3 -0.000704 -0.003008 0.011178 0.006029 -0.004172 -0.004386
# 4 0.004582 -0.002819 0.006029 0.029004 -0.007571 0.001591
# 5 -0.003979 0.007473 -0.004172 -0.007571 0.023367 0.005822
# 6 0.000207 -0.003622 -0.004386 0.001591 0.005822 0.028248
#
#
# Mechanical properties :
#
#
# Convention : Reuss Voigt Hill
#
# Bulk Modulus (GPa) = 52.21028 83.36723 67.78876
# Shear Modulus (GPa) = 35.32137 49.32342 42.32240
#
# Velocity S-wave (km/s) = 3.66050 4.32561 4.00688
# Velocity P-wave (km/s) = 6.13773 7.52153 6.86459
#
# Compressibility (1/GPa) = 0.01915332
#
# Stress axis : x y z
#
# Youngs Moduli (GPa) = 132.59060 55.14644 89.46359
#
# Poissons Ratio (x) = 0.28333 0.06301
# Poissons Ratio (y) = 0.68121 0.26910
# Poissons Ratio (z) = 0.09338 0.16588
#
# Static dielectric constant tensor:
#      x y z
#    x 1.994610 -0.018170 0.013300 
#    y -0.018170 2.352430 0.143240 
#    z 0.013300 0.143240 2.099330 
# 
# From -- ./inp_files/324011.got.cif
#   From: 2010.05.17/outbox.cif.g08.bks.cpg/sg2_163_cif.got.tgz:324011.got - 2010.06.03 11:33:40.
