data_PCOD9095138
_publ_section_title
;
Structure prediction by ZEFSAII (Michael W. Deem and Ramdas Pophale) SiO2 
 PCOD9095138
Probable space group: P -1
;
_chemical_formula_sum "Si O2"
_cell_formula_units_Z 16
_cell_length_a 20.168272
_cell_length_b 5.982979
_cell_length_c 10.368920
_cell_angle_alpha 80.238261
_cell_angle_beta 43.936464
_cell_angle_gamma 104.192451
_cell_volume 721.693845
_symmetry_space_group_name_H-M "P -1"
_symmetry_group_IT_number 2
_symmetry_cell_setting 'triclinic'
loop_
_space_group_symop_operation_xyz
x,y,z
-x,-y,-z
loop_
_atom_site_type_symbol
_atom_site_label
_atom_site_fract_x
_atom_site_fract_y
_atom_site_fract_z
Si Si1 0.182016 0.335303 0.958913
Si Si2 0.174939 0.426628 0.536977
Si Si3 0.176229 0.921305 0.191823
Si Si4 0.000849 0.579524 0.688095
Si Si5 0.745056 0.217096 0.360211
Si Si6 0.113501 0.998102 0.835721
Si Si7 0.557190 0.793567 0.825743
Si Si8 0.648571 0.153140 0.919390
O O1 0.268210 0.643392 0.761382
O O2 0.175842 0.159205 0.862757
O O3 0.062610 0.311800 0.150525
O O4 0.198126 0.195544 0.073198
O O5 0.239581 0.599291 0.556848
O O6 0.159035 0.146139 0.620056
O O7 0.248391 0.552574 0.295187
O O8 0.065590 0.448763 0.674727
O O9 0.099597 0.666556 0.230037
O O10 0.295312 0.950472 0.051040
O O11 0.096884 0.820121 0.440561
O O12 0.864292 0.238324 0.175336
O O13 0.650253 0.915709 0.568222
O O14 0.000000 0.000000 0.000000
O O15 0.614585 0.978678 0.853199
O O16 0.500000 0.500000 0.000000
O O17 0.459308 0.831613 0.901829
#
# Coordination Sequence:
#
# PCOD9095138 Si02
#       8
#     2   2   2   2   2   2   2   2
#     4  11  21  34  51  76 113 148 178 216 261 317
#     4   9  18  33  53  80 111 139 175 224 266 313
#     4  10  21  36  56  80 111 146 178 217 260 318
#     4  10  20  35  55  81 111 147 184 212 257 319
#     4  10  21  34  53  81 110 142 181 222 270 319
#     4  11  20  31  51  78 111 148 179 215 263 314
#     4  10  20  38  62  82 103 134 176 231 280 318
#     4   9  20  37  57  83 106 131 178 227 271 319
#
# _framework density 22.170064
#
# number of rings (size 3 to 8) (size 9 to 14) (size 15 to 20)
#    0.000    2.000    0.000    4.125    0.000    4.000 
#    0.000    8.125    0.000    3.750    0.000    0.000 
#    0.000    0.000    0.000    0.000    0.000    0.000 
#
# Total GULP energy -89162.198905 kJ/mol
# GULP energy per Si atom -5572.637432 kJ/mol
# Density = 2.211960 g / cm^3
# Si number density = 22.170064 Si / 1000 Ang^3
#
#
#
# Elastic Constant Matrix: (Units=GPa)
#
#
# Indices 1 2 3 4 5 6 
#
# 1 105.2937 34.6631 46.9930 -14.8742 -0.0562 -48.3818
# 2 34.6631 46.1793 33.6717 -13.5007 13.7924 -26.9348
# 3 46.9930 33.6717 99.4499 -13.8731 8.7758 -29.9142
# 4 -14.8742 -13.5007 -13.8731 26.7174 -9.0903 16.2298
# 5 -0.0562 13.7924 8.7758 -9.0903 32.2681 -7.5693
# 6 -48.3818 -26.9348 -29.9142 16.2298 -7.5693 46.6251
#
#
#
# Elastic Compliance Matrix: (Units=1/GPa)
#
#
# Indices 1 2 3 4 5 6 
#
# 1 0.020836 -0.005022 -0.003516 -0.001363 0.006995 0.018074
# 2 -0.005022 0.041658 -0.006748 0.003751 -0.012290 0.011225
# 3 -0.003516 -0.006748 0.014613 0.001276 -0.000428 0.001315
# 4 -0.001363 0.003751 0.001276 0.051301 0.009023 -0.014821
# 5 0.006995 -0.012290 -0.000428 0.009023 0.039660 0.003182
# 6 0.018074 0.011225 0.001315 -0.014821 0.003182 0.053206
#
#
# Mechanical properties :
#
#
# Convention : Reuss Voigt Hill
#
# Bulk Modulus (GPa) = 21.48873 53.50872 37.49872
# Shear Modulus (GPa) = 18.70155 30.16178 24.43166
#
# Velocity S-wave (km/s) = 2.90754 3.69246 3.32326
# Velocity P-wave (km/s) = 4.58099 6.50899 5.62816
#
# Compressibility (1/GPa) = 0.04653602
#
# Stress axis : x y z
#
# Youngs Moduli (GPa) = 47.99469 24.00480 68.43332
#
# Poissons Ratio (x) = 0.12054 0.24061
# Poissons Ratio (y) = 0.24101 0.46177
# Poissons Ratio (z) = 0.16875 0.16198
#
# Static dielectric constant tensor:
#      x y z
#    x 1.817240 0.001820 0.001300 
#    y 0.001820 1.847610 -0.081320 
#    z 0.001300 -0.081320 1.958970 
# 
# From -- ./inp_files/71867.got.cif
#   From: 2010.05.17/outbox.cif.g08.bks.cpg/sg2_36_cif.got.tgz:71867.got - 2010.06.03 11:33:40.
