data_PCOD9095536
_publ_section_title
;
Structure prediction by ZEFSAII (Michael W. Deem and Ramdas Pophale) SiO2 
 PCOD9095536
Probable space group: P -1
;
_chemical_formula_sum "Si O2"
_cell_formula_units_Z 12
_cell_length_a 17.362323
_cell_length_b 11.333675
_cell_length_c 8.775779
_cell_angle_alpha 141.815567
_cell_angle_beta 153.037202
_cell_angle_gamma 43.251314
_cell_volume 481.659943
_symmetry_space_group_name_H-M "P -1"
_symmetry_group_IT_number 2
_symmetry_cell_setting 'triclinic'
loop_
_space_group_symop_operation_xyz
x,y,z
-x,-y,-z
loop_
_atom_site_type_symbol
_atom_site_label
_atom_site_fract_x
_atom_site_fract_y
_atom_site_fract_z
Si Si1 0.827406 0.278323 0.491469
Si Si2 0.372934 0.356961 0.550682
Si Si3 0.759374 0.993653 0.535069
Si Si4 0.405990 0.607084 0.301366
Si Si5 0.978707 0.002093 0.225794
Si Si6 0.438863 0.223522 0.830894
O O1 0.798999 0.507356 0.649641
O O2 0.963650 0.176199 0.744651
O O3 0.641242 0.233632 0.180643
O O4 0.870290 0.168249 0.296982
O O5 0.465510 0.304441 0.501759
O O6 0.370877 0.191695 0.506177
O O7 0.500000 0.500000 0.000000
O O8 0.728160 0.223393 0.709058
O O9 0.851232 0.921270 0.469738
O O10 0.591565 0.908061 0.212512
O O11 0.879357 0.942136 0.841233
O O12 0.500000 0.500000 0.500000
O O13 0.340435 0.429659 0.914430
#
# Coordination Sequence:
#
# PCOD9095536 Si02
#       6
#     2   2   2   2   2   2
#     4   9  18  37  59  81 113 152 189 227 278 335
#     4   8  16  33  56  81 108 143 187 232 272 318
#     4  11  22  38  58  86 116 146 187 231 283 336
#     4  10  20  35  58  86 113 142 186 242 280 315
#     4  10  21  35  55  84 121 151 175 230 295 334
#     4  10  21  38  63  84 106 150 198 231 266 331
#
# _framework density 24.913843
#
# number of rings (size 3 to 8) (size 9 to 14) (size 15 to 20)
#    0.000    2.667    0.000    5.000    0.000    5.333 
#    0.000   10.000    0.000    6.000    0.000    0.000 
#    0.000    0.000    0.000    0.000    0.000    0.000 
#
# Total GULP energy -66999.355759 kJ/mol
# GULP energy per Si atom -5583.279647 kJ/mol
# Density = 2.485714 g / cm^3
# Si number density = 24.913843 Si / 1000 Ang^3
#
#
#
# Elastic Constant Matrix: (Units=GPa)
#
#
# Indices 1 2 3 4 5 6 
#
# 1 142.6505 12.3175 8.6339 14.2081 7.0437 0.1036
# 2 12.3175 96.9445 7.4143 -2.9698 6.9088 -11.5560
# 3 8.6339 7.4143 28.6660 -9.6328 -1.3388 -0.5556
# 4 14.2081 -2.9698 -9.6328 30.0155 4.9632 -7.3206
# 5 7.0437 6.9088 -1.3388 4.9632 27.1461 -9.3512
# 6 0.1036 -11.5560 -0.5556 -7.3206 -9.3512 50.0641
#
#
#
# Elastic Compliance Matrix: (Units=1/GPa)
#
#
# Indices 1 2 3 4 5 6 
#
# 1 0.007923 -0.000908 -0.003992 -0.005190 -0.001525 -0.001314
# 2 -0.000908 0.011084 -0.002038 0.001819 -0.002194 0.002394
# 3 -0.003992 -0.002038 0.041953 0.015504 0.001679 0.002584
# 4 -0.005190 0.001819 0.015504 0.043106 -0.004119 0.006137
# 5 -0.001525 -0.002194 0.001679 -0.004119 0.040884 0.006550
# 6 -0.001314 0.002394 0.002584 0.006137 0.006550 0.022679
#
#
# Mechanical properties :
#
#
# Convention : Reuss Voigt Hill
#
# Bulk Modulus (GPa) = 21.23916 36.11026 28.67471
# Shear Modulus (GPa) = 25.35491 37.43816 31.39654
#
# Velocity S-wave (km/s) = 3.19361 3.88068 3.55379
# Velocity P-wave (km/s) = 4.70557 5.88261 5.32670
#
# Compressibility (1/GPa) = 0.04708284
#
# Stress axis : x y z
#
# Youngs Moduli (GPa) = 126.20840 90.22109 23.83646
#
# Poissons Ratio (x) = 0.08195 0.09516
# Poissons Ratio (y) = 0.11464 0.04858
# Poissons Ratio (z) = 0.50385 0.18386
#
# Static dielectric constant tensor:
#      x y z
#    x 2.088610 0.073690 0.112980 
#    y 0.073690 1.980040 0.025300 
#    z 0.112980 0.025300 2.162010 
# 
# From -- ./inp_files/152792.got.cif
#   From: 2010.05.17/outbox.cif.g08.bks.cpg/sg2_77_cif.got.tgz:152792.got - 2010.06.03 11:33:40.
