data_PCOD9095012
_publ_section_title
;
Structure prediction by ZEFSAII (Michael W. Deem and Ramdas Pophale) SiO2 
 PCOD9095012
Probable space group: P -1
;
_chemical_formula_sum "Si O2"
_cell_formula_units_Z 16
_cell_length_a 9.250732
_cell_length_b 15.685839
_cell_length_c 18.478171
_cell_angle_alpha 22.819212
_cell_angle_beta 44.815472
_cell_angle_gamma 57.766660
_cell_volume 657.879881
_symmetry_space_group_name_H-M "P -1"
_symmetry_group_IT_number 2
_symmetry_cell_setting 'triclinic'
loop_
_space_group_symop_operation_xyz
x,y,z
-x,-y,-z
loop_
_atom_site_type_symbol
_atom_site_label
_atom_site_fract_x
_atom_site_fract_y
_atom_site_fract_z
Si Si1 0.473101 0.916585 0.435415
Si Si2 0.136200 0.339089 0.580807
Si Si3 0.099591 0.065424 0.241075
Si Si4 0.967010 0.189543 0.974133
Si Si5 0.326338 0.281499 0.142945
Si Si6 0.818265 0.547788 0.687079
Si Si7 0.805973 0.335336 0.140279
Si Si8 0.371425 0.462523 0.725470
O O1 0.418815 0.802427 0.623482
O O2 0.369468 0.692175 0.590492
O O3 0.732132 0.078358 0.191926
O O4 0.340481 0.087103 0.344931
O O5 0.217189 0.364912 0.447427
O O6 0.367011 0.450560 0.458572
O O7 0.000000 0.500000 0.500000
O O8 0.003221 0.051119 0.869546
O O9 0.180268 0.132365 0.242236
O O10 0.905990 0.153786 0.220679
O O11 0.304786 0.236421 0.981864
O O12 0.003251 0.783016 0.478420
O O13 0.911629 0.341829 0.813051
O O14 0.184626 0.367939 0.803256
O O15 0.581920 0.434919 0.902337
O O16 0.233394 0.477306 0.045383
O O17 0.000000 0.500000 0.000000
#
# Coordination Sequence:
#
# PCOD9095012 Si02
#       8
#     2   2   2   2   2   2   2   2
#     4  10  20  38  59  84 123 162 207 245 289 343
#     4  11  24  43  69  92 118 151 192 248 304 366
#     4  11  21  36  60  84 119 164 199 247 294 348
#     4  10  23  41  64  90 121 160 196 244 298 361
#     4  10  20  38  58  84 120 166 200 250 292 338
#     4  11  22  42  62  88 121 158 201 239 304 360
#     4  10  20  35  52  89 120 161 208 251 287 335
#     4  11  20  41  63  88 122 157 200 241 301 357
#
# _framework density 24.320550000000001
#
# number of rings (size 3 to 8) (size 9 to 14) (size 15 to 20)
#    0.000    1.500    5.000    1.500    0.000    3.500 
#    2.250    1.875    0.000    0.000    0.000    0.000 
#    0.000    0.000    0.000    0.000    0.000    0.000 
#
# Total GULP energy -89545.124532 kJ/mol
# GULP energy per Si atom -5596.570283 kJ/mol
# Density = 2.426520 g / cm^3
# Si number density = 24.320550 Si / 1000 Ang^3
#
#
#
# Elastic Constant Matrix: (Units=GPa)
#
#
# Indices 1 2 3 4 5 6 
#
# 1 104.9567 12.6937 54.2759 -23.1643 -5.3042 -13.3989
# 2 12.6937 49.7899 25.6586 -25.1674 6.0871 -25.6915
# 3 54.2759 25.6586 114.7042 -31.5947 -4.2930 -11.5972
# 4 -23.1643 -25.1674 -31.5947 35.3934 -12.5647 15.3831
# 5 -5.3042 6.0871 -4.2930 -12.5647 50.0294 -12.9596
# 6 -13.3989 -25.6915 -11.5972 15.3831 -12.9596 35.0185
#
#
#
# Elastic Compliance Matrix: (Units=1/GPa)
#
#
# Indices 1 2 3 4 5 6 
#
# 1 0.014033 0.005131 -0.005121 0.007099 0.003678 0.005681
# 2 0.005131 0.045134 -0.002932 0.024106 0.007683 0.026359
# 3 -0.005121 -0.002932 0.014207 0.009291 0.002724 -0.002478
# 4 0.007099 0.024106 0.009291 0.063033 0.014773 0.001256
# 5 0.003678 0.007683 0.002724 0.014773 0.026285 0.011184
# 6 0.005681 0.026359 -0.002478 0.001256 0.011184 0.052835
#
#
# Mechanical properties :
#
#
# Convention : Reuss Voigt Hill
#
# Bulk Modulus (GPa) = 14.80788 50.52303 32.66545
# Shear Modulus (GPa) = 20.50190 35.87643 28.18917
#
# Velocity S-wave (km/s) = 2.90657 3.84493 3.40820
# Velocity P-wave (km/s) = 4.16726 6.36634 5.38035
#
# Compressibility (1/GPa) = 0.06753163
#
# Stress axis : x y z
#
# Youngs Moduli (GPa) = 71.26047 22.15630 70.38609
#
# Poissons Ratio (x) = -0.11368 0.36042
# Poissons Ratio (y) = -0.36564 0.20635
# Poissons Ratio (z) = 0.36490 0.06496
#
# Static dielectric constant tensor:
#      x y z
#    x 1.909000 -0.006320 -0.017360 
#    y -0.006320 1.985830 0.001990 
#    z -0.017360 0.001990 1.930180 
# 
# From -- ./inp_files/534474.got.cif
#   From: 2010.05.17/outbox.cif.g08.bks.cpg/sg2_268_cif.got.tgz:534474.got - 2010.06.03 11:33:40.
