data_PCOD9095123
_publ_section_title
;
Structure prediction by ZEFSAII (Michael W. Deem and Ramdas Pophale) SiO2 
 PCOD9095123
Probable space group: P -1
;
_chemical_formula_sum "Si O2"
_cell_formula_units_Z 10
_cell_length_a 7.556549
_cell_length_b 13.803755
_cell_length_c 7.428513
_cell_angle_alpha 39.108164
_cell_angle_beta 82.597728
_cell_angle_gamma 61.448640
_cell_volume 386.204164
_symmetry_space_group_name_H-M "P -1"
_symmetry_group_IT_number 2
_symmetry_cell_setting 'triclinic'
loop_
_space_group_symop_operation_xyz
x,y,z
-x,-y,-z
loop_
_atom_site_type_symbol
_atom_site_label
_atom_site_fract_x
_atom_site_fract_y
_atom_site_fract_z
Si Si1 0.802307 0.361178 0.714698
Si Si2 0.821249 0.025997 0.340400
Si Si3 0.466467 0.233713 0.693653
Si Si4 0.962762 0.655367 0.639837
Si Si5 0.704026 0.934578 0.815397
O O1 0.606604 0.556321 0.556900
O O2 0.849212 0.407065 0.445706
O O3 0.041345 0.260876 0.930766
O O4 0.763267 0.199621 0.970533
O O5 0.926082 0.832172 0.496300
O O6 0.645552 0.048250 0.474392
O O7 0.000000 0.000000 0.500000
O O8 0.260182 0.276682 0.536808
O O9 0.678858 0.075324 0.774875
O O10 0.447936 0.130854 0.016041
O O11 0.000000 0.500000 0.000000
#
# Coordination Sequence:
#
# PCOD9095123 Si02
#       5
#     2   2   2   2   2
#     4  10  20  37  58  81 111 142 177 225 273 319
#     4  10  20  35  55  79 112 145 177 223 272 318
#     4  10  20  36  60  82 107 142 182 225 266 320
#     4  11  20  34  58  83 108 145 184 219 268 323
#     4   9  19  36  58  81 108 141 182 222 269 319
#
# _framework density 25.893038000000001
#
# number of rings (size 3 to 8) (size 9 to 14) (size 15 to 20)
#    0.000    2.000    0.000    6.600    0.000    1.600 
#    0.000    2.000    0.000   16.800    0.000    0.000 
#    0.000    0.000    0.000    0.000    0.000    0.000 
#
# Total GULP energy -55996.656920 kJ/mol
# GULP energy per Si atom -5599.665692 kJ/mol
# Density = 2.583410 g / cm^3
# Si number density = 25.893038 Si / 1000 Ang^3
#
#
#
# Elastic Constant Matrix: (Units=GPa)
#
#
# Indices 1 2 3 4 5 6 
#
# 1 81.4618 11.3816 36.8968 -1.5114 -17.3685 6.0391
# 2 11.3816 130.8992 70.6033 -15.9457 -21.4815 12.5674
# 3 36.8968 70.6033 189.7407 1.2404 -35.7549 -0.8316
# 4 -1.5114 -15.9457 1.2404 67.3874 0.3571 -12.5430
# 5 -17.3685 -21.4815 -35.7549 0.3571 55.1209 -7.8163
# 6 6.0391 12.5674 -0.8316 -12.5430 -7.8163 36.4114
#
#
#
# Elastic Compliance Matrix: (Units=1/GPa)
#
#
# Indices 1 2 3 4 5 6 
#
# 1 0.014055 0.000809 -0.002511 0.000165 0.002830 -0.002003
# 2 0.000809 0.010347 -0.003762 0.002009 0.001438 -0.002791
# 3 -0.002511 -0.003762 0.007759 -0.000672 0.003110 0.002328
# 4 0.000165 0.002009 -0.000672 0.016272 0.001015 0.005087
# 5 0.002830 0.001438 0.003110 0.001015 0.022204 0.004221
# 6 -0.002003 -0.002791 0.002328 0.005087 0.004221 0.031471
#
#
# Mechanical properties :
#
#
# Convention : Reuss Voigt Hill
#
# Bulk Modulus (GPa) = 47.09444 71.09613 59.09528
# Shear Modulus (GPa) = 41.62757 50.66528 46.14643
#
# Velocity S-wave (km/s) = 4.01393 4.42828 4.22618
# Velocity P-wave (km/s) = 6.30157 7.32553 6.83276
#
# Compressibility (1/GPa) = 0.02123393
#
# Stress axis : x y z
#
# Youngs Moduli (GPa) = 71.14994 96.64893 128.88202
#
# Poissons Ratio (x) = -0.07819 0.32358
# Poissons Ratio (y) = -0.05756 0.48481
# Poissons Ratio (z) = 0.17863 0.36356
#
# Static dielectric constant tensor:
#      x y z
#    x 2.162880 0.030270 0.010120 
#    y 0.030270 2.059040 0.066510 
#    z 0.010120 0.066510 2.054490 
# 
# From -- ./inp_files/191286.got.cif
#   From: 2010.05.17/outbox.cif.g08.bks.cpg/sg2_96_cif.got.tgz:191286.got - 2010.06.03 11:33:40.
