data_PCOD9095460
_publ_section_title
;
Structure prediction by ZEFSAII (Michael W. Deem and Ramdas Pophale) SiO2 
 PCOD9095460
Probable space group: P -1
;
_chemical_formula_sum "Si O2"
_cell_formula_units_Z 14
_cell_length_a 12.524009
_cell_length_b 8.989794
_cell_length_c 9.394206
_cell_angle_alpha 88.116712
_cell_angle_beta 36.196029
_cell_angle_gamma 94.318320
_cell_volume 614.914812
_symmetry_space_group_name_H-M "P -1"
_symmetry_group_IT_number 2
_symmetry_cell_setting 'triclinic'
loop_
_space_group_symop_operation_xyz
x,y,z
-x,-y,-z
loop_
_atom_site_type_symbol
_atom_site_label
_atom_site_fract_x
_atom_site_fract_y
_atom_site_fract_z
Si Si1 0.078768 0.589706 0.052244
Si Si2 0.437526 0.707289 0.504423
Si Si3 0.936537 0.623673 0.663860
Si Si4 0.318894 0.373440 0.516369
Si Si5 0.820172 0.069590 0.656815
Si Si6 0.578206 0.676530 0.895895
Si Si7 0.509827 0.069665 0.810768
O O1 0.117642 0.465949 0.129125
O O2 0.898270 0.658097 0.287322
O O3 0.264881 0.695931 0.798976
O O4 0.000000 0.500000 0.000000
O O5 0.386776 0.554757 0.465491
O O6 0.617195 0.696039 0.404864
O O7 0.468992 0.854346 0.367632
O O8 0.101836 0.762500 0.486750
O O9 0.000000 0.500000 0.500000
O O10 0.774461 0.688515 0.760181
O O11 0.418037 0.311545 0.278683
O O12 0.686648 0.000823 0.673229
O O13 0.000000 0.000000 0.500000
O O14 0.682909 0.038187 0.941906
O O15 0.500000 0.500000 0.000000
O O16 0.484886 0.790248 0.086898
#
# Coordination Sequence:
#
# PCOD9095460 Si02
#       7
#     2   2   2   2   2   2   2
#     4  10  21  35  57  91 130 163 209 259 316 376
#     4  10  21  37  58  91 130 168 206 259 320 387
#     4  12  23  40  66  99 129 166 217 272 317 370
#     4  10  20  35  57  92 128 165 209 263 320 370
#     4  11  24  43  65  95 129 171 215 262 323 385
#     4  12  21  36  63  97 130 164 212 272 317 369
#     4  11  24  41  66  93 129 170 214 264 320 386
#
# _framework density 22.767382000000001
#
# number of rings (size 3 to 8) (size 9 to 14) (size 15 to 20)
#    0.000    1.143    4.286    3.429    4.000    1.143 
#    0.000    0.000    0.000   10.286    0.000    0.000 
#    0.000    0.000    0.000    0.000    0.000    0.000 
#
# Total GULP energy -78141.599413 kJ/mol
# GULP energy per Si atom -5581.542815 kJ/mol
# Density = 2.271556 g / cm^3
# Si number density = 22.767382 Si / 1000 Ang^3
#
#
#
# Elastic Constant Matrix: (Units=GPa)
#
#
# Indices 1 2 3 4 5 6 
#
# 1 120.7622 9.0792 54.8563 -9.1940 -1.2772 -36.8870
# 2 9.0792 39.2361 26.7869 -9.8894 7.2320 -5.4481
# 3 54.8563 26.7869 117.0680 -33.2927 1.9202 -15.3328
# 4 -9.1940 -9.8894 -33.2927 48.4268 -8.6139 8.2539
# 5 -1.2772 7.2320 1.9202 -8.6139 54.4643 -1.6063
# 6 -36.8870 -5.4481 -15.3328 8.2539 -1.6063 41.1479
#
#
#
# Elastic Compliance Matrix: (Units=1/GPa)
#
#
# Indices 1 2 3 4 5 6 
#
# 1 0.014359 0.001915 -0.006639 -0.003357 0.000120 0.011330
# 2 0.001915 0.031363 -0.007510 0.000465 -0.003698 0.002833
# 3 -0.006639 -0.007510 0.015407 0.008564 0.001568 -0.002862
# 4 -0.003357 0.000465 0.008564 0.027539 0.003762 -0.005134
# 5 0.000120 -0.003698 0.001568 0.003762 0.019400 0.000205
# 6 0.011330 0.002833 -0.002862 -0.005134 0.000205 0.034806
#
#
# Mechanical properties :
#
#
# Convention : Reuss Voigt Hill
#
# Bulk Modulus (GPa) = 27.27749 50.94569 39.11159
# Shear Modulus (GPa) = 27.84559 41.23073 34.53816
#
# Velocity S-wave (km/s) = 3.50100 4.26015 3.89910
# Velocity P-wave (km/s) = 5.32444 6.82815 6.12264
#
# Compressibility (1/GPa) = 0.03666027
#
# Stress axis : x y z
#
# Youngs Moduli (GPa) = 69.64212 31.88509 64.90741
#
# Poissons Ratio (x) = -0.06106 0.43095
# Poissons Ratio (y) = -0.13337 0.48743
# Poissons Ratio (z) = 0.46238 0.23945
#
# Static dielectric constant tensor:
#      x y z
#    x 1.981250 0.010690 -0.068110 
#    y 0.010690 2.141090 0.075500 
#    z -0.068110 0.075500 1.949910 
# 
# From -- ./inp_files/252749.got.cif
#   From: 2010.05.17/outbox.cif.g08.bks.cpg/sg2_127_cif.got.tgz:252749.got - 2010.06.03 11:33:40.
