data_PCOD9095253
_publ_section_title
;
Structure prediction by ZEFSAII (Michael W. Deem and Ramdas Pophale) SiO2 
 PCOD9095253
Probable space group: P -1
;
_chemical_formula_sum "Si O2"
_cell_formula_units_Z 14
_cell_length_a 10.295684
_cell_length_b 11.196876
_cell_length_c 7.339350
_cell_angle_alpha 76.890072
_cell_angle_beta 78.588501
_cell_angle_gamma 41.178575
_cell_volume 542.058725
_symmetry_space_group_name_H-M "P -1"
_symmetry_group_IT_number 2
_symmetry_cell_setting 'triclinic'
loop_
_space_group_symop_operation_xyz
x,y,z
-x,-y,-z
loop_
_atom_site_type_symbol
_atom_site_label
_atom_site_fract_x
_atom_site_fract_y
_atom_site_fract_z
Si Si1 0.771744 0.857902 0.543810
Si Si2 0.837282 0.057264 0.286140
Si Si3 0.709774 0.756662 0.908975
Si Si4 0.033024 0.344831 0.807056
Si Si5 0.145796 0.727405 0.566505
Si Si6 0.332043 0.551899 0.247136
Si Si7 0.586538 0.242839 0.992723
O O1 0.629683 0.889416 0.713414
O O2 0.852688 0.726352 0.393686
O O3 0.968410 0.756654 0.644650
O O4 0.713613 0.031850 0.425513
O O5 0.798090 0.222885 0.304380
O O6 0.799899 0.066865 0.078940
O O7 0.049729 0.882000 0.381401
O O8 0.884568 0.555744 0.835331
O O9 0.543870 0.780246 0.029359
O O10 0.805756 0.768925 0.039610
O O11 0.880253 0.337476 0.822356
O O12 0.312262 0.543204 0.471329
O O13 0.473980 0.363883 0.165516
O O14 0.403521 0.641541 0.166625
#
# Coordination Sequence:
#
# PCOD9095253 Si02
#       7
#     2   2   2   2   2   2   2
#     4   9  18  36  56  79 108 145 187 227 265 327
#     4   9  19  35  54  83 111 137 191 224 278 321
#     4  10  20  35  56  82 116 142 183 229 274 331
#     4   9  19  36  59  82 103 152 192 218 269 333
#     4   8  18  36  55  83 101 147 191 221 267 335
#     4   9  19  37  58  76 112 142 187 228 272 323
#     4  10  21  35  52  86 113 141 175 236 282 322
#
# _framework density 25.827462000000001
#
# number of rings (size 3 to 8) (size 9 to 14) (size 15 to 20)
#    0.857    2.000    0.000    0.429    2.000    1.714 
#    5.143    0.714    0.000    0.000    0.000    0.000 
#    0.000    0.000    0.000    0.000    0.000    0.000 
#
# Total GULP energy -78077.151149 kJ/mol
# GULP energy per Si atom -5576.939368 kJ/mol
# Density = 2.576868 g / cm^3
# Si number density = 25.827462 Si / 1000 Ang^3
#
#
#
# Elastic Constant Matrix: (Units=GPa)
#
#
# Indices 1 2 3 4 5 6 
#
# 1 115.7496 19.0594 49.3113 13.8203 21.6152 11.7680
# 2 19.0594 63.8953 11.3260 9.7235 2.3212 3.7522
# 3 49.3113 11.3260 66.4683 -1.3209 18.4293 9.4297
# 4 13.8203 9.7235 -1.3209 31.8308 11.2034 6.2612
# 5 21.6152 2.3212 18.4293 11.2034 40.6108 -1.1340
# 6 11.7680 3.7522 9.4297 6.2612 -1.1340 29.7689
#
#
#
# Elastic Compliance Matrix: (Units=1/GPa)
#
#
# Indices 1 2 3 4 5 6 
#
# 1 0.014054 -0.001559 -0.009635 -0.005205 -0.001618 -0.001274
# 2 -0.001559 0.017354 -0.002757 -0.005817 0.002711 0.000629
# 3 -0.009635 -0.002757 0.026663 0.011048 -0.010057 -0.006996
# 4 -0.005205 -0.005817 0.011048 0.042865 -0.014022 -0.010258
# 5 -0.001618 0.002711 -0.010057 -0.014022 0.033979 0.007727
# 6 -0.001274 0.000629 -0.006996 -0.010258 0.007727 0.038685
#
#
# Mechanical properties :
#
#
# Convention : Reuss Voigt Hill
#
# Bulk Modulus (GPa) = 33.14573 45.05630 39.10102
# Shear Modulus (GPa) = 23.63436 31.53653 27.58544
#
# Velocity S-wave (km/s) = 3.02832 3.49814 3.27167
# Velocity P-wave (km/s) = 5.00889 5.81369 5.42623
#
# Compressibility (1/GPa) = 0.03016980
#
# Stress axis : x y z
#
# Youngs Moduli (GPa) = 71.15560 57.62336 37.50525
#
# Poissons Ratio (x) = 0.08981 0.36135
# Poissons Ratio (y) = 0.11090 0.10342
# Poissons Ratio (z) = 0.68555 0.15889
#
# Static dielectric constant tensor:
#      x y z
#    x 2.035830 -0.118020 0.031920 
#    y -0.118020 2.268260 -0.037910 
#    z 0.031920 -0.037910 2.012700 
# 
# From -- ./inp_files/177761.got.cif
#   From: 2010.05.17/outbox.cif.g08.bks.cpg/sg2_89_cif.got.tgz:177761.got - 2010.06.03 11:33:40.
