data_PCOD9095649
_publ_section_title
;
Structure prediction by ZEFSAII (Michael W. Deem and Ramdas Pophale) SiO2 
 PCOD9095649
Probable space group: P -1
;
_chemical_formula_sum "Si O2"
_cell_formula_units_Z 16
_cell_length_a 23.995400
_cell_length_b 17.180214
_cell_length_c 10.926290
_cell_angle_alpha 135.047138
_cell_angle_beta 32.896128
_cell_angle_gamma 159.430170
_cell_volume 783.564400
_symmetry_space_group_name_H-M "P -1"
_symmetry_group_IT_number 2
_symmetry_cell_setting 'triclinic'
loop_
_space_group_symop_operation_xyz
x,y,z
-x,-y,-z
loop_
_atom_site_type_symbol
_atom_site_label
_atom_site_fract_x
_atom_site_fract_y
_atom_site_fract_z
Si Si1 0.677628 0.793047 0.538454
Si Si2 0.897175 0.862121 0.408414
Si Si3 0.392792 0.543501 0.364970
Si Si4 0.818189 0.720336 0.063961
Si Si5 0.286935 0.349167 0.096917
Si Si6 0.799289 0.073310 0.303142
Si Si7 0.134221 0.576711 0.223150
Si Si8 0.353847 0.998559 0.229867
O O1 0.726540 0.780325 0.561841
O O2 0.801353 0.835491 0.255404
O O3 0.408814 0.533713 0.726340
O O4 0.740777 0.980951 0.633458
O O5 0.793690 0.643834 0.390736
O O6 0.000000 0.000000 0.500000
O O7 0.106795 0.084090 0.177758
O O8 0.301618 0.453943 0.294306
O O9 0.593441 0.820484 0.327795
O O10 0.489309 0.510753 0.163849
O O11 0.978863 0.157421 0.121031
O O12 0.773041 0.661813 0.937669
O O13 0.679449 0.012062 0.575361
O O14 0.958631 0.315539 0.211661
O O15 0.000000 0.500000 0.500000
O O16 0.211108 0.751876 0.190146
O O17 0.378810 0.762739 0.021196
#
# Coordination Sequence:
#
# PCOD9095649 Si02
#       8
#     2   2   2   2   2   2   2   2
#     4  11  21  35  57  86 125 158 200 241 292 354
#     4  10  21  36  52  76 116 160 196 232 279 351
#     4  10  21  34  53  79 114 157 197 232 283 348
#     4  11  22  35  54  88 127 158 193 242 296 351
#     4  10  20  37  51  72 118 162 195 229 281 350
#     4  11  21  35  58  88 119 153 195 245 298 347
#     4   9  20  38  56  85 118 149 196 247 305 348
#     4  10  20  35  59  84 117 156 195 248 294 353
#
# _framework density 20.419509000000001
#
# number of rings (size 3 to 8) (size 9 to 14) (size 15 to 20)
#    0.000    1.750    2.500    2.250    1.750    2.500 
#    0.000    0.000    0.000    0.000    0.000   22.750 
#    0.000    0.625    0.000    0.000    0.000    0.000 
#
# Total GULP energy -89093.960871 kJ/mol
# GULP energy per Si atom -5568.372554 kJ/mol
# Density = 2.037303 g / cm^3
# Si number density = 20.419509 Si / 1000 Ang^3
#
#
#
# Elastic Constant Matrix: (Units=GPa)
#
#
# Indices 1 2 3 4 5 6 
#
# 1 82.1608 47.2275 27.0896 15.0275 14.0115 4.2361
# 2 47.2275 164.0024 27.3143 -2.5378 2.3644 -4.8967
# 3 27.0896 27.3143 93.8261 -9.7724 -4.4273 2.9557
# 4 15.0275 -2.5378 -9.7724 27.6564 1.7663 -5.4824
# 5 14.0115 2.3644 -4.4273 1.7663 25.0948 1.9112
# 6 4.2361 -4.8967 2.9557 -5.4824 1.9112 29.9113
#
#
#
# Elastic Compliance Matrix: (Units=1/GPa)
#
#
# Indices 1 2 3 4 5 6 
#
# 1 0.022993 -0.005692 -0.007020 -0.015847 -0.011996 -0.005632
# 2 -0.005692 0.007893 -0.000218 0.004167 0.001893 0.002763
# 3 -0.007020 -0.000218 0.013878 0.008486 0.005732 0.000776
# 4 -0.015847 0.004167 0.008486 0.049949 0.005608 0.010885
# 5 -0.011996 0.001893 0.005732 0.005608 0.047026 -0.000535
# 6 -0.005632 0.002763 0.000776 0.010885 -0.000535 0.036635
#
#
# Mechanical properties :
#
#
# Convention : Reuss Voigt Hill
#
# Bulk Modulus (GPa) = 52.90377 60.36135 56.63256
# Shear Modulus (GPa) = 23.74900 32.42303 28.08602
#
# Velocity S-wave (km/s) = 3.41406 3.98910 3.71273
# Velocity P-wave (km/s) = 6.44250 7.13036 6.79514
#
# Compressibility (1/GPa) = 0.01890225
#
# Stress axis : x y z
#
# Youngs Moduli (GPa) = 43.49214 126.69986 72.05486
#
# Poissons Ratio (x) = 0.72122 0.50586
# Poissons Ratio (y) = 0.24757 0.01570
# Poissons Ratio (z) = 0.30533 0.02761
#
# Static dielectric constant tensor:
#      x y z
#    x 1.714140 -0.021020 0.009930 
#    y -0.021020 1.868790 -0.075820 
#    z 0.009930 -0.075820 1.890000 
# 
# From -- ./inp_files/476962.got.cif
#   From: 2010.05.17/outbox.cif.g08.bks.cpg/sg2_239_cif.got.tgz:476962.got - 2010.06.03 11:33:40.
