data_PCOD9095445
_publ_section_title
;
Structure prediction by ZEFSAII (Michael W. Deem and Ramdas Pophale) SiO2 
 PCOD9095445
Probable space group: P -1
;
_chemical_formula_sum "Si O2"
_cell_formula_units_Z 16
_cell_length_a 5.375888
_cell_length_b 20.860197
_cell_length_c 12.023684
_cell_angle_alpha 37.949462
_cell_angle_beta 73.570346
_cell_angle_gamma 89.755842
_cell_volume 738.612371
_symmetry_space_group_name_H-M "P -1"
_symmetry_group_IT_number 2
_symmetry_cell_setting 'triclinic'
loop_
_space_group_symop_operation_xyz
x,y,z
-x,-y,-z
loop_
_atom_site_type_symbol
_atom_site_label
_atom_site_fract_x
_atom_site_fract_y
_atom_site_fract_z
Si Si1 0.384144 0.925185 0.287956
Si Si2 0.355727 0.892618 0.813470
Si Si3 0.861146 0.222374 0.794563
Si Si4 0.794117 0.936305 0.515720
Si Si5 0.729743 0.912740 0.067797
Si Si6 0.751692 0.590529 0.673905
Si Si7 0.080477 0.269880 0.312447
Si Si8 0.901903 0.528897 0.093099
O O1 0.654817 0.931467 0.177532
O O2 0.236360 0.798310 0.517503
O O3 0.434923 0.011099 0.264983
O O4 0.209082 0.969186 0.163319
O O5 0.498349 0.885564 0.688499
O O6 0.159588 0.960041 0.714710
O O7 0.230918 0.782847 0.056205
O O8 0.052216 0.147359 0.880087
O O9 0.053328 0.331279 0.553580
O O10 0.568788 0.167051 0.840382
O O11 0.824324 0.831199 0.595000
O O12 0.000000 0.000000 0.500000
O O13 0.773914 0.658540 0.695156
O O14 0.425726 0.543450 0.746503
O O15 0.887097 0.497494 0.813599
O O16 0.086869 0.345900 0.101281
O O17 0.000000 0.500000 0.000000
#
# Coordination Sequence:
#
# PCOD9095445 Si02
#       8
#     2   2   2   2   2   2   2   2
#     4  10  20  35  57  89 128 161 197 244 301 382
#     4  10  24  38  59  87 128 167 207 252 295 372
#     4  11  22  38  63  87 125 166 195 254 316 364
#     4  11  23  42  58  90 125 165 215 249 295 370
#     4  10  22  35  54  94 127 160 196 235 310 390
#     4  11  23  41  62  96 123 154 206 259 316 371
#     4  11  21  37  65  87 123 167 198 255 313 359
#     4  10  23  41  60  92 126 156 205 259 310 373
#
# _framework density 21.662240000000001
#
# number of rings (size 3 to 8) (size 9 to 14) (size 15 to 20)
#    0.000    1.500    2.500    3.000    5.250    5.500 
#    0.000    0.000    0.000    1.500    0.000    0.000 
#    0.000    0.000    0.000    0.000    0.000    0.000 
#
# Total GULP energy -89212.823635 kJ/mol
# GULP energy per Si atom -5575.801477 kJ/mol
# Density = 2.161294 g / cm^3
# Si number density = 21.662240 Si / 1000 Ang^3
#
#
#
# Elastic Constant Matrix: (Units=GPa)
#
#
# Indices 1 2 3 4 5 6 
#
# 1 89.7626 -3.3404 11.4182 0.6169 -0.0664 6.7151
# 2 -3.3404 32.4147 3.6807 10.1746 3.6780 -2.8399
# 3 11.4182 3.6807 119.0564 11.9913 3.4696 4.9187
# 4 0.6169 10.1746 11.9913 27.2521 0.1159 0.4329
# 5 -0.0664 3.6780 3.4696 0.1159 27.7940 1.7415
# 6 6.7151 -2.8399 4.9187 0.4329 1.7415 14.4524
#
#
#
# Elastic Compliance Matrix: (Units=1/GPa)
#
#
# Indices 1 2 3 4 5 6 
#
# 1 0.011665 0.000865 -0.000941 -0.000096 0.000343 -0.004968
# 2 0.000865 0.036543 0.000004 -0.013767 -0.005267 0.007825
# 3 -0.000941 0.000004 0.009009 -0.003902 -0.000961 -0.002396
# 4 -0.000096 -0.013767 -0.003902 0.043590 0.002310 -0.002917
# 5 0.000343 -0.005267 -0.000961 0.002310 0.037126 -0.005410
# 6 -0.004968 0.007825 -0.002396 -0.002917 -0.005410 0.074594
#
#
# Mechanical properties :
#
#
# Convention : Reuss Voigt Hill
#
# Bulk Modulus (GPa) = 17.52104 29.41676 23.46890
# Shear Modulus (GPa) = 21.58004 29.19803 25.38903
#
# Velocity S-wave (km/s) = 3.15970 3.67533 3.42722
# Velocity P-wave (km/s) = 4.62790 5.62316 5.14963
#
# Compressibility (1/GPa) = 0.05707424
#
# Stress axis : x y z
#
# Youngs Moduli (GPa) = 85.72722 27.36482 110.99404
#
# Poissons Ratio (x) = -0.02366 0.10440
# Poissons Ratio (y) = -0.07413 -0.00046
# Poissons Ratio (z) = 0.08063 -0.00011
#
# Static dielectric constant tensor:
#      x y z
#    x 1.973820 0.055160 0.021880 
#    y 0.055160 1.859770 0.071870 
#    z 0.021880 0.071870 1.917560 
# 
# From -- ./inp_files/82953.got.cif
#   From: 2010.05.17/outbox.cif.g08.bks.cpg/sg2_42_cif.got.tgz:82953.got - 2010.06.03 11:33:40.
