data_PCOD9095024
_publ_section_title
;
Structure prediction by ZEFSAII (Michael W. Deem and Ramdas Pophale) SiO2 
 PCOD9095024
Probable space group: P -1
;
_chemical_formula_sum "Si O2"
_cell_formula_units_Z 16
_cell_length_a 10.300423
_cell_length_b 12.081430
_cell_length_c 18.921011
_cell_angle_alpha 37.354007
_cell_angle_beta 149.912591
_cell_angle_gamma 124.148231
_cell_volume 651.365254
_symmetry_space_group_name_H-M "P -1"
_symmetry_group_IT_number 2
_symmetry_cell_setting 'triclinic'
loop_
_space_group_symop_operation_xyz
x,y,z
-x,-y,-z
loop_
_atom_site_type_symbol
_atom_site_label
_atom_site_fract_x
_atom_site_fract_y
_atom_site_fract_z
Si Si1 0.429935 0.968376 0.866385
Si Si2 0.218926 0.482241 0.405327
Si Si3 0.434745 0.090613 0.637449
Si Si4 0.689070 0.672167 0.272151
Si Si5 0.927819 0.226334 0.056637
Si Si6 0.065251 0.750545 0.786252
Si Si7 0.031435 0.862111 0.197664
Si Si8 0.746181 0.658319 0.972624
O O1 0.194029 0.910935 0.750143
O O2 0.296329 0.169108 0.745851
O O3 0.577195 0.791093 0.085111
O O4 0.715418 0.951440 0.970177
O O5 0.500000 0.500000 0.500000
O O6 0.285636 0.246918 0.551808
O O7 0.139296 0.621476 0.366615
O O8 0.967673 0.589602 0.176465
O O9 0.739467 0.092349 0.762515
O O10 0.224710 0.197431 0.418796
O O11 0.485584 0.859339 0.772895
O O12 0.000000 0.500000 0.500000
O O13 0.409872 0.638104 0.180855
O O14 0.993165 0.245488 0.159386
O O15 0.106168 0.289869 0.052342
O O16 0.989649 0.995466 0.181323
O O17 0.294161 0.535881 0.974524
#
# Coordination Sequence:
#
# PCOD9095024 Si02
#       8
#     2   2   2   2   2   2   2   2
#     4   9  19  35  51  74 107 137 174 216 256 312
#     4   9  19  35  55  79 103 136 180 223 266 303
#     4   9  20  35  56  79 104 140 178 217 263 311
#     4   9  18  32  51  74 103 141 177 212 257 308
#     4   9  19  33  53  82 109 137 174 216 263 317
#     4  10  20  35  53  79 112 141 171 209 265 323
#     4   9  18  35  56  77 102 137 177 220 261 300
#     4  10  20  35  53  77 110 139 174 221 261 308
#
# _framework density 24.563791999999999
#
# number of rings (size 3 to 8) (size 9 to 14) (size 15 to 20)
#    0.000    2.750    0.000    1.125    0.000   11.500 
#    0.000    5.000    0.000    1.500    0.000    0.000 
#    0.000    0.000    0.000    0.000    0.000    0.000 
#
# Total GULP energy -89368.419896 kJ/mol
# GULP energy per Si atom -5585.526243 kJ/mol
# Density = 2.450788 g / cm^3
# Si number density = 24.563792 Si / 1000 Ang^3
#
#
#
# Elastic Constant Matrix: (Units=GPa)
#
#
# Indices 1 2 3 4 5 6 
#
# 1 88.2091 14.5913 20.2596 8.8632 4.9423 -14.1332
# 2 14.5913 106.0426 28.6815 -22.9647 4.0339 -14.5861
# 3 20.2596 28.6815 122.8779 -29.5437 17.5282 -25.4349
# 4 8.8632 -22.9647 -29.5437 37.9781 -11.8629 12.3506
# 5 4.9423 4.0339 17.5282 -11.8629 29.9215 0.9482
# 6 -14.1332 -14.5861 -25.4349 12.3506 0.9482 40.2911
#
#
#
# Elastic Compliance Matrix: (Units=1/GPa)
#
#
# Indices 1 2 3 4 5 6 
#
# 1 0.014562 -0.002588 -0.002321 -0.010256 -0.004952 0.005966
# 2 -0.002588 0.011604 -0.000668 0.007659 0.002276 0.000470
# 3 -0.002321 -0.000668 0.011741 0.006607 -0.003925 0.004423
# 4 -0.010256 0.007659 0.006607 0.047188 0.015864 -0.011492
# 5 -0.004952 0.002276 -0.003925 0.015864 0.042814 -0.009261
# 6 0.005966 0.000470 0.004423 -0.011492 -0.009261 0.033615
#
#
# Mechanical properties :
#
#
# Convention : Reuss Voigt Hill
#
# Bulk Modulus (GPa) = 37.38013 49.35493 43.36753
# Shear Modulus (GPa) = 27.53392 38.54461 33.03926
#
# Velocity S-wave (km/s) = 3.35164 3.96556 3.67146
# Velocity P-wave (km/s) = 5.49805 6.41122 5.97212
#
# Compressibility (1/GPa) = 0.02675218
#
# Stress axis : x y z
#
# Youngs Moduli (GPa) = 68.67286 86.18024 85.17431
#
# Poissons Ratio (x) = 0.22302 0.19773
# Poissons Ratio (y) = 0.17772 0.05686
# Poissons Ratio (z) = 0.15942 0.05753
#
# Static dielectric constant tensor:
#      x y z
#    x 2.044620 0.034490 -0.072490 
#    y 0.034490 1.971810 -0.061540 
#    z -0.072490 -0.061540 1.970280 
# 
# From -- ./inp_files/435597.got.cif
#   From: 2010.05.17/outbox.cif.g08.bks.cpg/sg2_218_cif.got.tgz:435597.got - 2010.06.03 11:33:40.
