data_PCOD9095474
_publ_section_title
;
Structure prediction by ZEFSAII (Michael W. Deem and Ramdas Pophale) SiO2 
 PCOD9095474
Probable space group: P -1
;
_chemical_formula_sum "Si O2"
_cell_formula_units_Z 16
_cell_length_a 20.504775
_cell_length_b 7.565767
_cell_length_c 23.811506
_cell_angle_alpha 41.055504
_cell_angle_beta 23.216513
_cell_angle_gamma 29.315058
_cell_volume 691.266316
_symmetry_space_group_name_H-M "P -1"
_symmetry_group_IT_number 2
_symmetry_cell_setting 'triclinic'
loop_
_space_group_symop_operation_xyz
x,y,z
-x,-y,-z
loop_
_atom_site_type_symbol
_atom_site_label
_atom_site_fract_x
_atom_site_fract_y
_atom_site_fract_z
Si Si1 0.015775 0.175371 0.663374
Si Si2 0.251081 0.225227 0.117874
Si Si3 0.178269 0.862901 0.071251
Si Si4 0.844072 0.878479 0.090936
Si Si5 0.580554 0.950764 0.613440
Si Si6 0.632725 0.658818 0.764896
Si Si7 0.299678 0.392504 0.920709
Si Si8 0.983754 0.278719 0.407570
O O1 0.943278 0.025054 0.799656
O O2 0.875649 0.328408 0.680283
O O3 0.926772 0.561088 0.667354
O O4 0.290076 0.912669 0.510243
O O5 0.121042 0.643444 0.139547
O O6 0.271276 0.219333 0.036806
O O7 0.123155 0.134169 0.274436
O O8 0.500000 0.000000 0.000000
O O9 0.122409 0.123701 0.001825
O O10 0.445829 0.629712 0.927689
O O11 0.685298 0.796260 0.245615
O O12 0.701115 0.305520 0.124134
O O13 0.077384 0.621788 0.002197
O O14 0.641605 0.717401 0.678063
O O15 0.716940 0.659279 0.523846
O O16 0.512484 0.050279 0.797430
O O17 0.000000 0.000000 0.500000
#
# Coordination Sequence:
#
# PCOD9095474 Si02
#       8
#     2   2   2   2   2   2   2   2
#     4   9  19  33  52  82 113 141 177 221 271 323
#     4  10  20  35  58  81 108 143 183 226 266 319
#     4   9  19  34  54  77 110 148 177 223 266 317
#     4   9  20  38  60  78 106 144 189 225 262 326
#     4   9  21  34  54  79 109 152 170 222 276 324
#     4  11  20  33  55  83 112 141 181 229 271 326
#     4  10  21  36  60  86 103 138 192 229 265 310
#     4   9  20  33  53  79 110 147 177 216 273 328
#
# _framework density 23.145927
#
# number of rings (size 3 to 8) (size 9 to 14) (size 15 to 20)
#    0.750    1.750    0.000    2.250    7.000    2.000 
#    0.000    0.625    0.000    1.500    0.000    0.000 
#    0.000    0.000    0.000    0.000    0.000    0.000 
#
# Total GULP energy -89190.051255 kJ/mol
# GULP energy per Si atom -5574.378203 kJ/mol
# Density = 2.309325 g / cm^3
# Si number density = 23.145927 Si / 1000 Ang^3
#
#
#
# Elastic Constant Matrix: (Units=GPa)
#
#
# Indices 1 2 3 4 5 6 
#
# 1 68.0329 15.0995 6.5325 -0.9796 -12.6086 1.4482
# 2 15.0995 56.0209 8.2545 -3.0767 -1.2119 8.9976
# 3 6.5325 8.2545 126.8822 -7.9562 -3.9871 -8.6226
# 4 -0.9796 -3.0767 -7.9562 30.7701 -2.6043 -0.4527
# 5 -12.6086 -1.2119 -3.9871 -2.6043 36.4091 1.0691
# 6 1.4482 8.9976 -8.6226 -0.4527 1.0691 36.8413
#
#
#
# Elastic Compliance Matrix: (Units=1/GPa)
#
#
# Indices 1 2 3 4 5 6 
#
# 1 0.016746 -0.004337 -0.000361 0.000486 0.005645 0.000159
# 2 -0.004337 0.020085 -0.001361 0.001382 -0.000736 -0.005015
# 3 -0.000361 -0.001361 0.008302 0.002102 0.000822 0.002292
# 4 0.000486 0.001382 0.002102 0.033442 0.002823 0.000464
# 5 0.005645 -0.000736 0.000822 0.002823 0.029708 -0.000677
# 6 0.000159 -0.005015 0.002292 0.000464 -0.000677 0.028924
#
#
# Mechanical properties :
#
#
# Convention : Reuss Voigt Hill
#
# Bulk Modulus (GPa) = 30.28912 34.52322 32.40617
# Shear Modulus (GPa) = 31.18570 35.54074 33.36322
#
# Velocity S-wave (km/s) = 3.67461 3.92281 3.80073
# Velocity P-wave (km/s) = 5.57837 5.95531 5.76992
#
# Compressibility (1/GPa) = 0.03301515
#
# Stress axis : x y z
#
# Youngs Moduli (GPa) = 59.71603 49.78750 120.45546
#
# Poissons Ratio (x) = 0.21593 0.04353
# Poissons Ratio (y) = 0.25899 0.16390
# Poissons Ratio (z) = 0.02158 0.06774
#
# Static dielectric constant tensor:
#      x y z
#    x 1.842010 0.055410 -0.004290 
#    y 0.055410 2.015800 0.023330 
#    z -0.004290 0.023330 1.921570 
# 
# From -- ./inp_files/620898.got.cif
#   From: 2010.05.17/outbox.cif.g08.bks.cpg/sg2_311_cif.got.tgz:620898.got - 2010.06.03 11:33:40.
