data_PCOD9095784
_publ_section_title
;
Structure prediction by ZEFSAII (Michael W. Deem and Ramdas Pophale) SiO2 
 PCOD9095784
Probable space group: P -1
;
_chemical_formula_sum "Si O2"
_cell_formula_units_Z 16
_cell_length_a 13.126982
_cell_length_b 9.742963
_cell_length_c 5.940828
_cell_angle_alpha 118.267306
_cell_angle_beta 112.423515
_cell_angle_gamma 84.596681
_cell_volume 615.099454
_symmetry_space_group_name_H-M "P -1"
_symmetry_group_IT_number 2
_symmetry_cell_setting 'triclinic'
loop_
_space_group_symop_operation_xyz
x,y,z
-x,-y,-z
loop_
_atom_site_type_symbol
_atom_site_label
_atom_site_fract_x
_atom_site_fract_y
_atom_site_fract_z
Si Si1 0.099944 0.220251 0.382940
Si Si2 0.416828 0.569574 0.755179
Si Si3 0.087236 0.885966 0.224561
Si Si4 0.751673 0.286392 0.012150
Si Si5 0.934928 0.371144 0.610112
Si Si6 0.373674 0.211080 0.031780
Si Si7 0.356698 0.215862 0.525235
Si Si8 0.222516 0.459331 0.157538
O O1 0.226517 0.245056 0.433717
O O2 0.051669 0.363695 0.580418
O O3 0.086822 0.067812 0.414291
O O4 0.015285 0.167797 0.068594
O O5 0.368565 0.699874 0.975961
O O6 0.420897 0.394650 0.726725
O O7 0.317909 0.531782 0.463513
O O8 0.525749 0.649999 0.789992
O O9 0.081189 0.769635 0.335973
O O10 0.204583 0.865205 0.182406
O O11 0.842799 0.326195 0.310384
O O12 0.764754 0.424136 0.949072
O O13 0.896282 0.524683 0.815819
O O14 0.377595 0.136460 0.724987
O O15 0.380836 0.143458 0.241404
O O16 0.258641 0.291239 0.996346
#
# Coordination Sequence:
#
# PCOD9095784 Si02
#       8
#     2   2   2   2   2   2   2   2
#     4  10  21  36  58  81 113 151 192 236 287 341
#     4  10  20  35  60  84 114 151 189 232 290 342
#     4   9  19  37  58  82 110 149 194 233 287 341
#     4   9  17  32  56  85 107 145 193 234 278 341
#     4   9  18  33  55  82 108 147 191 236 281 338
#     4  11  23  38  59  87 118 155 190 235 288 344
#     4  11  23  37  57  90 118 148 193 238 285 339
#     4   9  17  32  54  83 115 142 192 229 279 342
#
# _framework density 26.012053000000002
#
# number of rings (size 3 to 8) (size 9 to 14) (size 15 to 20)
#    0.000    2.250    1.250    2.250    3.500    0.000 
#    0.000   10.625    0.000    1.500    0.000    0.000 
#    0.000    0.000    0.000    0.000    0.000    0.000 
#
# Total GULP energy -89432.717428 kJ/mol
# GULP energy per Si atom -5589.544839 kJ/mol
# Density = 2.595285 g / cm^3
# Si number density = 26.012053 Si / 1000 Ang^3
#
#
#
# Elastic Constant Matrix: (Units=GPa)
#
#
# Indices 1 2 3 4 5 6 
#
# 1 145.2605 15.0873 21.6956 12.3616 -7.1003 10.7919
# 2 15.0873 65.6290 33.4453 -9.6328 0.5247 1.8791
# 3 21.6956 33.4453 114.2301 -20.3354 -17.4404 14.4700
# 4 12.3616 -9.6328 -20.3354 38.3314 8.9712 -4.5774
# 5 -7.1003 0.5247 -17.4404 8.9712 39.9392 -2.3468
# 6 10.7919 1.8791 14.4700 -4.5774 -2.3468 29.8246
#
#
#
# Elastic Compliance Matrix: (Units=1/GPa)
#
#
# Indices 1 2 3 4 5 6 
#
# 1 0.007898 -0.001813 -0.001129 -0.004336 0.001749 -0.002724
# 2 -0.001813 0.018891 -0.005394 0.003592 -0.003595 0.002351
# 3 -0.001129 -0.005394 0.012465 0.004137 0.004129 -0.004339
# 4 -0.004336 0.003592 0.004137 0.032465 -0.006078 0.003840
# 5 0.001749 -0.003595 0.004129 -0.006078 0.028500 -0.001100
# 6 -0.002724 0.002351 -0.004339 0.003840 -0.001100 0.036975
#
#
# Mechanical properties :
#
#
# Convention : Reuss Voigt Hill
#
# Bulk Modulus (GPa) = 44.28291 51.73069 48.00680
# Shear Modulus (GPa) = 30.98027 38.61180 34.79603
#
# Velocity S-wave (km/s) = 3.45483 3.85695 3.66141
# Velocity P-wave (km/s) = 5.74242 6.30596 6.03077
#
# Compressibility (1/GPa) = 0.02258207
#
# Stress axis : x y z
#
# Youngs Moduli (GPa) = 126.61519 52.93398 80.22762
#
# Poissons Ratio (x) = 0.09595 0.09060
# Poissons Ratio (y) = 0.22950 0.43275
# Poissons Ratio (z) = 0.14298 0.28553
#
# Static dielectric constant tensor:
#      x y z
#    x 2.080680 -0.026840 -0.063920 
#    y -0.026840 1.975810 -0.053870 
#    z -0.063920 -0.053870 2.138260 
# 
# From -- ./inp_files/72014.got.cif
#   From: 2010.05.17/outbox.cif.g08.bks.cpg/sg2_37_cif.got.tgz:72014.got - 2010.06.03 11:33:40.
