data_PCOD9095741
_publ_section_title
;
Structure prediction by ZEFSAII (Michael W. Deem and Ramdas Pophale) SiO2 
 PCOD9095741
Probable space group: P -1
;
_chemical_formula_sum "Si O2"
_cell_formula_units_Z 16
_cell_length_a 9.817211
_cell_length_b 5.245603
_cell_length_c 28.379525
_cell_angle_alpha 65.403039
_cell_angle_beta 144.170051
_cell_angle_gamma 98.066359
_cell_volume 722.558711
_symmetry_space_group_name_H-M "P -1"
_symmetry_group_IT_number 2
_symmetry_cell_setting 'triclinic'
loop_
_space_group_symop_operation_xyz
x,y,z
-x,-y,-z
loop_
_atom_site_type_symbol
_atom_site_label
_atom_site_fract_x
_atom_site_fract_y
_atom_site_fract_z
Si Si1 0.950684 0.924195 0.416875
Si Si2 0.785391 0.854036 0.949470
Si Si3 0.427698 0.713559 0.508322
Si Si4 0.311037 0.145781 0.977692
Si Si5 0.702707 0.455040 0.370765
Si Si6 0.773067 0.456776 0.713690
Si Si7 0.105747 0.156767 0.116483
Si Si8 0.981096 0.794551 0.811751
O O1 0.137032 0.846495 0.430976
O O2 0.134169 0.761203 0.524713
O O3 0.765061 0.751680 0.369652
O O4 0.803573 0.265783 0.366047
O O5 0.697522 0.926640 0.865101
O O6 0.606411 0.949234 0.937670
O O7 0.918790 0.494732 0.023364
O O8 0.000000 0.000000 0.000000
O O9 0.500000 0.500000 0.500000
O O10 0.593553 0.536713 0.612329
O O11 0.500000 0.000000 0.500000
O O12 0.221908 0.504990 0.915822
O O13 0.066842 0.047426 0.913703
O O14 0.500000 0.000000 0.000000
O O15 0.414063 0.534666 0.296190
O O16 0.884715 0.701177 0.743609
O O17 0.980327 0.129879 0.784881
O O18 0.190474 0.183321 0.191347
#
# Coordination Sequence:
#
# PCOD9095741 Si02
#       8
#     2   2   2   2   2   2   2   2
#     4   9  17  31  53  82 107 133 179 237 285 322
#     4   8  16  30  55  84 113 143 185 248 293 329
#     4  11  22  37  59  89 113 158 204 239 284 362
#     4  10  20  35  59  91 119 157 211 252 292 353
#     4   9  17  31  53  80 109 133 174 239 288 333
#     4  11  22  37  58  87 115 151 196 246 307 355
#     4   9  17  34  55  87 113 149 196 245 300 342
#     4  11  21  36  56  85 119 154 190 253 302 361
#
# _framework density 22.143529999999998
#
# number of rings (size 3 to 8) (size 9 to 14) (size 15 to 20)
#    0.000    2.250    1.250    2.250    0.000    6.000 
#    0.000    0.000    0.000    6.000   26.000    0.000 
#    0.000    0.000    0.000    0.000    0.000    0.000 
#
# Total GULP energy -89139.425434 kJ/mol
# GULP energy per Si atom -5571.214090 kJ/mol
# Density = 2.209313 g / cm^3
# Si number density = 22.143530 Si / 1000 Ang^3
#
#
#
# Elastic Constant Matrix: (Units=GPa)
#
#
# Indices 1 2 3 4 5 6 
#
# 1 124.7837 26.1624 20.2195 -3.2916 10.1624 -43.2222
# 2 26.1624 120.0937 21.8249 -15.8651 10.8960 -31.4759
# 3 20.2195 21.8249 42.1590 -11.2202 7.2244 -11.5578
# 4 -3.2916 -15.8651 -11.2202 29.8088 -8.2573 -2.5525
# 5 10.1624 10.8960 7.2244 -8.2573 20.1657 4.6706
# 6 -43.2222 -31.4759 -11.5578 -2.5525 4.6706 48.1241
#
#
#
# Elastic Compliance Matrix: (Units=1/GPa)
#
#
# Indices 1 2 3 4 5 6 
#
# 1 0.013673 0.002073 -0.001869 0.000205 -0.010551 0.014222
# 2 0.002073 0.012265 -0.001930 0.004873 -0.007393 0.010396
# 3 -0.001869 -0.001930 0.030646 0.008944 -0.006614 0.005536
# 4 0.000205 0.004873 0.008944 0.042896 0.010045 0.006819
# 5 -0.010551 -0.007393 -0.006614 0.010045 0.070529 -0.022213
# 6 0.014222 0.010396 0.005536 0.006819 -0.022213 0.044200
#
#
# Mechanical properties :
#
#
# Convention : Reuss Voigt Hill
#
# Bulk Modulus (GPa) = 18.82093 47.04999 32.93546
# Shear Modulus (GPa) = 21.24294 34.20838 27.72566
#
# Velocity S-wave (km/s) = 3.10066 3.93472 3.54233
# Velocity P-wave (km/s) = 4.61918 6.47584 5.62465
#
# Compressibility (1/GPa) = 0.05313234
#
# Stress axis : x y z
#
# Youngs Moduli (GPa) = 73.13701 81.53081 32.63018
#
# Poissons Ratio (x) = -0.16900 0.06099
# Poissons Ratio (y) = -0.15160 0.06297
# Poissons Ratio (z) = 0.13671 0.15733
#
# Static dielectric constant tensor:
#      x y z
#    x 1.856590 -0.025770 0.007420 
#    y -0.025770 1.849000 -0.015160 
#    z 0.007420 -0.015160 1.728650 
# 
# From -- ./inp_files/622141.got.cif
#   From: 2010.05.17/outbox.cif.g08.bks.cpg/sg2_312_cif.got.tgz:622141.got - 2010.06.03 11:33:40.
