data_PCOD9095160
_publ_section_title
;
Structure prediction by ZEFSAII (Michael W. Deem and Ramdas Pophale) SiO2 
 PCOD9095160
Probable space group: P -1
;
_chemical_formula_sum "Si O2"
_cell_formula_units_Z 14
_cell_length_a 11.123892
_cell_length_b 7.068205
_cell_length_c 19.808458
_cell_angle_alpha 54.772262
_cell_angle_beta 31.489717
_cell_angle_gamma 45.317667
_cell_volume 577.343876
_symmetry_space_group_name_H-M "P -1"
_symmetry_group_IT_number 2
_symmetry_cell_setting 'triclinic'
loop_
_space_group_symop_operation_xyz
x,y,z
-x,-y,-z
loop_
_atom_site_type_symbol
_atom_site_label
_atom_site_fract_x
_atom_site_fract_y
_atom_site_fract_z
Si Si1 0.443230 0.536359 0.417589
Si Si2 0.817569 0.124942 0.753966
Si Si3 0.658268 0.025003 0.716012
Si Si4 0.411769 0.919078 0.475626
Si Si5 0.022832 0.260850 0.133290
Si Si6 0.726070 0.645410 0.642027
Si Si7 0.964202 0.786014 0.018818
O O1 0.299055 0.737383 0.383701
O O2 0.399451 0.734839 0.459367
O O3 0.398257 0.297848 0.515357
O O4 0.751086 0.391960 0.278914
O O5 0.118240 0.069199 0.616283
O O6 0.786154 0.011060 0.863129
O O7 0.779831 0.961222 0.744948
O O8 0.646196 0.435145 0.752131
O O9 0.346133 0.130617 0.848606
O O10 0.760698 0.790486 0.661075
O O11 0.468287 0.127507 0.365162
O O12 0.109192 0.486414 0.041035
O O13 0.970354 0.215885 0.090719
O O14 0.000000 0.500000 0.500000
O O15 0.000000 0.000000 0.000000
#
# Coordination Sequence:
#
# PCOD9095160 Si02
#       7
#     2   2   2   2   2   2   2
#     4   8  15  31  54  79 109 145 184 218 258 317
#     4  10  20  35  55  83 119 145 175 225 275 331
#     4  10  21  35  55  83 112 146 182 227 283 323
#     4   8  15  31  54  79 112 150 185 217 256 317
#     4   9  20  38  59  82 108 143 182 226 281 325
#     4   9  19  33  52  81 116 151 182 214 264 327
#     4  10  22  41  61  79 103 139 189 237 274 326
#
# _framework density 24.248982999999999
#
# number of rings (size 3 to 8) (size 9 to 14) (size 15 to 20)
#    0.000    2.857    0.000    0.000    0.000   10.286 
#    0.000    2.143    0.000   15.429    0.000    0.000 
#    0.000    0.000    0.000    0.000    0.000    0.000 
#
# Total GULP energy -78211.902528 kJ/mol
# GULP energy per Si atom -5586.564466 kJ/mol
# Density = 2.419379 g / cm^3
# Si number density = 24.248983 Si / 1000 Ang^3
#
#
#
# Elastic Constant Matrix: (Units=GPa)
#
#
# Indices 1 2 3 4 5 6 
#
# 1 82.7966 47.0417 34.7179 -35.6615 17.9427 10.9753
# 2 47.0417 135.8968 56.8242 -44.0725 27.4872 -2.8922
# 3 34.7179 56.8242 80.4836 -48.3831 -0.2319 -13.1881
# 4 -35.6615 -44.0725 -48.3831 25.2946 -29.1415 3.9809
# 5 17.9427 27.4872 -0.2319 -29.1415 45.1361 -13.5099
# 6 10.9753 -2.8922 -13.1881 3.9809 -13.5099 29.5573
#
#
#
# Elastic Compliance Matrix: (Units=1/GPa)
#
#
# Indices 1 2 3 4 5 6 
#
# 1 0.023617 -0.000721 -0.008646 0.006732 -0.010101 -0.018221
# 2 -0.000721 0.012806 -0.005329 0.006698 -0.004334 -0.003740
# 3 -0.008646 -0.005329 0.003054 -0.028786 -0.011022 0.002891
# 4 0.006732 0.006698 -0.028786 -0.027978 -0.032710 -0.025871
# 5 -0.010101 -0.004334 -0.011022 -0.032710 0.009820 0.007303
# 6 -0.018221 -0.003740 0.002891 -0.025871 0.007303 0.048345
#
#
# Mechanical properties :
#
#
# Convention : Reuss Voigt Hill
#
# Bulk Modulus (GPa) = 99.16120 64.03827 81.59974
# Shear Modulus (GPa) = 48.81988 30.70383 39.76186
#
# Velocity S-wave (km/s) = 4.49182 3.56222 4.05375
# Velocity P-wave (km/s) = 8.23915 6.58674 7.45885
#
# Compressibility (1/GPa) = 0.01008459
#
# Stress axis : x y z
#
# Youngs Moduli (GPa) = 42.34230 78.09065 327.44393
#
# Poissons Ratio (x) = 0.05633 2.83107
# Poissons Ratio (y) = 0.03055 1.74484
# Poissons Ratio (z) = 0.36609 0.41612
#
# Static dielectric constant tensor:
#      x y z
#    x 1.937460 -0.058260 0.010850 
#    y -0.058260 2.021830 -0.021470 
#    z 0.010850 -0.021470 1.925470 
# 
# From -- ./inp_files/282358.got.cif
#   From: 2010.05.17/outbox.cif.g08.bks.cpg/sg2_142_cif.got.tgz:282358.got - 2010.06.03 11:33:40.
