data_PCOD9095645
_publ_section_title
;
Structure prediction by ZEFSAII (Michael W. Deem and Ramdas Pophale) SiO2 
 PCOD9095645
Probable space group: P -1
;
_chemical_formula_sum "Si O2"
_cell_formula_units_Z 16
_cell_length_a 21.034513
_cell_length_b 23.523657
_cell_length_c 5.187981
_cell_angle_alpha 82.420663
_cell_angle_beta 107.797996
_cell_angle_gamma 161.192646
_cell_volume 676.431848
_symmetry_space_group_name_H-M "P -1"
_symmetry_group_IT_number 2
_symmetry_cell_setting 'triclinic'
loop_
_space_group_symop_operation_xyz
x,y,z
-x,-y,-z
loop_
_atom_site_type_symbol
_atom_site_label
_atom_site_fract_x
_atom_site_fract_y
_atom_site_fract_z
Si Si1 0.147581 0.768029 0.269244
Si Si2 0.881042 0.992329 0.469079
Si Si3 0.631671 0.227731 0.796076
Si Si4 0.305979 0.385874 0.064583
Si Si5 0.321443 0.059910 0.781829
Si Si6 0.943971 0.381042 0.250794
Si Si7 0.011899 0.776801 0.065242
Si Si8 0.206429 0.196833 0.394636
O O1 0.165506 0.749827 0.032289
O O2 0.962261 0.668112 0.062702
O O3 0.400916 0.005034 0.525348
O O4 0.072652 0.664438 0.470688
O O5 0.670923 0.864662 0.255851
O O6 0.965313 0.025647 0.308995
O O7 0.824677 0.895185 0.658234
O O8 0.120251 0.225158 0.698419
O O9 0.789380 0.311581 0.095355
O O10 0.548645 0.210105 0.893600
O O11 0.794691 0.387640 0.673807
O O12 0.295176 0.314432 0.223503
O O13 0.582529 0.628388 0.231997
O O14 0.195829 0.346773 0.125143
O O15 0.141727 0.894521 0.427354
O O16 0.200473 0.943795 0.970791
#
# Coordination Sequence:
#
# PCOD9095645 Si02
#       8
#     2   2   2   2   2   2   2   2
#     4  11  23  42  66  94 129 168 209 260 315 371
#     4  10  20  36  57  83 116 154 200 249 299 366
#     4  10  24  43  66  95 130 167 210 262 317 370
#     4  10  20  36  57  84 117 155 198 249 303 358
#     4  10  21  39  63  88 125 167 201 254 317 365
#     4  11  25  41  67  97 126 166 215 260 310 380
#     4  10  21  39  63  90 126 166 204 253 311 369
#     4  10  20  35  59  84 113 153 203 246 304 358
#
# _framework density 23.65353
#
# number of rings (size 3 to 8) (size 9 to 14) (size 15 to 20)
#    0.000    1.750    1.250    3.000    0.000    8.000 
#    0.000    0.000    0.000    0.000    0.000    0.000 
#    0.000    0.000    0.000    0.000    0.000    0.000 
#
# Total GULP energy -89382.643329 kJ/mol
# GULP energy per Si atom -5586.415208 kJ/mol
# Density = 2.359969 g / cm^3
# Si number density = 23.653530 Si / 1000 Ang^3
#
#
#
# Elastic Constant Matrix: (Units=GPa)
#
#
# Indices 1 2 3 4 5 6 
#
# 1 198.6338 67.6441 56.2434 -20.5835 34.5972 19.3320
# 2 67.6441 111.6362 69.0875 -8.3521 -3.7935 21.1134
# 3 56.2434 69.0875 110.0763 -38.5107 -9.9693 19.8326
# 4 -20.5835 -8.3521 -38.5107 53.5229 4.5244 -15.1616
# 5 34.5972 -3.7935 -9.9693 4.5244 31.8463 -2.1749
# 6 19.3320 21.1134 19.8326 -15.1616 -2.1749 39.8453
#
#
#
# Elastic Compliance Matrix: (Units=1/GPa)
#
#
# Indices 1 2 3 4 5 6 
#
# 1 0.009625 -0.004478 -0.002285 0.002089 -0.012072 -0.001024
# 2 -0.004478 0.019391 -0.011641 -0.009003 0.004435 -0.005492
# 3 -0.002285 -0.011641 0.022560 0.013426 0.006354 0.001504
# 4 0.002089 -0.009003 0.013426 0.030388 -0.002877 0.008480
# 5 -0.012072 0.004435 0.006354 -0.002877 0.047568 0.001846
# 6 -0.001024 -0.005492 0.001504 0.008480 0.001846 0.031083
#
#
# Mechanical properties :
#
#
# Convention : Reuss Voigt Hill
#
# Bulk Modulus (GPa) = 67.71641 89.58846 78.65243
# Shear Modulus (GPa) = 24.71000 40.20098 32.45549
#
# Velocity S-wave (km/s) = 3.23563 4.12706 3.70823
# Velocity P-wave (km/s) = 6.53067 7.78895 7.18740
#
# Compressibility (1/GPa) = 0.01476747
#
# Stress axis : x y z
#
# Youngs Moduli (GPa) = 103.89138 51.57002 44.32598
#
# Poissons Ratio (x) = 0.23095 0.10130
# Poissons Ratio (y) = 0.46526 0.51599
# Poissons Ratio (z) = 0.23744 0.60032
#
# Static dielectric constant tensor:
#      x y z
#    x 1.963640 -0.007530 0.011730 
#    y -0.007530 1.901900 0.014590 
#    z 0.011730 0.014590 1.970660 
# 
# From -- ./inp_files/120655.got.cif
#   From: 2010.05.17/outbox.cif.g08.bks.cpg/sg2_61_cif.got.tgz:120655.got - 2010.06.03 11:33:40.
