data_PCOD9095433
_publ_section_title
;
Structure prediction by ZEFSAII (Michael W. Deem and Ramdas Pophale) SiO2 
 PCOD9095433
Probable space group: P -1
;
_chemical_formula_sum "Si O2"
_cell_formula_units_Z 16
_cell_length_a 19.560935
_cell_length_b 17.930573
_cell_length_c 10.951081
_cell_angle_alpha 145.052087
_cell_angle_beta 146.133972
_cell_angle_gamma 21.395245
_cell_volume 760.064477
_symmetry_space_group_name_H-M "P -1"
_symmetry_group_IT_number 2
_symmetry_cell_setting 'triclinic'
loop_
_space_group_symop_operation_xyz
x,y,z
-x,-y,-z
loop_
_atom_site_type_symbol
_atom_site_label
_atom_site_fract_x
_atom_site_fract_y
_atom_site_fract_z
Si Si1 0.009136 0.938637 0.567181
Si Si2 0.321212 0.532135 0.587347
Si Si3 0.626077 0.386906 0.658497
Si Si4 0.613176 0.088521 0.531279
Si Si5 0.427875 0.134355 0.695700
Si Si6 0.953402 0.188451 0.218315
Si Si7 0.270956 0.951596 0.077815
Si Si8 0.117350 0.599167 0.848755
O O1 0.129480 0.704055 0.444334
O O2 0.000000 0.000000 0.500000
O O3 0.788106 0.135899 0.555124
O O4 0.145903 0.928542 0.829481
O O5 0.487410 0.481091 0.697143
O O6 0.440155 0.301865 0.485808
O O7 0.218384 0.659721 0.732883
O O8 0.500000 0.500000 0.500000
O O9 0.754586 0.410303 0.890835
O O10 0.569746 0.973384 0.338928
O O11 0.631892 0.136015 0.760757
O O12 0.832114 0.929517 0.587333
O O13 0.214336 0.378027 0.695962
O O14 0.500000 0.000000 0.500000
O O15 0.575485 0.135166 0.914777
O O16 0.882007 0.331663 0.189180
O O17 0.000000 0.000000 0.000000
O O18 0.108245 0.201781 0.177828
#
# Coordination Sequence:
#
# PCOD9095433 Si02
#       8
#     2   2   2   2   2   2   2   2
#     4  11  22  38  59  90 115 155 197 249 297 355
#     4  12  22  37  60  83 128 156 190 248 305 354
#     4  11  23  40  59  92 116 155 207 243 301 359
#     4  10  22  36  56  90 122 155 197 239 300 361
#     4  10  20  35  57  88 119 161 203 234 292 358
#     4  11  22  36  56  92 128 155 192 241 314 370
#     4   9  20  36  57  88 122 149 199 237 299 355
#     4  10  21  36  59  86 126 157 192 250 293 349
#
# _framework density 21.050844000000001
#
# number of rings (size 3 to 8) (size 9 to 14) (size 15 to 20)
#    0.000    1.500    1.250    6.000    0.000   10.000 
#    0.000    0.000    0.000    1.500    0.000    0.000 
#    0.000    0.000    0.000    0.000    0.000    0.000 
#
# Total GULP energy -89269.249527 kJ/mol
# GULP energy per Si atom -5579.328095 kJ/mol
# Density = 2.100293 g / cm^3
# Si number density = 21.050844 Si / 1000 Ang^3
#
#
#
# Elastic Constant Matrix: (Units=GPa)
#
#
# Indices 1 2 3 4 5 6 
#
# 1 86.6965 44.3093 13.0640 -4.8731 5.5992 -11.0399
# 2 44.3093 186.4751 19.8998 7.6316 3.9980 10.8723
# 3 13.0640 19.8998 17.2285 -6.7160 1.3229 10.4858
# 4 -4.8731 7.6316 -6.7160 29.4925 1.9385 0.2943
# 5 5.5992 3.9980 1.3229 1.9385 24.5212 1.1489
# 6 -11.0399 10.8723 10.4858 0.2943 1.1489 52.3572
#
#
#
# Elastic Compliance Matrix: (Units=1/GPa)
#
#
# Indices 1 2 3 4 5 6 
#
# 1 0.015849 -0.002806 -0.012200 0.000690 -0.002859 0.006427
# 2 -0.002806 0.006977 -0.007100 -0.003894 0.000222 -0.000601
# 3 -0.012200 -0.007100 0.096834 0.022214 -0.002073 -0.020571
# 4 0.000690 -0.003894 0.022214 0.040369 -0.003742 -0.003639
# 5 -0.002859 0.000222 -0.002073 -0.003742 0.041858 -0.001131
# 6 0.006427 -0.000601 -0.020571 -0.003639 -0.001131 0.024745
#
#
# Mechanical properties :
#
#
# Convention : Reuss Voigt Hill
#
# Bulk Modulus (GPa) = 13.25414 49.43848 31.34631
# Shear Modulus (GPa) = 16.89235 35.48265 26.18750
#
# Velocity S-wave (km/s) = 2.83584 4.11002 3.53088
# Velocity P-wave (km/s) = 4.12705 6.78670 5.61658
#
# Compressibility (1/GPa) = 0.07544811
#
# Stress axis : x y z
#
# Youngs Moduli (GPa) = 63.09726 143.33487 10.32695
#
# Poissons Ratio (x) = 0.40214 0.12599
# Poissons Ratio (y) = 0.17703 0.07332
# Poissons Ratio (z) = 0.76978 1.01770
#
# Static dielectric constant tensor:
#      x y z
#    x 1.793040 -0.007190 0.001930 
#    y -0.007190 1.822860 0.025940 
#    z 0.001930 0.025940 1.824120 
# 
# From -- ./inp_files/472276.got.cif
#   From: 2010.05.17/outbox.cif.g08.bks.cpg/sg2_237_cif.got.tgz:472276.got - 2010.06.03 11:33:40.
