data_PCOD9095057
_publ_section_title
;
Structure prediction by ZEFSAII (Michael W. Deem and Ramdas Pophale) SiO2 
 PCOD9095057
Probable space group: P -1
;
_chemical_formula_sum "Si O2"
_cell_formula_units_Z 16
_cell_length_a 11.465118
_cell_length_b 5.458565
_cell_length_c 12.043860
_cell_angle_alpha 95.544229
_cell_angle_beta 101.420552
_cell_angle_gamma 79.277625
_cell_volume 724.518944
_symmetry_space_group_name_H-M "P -1"
_symmetry_group_IT_number 2
_symmetry_cell_setting 'triclinic'
loop_
_space_group_symop_operation_xyz
x,y,z
-x,-y,-z
loop_
_atom_site_type_symbol
_atom_site_label
_atom_site_fract_x
_atom_site_fract_y
_atom_site_fract_z
Si Si1 0.359170 0.599115 0.958248
Si Si2 0.754390 0.241190 0.659064
Si Si3 0.047255 0.813621 0.139339
Si Si4 0.649600 0.911061 0.173086
Si Si5 0.332819 0.005474 0.575446
Si Si6 0.855841 0.741773 0.953972
Si Si7 0.637396 0.057271 0.837770
Si Si8 0.584421 0.678998 0.574461
O O1 0.310441 0.363336 0.886155
O O2 0.341204 0.840581 0.884565
O O3 0.500000 0.500000 0.000000
O O4 0.319669 0.716803 0.075439
O O5 0.889535 0.212183 0.729520
O O6 0.737979 0.159038 0.525359
O O7 0.682740 0.080436 0.721398
O O8 0.677922 0.519462 0.667772
O O9 0.101218 0.548559 0.078479
O O10 0.082596 0.068178 0.105662
O O11 0.906272 0.816828 0.086428
O O12 0.504204 0.925947 0.167338
O O13 0.709681 0.933114 0.305783
O O14 0.475713 0.885815 0.607083
O O15 0.339416 0.240228 0.508918
O O16 0.715337 0.820862 0.902793
O O17 0.500000 0.500000 0.500000
#
# Coordination Sequence:
#
# PCOD9095057 Si02
#       8
#     2   2   2   2   2   2   2   2
#     4  10  23  37  51  75 101 143 181 219 250 298
#     4  10  21  31  53  76 106 140 167 214 261 325
#     4   9  19  33  49  77 108 132 170 209 263 313
#     4  11  23  36  53  72 110 139 180 219 245 303
#     4  10  21  32  46  76 101 143 173 210 259 310
#     4   9  19  33  51  75 104 138 168 212 259 320
#     4  10  20  35  54  77 104 141 175 211 269 309
#     4   9  18  30  44  72 102 132 176 203 250 313
#
# _framework density 22.083621000000001
#
# number of rings (size 3 to 8) (size 9 to 14) (size 15 to 20)
#    0.000    2.250    0.000    3.750   12.250    4.000 
#    0.000    0.000    0.000    0.000    0.000    1.750 
#    0.000    0.000    0.000    0.000    0.000    0.000 
#
# Total GULP energy -89134.036833 kJ/mol
# GULP energy per Si atom -5570.877302 kJ/mol
# Density = 2.203336 g / cm^3
# Si number density = 22.083621 Si / 1000 Ang^3
#
#
#
# Elastic Constant Matrix: (Units=GPa)
#
#
# Indices 1 2 3 4 5 6 
#
# 1 35.1743 22.4987 15.4930 5.2775 15.8016 9.1115
# 2 22.4987 117.0450 41.9733 -4.9739 4.5481 20.5868
# 3 15.4930 41.9733 146.0715 20.4715 24.5133 10.8798
# 4 5.2775 -4.9739 20.4715 36.8492 1.0910 6.6676
# 5 15.8016 4.5481 24.5133 1.0910 28.3205 -4.3187
# 6 9.1115 20.5868 10.8798 6.6676 -4.3187 22.6733
#
#
#
# Elastic Compliance Matrix: (Units=1/GPa)
#
#
# Indices 1 2 3 4 5 6 
#
# 1 0.053995 -0.006989 0.004998 -0.006229 -0.036581 -0.022887
# 2 -0.006989 0.012805 -0.003821 0.006211 0.003675 -0.008111
# 3 0.004998 -0.003821 0.010512 -0.005995 -0.011658 -0.004040
# 4 -0.006229 0.006211 -0.005995 0.033722 0.004960 -0.009232
# 5 -0.036581 0.003675 -0.011658 0.004960 0.069410 0.028721
# 6 -0.022887 -0.008111 -0.004040 -0.009232 0.028721 0.070791
#
#
# Mechanical properties :
#
#
# Convention : Reuss Voigt Hill
#
# Bulk Modulus (GPa) = 15.22369 50.91342 33.06856
# Shear Modulus (GPa) = 17.55884 32.12368 24.84126
#
# Velocity S-wave (km/s) = 2.82282 3.81811 3.35755
# Velocity P-wave (km/s) = 4.18725 6.52244 5.48066
#
# Compressibility (1/GPa) = 0.06568708
#
# Stress axis : x y z
#
# Youngs Moduli (GPa) = 18.52008 78.09211 95.13380
#
# Poissons Ratio (x) = 0.54580 -0.47546
# Poissons Ratio (y) = 0.12944 0.36353
# Poissons Ratio (z) = -0.09256 0.29841
#
# Static dielectric constant tensor:
#      x y z
#    x 1.813270 0.018070 0.085740 
#    y 0.018070 1.864890 -0.033420 
#    z 0.085740 -0.033420 1.650340 
# 
# From -- ./inp_files/409343.got.cif
#   From: 2010.05.17/outbox.cif.g08.bks.cpg/sg2_205_cif.got.tgz:409343.got - 2010.06.03 11:33:40.
