data_PCOD9095758
_publ_section_title
;
Structure prediction by ZEFSAII (Michael W. Deem and Ramdas Pophale) SiO2 
 PCOD9095758
Probable space group: P -1
;
_chemical_formula_sum "Si O2"
_cell_formula_units_Z 16
_cell_length_a 22.099989
_cell_length_b 5.090647
_cell_length_c 8.770814
_cell_angle_alpha 68.671048
_cell_angle_beta 59.715615
_cell_angle_gamma 62.246918
_cell_volume 743.261988
_symmetry_space_group_name_H-M "P -1"
_symmetry_group_IT_number 2
_symmetry_cell_setting 'triclinic'
loop_
_space_group_symop_operation_xyz
x,y,z
-x,-y,-z
loop_
_atom_site_type_symbol
_atom_site_label
_atom_site_fract_x
_atom_site_fract_y
_atom_site_fract_z
Si Si1 0.367109 0.830594 0.896684
Si Si2 0.912004 0.868053 0.005726
Si Si3 0.483813 0.344949 0.402001
Si Si4 0.750980 0.905385 0.791195
Si Si5 0.790698 0.473075 0.548514
Si Si6 0.678016 0.591802 0.395975
Si Si7 0.241609 0.657981 0.938633
Si Si8 0.071289 0.785860 0.793818
O O1 0.454946 0.654015 0.801702
O O2 0.314178 0.651588 0.943731
O O3 0.347212 0.110673 0.742513
O O4 0.336707 0.949684 0.077759
O O5 0.922126 0.519154 0.059026
O O6 0.832270 0.060552 0.999248
O O7 0.912553 0.984797 0.156062
O O8 0.984206 0.915674 0.829081
O O9 0.500000 0.500000 0.500000
O O10 0.396003 0.475120 0.449108
O O11 0.500000 0.000000 0.500000
O O12 0.776349 0.732952 0.636718
O O13 0.779658 0.182103 0.699364
O O14 0.778409 0.636627 0.936145
O O15 0.726627 0.606978 0.474797
O O16 0.869742 0.337322 0.390337
O O17 0.732517 0.342407 0.268097
#
# Coordination Sequence:
#
# PCOD9095758 Si02
#       8
#     2   2   2   2   2   2   2   2
#     4  10  21  41  63  87 121 160 197 246 301 353
#     4  10  21  36  63  93 118 148 196 251 297 349
#     4  10  20  35  59  93 119 144 195 260 298 334
#     4  11  26  39  59  85 127 166 193 241 297 362
#     4  12  23  41  60  88 124 158 199 245 298 349
#     4  10  22  35  66  94 111 153 208 253 288 352
#     4  11  20  40  64  89 116 160 205 238 297 356
#     4  10  21  38  59  93 123 147 190 255 304 333
#
# _framework density 21.526730000000001
#
# number of rings (size 3 to 8) (size 9 to 14) (size 15 to 20)
#    0.000    1.500    3.750    1.500    3.500    0.000 
#    0.000    2.500    0.000    0.000    0.000    0.000 
#    0.000    0.000    0.000    0.000    0.000    0.000 
#
# Total GULP energy -89278.472193 kJ/mol
# GULP energy per Si atom -5579.904512 kJ/mol
# Density = 2.147773 g / cm^3
# Si number density = 21.526730 Si / 1000 Ang^3
#
#
#
# Elastic Constant Matrix: (Units=GPa)
#
#
# Indices 1 2 3 4 5 6 
#
# 1 48.7800 9.8445 28.2413 10.3149 -13.7455 -2.0853
# 2 9.8445 51.3384 8.1836 5.3748 -1.6816 12.6438
# 3 28.2413 8.1836 96.4118 26.8882 -26.2001 -10.9262
# 4 10.3149 5.3748 26.8882 37.5351 1.7966 -4.8717
# 5 -13.7455 -1.6816 -26.2001 1.7966 29.8979 13.0613
# 6 -2.0853 12.6438 -10.9262 -4.8717 13.0613 35.8052
#
#
#
# Elastic Compliance Matrix: (Units=1/GPa)
#
#
# Indices 1 2 3 4 5 6 
#
# 1 0.027279 -0.002940 -0.003624 -0.005417 0.010924 -0.003201
# 2 -0.002940 0.023284 0.000299 -0.004391 0.005200 -0.010797
# 3 -0.003624 0.000299 0.020085 -0.014657 0.018039 -0.002762
# 4 -0.005417 -0.004391 -0.014657 0.041745 -0.022789 0.010755
# 5 0.010924 0.005200 0.018039 -0.022789 0.065918 -0.022842
# 6 -0.003201 -0.010797 -0.002762 0.010755 -0.022842 0.040508
#
#
# Mechanical properties :
#
#
# Convention : Reuss Voigt Hill
#
# Bulk Modulus (GPa) = 17.20666 32.11878 24.66272
# Shear Modulus (GPa) = 19.94243 30.66503 25.30373
#
# Velocity S-wave (km/s) = 3.04699 3.77836 3.43221
# Velocity P-wave (km/s) = 4.51546 5.82988 5.21425
#
# Compressibility (1/GPa) = 0.05811703
#
# Stress axis : x y z
#
# Youngs Moduli (GPa) = 36.65868 42.94853 49.78796
#
# Poissons Ratio (x) = 0.12626 0.18045
# Poissons Ratio (y) = 0.10777 -0.01488
# Poissons Ratio (z) = 0.13286 -0.01284
#
# Static dielectric constant tensor:
#      x y z
#    x 1.795740 0.005060 -0.023970 
#    y 0.005060 1.804340 0.027220 
#    z -0.023970 0.027220 1.818510 
# 
# From -- ./inp_files/47548.got.cif
#   From: 2010.05.17/outbox.cif.g08.bks.cpg/sg2_24_cif.got.tgz:47548.got - 2010.06.03 11:33:40.
