data_PCOD9095689
_publ_section_title
;
Structure prediction by ZEFSAII (Michael W. Deem and Ramdas Pophale) SiO2 
 PCOD9095689
Probable space group: P -1
;
_chemical_formula_sum "Si O2"
_cell_formula_units_Z 16
_cell_length_a 17.763645
_cell_length_b 8.588386
_cell_length_c 20.660123
_cell_angle_alpha 47.983369
_cell_angle_beta 158.739769
_cell_angle_gamma 121.128024
_cell_volume 779.489077
_symmetry_space_group_name_H-M "P -1"
_symmetry_group_IT_number 2
_symmetry_cell_setting 'triclinic'
loop_
_space_group_symop_operation_xyz
x,y,z
-x,-y,-z
loop_
_atom_site_type_symbol
_atom_site_label
_atom_site_fract_x
_atom_site_fract_y
_atom_site_fract_z
Si Si1 0.426190 0.977300 0.018911
Si Si2 0.076381 0.700592 0.485242
Si Si3 0.003639 0.485618 0.097756
Si Si4 0.744202 0.888531 0.694256
Si Si5 0.203365 0.947153 0.625166
Si Si6 0.636085 0.271512 0.853053
Si Si7 0.045828 0.796297 0.289550
Si Si8 0.844575 0.594909 0.612077
O O1 0.562645 0.092429 0.139544
O O2 0.468804 0.744113 0.156150
O O3 0.158741 0.082437 0.767054
O O4 0.500000 0.000000 0.000000
O O5 0.220650 0.746427 0.645209
O O6 0.000000 0.500000 0.500000
O O7 0.148626 0.692004 0.470900
O O8 0.209641 0.299237 0.274005
O O9 0.054455 0.468216 0.218642
O O10 0.926888 0.736823 0.936120
O O11 0.791239 0.412904 0.937583
O O12 0.500000 0.000000 0.500000
O O13 0.801204 0.090069 0.653672
O O14 0.148928 0.171564 0.474840
O O15 0.000000 0.000000 0.500000
O O16 0.419245 0.366862 0.607402
O O17 0.802716 0.009641 0.043155
O O18 0.032795 0.601994 0.286953
#
# Coordination Sequence:
#
# PCOD9095689 Si02
#       8
#     2   2   2   2   2   2   2   2
#     4  10  20  35  59  87 119 161 203 250 304 362
#     4  11  23  41  60  89 127 160 205 262 302 365
#     4  10  22  40  64  90 120 164 207 250 305 379
#     4  10  21  41  63  91 127 160 203 253 316 366
#     4  11  21  36  61  88 121 164 205 250 311 367
#     4   9  21  40  58  86 127 157 201 256 303 360
#     4  10  22  40  61  89 126 160 203 261 308 366
#     4  11  22  39  65  90 118 166 208 248 316 366
#
# _framework density 20.526266
#
# number of rings (size 3 to 8) (size 9 to 14) (size 15 to 20)
#    0.000    1.750    1.250    3.750    1.750    2.000 
#    0.000   15.000    0.000    0.000    0.000    0.000 
#    0.000    0.000    0.000    0.000    0.000    0.000 
#
# Total GULP energy -89221.057419 kJ/mol
# GULP energy per Si atom -5576.316089 kJ/mol
# Density = 2.047955 g / cm^3
# Si number density = 20.526266 Si / 1000 Ang^3
#
#
#
# Elastic Constant Matrix: (Units=GPa)
#
#
# Indices 1 2 3 4 5 6 
#
# 1 148.0207 56.2964 25.8785 9.0199 -16.5791 2.1251
# 2 56.2964 92.0830 19.4585 4.4282 -15.5187 1.4384
# 3 25.8785 19.4585 51.6554 15.8574 -0.1239 -8.1731
# 4 9.0199 4.4282 15.8574 30.2645 -3.1416 -0.6986
# 5 -16.5791 -15.5187 -0.1239 -3.1416 44.7225 2.8274
# 6 2.1251 1.4384 -8.1731 -0.6986 2.8274 33.6007
#
#
#
# Elastic Compliance Matrix: (Units=1/GPa)
#
#
# Indices 1 2 3 4 5 6 
#
# 1 0.009320 -0.004717 -0.002978 -0.000363 0.001865 -0.001276
# 2 -0.004717 0.015189 -0.004129 0.001697 0.003733 -0.001635
# 3 -0.002978 -0.004129 0.027573 -0.013189 -0.003837 0.007121
# 4 -0.000363 0.001697 -0.013189 0.040103 0.003406 -0.002711
# 5 0.001865 0.003733 -0.003837 0.003406 0.024780 -0.003225
# 6 -0.001276 -0.001635 0.007121 -0.002711 -0.003225 0.031859
#
#
# Mechanical properties :
#
#
# Convention : Reuss Voigt Hill
#
# Bulk Modulus (GPa) = 35.17041 55.00288 45.08665
# Shear Modulus (GPa) = 27.47999 34.39259 30.93629
#
# Velocity S-wave (km/s) = 3.66289 4.09778 3.88642
# Velocity P-wave (km/s) = 5.92120 7.01737 6.49246
#
# Compressibility (1/GPa) = 0.02843299
#
# Stress axis : x y z
#
# Youngs Moduli (GPa) = 107.29887 65.83672 36.26729
#
# Poissons Ratio (x) = 0.31053 0.10802
# Poissons Ratio (y) = 0.50609 0.14976
# Poissons Ratio (z) = 0.31958 0.27186
#
# Static dielectric constant tensor:
#      x y z
#    x 1.834060 -0.027130 0.033420 
#    y -0.027130 1.719120 0.007410 
#    z 0.033420 0.007410 1.695010 
# 
# From -- ./inp_files/352420.got.cif
#   From: 2010.05.17/outbox.cif.g08.bks.cpg/sg2_177_cif.got.tgz:352420.got - 2010.06.03 11:33:40.
