data_PCOD9095421
_publ_section_title
;
Structure prediction by ZEFSAII (Michael W. Deem and Ramdas Pophale) SiO2 
 PCOD9095421
Probable space group: P -1
;
_chemical_formula_sum "Si O2"
_cell_formula_units_Z 16
_cell_length_a 10.203170
_cell_length_b 20.425145
_cell_length_c 6.493496
_cell_angle_alpha 44.749423
_cell_angle_beta 119.792208
_cell_angle_gamma 144.411465
_cell_volume 543.575921
_symmetry_space_group_name_H-M "P -1"
_symmetry_group_IT_number 2
_symmetry_cell_setting 'triclinic'
loop_
_space_group_symop_operation_xyz
x,y,z
-x,-y,-z
loop_
_atom_site_type_symbol
_atom_site_label
_atom_site_fract_x
_atom_site_fract_y
_atom_site_fract_z
Si Si1 0.251386 0.119326 0.573216
Si Si2 0.032706 0.173521 0.520551
Si Si3 0.396489 0.042669 0.551545
Si Si4 0.245838 0.409878 0.849059
Si Si5 0.111092 0.488663 0.868470
Si Si6 0.126738 0.705945 0.505319
Si Si7 0.332889 0.303343 0.854992
Si Si8 0.590225 0.282705 0.843541
O O1 0.250411 0.020592 0.673913
O O2 0.454700 0.203447 0.706827
O O3 0.062382 0.082221 0.655464
O O4 0.284329 0.205437 0.215421
O O5 0.113327 0.211365 0.735370
O O6 0.785101 0.096206 0.422875
O O7 0.209929 0.317375 0.207699
O O8 0.642539 0.127955 0.647706
O O9 0.487636 0.160747 0.195155
O O10 0.275448 0.516018 0.771497
O O11 0.391387 0.421861 0.767197
O O12 0.011597 0.321259 0.736805
O O13 0.193378 0.626972 0.703747
O O14 0.140262 0.608317 0.204824
O O15 0.048137 0.388291 0.228457
O O16 0.528033 0.351448 0.751583
#
# Coordination Sequence:
#
# PCOD9095421 Si02
#       8
#     2   2   2   2   2   2   2   2
#     4   9  18  33  57  86 116 154 195 235 285 346
#     4  10  21  35  55  86 124 157 186 233 292 347
#     4  10  20  35  57  87 119 153 196 238 281 343
#     4  11  21  37  60  87 119 154 190 234 293 350
#     4  10  21  40  64  86 114 150 195 246 288 337
#     4  10  22  39  61  85 113 153 198 241 286 337
#     4   9  20  37  57  85 122 154 186 235 292 347
#     4   9  19  36  59  86 116 151 194 239 285 342
#
# _framework density 29.434711
#
# number of rings (size 3 to 8) (size 9 to 14) (size 15 to 20)
#    0.000    2.250    0.000    2.250    0.000    7.000 
#    0.000    6.250    0.000   37.500    0.000    0.000 
#    0.000    0.000    0.000    0.000    0.000    0.000 
#
# Total GULP energy -89658.831849 kJ/mol
# GULP energy per Si atom -5603.676991 kJ/mol
# Density = 2.936772 g / cm^3
# Si number density = 29.434711 Si / 1000 Ang^3
#
#
#
# Elastic Constant Matrix: (Units=GPa)
#
#
# Indices 1 2 3 4 5 6 
#
# 1 142.5945 43.1127 36.4829 7.9549 -36.5227 -30.7375
# 2 43.1127 147.3235 31.6821 58.5002 -1.8275 10.4869
# 3 36.4829 31.6821 148.9427 38.1914 -8.2888 -2.4124
# 4 7.9549 58.5002 38.1914 58.1874 5.4791 9.3475
# 5 -36.5227 -1.8275 -8.2888 5.4791 56.0729 15.0516
# 6 -30.7375 10.4869 -2.4124 9.3475 15.0516 60.6015
#
#
#
# Elastic Compliance Matrix: (Units=1/GPa)
#
#
# Indices 1 2 3 4 5 6 
#
# 1 0.010950 -0.004134 -0.002182 0.002887 0.005199 0.004446
# 2 -0.004134 0.013074 0.001585 -0.013250 -0.000142 -0.002217
# 3 -0.002182 0.001585 0.008764 -0.007093 0.000646 -0.000098
# 4 0.002887 -0.013250 -0.007093 0.035229 -0.002696 -0.001289
# 5 0.005199 -0.000142 0.000646 -0.002696 0.022223 -0.002416
# 6 0.004446 -0.002217 -0.000098 -0.001289 -0.002416 0.019935
#
#
# Mechanical properties :
#
#
# Convention : Reuss Voigt Hill
#
# Bulk Modulus (GPa) = 42.86702 73.49069 58.17885
# Shear Modulus (GPa) = 39.24295 56.81122 48.02709
#
# Velocity S-wave (km/s) = 3.65529 4.39803 4.04375
# Velocity P-wave (km/s) = 5.69297 7.12824 6.45065
#
# Compressibility (1/GPa) = 0.02332796
#
# Stress axis : x y z
#
# Youngs Moduli (GPa) = 91.32594 76.48760 114.09931
#
# Poissons Ratio (x) = 0.31616 0.24894
# Poissons Ratio (y) = 0.37750 -0.18087
# Poissons Ratio (z) = 0.19925 -0.12125
#
# Static dielectric constant tensor:
#      x y z
#    x 2.316880 0.018460 0.023650 
#    y 0.018460 2.260860 -0.053160 
#    z 0.023650 -0.053160 2.267240 
# 
# From -- ./inp_files/83067.got.cif
#   From: 2010.05.17/outbox.cif.g08.bks.cpg/sg2_42_cif.got.tgz:83067.got - 2010.06.03 11:33:40.
