data_PCOD9095189
_publ_section_title
;
Structure prediction by ZEFSAII (Michael W. Deem and Ramdas Pophale) SiO2 
 PCOD9095189
Probable space group: P -1
;
_chemical_formula_sum "Si O2"
_cell_formula_units_Z 16
_cell_length_a 11.356811
_cell_length_b 9.858386
_cell_length_c 20.713359
_cell_angle_alpha 41.796883
_cell_angle_beta 45.255773
_cell_angle_gamma 78.521818
_cell_volume 796.424787
_symmetry_space_group_name_H-M "P -1"
_symmetry_group_IT_number 2
_symmetry_cell_setting 'triclinic'
loop_
_space_group_symop_operation_xyz
x,y,z
-x,-y,-z
loop_
_atom_site_type_symbol
_atom_site_label
_atom_site_fract_x
_atom_site_fract_y
_atom_site_fract_z
Si Si1 0.306156 0.571719 0.398574
Si Si2 0.439907 0.831115 0.872573
Si Si3 0.434054 0.050201 0.417169
Si Si4 0.760102 0.902246 0.639290
Si Si5 0.717382 0.917382 0.399855
Si Si6 0.408139 0.668902 0.081551
Si Si7 0.822312 0.313145 0.721078
Si Si8 0.160667 0.468377 0.981826
O O1 0.353513 0.376292 0.462136
O O2 0.245022 0.574547 0.346705
O O3 0.076694 0.447755 0.567725
O O4 0.510116 0.892396 0.228476
O O5 0.688315 0.941400 0.720692
O O6 0.348604 0.646698 0.037364
O O7 0.285958 0.661514 0.929268
O O8 0.274148 0.954197 0.451930
O O9 0.302795 0.998677 0.551013
O O10 0.546104 0.920862 0.424679
O O11 0.644185 0.383337 0.201411
O O12 0.588359 0.564773 0.820124
O O13 0.000000 0.000000 0.500000
O O14 0.975498 0.146404 0.190852
O O15 0.230898 0.635220 0.207772
O O16 0.648417 0.981376 0.891531
O O17 0.000000 0.500000 0.000000
#
# Coordination Sequence:
#
# PCOD9095189 Si02
#       8
#     2   2   2   2   2   2   2   2
#     4  10  20  37  59  86 120 162 198 247 306 351
#     4  10  22  37  56  91 125 147 204 252 295 369
#     4   9  21  38  58  92 115 151 212 248 289 373
#     4  11  22  35  57  85 124 155 194 249 311 352
#     4  10  20  38  67  84 115 165 202 248 305 355
#     4  10  20  35  55  87 120 163 192 247 301 356
#     4   9  20  36  56  85 126 156 203 241 296 373
#     4   9  20  40  61  85 118 156 200 252 296 356
#
# _framework density 20.089780000000001
#
# number of rings (size 3 to 8) (size 9 to 14) (size 15 to 20)
#    0.000    2.250    0.000    1.875    5.250    2.000 
#    0.000    5.625    0.000    6.750    0.000    0.000 
#    0.000    0.000    0.000    0.000    0.000    0.000 
#
# Total GULP energy -89189.724345 kJ/mol
# GULP energy per Si atom -5574.357772 kJ/mol
# Density = 2.004406 g / cm^3
# Si number density = 20.089780 Si / 1000 Ang^3
#
#
#
# Elastic Constant Matrix: (Units=GPa)
#
#
# Indices 1 2 3 4 5 6 
#
# 1 101.8481 41.4129 26.5238 -2.3466 17.9388 -8.6303
# 2 41.4129 62.3468 13.9428 -5.1623 14.2377 -12.7839
# 3 26.5238 13.9428 60.2578 3.5240 13.4600 -13.3720
# 4 -2.3466 -5.1623 3.5240 44.6459 -0.8835 14.1730
# 5 17.9388 14.2377 13.4600 -0.8835 26.0970 -3.1823
# 6 -8.6303 -12.7839 -13.3720 14.1730 -3.1823 30.1000
#
#
#
# Elastic Compliance Matrix: (Units=1/GPa)
#
#
# Indices 1 2 3 4 5 6 
#
# 1 0.014836 -0.008412 -0.004233 0.000673 -0.003634 -0.001900
# 2 -0.008412 0.024623 0.001500 -0.000443 -0.007448 0.008133
# 3 -0.004233 0.001500 0.022852 -0.005615 -0.008504 0.011320
# 4 0.000673 -0.000443 -0.005615 0.027738 0.001740 -0.015366
# 5 -0.003634 -0.007448 -0.008504 0.001740 0.048882 -0.003635
# 6 -0.001900 0.008133 0.011320 -0.015366 -0.003635 0.048012
#
#
# Mechanical properties :
#
#
# Convention : Reuss Voigt Hill
#
# Bulk Modulus (GPa) = 24.98743 43.13464 34.06104
# Shear Modulus (GPa) = 22.46439 29.67347 26.06893
#
# Velocity S-wave (km/s) = 3.34758 3.84740 3.60616
# Velocity P-wave (km/s) = 5.23513 6.42294 5.85921
#
# Compressibility (1/GPa) = 0.04002012
#
# Stress axis : x y z
#
# Youngs Moduli (GPa) = 67.40366 40.61193 43.76046
#
# Poissons Ratio (x) = 0.34162 0.18525
# Poissons Ratio (y) = 0.56699 -0.06563
# Poissons Ratio (z) = 0.28534 -0.06091
#
# Static dielectric constant tensor:
#      x y z
#    x 1.733440 0.006400 -0.026740 
#    y 0.006400 1.696180 0.003630 
#    z -0.026740 0.003630 1.801500 
# 
# From -- ./inp_files/333396.got.cif
#   From: 2010.05.17/outbox.cif.g08.bks.cpg/sg2_167_cif.got.tgz:333396.got - 2010.06.03 11:33:40.
