data_PCOD9095172
_publ_section_title
;
Structure prediction by ZEFSAII (Michael W. Deem and Ramdas Pophale) SiO2 
 PCOD9095172
Probable space group: P -1
;
_chemical_formula_sum "Si O2"
_cell_formula_units_Z 16
_cell_length_a 16.853767
_cell_length_b 16.924904
_cell_length_c 7.859423
_cell_angle_alpha 61.216104
_cell_angle_beta 116.609278
_cell_angle_gamma 159.146829
_cell_volume 699.433237
_symmetry_space_group_name_H-M "P -1"
_symmetry_group_IT_number 2
_symmetry_cell_setting 'triclinic'
loop_
_space_group_symop_operation_xyz
x,y,z
-x,-y,-z
loop_
_atom_site_type_symbol
_atom_site_label
_atom_site_fract_x
_atom_site_fract_y
_atom_site_fract_z
Si Si1 0.608407 0.321170 0.352995
Si Si2 0.302518 0.935043 0.219976
Si Si3 0.606407 0.698476 0.872462
Si Si4 0.897691 0.616347 0.987099
Si Si5 0.151834 0.612401 0.296320
Si Si6 0.220957 0.175851 0.430101
Si Si7 0.260674 0.714169 0.926231
Si Si8 0.489313 0.611331 0.226046
O O1 0.549185 0.368965 0.291916
O O2 0.777796 0.487333 0.186238
O O3 0.730325 0.368059 0.549528
O O4 0.386513 0.063922 0.335495
O O5 0.178429 0.722623 0.335116
O O6 0.153558 0.862030 0.034732
O O7 0.524436 0.114344 0.147375
O O8 0.805249 0.877055 0.738852
O O9 0.500000 0.500000 0.000000
O O10 0.623402 0.747159 0.034880
O O11 0.879832 0.510126 0.969179
O O12 0.735371 0.538475 0.830248
O O13 0.894475 0.364842 0.251419
O O14 0.277482 0.757692 0.091449
O O15 0.387984 0.416374 0.329397
O O16 0.349767 0.226967 0.625817
O O17 0.000000 0.000000 0.500000
#
# Coordination Sequence:
#
# PCOD9095172 Si02
#       8
#     2   2   2   2   2   2   2   2
#     4  10  21  36  58  85 113 158 200 241 298 363
#     4  10  20  36  56  84 119 155 196 243 296 352
#     4   9  20  41  63  87 125 161 200 255 309 366
#     4   9  20  37  56  81 112 158 196 241 297 355
#     4  10  20  35  55  84 119 155 198 243 295 354
#     4  10  21  37  63  91 115 154 201 253 309 365
#     4   9  20  35  56  81 116 159 194 242 299 348
#     4   9  20  39  58  84 122 157 196 249 309 365
#
# _framework density 22.875665000000001
#
# number of rings (size 3 to 8) (size 9 to 14) (size 15 to 20)
#    0.000    2.500    0.000    0.750    1.750    9.000 
#    0.000    7.500    0.000    0.000    0.000    0.000 
#    0.000    0.000    0.000    0.000    0.000    0.000 
#
# Total GULP energy -89131.843539 kJ/mol
# GULP energy per Si atom -5570.740221 kJ/mol
# Density = 2.282360 g / cm^3
# Si number density = 22.875665 Si / 1000 Ang^3
#
#
#
# Elastic Constant Matrix: (Units=GPa)
#
#
# Indices 1 2 3 4 5 6 
#
# 1 104.3193 23.5843 46.2423 6.5758 12.2110 13.1331
# 2 23.5843 55.3434 33.5566 15.3522 7.7404 18.5035
# 3 46.2423 33.5566 123.0346 19.5826 19.1244 14.3555
# 4 6.5758 15.3522 19.5826 30.6498 14.4122 3.8188
# 5 12.2110 7.7404 19.1244 14.4122 47.7305 -3.5881
# 6 13.1331 18.5035 14.3555 3.8188 -3.5881 39.0482
#
#
#
# Elastic Compliance Matrix: (Units=1/GPa)
#
#
# Indices 1 2 3 4 5 6 
#
# 1 0.012144 -0.002669 -0.003661 0.002260 -0.002031 -0.001881
# 2 -0.002669 0.027429 -0.003813 -0.009456 -0.000118 -0.009784
# 3 -0.003661 -0.003813 0.011559 -0.003584 -0.002073 -0.001052
# 4 0.002260 -0.009456 -0.003584 0.044398 -0.011039 -0.000318
# 5 -0.002031 -0.000118 -0.002073 -0.011039 0.026027 0.004972
# 6 -0.001881 -0.009784 -0.001052 -0.000318 0.004972 0.031753
#
#
# Mechanical properties :
#
#
# Convention : Reuss Voigt Hill
#
# Bulk Modulus (GPa) = 32.41864 54.38484 43.40174
# Shear Modulus (GPa) = 27.19170 35.43997 31.31583
#
# Velocity S-wave (km/s) = 3.45146 3.94031 3.70396
# Velocity P-wave (km/s) = 5.48505 6.67287 6.10790
#
# Compressibility (1/GPa) = 0.03084645
#
# Stress axis : x y z
#
# Youngs Moduli (GPa) = 82.34275 36.45755 86.51217
#
# Poissons Ratio (x) = 0.09732 0.31671
# Poissons Ratio (y) = 0.21980 0.32986
# Poissons Ratio (z) = 0.30145 0.13901
#
# Static dielectric constant tensor:
#      x y z
#    x 1.898490 -0.002400 0.004360 
#    y -0.002400 1.931740 0.017270 
#    z 0.004360 0.017270 1.907330 
# 
# From -- ./inp_files/336736.got.cif
#   From: 2010.05.17/outbox.cif.g08.bks.cpg/sg2_169_cif.got.tgz:336736.got - 2010.06.03 11:33:40.
