data_PCOD9095476
_publ_section_title
;
Structure prediction by ZEFSAII (Michael W. Deem and Ramdas Pophale) SiO2 
 PCOD9095476
Probable space group: P -1
;
_chemical_formula_sum "Si O2"
_cell_formula_units_Z 16
_cell_length_a 9.685704
_cell_length_b 20.570412
_cell_length_c 16.572201
_cell_angle_alpha 23.146389
_cell_angle_beta 129.850110
_cell_angle_gamma 142.422636
_cell_volume 736.292262
_symmetry_space_group_name_H-M "P -1"
_symmetry_group_IT_number 2
_symmetry_cell_setting 'triclinic'
loop_
_space_group_symop_operation_xyz
x,y,z
-x,-y,-z
loop_
_atom_site_type_symbol
_atom_site_label
_atom_site_fract_x
_atom_site_fract_y
_atom_site_fract_z
Si Si1 0.126596 0.740921 0.121575
Si Si2 0.161579 0.995995 0.986251
Si Si3 0.206267 0.274476 0.557887
Si Si4 0.401019 0.615487 0.640044
Si Si5 0.912780 0.872784 0.495867
Si Si6 0.667698 0.281081 0.928178
Si Si7 0.768113 0.078202 0.313689
Si Si8 0.743344 0.499434 0.459329
O O1 0.256158 0.806357 0.010616
O O2 0.141217 0.568321 0.364307
O O3 0.842239 0.610290 0.157107
O O4 0.242203 0.936314 0.006485
O O5 0.106738 0.134861 0.762367
O O6 0.382912 0.136909 0.970636
O O7 0.931079 0.759010 0.207497
O O8 0.192782 0.462706 0.329611
O O9 0.494816 0.410279 0.507362
O O10 0.087584 0.124390 0.603854
O O11 0.332100 0.629289 0.507835
O O12 0.637543 0.647222 0.676811
O O13 0.505009 0.828176 0.490060
O O14 0.111347 0.879001 0.604027
O O15 0.927524 0.061421 0.330146
O O16 0.739170 0.244786 0.081005
#
# Coordination Sequence:
#
# PCOD9095476 Si02
#       8
#     2   2   2   2   2   2   2   2
#     4  11  20  33  57  82 114 143 183 232 270 323
#     4  11  22  37  57  83 111 150 185 226 271 323
#     4  11  23  39  52  82 121 145 183 221 275 335
#     4   8  16  33  56  85 100 132 186 232 271 314
#     4   8  18  36  63  78 106 141 185 239 271 320
#     4  12  23  33  54  85 113 152 181 220 276 335
#     4   9  17  36  61  84  99 141 195 226 278 314
#     4  10  20  35  58  81 112 148 181 227 274 323
#
# _framework density 21.730501
#
# number of rings (size 3 to 8) (size 9 to 14) (size 15 to 20)
#    0.750    1.250    1.250    4.500    0.000    1.000 
#    2.250    0.625    5.500    0.750    0.000    0.000 
#    0.000    0.000    0.000    0.000    0.000    0.000 
#
# Total GULP energy -89305.962703 kJ/mol
# GULP energy per Si atom -5581.622669 kJ/mol
# Density = 2.168104 g / cm^3
# Si number density = 21.730501 Si / 1000 Ang^3
#
#
#
# Elastic Constant Matrix: (Units=GPa)
#
#
# Indices 1 2 3 4 5 6 
#
# 1 43.9403 5.7318 -5.3480 3.8365 -1.8166 -8.7186
# 2 5.7318 100.7159 48.0494 24.0583 -12.1363 3.9596
# 3 -5.3480 48.0494 120.2698 15.5284 3.8163 6.7519
# 4 3.8365 24.0583 15.5284 26.8114 3.8064 0.0993
# 5 -1.8166 -12.1363 3.8163 3.8064 19.7561 -0.2399
# 6 -8.7186 3.9596 6.7519 0.0993 -0.2399 18.1487
#
#
#
# Elastic Compliance Matrix: (Units=1/GPa)
#
#
# Indices 1 2 3 4 5 6 
#
# 1 0.025977 -0.001622 0.001496 -0.003445 0.001917 0.012321
# 2 -0.001622 0.018243 -0.005781 -0.014913 0.015019 -0.002329
# 3 0.001496 -0.005781 0.011073 -0.000657 -0.005453 -0.002208
# 4 -0.003445 -0.014913 -0.000657 0.054361 -0.019809 0.001284
# 5 0.001917 0.015019 -0.005453 -0.019809 0.064898 0.000639
# 6 0.012321 -0.002329 -0.002208 0.001284 0.000639 0.062350
#
#
# Mechanical properties :
#
#
# Convention : Reuss Voigt Hill
#
# Bulk Modulus (GPa) = 23.00074 40.19914 31.59994
# Shear Modulus (GPa) = 18.99637 27.37609 23.18623
#
# Velocity S-wave (km/s) = 2.95986 3.55322 3.27002
# Velocity P-wave (km/s) = 4.72108 5.94751 5.36943
#
# Compressibility (1/GPa) = 0.04347686
#
# Stress axis : x y z
#
# Youngs Moduli (GPa) = 38.49627 54.81593 90.31379
#
# Poissons Ratio (x) = 0.08893 -0.13507
# Poissons Ratio (y) = 0.06245 0.52208
# Poissons Ratio (z) = -0.05757 0.31688
#
# Static dielectric constant tensor:
#      x y z
#    x 1.846770 -0.010550 0.051350 
#    y -0.010550 1.782640 -0.018020 
#    z 0.051350 -0.018020 1.812110 
# 
# From -- ./inp_files/570641.got.cif
#   From: 2010.05.17/outbox.cif.g08.bks.cpg/sg2_286_cif.got.tgz:570641.got - 2010.06.03 11:33:40.
