data_PCOD9095561
_publ_section_title
;
Structure prediction by ZEFSAII (Michael W. Deem and Ramdas Pophale) SiO2 
 PCOD9095561
Probable space group: P -1
;
_chemical_formula_sum "Si O2"
_cell_formula_units_Z 14
_cell_length_a 23.180782
_cell_length_b 25.998510
_cell_length_c 5.139623
_cell_angle_alpha 81.028210
_cell_angle_beta 100.600266
_cell_angle_gamma 170.222890
_cell_volume 511.033122
_symmetry_space_group_name_H-M "P -1"
_symmetry_group_IT_number 2
_symmetry_cell_setting 'triclinic'
loop_
_space_group_symop_operation_xyz
x,y,z
-x,-y,-z
loop_
_atom_site_type_symbol
_atom_site_label
_atom_site_fract_x
_atom_site_fract_y
_atom_site_fract_z
Si Si1 0.534636 0.666610 0.292713
Si Si2 0.820552 0.244173 0.984549
Si Si3 0.101078 0.147071 0.026762
Si Si4 0.304839 0.730592 0.664571
Si Si5 0.138788 0.284766 0.734240
Si Si6 0.415521 0.125075 0.280884
Si Si7 0.127670 0.409978 0.089952
O O1 0.405477 0.517728 0.535982
O O2 0.398486 0.606045 0.279493
O O3 0.335367 0.472906 0.016494
O O4 0.937544 0.014540 0.279907
O O5 0.136044 0.556696 0.918636
O O6 0.637758 0.056833 0.731076
O O7 0.972202 0.324054 0.181867
O O8 0.500000 0.000000 0.000000
O O9 0.956610 0.070503 0.807475
O O10 0.500000 0.500000 0.000000
O O11 0.000000 0.000000 0.000000
O O12 0.397104 0.761780 0.540613
O O13 0.000000 0.500000 0.500000
O O14 0.852198 0.078108 0.605378
O O15 0.670675 0.388171 0.146428
O O16 0.184962 0.897555 0.038919
#
# Coordination Sequence:
#
# PCOD9095561 Si02
#       7
#     2   2   2   2   2   2   2
#     4  11  25  48  75 106 145 189 240 292 355 426
#     4  10  20  35  58  87 130 171 223 282 343 406
#     4  12  26  50  76 110 148 188 236 298 356 428
#     4  10  20  35  58  87 130 171 223 282 343 406
#     4  11  25  48  75 106 145 189 240 292 355 426
#     4   9  19  39  62  91 130 181 230 286 344 414
#     4   9  19  39  62  91 130 181 230 286 344 414
#
# _framework density 27.395486999999999
#
# number of rings (size 3 to 8) (size 9 to 14) (size 15 to 20)
#    0.000    1.714    2.857    0.857    0.000    3.429 
#    0.000    5.714    0.000    0.000    0.000    0.000 
#    0.000    0.000    0.000    0.000    0.000    0.000 
#
# Total GULP energy -78351.381316 kJ/mol
# GULP energy per Si atom -5596.527237 kJ/mol
# Density = 2.733313 g / cm^3
# Si number density = 27.395487 Si / 1000 Ang^3
#
#
#
# Elastic Constant Matrix: (Units=GPa)
#
#
# Indices 1 2 3 4 5 6 
#
# 1 183.5806 54.6761 40.4864 -3.7432 23.1052 28.2711
# 2 54.6761 154.8340 31.3657 -32.7797 -8.4278 9.0168
# 3 40.4864 31.3657 100.4524 -24.6288 -3.9492 -10.1989
# 4 -3.7432 -32.7797 -24.6288 51.7055 -2.7804 -2.7055
# 5 23.1052 -8.4278 -3.9492 -2.7804 36.9766 3.5654
# 6 28.2711 9.0168 -10.1989 -2.7055 3.5654 58.5289
#
#
#
# Elastic Compliance Matrix: (Units=1/GPa)
#
#
# Indices 1 2 3 4 5 6 
#
# 1 0.008696 -0.003167 -0.004164 -0.003931 -0.006488 -0.004224
# 2 -0.003167 0.009019 0.000064 0.005767 0.004461 0.000146
# 3 -0.004164 0.000064 0.013906 0.006822 0.004182 0.004485
# 4 -0.003931 0.005767 0.006822 0.026454 0.006195 0.003045
# 5 -0.006488 0.004461 0.004182 0.006195 0.032887 0.001459
# 6 -0.004224 0.000146 0.004485 0.003045 0.001459 0.019937
#
#
# Mechanical properties :
#
#
# Convention : Reuss Voigt Hill
#
# Bulk Modulus (GPa) = 58.52153 76.88037 67.70095
# Shear Modulus (GPa) = 38.13131 50.26478 44.19805
#
# Velocity S-wave (km/s) = 3.73484 4.28808 4.02099
# Velocity P-wave (km/s) = 6.32510 7.25541 6.80617
#
# Compressibility (1/GPa) = 0.01708773
#
# Stress axis : x y z
#
# Youngs Moduli (GPa) = 115.00105 110.87892 71.91354
#
# Poissons Ratio (x) = 0.35111 0.29943
# Poissons Ratio (y) = 0.36416 -0.00462
# Poissons Ratio (z) = 0.47884 -0.00712
#
# Static dielectric constant tensor:
#      x y z
#    x 2.168070 0.063960 0.010520 
#    y 0.063960 2.196890 0.279420 
#    z 0.010520 0.279420 2.919680 
# 
# From -- ./inp_files/8978.got.cif
#   From: 2010.05.17/outbox.cif.g08.bks.cpg/sg2_5_cif.got.tgz:8978.got - 2010.06.03 11:33:40.
