data_PCOD9095918
_publ_section_title
;
Structure prediction by ZEFSAII (Michael W. Deem and Ramdas Pophale) SiO2 
 PCOD9095918
Probable space group: P -1
;
_chemical_formula_sum "Si O2"
_cell_formula_units_Z 16
_cell_length_a 8.076618
_cell_length_b 10.025437
_cell_length_c 18.853248
_cell_angle_alpha 136.123784
_cell_angle_beta 56.880758
_cell_angle_gamma 91.717002
_cell_volume 690.446917
_symmetry_space_group_name_H-M "P -1"
_symmetry_group_IT_number 2
_symmetry_cell_setting 'triclinic'
loop_
_space_group_symop_operation_xyz
x,y,z
-x,-y,-z
loop_
_atom_site_type_symbol
_atom_site_label
_atom_site_fract_x
_atom_site_fract_y
_atom_site_fract_z
Si Si1 0.659004 0.235158 0.737637
Si Si2 0.577664 0.047560 0.820536
Si Si3 0.638665 0.711384 0.358072
Si Si4 0.261921 0.386007 0.474544
Si Si5 0.816306 0.199125 0.912034
Si Si6 0.295377 0.798102 0.585431
Si Si7 0.988585 0.633681 0.980905
Si Si8 0.068700 0.269199 0.588931
O O1 0.706110 0.105870 0.752675
O O2 0.846885 0.276870 0.676173
O O3 0.704844 0.023267 0.593860
O O4 0.404137 0.508322 0.919076
O O5 0.671961 0.088178 0.886529
O O6 0.663386 0.782236 0.676382
O O7 0.276488 0.240445 0.948879
O O8 0.432009 0.703169 0.441295
O O9 0.773899 0.564499 0.199478
O O10 0.860411 0.614999 0.325739
O O11 0.500000 0.000000 0.500000
O O12 0.209165 0.638665 0.567106
O O13 0.499030 0.249695 0.423339
O O14 0.042431 0.404032 0.574097
O O15 0.976780 0.160005 0.929312
O O16 0.044904 0.082003 0.756351
O O17 0.000000 0.500000 0.000000
#
# Coordination Sequence:
#
# PCOD9095918 Si02
#       8
#     2   2   2   2   2   2   2   2
#     4  10  20  35  60  96 132 162 206 265 322 374
#     4  11  23  38  65  92 128 172 212 264 320 385
#     4  11  23  36  62  97 127 166 211 265 322 379
#     4   9  20  44  67  91 126 178 219 256 323 383
#     4  12  23  38  65  97 126 171 213 267 325 379
#     4  10  22  42  70  92 128 172 219 264 315 394
#     4  12  24  40  62  94 137 166 210 266 327 386
#     4   9  20  38  61  94 133 170 209 265 319 382
#
# _framework density 23.173396
#
# number of rings (size 3 to 8) (size 9 to 14) (size 15 to 20)
#    0.000    1.500    2.500    2.625    5.250    0.500 
#    2.250    1.250    2.750    0.000    0.000    0.000 
#    0.000    0.000    0.000    0.000    0.000    0.000 
#
# Total GULP energy -89176.348249 kJ/mol
# GULP energy per Si atom -5573.521766 kJ/mol
# Density = 2.312065 g / cm^3
# Si number density = 23.173396 Si / 1000 Ang^3
#
#
#
# Elastic Constant Matrix: (Units=GPa)
#
#
# Indices 1 2 3 4 5 6 
#
# 1 115.4576 22.7664 52.0043 0.9389 11.6606 18.7791
# 2 22.7664 72.3085 42.5196 -9.8694 -9.8233 25.3681
# 3 52.0043 42.5196 156.0692 -20.6018 9.5754 5.0591
# 4 0.9389 -9.8694 -20.6018 20.7828 3.0332 -0.0327
# 5 11.6606 -9.8233 9.5754 3.0332 30.0234 1.0734
# 6 18.7791 25.3681 5.0591 -0.0327 1.0734 29.2090
#
#
#
# Elastic Compliance Matrix: (Units=1/GPa)
#
#
# Indices 1 2 3 4 5 6 
#
# 1 0.011961 0.000319 -0.004248 -0.004246 -0.002502 -0.007144
# 2 0.000319 0.028882 -0.007307 0.004659 0.012060 -0.024462
# 3 -0.004248 -0.007307 0.011018 0.008440 -0.005371 0.007375
# 4 -0.004246 0.004659 0.008440 0.059680 -0.005458 -0.002511
# 5 -0.002502 0.012060 -0.005371 -0.005458 0.040827 -0.009442
# 6 -0.007144 -0.024462 0.007375 -0.002511 -0.009442 0.059141
#
#
# Mechanical properties :
#
#
# Convention : Reuss Voigt Hill
#
# Bulk Modulus (GPa) = 34.02584 64.26844 49.14714
# Shear Modulus (GPa) = 20.51057 31.10604 25.80830
#
# Velocity S-wave (km/s) = 2.97828 3.66774 3.34084
# Velocity P-wave (km/s) = 5.15188 6.76242 6.01133
#
# Compressibility (1/GPa) = 0.02938943
#
# Stress axis : x y z
#
# Youngs Moduli (GPa) = 83.60699 34.62342 90.76038
#
# Poissons Ratio (x) = -0.01104 0.38552
# Poissons Ratio (y) = -0.02665 0.66317
# Poissons Ratio (z) = 0.35514 0.25299
#
# Static dielectric constant tensor:
#      x y z
#    x 2.061640 -0.060810 -0.015920 
#    y -0.060810 1.885270 -0.005630 
#    z -0.015920 -0.005630 1.880790 
# 
# From -- ./inp_files/589111.got.cif
#   From: 2010.05.17/outbox.cif.g08.bks.cpg/sg2_295_cif.got.tgz:589111.got - 2010.06.03 11:33:40.
