data_PCOD9095125
_publ_section_title
;
Structure prediction by ZEFSAII (Michael W. Deem and Ramdas Pophale) SiO2 
 PCOD9095125
Probable space group: P -1
;
_chemical_formula_sum "Si O2"
_cell_formula_units_Z 16
_cell_length_a 14.898191
_cell_length_b 8.403237
_cell_length_c 8.328631
_cell_angle_alpha 60.252377
_cell_angle_beta 60.834399
_cell_angle_gamma 63.817474
_cell_volume 762.665663
_symmetry_space_group_name_H-M "P -1"
_symmetry_group_IT_number 2
_symmetry_cell_setting 'triclinic'
loop_
_space_group_symop_operation_xyz
x,y,z
-x,-y,-z
loop_
_atom_site_type_symbol
_atom_site_label
_atom_site_fract_x
_atom_site_fract_y
_atom_site_fract_z
Si Si1 0.574277 0.125014 0.947309
Si Si2 0.853801 0.084575 0.188644
Si Si3 0.125448 0.362893 0.137257
Si Si4 0.049603 0.260300 0.917568
Si Si5 0.252183 0.031049 0.378829
Si Si6 0.506849 0.545184 0.654385
Si Si7 0.408839 0.244777 0.289801
Si Si8 0.292316 0.576987 0.987992
O O1 0.549608 0.340469 0.801062
O O2 0.688581 0.035287 0.809891
O O3 0.526506 0.155562 0.154154
O O4 0.500000 0.000000 0.000000
O O5 0.792894 0.219250 0.029455
O O6 0.878316 0.867939 0.216048
O O7 0.788242 0.110267 0.399069
O O8 0.962106 0.145496 0.093531
O O9 0.151224 0.200035 0.329815
O O10 0.020019 0.532031 0.179781
O O11 0.111466 0.287144 0.010582
O O12 0.226835 0.451696 0.012234
O O13 0.335955 0.106917 0.376899
O O14 0.500000 0.500000 0.500000
O O15 0.573007 0.691612 0.578429
O O16 0.387880 0.617813 0.785472
O O17 0.347700 0.442904 0.153430
#
# Coordination Sequence:
#
# PCOD9095125 Si02
#       8
#     2   2   2   2   2   2   2   2
#     4   9  18  35  54  76 107 142 178 215 259 309
#     4  10  20  35  55  80 107 132 178 226 267 314
#     4   9  19  36  56  74 102 141 179 213 267 327
#     4   9  20  37  54  76 106 142 171 217 277 324
#     4  10  20  35  56  83 107 136 182 227 259 310
#     4  11  21  34  53  80 113 144 178 219 260 307
#     4   9  20  37  54  75 112 150 177 210 263 317
#     4   9  18  35  54  73 102 145 180 210 259 323
#
# _framework density 20.979049
#
# number of rings (size 3 to 8) (size 9 to 14) (size 15 to 20)
#    0.000    2.500    0.000    3.000    0.000    4.000 
#    0.000    8.125    0.000    0.000    0.000    0.000 
#    0.000    0.000    0.000    0.000    0.000    0.000 
#
# Total GULP energy -89087.396842 kJ/mol
# GULP energy per Si atom -5567.962303 kJ/mol
# Density = 2.093130 g / cm^3
# Si number density = 20.979049 Si / 1000 Ang^3
#
#
#
# Elastic Constant Matrix: (Units=GPa)
#
#
# Indices 1 2 3 4 5 6 
#
# 1 75.7929 31.4366 8.5536 13.1997 9.0575 10.9940
# 2 31.4366 77.2147 -0.0100 6.1752 9.0836 5.2381
# 3 8.5536 -0.0100 32.9887 5.5304 -4.7687 -1.6540
# 4 13.1997 6.1752 5.5304 21.8876 3.9964 4.8876
# 5 9.0575 9.0836 -4.7687 3.9964 12.0031 9.0265
# 6 10.9940 5.2381 -1.6540 4.8876 9.0265 24.0162
#
#
#
# Elastic Compliance Matrix: (Units=1/GPa)
#
#
# Indices 1 2 3 4 5 6 
#
# 1 0.018702 -0.006090 -0.004928 -0.006271 -0.006466 -0.003866
# 2 -0.006090 0.016392 0.000267 0.000142 -0.009968 0.002949
# 3 -0.004928 0.000267 0.036470 -0.010065 0.022687 -0.001769
# 4 -0.006271 0.000142 -0.010065 0.055527 -0.015303 -0.003402
# 5 -0.006466 -0.009968 0.022687 -0.015303 0.142836 -0.043874
# 6 -0.003866 0.002949 -0.001769 -0.003402 -0.043874 0.059825
#
#
# Mechanical properties :
#
#
# Convention : Reuss Voigt Hill
#
# Bulk Modulus (GPa) = 19.97584 29.55073 24.76329
# Shear Modulus (GPa) = 13.58918 21.31581 17.45249
#
# Velocity S-wave (km/s) = 2.54785 3.19102 2.88740
# Velocity P-wave (km/s) = 4.26590 5.26243 4.79015
#
# Compressibility (1/GPa) = 0.05006047
#
# Stress axis : x y z
#
# Youngs Moduli (GPa) = 53.47121 61.00663 27.42016
#
# Poissons Ratio (x) = 0.37154 0.13513
# Poissons Ratio (y) = 0.32565 -0.00733
# Poissons Ratio (z) = 0.26352 -0.01630
#
# Static dielectric constant tensor:
#      x y z
#    x 1.779740 -0.029950 0.008070 
#    y -0.029950 1.833070 0.012600 
#    z 0.008070 0.012600 1.722880 
# 
# From -- ./inp_files/197287.got.cif
#   From: 2010.05.17/outbox.cif.g08.bks.cpg/sg2_99_cif.got.tgz:197287.got - 2010.06.03 11:33:40.
