data_PCOD9095585
_publ_section_title
;
Structure prediction by ZEFSAII (Michael W. Deem and Ramdas Pophale) SiO2 
 PCOD9095585
Probable space group: P -1
;
_chemical_formula_sum "Si O2"
_cell_formula_units_Z 16
_cell_length_a 25.832477
_cell_length_b 14.397166
_cell_length_c 17.431830
_cell_angle_alpha 24.593546
_cell_angle_beta 163.670021
_cell_angle_gamma 160.800574
_cell_volume 599.144711
_symmetry_space_group_name_H-M "P -1"
_symmetry_group_IT_number 2
_symmetry_cell_setting 'triclinic'
loop_
_space_group_symop_operation_xyz
x,y,z
-x,-y,-z
loop_
_atom_site_type_symbol
_atom_site_label
_atom_site_fract_x
_atom_site_fract_y
_atom_site_fract_z
Si Si1 0.340539 0.846487 0.171841
Si Si2 0.620707 0.529328 0.573882
Si Si3 0.182596 0.517239 0.340211
Si Si4 0.142496 0.649778 0.466187
Si Si5 0.545983 0.836527 0.125774
Si Si6 0.086567 0.282898 0.538128
Si Si7 0.838673 0.982351 0.020984
Si Si8 0.844282 0.653829 0.153172
O O1 0.378269 0.733123 0.234335
O O2 0.319571 0.640606 0.362915
O O3 0.578226 0.150556 0.293397
O O4 0.079210 0.742575 0.867493
O O5 0.500000 0.500000 0.500000
O O6 0.490587 0.570260 0.293688
O O7 0.882655 0.808006 0.740247
O O8 0.214360 0.395950 0.553015
O O9 0.217893 0.801383 0.205603
O O10 0.066821 0.513785 0.376705
O O11 0.052994 0.389367 0.592108
O O12 0.029861 0.779113 0.252721
O O13 0.367233 0.666843 0.930084
O O14 0.812679 0.019790 0.338571
O O15 0.500000 0.000000 0.000000
O O16 0.214321 0.211514 0.833830
O O17 0.764007 0.826155 0.949447
#
# Coordination Sequence:
#
# PCOD9095585 Si02
#       8
#     2   2   2   2   2   2   2   2
#     4  10  22  40  60  90 117 161 202 244 302 353
#     4  10  22  37  60  87 125 153 190 252 302 360
#     4  10  22  42  65  82 122 162 207 248 291 358
#     4  10  20  35  58  89 123 158 193 249 309 354
#     4  11  22  36  59  92 120 156 202 239 305 373
#     4  10  21  39  60  89 121 160 201 250 301 354
#     4   9  21  39  59  90 119 157 202 247 302 351
#     4  10  20  35  59  89 126 153 194 250 303 367
#
# _framework density 26.704733000000001
#
# number of rings (size 3 to 8) (size 9 to 14) (size 15 to 20)
#    0.000    2.000    1.250    1.500    7.000    1.500 
#    0.000   15.625    0.000    0.000    0.000    0.000 
#    0.000    0.000    0.000    0.000    0.000    0.000 
#
# Total GULP energy -89346.730658 kJ/mol
# GULP energy per Si atom -5584.170666 kJ/mol
# Density = 2.664395 g / cm^3
# Si number density = 26.704733 Si / 1000 Ang^3
#
#
#
# Elastic Constant Matrix: (Units=GPa)
#
#
# Indices 1 2 3 4 5 6 
#
# 1 81.6652 7.5800 4.4118 -4.8545 -0.0044 -9.2275
# 2 7.5800 87.8168 20.2466 6.0096 1.4829 -14.9826
# 3 4.4118 20.2466 46.5226 4.8361 -5.8531 -0.2814
# 4 -4.8545 6.0096 4.8361 34.0893 -0.5496 -8.6965
# 5 -0.0044 1.4829 -5.8531 -0.5496 36.5041 -4.2525
# 6 -9.2275 -14.9826 -0.2814 -8.6965 -4.2525 49.8171
#
#
#
# Elastic Compliance Matrix: (Units=1/GPa)
#
#
# Indices 1 2 3 4 5 6 
#
# 1 0.012835 -0.000558 -0.001225 0.002793 0.000185 0.002706
# 2 -0.000558 0.013483 -0.005854 -0.000698 -0.001065 0.003706
# 3 -0.001225 -0.005854 0.024971 -0.003146 0.003954 -0.002058
# 4 0.002793 -0.000698 -0.003146 0.031819 0.000691 0.005903
# 5 0.000185 -0.001065 0.003954 0.000691 0.028347 0.002277
# 6 0.002706 0.003706 -0.002058 0.005903 0.002277 0.022902
#
#
# Mechanical properties :
#
#
# Convention : Reuss Voigt Hill
#
# Bulk Modulus (GPa) = 27.76631 31.16458 29.46544
# Shear Modulus (GPa) = 30.93356 36.33318 33.63337
#
# Velocity S-wave (km/s) = 3.40715 3.69257 3.55273
# Velocity P-wave (km/s) = 5.08904 5.46585 5.28081
#
# Compressibility (1/GPa) = 0.03601487
#
# Stress axis : x y z
#
# Youngs Moduli (GPa) = 77.91257 74.16633 40.04659
#
# Poissons Ratio (x) = 0.04139 0.04906
# Poissons Ratio (y) = 0.04348 0.23443
# Poissons Ratio (z) = 0.09544 0.43417
#
# Static dielectric constant tensor:
#      x y z
#    x 2.253660 -0.073110 -0.080250 
#    y -0.073110 2.102180 -0.037010 
#    z -0.080250 -0.037010 2.233580 
# 
# From -- ./inp_files/380014.got.cif
#   From: 2010.05.17/outbox.cif.g08.bks.cpg/sg2_191_cif.got.tgz:380014.got - 2010.06.03 11:33:40.
