data_PCOD9095072
_publ_section_title
;
Structure prediction by ZEFSAII (Michael W. Deem and Ramdas Pophale) SiO2 
 PCOD9095072
Probable space group: P -1
;
_chemical_formula_sum "Si O2"
_cell_formula_units_Z 14
_cell_length_a 7.770782
_cell_length_b 16.789427
_cell_length_c 7.034152
_cell_angle_alpha 60.678582
_cell_angle_beta 93.419582
_cell_angle_gamma 53.583775
_cell_volume 557.875840
_symmetry_space_group_name_H-M "P -1"
_symmetry_group_IT_number 2
_symmetry_cell_setting 'triclinic'
loop_
_space_group_symop_operation_xyz
x,y,z
-x,-y,-z
loop_
_atom_site_type_symbol
_atom_site_label
_atom_site_fract_x
_atom_site_fract_y
_atom_site_fract_z
Si Si1 0.559373 0.622527 0.752133
Si Si2 0.162184 0.143259 0.766123
Si Si3 0.315418 0.888131 0.028329
Si Si4 0.207116 0.650761 0.941442
Si Si5 0.670765 0.315575 0.721327
Si Si6 0.455041 0.169627 0.499860
Si Si7 0.665323 0.851191 0.855354
O O1 0.734318 0.471553 0.991826
O O2 0.535298 0.627816 0.514289
O O3 0.634947 0.695654 0.729220
O O4 0.298245 0.693235 0.750522
O O5 0.255674 0.184980 0.581307
O O6 0.323859 0.081298 0.047020
O O7 0.896685 0.272765 0.671963
O O8 0.176266 0.036127 0.804820
O O9 0.221757 0.824368 0.041424
O O10 0.345108 0.879625 0.268983
O O11 0.577365 0.798897 0.040558
O O12 0.381257 0.605761 0.189686
O O13 0.931711 0.755608 0.885371
O O14 0.518661 0.089130 0.407466
#
# Coordination Sequence:
#
# PCOD9095072 Si02
#       7
#     2   2   2   2   2   2   2
#     4  10  21  37  57  80 107 141 179 221 268 315
#     4  10  21  36  56  81 109 142 178 219 266 315
#     4  10  21  36  56  81 109 142 178 219 266 315
#     4  10  21  37  57  80 107 141 179 221 268 315
#     4  10  20  38  58  80 108 140 180 222 264 316
#     4  10  20  35  54  79 110 141 176 219 264 315
#     4  10  20  35  54  79 110 141 176 219 264 315
#
# _framework density 25.095188
#
# number of rings (size 3 to 8) (size 9 to 14) (size 15 to 20)
#    0.000    2.000    0.000    4.286    0.000    2.857 
#    0.000   12.857    0.000   12.000    0.000    0.000 
#    0.000    0.000    0.000    0.000    0.000    0.000 
#
# Total GULP energy -78042.721847 kJ/mol
# GULP energy per Si atom -5574.480132 kJ/mol
# Density = 2.503807 g / cm^3
# Si number density = 25.095188 Si / 1000 Ang^3
#
#
#
# Elastic Constant Matrix: (Units=GPa)
#
#
# Indices 1 2 3 4 5 6 
#
# 1 87.0948 38.0594 17.4103 -3.2656 -35.6276 0.6922
# 2 38.0594 129.6708 34.0912 6.1607 -23.7874 23.2462
# 3 17.4103 34.0912 96.7088 30.5250 -10.1979 8.5658
# 4 -3.2656 6.1607 30.5250 43.9432 9.5335 -8.3477
# 5 -35.6276 -23.7874 -10.1979 9.5335 40.3889 0.4959
# 6 0.6922 23.2462 8.5658 -8.3477 0.4959 43.7897
#
#
#
# Elastic Compliance Matrix: (Units=1/GPa)
#
#
# Indices 1 2 3 4 5 6 
#
# 1 0.018966 -0.002747 -0.000670 -0.000840 0.015130 0.000958
# 2 -0.002747 0.010928 -0.001471 -0.002815 0.004381 -0.006056
# 3 -0.000670 -0.001471 0.016257 -0.013358 0.005862 -0.005002
# 4 -0.000840 -0.002815 -0.013358 0.037768 -0.014828 0.011489
# 5 0.015130 0.004381 0.005862 -0.014828 0.045752 -0.007056
# 6 0.000958 -0.006056 -0.005002 0.011489 -0.007056 0.029285
#
#
# Mechanical properties :
#
#
# Convention : Reuss Voigt Hill
#
# Bulk Modulus (GPa) = 27.49128 54.73291 41.11209
# Shear Modulus (GPa) = 27.64628 40.55192 34.09910
#
# Velocity S-wave (km/s) = 3.32272 4.02422 3.69018
# Velocity P-wave (km/s) = 5.06944 6.59165 5.88001
#
# Compressibility (1/GPa) = 0.03637518
#
# Stress axis : x y z
#
# Youngs Moduli (GPa) = 52.72580 91.50998 61.51196
#
# Poissons Ratio (x) = 0.25136 0.04123
# Poissons Ratio (y) = 0.14483 0.09046
# Poissons Ratio (z) = 0.03534 0.13458
#
# Static dielectric constant tensor:
#      x y z
#    x 2.031950 -0.010620 0.087540 
#    y -0.010620 1.991360 -0.082210 
#    z 0.087540 -0.082210 2.189080 
# 
# From -- ./inp_files/37362.got.cif
#   From: 2010.05.17/outbox.cif.g08.bks.cpg/sg2_19_cif.got.tgz:37362.got - 2010.06.03 11:33:40.
