data_PCOD9095300
_publ_section_title
;
Structure prediction by ZEFSAII (Michael W. Deem and Ramdas Pophale) SiO2 
 PCOD9095300
Probable space group: P -1
;
_chemical_formula_sum "Si O2"
_cell_formula_units_Z 12
_cell_length_a 7.226953
_cell_length_b 12.941621
_cell_length_c 7.188951
_cell_angle_alpha 134.988825
_cell_angle_beta 82.645609
_cell_angle_gamma 82.157759
_cell_volume 446.252367
_symmetry_space_group_name_H-M "P -1"
_symmetry_group_IT_number 2
_symmetry_cell_setting 'triclinic'
loop_
_space_group_symop_operation_xyz
x,y,z
-x,-y,-z
loop_
_atom_site_type_symbol
_atom_site_label
_atom_site_fract_x
_atom_site_fract_y
_atom_site_fract_z
Si Si1 0.823953 0.883712 0.405365
Si Si2 0.869708 0.376664 0.523056
Si Si3 0.016600 0.915175 0.087159
Si Si4 0.258292 0.648255 0.107202
Si Si5 0.305313 0.301512 0.543399
Si Si6 0.554105 0.643686 0.766486
O O1 0.670796 0.817429 0.442588
O O2 0.816332 0.935641 0.257831
O O3 0.035564 0.745713 0.205172
O O4 0.860840 0.010029 0.698741
O O5 0.735889 0.338587 0.654117
O O6 0.773274 0.554494 0.704444
O O7 0.084585 0.335172 0.531466
O O8 0.884336 0.262973 0.205491
O O9 0.000000 0.000000 0.000000
O O10 0.298931 0.467879 0.831800
O O11 0.413091 0.699351 0.030574
O O12 0.439301 0.252126 0.278816
O O13 0.500000 0.500000 0.500000
#
# Coordination Sequence:
#
# PCOD9095300 Si02
#       6
#     2   2   2   2   2   2
#     4  10  21  36  59  85 113 147 194 243 271 337
#     4  11  20  35  60  85 111 154 196 230 279 344
#     4  11  20  36  58  85 110 150 198 237 277 326
#     4  10  20  37  57  89 120 147 181 238 296 340
#     4  10  20  35  56  88 120 142 190 240 281 337
#     4  10  21  35  55  84 120 152 180 232 297 343
#
# _framework density 26.890613999999999
#
# number of rings (size 3 to 8) (size 9 to 14) (size 15 to 20)
#    0.000    1.667    3.333    5.000    0.000    1.333 
#    0.000    0.000    0.000   20.000    0.000    0.000 
#    0.000    0.000    0.000    0.000    0.000    0.000 
#
# Total GULP energy -67187.731978 kJ/mol
# GULP energy per Si atom -5598.977665 kJ/mol
# Density = 2.682941 g / cm^3
# Si number density = 26.890614 Si / 1000 Ang^3
#
#
#
# Elastic Constant Matrix: (Units=GPa)
#
#
# Indices 1 2 3 4 5 6 
#
# 1 63.3614 12.2470 23.8694 -9.3136 -2.9163 6.6909
# 2 12.2470 220.1531 65.4724 -62.5165 -7.7778 38.6504
# 3 23.8694 65.4724 151.6828 -47.6067 5.0734 18.1089
# 4 -9.3136 -62.5165 -47.6067 60.1139 2.3190 -10.9960
# 5 -2.9163 -7.7778 5.0734 2.3190 23.8073 -8.1503
# 6 6.6909 38.6504 18.1089 -10.9960 -8.1503 37.6383
#
#
#
# Elastic Compliance Matrix: (Units=1/GPa)
#
#
# Indices 1 2 3 4 5 6 
#
# 1 0.017016 0.000314 -0.002514 0.000616 0.002152 -0.001492
# 2 0.000314 0.007488 -0.000640 0.006305 0.000099 -0.005573
# 3 -0.002514 -0.000640 0.009689 0.006299 -0.004086 -0.002602
# 4 0.000616 0.006305 0.006299 0.028012 -0.002620 -0.001999
# 5 0.002152 0.000099 -0.004086 -0.002620 0.047168 0.010930
# 6 -0.001492 -0.005573 -0.002602 -0.001999 0.010930 0.035592
#
#
# Mechanical properties :
#
#
# Convention : Reuss Voigt Hill
#
# Bulk Modulus (GPa) = 35.07261 70.93055 53.00158
# Shear Modulus (GPa) = 31.22097 46.55246 38.88672
#
# Velocity S-wave (km/s) = 3.41109 4.16526 3.80690
# Velocity P-wave (km/s) = 5.34650 7.04040 6.25109
#
# Compressibility (1/GPa) = 0.02851228
#
# Stress axis : x y z
#
# Youngs Moduli (GPa) = 58.76856 133.55256 103.20865
#
# Poissons Ratio (x) = -0.04192 0.25943
# Poissons Ratio (y) = -0.01844 0.06610
# Poissons Ratio (z) = 0.14772 0.08553
#
# Static dielectric constant tensor:
#      x y z
#    x 2.210500 -0.025480 -0.012710 
#    y -0.025480 2.242500 -0.021180 
#    z -0.012710 -0.021180 2.028910 
# 
# From -- ./inp_files/204684.got.cif
#   From: 2010.05.17/outbox.cif.g08.bks.cpg/sg2_103_cif.got.tgz:204684.got - 2010.06.03 11:33:40.
