data_PCOD9095657
_publ_section_title
;
Structure prediction by ZEFSAII (Michael W. Deem and Ramdas Pophale) SiO2 
 PCOD9095657
Probable space group: P -1
;
_chemical_formula_sum "Si O2"
_cell_formula_units_Z 14
_cell_length_a 8.504669
_cell_length_b 6.754365
_cell_length_c 12.405396
_cell_angle_alpha 94.740466
_cell_angle_beta 127.576652
_cell_angle_gamma 74.487030
_cell_volume 541.168029
_symmetry_space_group_name_H-M "P -1"
_symmetry_group_IT_number 2
_symmetry_cell_setting 'triclinic'
loop_
_space_group_symop_operation_xyz
x,y,z
-x,-y,-z
loop_
_atom_site_type_symbol
_atom_site_label
_atom_site_fract_x
_atom_site_fract_y
_atom_site_fract_z
Si Si1 0.847319 0.820938 0.617861
Si Si2 0.335923 0.221123 0.968408
Si Si3 0.890103 0.387379 0.714442
Si Si4 0.986903 0.276709 0.528205
Si Si5 0.609925 0.662197 0.224072
Si Si6 0.557272 0.637862 0.748330
Si Si7 0.430764 0.940764 0.325461
O O1 0.939967 0.604057 0.707291
O O2 0.986751 0.854980 0.577160
O O3 0.627018 0.814180 0.471999
O O4 0.773060 0.996139 0.684480
O O5 0.351469 0.308100 0.097804
O O6 0.392860 0.361516 0.904216
O O7 0.094231 0.242181 0.848042
O O8 0.500000 0.000000 0.000000
O O9 0.705762 0.468737 0.725126
O O10 0.841020 0.304534 0.572840
O O11 0.214689 0.219908 0.676879
O O12 0.000000 0.500000 0.500000
O O13 0.625307 0.454337 0.289234
O O14 0.413209 0.822343 0.203079
O O15 0.514894 0.848357 0.674047
#
# Coordination Sequence:
#
# PCOD9095657 Si02
#       7
#     2   2   2   2   2   2   2
#     4   8  15  31  56  80 111 149 183 226 277 340
#     4  11  21  38  61  82 113 156 193 236 293 343
#     4   9  19  34  59  84 113 154 189 234 291 339
#     4   8  15  32  56  80 109 153 183 217 285 339
#     4  10  20  35  59  85 114 151 192 238 283 342
#     4  11  21  36  60  87 114 149 196 238 286 337
#     4   9  17  33  56  87 115 146 188 230 288 337
#
# _framework density 25.869971
#
# number of rings (size 3 to 8) (size 9 to 14) (size 15 to 20)
#    0.000    2.571    1.429    0.857    0.000    0.000 
#    0.000   26.429   15.714   14.571    0.000    0.000 
#    0.000    0.000    0.000    0.000    0.000    0.000 
#
# Total GULP energy -78088.830134 kJ/mol
# GULP energy per Si atom -5577.773581 kJ/mol
# Density = 2.581109 g / cm^3
# Si number density = 25.869971 Si / 1000 Ang^3
#
#
#
# Elastic Constant Matrix: (Units=GPa)
#
#
# Indices 1 2 3 4 5 6 
#
# 1 161.9945 46.2917 53.8457 4.9107 -35.7511 -10.5621
# 2 46.2917 85.9063 21.4840 -6.8025 -0.6810 -25.7406
# 3 53.8457 21.4840 86.7092 5.5784 -17.5197 -10.2164
# 4 4.9107 -6.8025 5.5784 39.1466 -9.8794 -6.5093
# 5 -35.7511 -0.6810 -17.5197 -9.8794 46.2707 9.3207
# 6 -10.5621 -25.7406 -10.2164 -6.5093 9.3207 59.0955
#
#
#
# Elastic Compliance Matrix: (Units=1/GPa)
#
#
# Indices 1 2 3 4 5 6 
#
# 1 0.010359 -0.005212 -0.004012 -0.000287 0.006793 -0.002215
# 2 -0.005212 0.017349 -0.001430 0.003869 -0.005017 0.007596
# 3 -0.004012 -0.001430 0.014980 -0.001211 0.002135 0.000780
# 4 -0.000287 0.003869 -0.001211 0.028229 0.004637 0.003802
# 5 0.006793 -0.005017 0.002135 0.004637 0.029543 -0.004751
# 6 -0.002215 0.007596 0.000780 0.003802 -0.004751 0.021137
#
#
# Mechanical properties :
#
#
# Convention : Reuss Voigt Hill
#
# Bulk Modulus (GPa) = 46.76909 64.20586 55.48748
# Shear Modulus (GPa) = 33.32672 43.10180 38.21426
#
# Velocity S-wave (km/s) = 3.59310 4.08621 3.84756
# Velocity P-wave (km/s) = 5.94404 6.86552 6.42133
#
# Compressibility (1/GPa) = 0.02138164
#
# Stress axis : x y z
#
# Youngs Moduli (GPa) = 96.53177 57.64006 66.75773
#
# Poissons Ratio (x) = 0.30040 0.26781
# Poissons Ratio (y) = 0.50309 0.09545
# Poissons Ratio (z) = 0.38725 0.08242
#
# Static dielectric constant tensor:
#      x y z
#    x 2.117040 -0.025110 -0.025690 
#    y -0.025110 2.144140 0.007540 
#    z -0.025690 0.007540 2.056570 
# 
# From -- ./inp_files/379716.got.cif
#   From: 2010.05.17/outbox.cif.g08.bks.cpg/sg2_190_cif.got.tgz:379716.got - 2010.06.03 11:33:40.
