data_PCOD9095995
_publ_section_title
;
Structure prediction by ZEFSAII (Michael W. Deem and Ramdas Pophale) SiO2 
 PCOD9095995
Probable space group: P -1
;
_chemical_formula_sum "Si O2"
_cell_formula_units_Z 14
_cell_length_a 9.162040
_cell_length_b 9.040237
_cell_length_c 9.952429
_cell_angle_alpha 49.254913
_cell_angle_beta 117.201866
_cell_angle_gamma 103.315064
_cell_volume 552.617063
_symmetry_space_group_name_H-M "P -1"
_symmetry_group_IT_number 2
_symmetry_cell_setting 'triclinic'
loop_
_space_group_symop_operation_xyz
x,y,z
-x,-y,-z
loop_
_atom_site_type_symbol
_atom_site_label
_atom_site_fract_x
_atom_site_fract_y
_atom_site_fract_z
Si Si1 0.772830 0.015389 0.156477
Si Si2 0.744814 0.669179 0.942103
Si Si3 0.904989 0.334656 0.833699
Si Si4 0.637346 0.098927 0.584979
Si Si5 0.944139 0.282455 0.583139
Si Si6 0.460199 0.241035 0.951657
Si Si7 0.598645 0.563300 0.656375
O O1 0.917471 0.853668 0.357750
O O2 0.633962 0.118449 0.135764
O O3 0.666093 0.905153 0.069225
O O4 0.856804 0.187671 0.015682
O O5 0.621521 0.639679 0.029085
O O6 0.683074 0.606521 0.809450
O O7 0.743785 0.906196 0.798587
O O8 0.927810 0.576636 0.107221
O O9 0.936554 0.223765 0.772460
O O10 0.748180 0.496396 0.660938
O O11 0.763508 0.235319 0.486120
O O12 0.526093 0.248859 0.545225
O O13 0.500000 0.000000 0.500000
O O14 0.000000 0.500000 0.500000
O O15 0.497232 0.382599 0.760776
#
# Coordination Sequence:
#
# PCOD9095995 Si02
#       7
#     2   2   2   2   2   2   2
#     4  10  20  37  59  89 121 154 202 253 306 360
#     4  11  20  39  65  86 123 162 203 247 311 366
#     4  11  22  39  64  89 118 163 207 253 301 368
#     4  10  23  40  61  86 129 165 200 247 317 367
#     4  12  23  38  65  92 125 160 210 260 306 361
#     4  10  20  35  61  91 118 154 203 255 300 361
#     4  10  23  39  59  91 124 158 204 250 307 366
#
# _framework density 25.334
#
# number of rings (size 3 to 8) (size 9 to 14) (size 15 to 20)
#    0.000    1.429    2.857    3.000    0.000    1.714 
#    0.000    0.000    0.000    3.429    0.000    0.000 
#    0.000    0.000    0.000    0.000    0.000    0.000 
#
# Total GULP energy -78290.787463 kJ/mol
# GULP energy per Si atom -5592.199104 kJ/mol
# Density = 2.527634 g / cm^3
# Si number density = 25.334000 Si / 1000 Ang^3
#
#
#
# Elastic Constant Matrix: (Units=GPa)
#
#
# Indices 1 2 3 4 5 6 
#
# 1 144.2107 45.4932 35.7811 -6.6066 29.9599 16.3904
# 2 45.4932 98.0979 25.6786 5.7648 6.6379 20.4046
# 3 35.7811 25.6786 51.6973 -21.3662 20.5726 -1.1569
# 4 -6.6066 5.7648 -21.3662 46.7193 -7.6136 0.5059
# 5 29.9599 6.6379 20.5726 -7.6136 42.4753 -4.3243
# 6 16.3904 20.4046 -1.1569 0.5059 -4.3243 35.5623
#
#
#
# Elastic Compliance Matrix: (Units=1/GPa)
#
#
# Indices 1 2 3 4 5 6 
#
# 1 0.010304 -0.002335 -0.004361 -0.001086 -0.005413 -0.004194
# 2 -0.002335 0.015724 -0.009779 -0.006334 0.001983 -0.007933
# 3 -0.004361 -0.009779 0.038192 0.016311 -0.010218 0.007389
# 4 -0.001086 -0.006334 0.016311 0.029373 -0.000453 0.004192
# 5 -0.005413 0.001983 -0.010218 -0.000453 0.032425 0.004974
# 6 -0.004194 -0.007933 0.007389 0.004192 0.004974 0.035390
#
#
# Mechanical properties :
#
#
# Convention : Reuss Voigt Hill
#
# Bulk Modulus (GPa) = 31.97786 56.43462 44.20624
# Shear Modulus (GPa) = 24.41634 37.42157 30.91896
#
# Velocity S-wave (km/s) = 3.10784 3.84751 3.49729
# Velocity P-wave (km/s) = 5.05254 6.48555 5.81337
#
# Compressibility (1/GPa) = 0.03127164
#
# Stress axis : x y z
#
# Youngs Moduli (GPa) = 97.04736 63.59505 26.18378
#
# Poissons Ratio (x) = 0.14847 0.11418
# Poissons Ratio (y) = 0.22657 0.25605
# Poissons Ratio (z) = 0.42321 0.62188
#
# Static dielectric constant tensor:
#      x y z
#    x 2.025260 0.024320 0.026380 
#    y 0.024320 1.983830 -0.010930 
#    z 0.026380 -0.010930 2.062190 
# 
# From -- ./inp_files/158852.got.cif
#   From: 2010.05.17/outbox.cif.g08.bks.cpg/sg2_80_cif.got.tgz:158852.got - 2010.06.03 11:33:40.
