data_PCOD9095639
_publ_section_title
;
Structure prediction by ZEFSAII (Michael W. Deem and Ramdas Pophale) SiO2 
 PCOD9095639
Probable space group: P -1
;
_chemical_formula_sum "Si O2"
_cell_formula_units_Z 16
_cell_length_a 11.557316
_cell_length_b 14.150845
_cell_length_c 19.501668
_cell_angle_alpha 34.549486
_cell_angle_beta 142.463135
_cell_angle_gamma 149.291349
_cell_volume 883.189459
_symmetry_space_group_name_H-M "P -1"
_symmetry_group_IT_number 2
_symmetry_cell_setting 'triclinic'
loop_
_space_group_symop_operation_xyz
x,y,z
-x,-y,-z
loop_
_atom_site_type_symbol
_atom_site_label
_atom_site_fract_x
_atom_site_fract_y
_atom_site_fract_z
Si Si1 0.772220 0.163840 0.550517
Si Si2 0.816521 0.057793 0.874892
Si Si3 0.106916 0.723816 0.083427
Si Si4 0.021339 0.411310 0.649864
Si Si5 0.469972 0.171086 0.855682
Si Si6 0.579453 0.388401 0.055576
Si Si7 0.505583 0.546081 0.181509
Si Si8 0.038944 0.105994 0.211150
O O1 0.909560 0.359387 0.445992
O O2 0.821425 0.281143 0.575724
O O3 0.882499 0.038728 0.683553
O O4 0.500000 0.000000 0.500000
O O5 0.777604 0.110887 0.900045
O O6 0.931329 0.262994 0.761306
O O7 0.577447 0.853460 0.854465
O O8 0.000000 0.000000 0.000000
O O9 0.296810 0.691910 0.163167
O O10 0.860570 0.515108 0.117276
O O11 0.027007 0.816643 0.932642
O O12 0.262315 0.447452 0.715621
O O13 0.468692 0.297903 0.842685
O O14 0.209344 0.037927 0.778926
O O15 0.500000 0.000000 0.000000
O O16 0.500000 0.500000 0.000000
O O17 0.522624 0.399574 0.942115
O O18 0.267195 0.317493 0.223065
#
# Coordination Sequence:
#
# PCOD9095639 Si02
#       8
#     2   2   2   2   2   2   2   2
#     4  11  22  37  58  85 113 150 191 238 285 338
#     4  12  21  35  58  81 119 151 184 234 291 348
#     4  10  22  36  56  88 116 152 186 228 291 346
#     4  11  23  35  57  87 116 148 189 233 293 343
#     4  10  21  35  55  81 119 154 190 231 282 340
#     4  11  21  31  53  83 116 153 184 224 286 344
#     4  11  20  34  56  84 117 151 191 230 285 338
#     4  10  20  35  59  83 118 148 189 238 281 334
#
# _framework density 18.116159
#
# number of rings (size 3 to 8) (size 9 to 14) (size 15 to 20)
#    0.000    1.250    5.000    2.250    1.750    6.500 
#    0.000    0.000    0.000    0.750    0.000    2.625 
#    0.000    0.000    0.000    0.000    0.000    0.000 
#
# Total GULP energy -89229.999287 kJ/mol
# GULP energy per Si atom -5576.874955 kJ/mol
# Density = 1.807493 g / cm^3
# Si number density = 18.116159 Si / 1000 Ang^3
#
#
#
# Elastic Constant Matrix: (Units=GPa)
#
#
# Indices 1 2 3 4 5 6 
#
# 1 74.9420 33.6214 1.1462 2.0566 5.8967 11.1144
# 2 33.6214 139.8693 18.4563 -12.3805 3.0746 16.9019
# 3 1.1462 18.4563 54.0677 -11.7658 -2.5548 3.2768
# 4 2.0566 -12.3805 -11.7658 29.3204 1.5968 2.0875
# 5 5.8967 3.0746 -2.5548 1.5968 18.7889 -0.8788
# 6 11.1144 16.9019 3.2768 2.0875 -0.8788 33.0259
#
#
#
# Elastic Compliance Matrix: (Units=1/GPa)
#
#
# Indices 1 2 3 4 5 6 
#
# 1 0.015835 -0.003509 0.000456 -0.001919 -0.004337 -0.003572
# 2 -0.003509 0.009026 -0.002080 0.003532 -0.001122 -0.003485
# 3 0.000456 -0.002080 0.021039 0.007518 0.002345 -0.001589
# 4 -0.001919 0.003532 0.007518 0.039201 -0.002493 -0.004452
# 5 -0.004337 -0.001122 0.002345 -0.002493 0.055459 0.003434
# 6 -0.003572 -0.003485 -0.001589 -0.004452 0.003434 0.033795
#
#
# Mechanical properties :
#
#
# Convention : Reuss Voigt Hill
#
# Bulk Modulus (GPa) = 28.06346 41.70298 34.88322
# Shear Modulus (GPa) = 25.44540 30.60405 28.02473
#
# Velocity S-wave (km/s) = 3.75182 4.11460 3.93739
# Velocity P-wave (km/s) = 5.85600 6.75596 6.32201
#
# Compressibility (1/GPa) = 0.03563352
#
# Stress axis : x y z
#
# Youngs Moduli (GPa) = 63.15189 110.79161 47.53149
#
# Poissons Ratio (x) = 0.38881 -0.02169
# Poissons Ratio (y) = 0.22162 0.09886
# Poissons Ratio (z) = -0.02881 0.23043
#
# Static dielectric constant tensor:
#      x y z
#    x 1.638120 0.037110 -0.035080 
#    y 0.037110 1.678730 -0.016380 
#    z -0.035080 -0.016380 1.642130 
# 
# From -- ./inp_files/449973.got.cif
#   From: 2010.05.17/outbox.cif.g08.bks.cpg/sg2_225_cif.got.tgz:449973.got - 2010.06.03 11:33:40.
