data_PCOD9095245
_publ_section_title
;
Structure prediction by ZEFSAII (Michael W. Deem and Ramdas Pophale) SiO2 
 PCOD9095245
Probable space group: P -1
;
_chemical_formula_sum "Si O2"
_cell_formula_units_Z 14
_cell_length_a 8.034559
_cell_length_b 7.898253
_cell_length_c 22.349776
_cell_angle_alpha 139.064221
_cell_angle_beta 46.608787
_cell_angle_gamma 127.402125
_cell_volume 663.542372
_symmetry_space_group_name_H-M "P -1"
_symmetry_group_IT_number 2
_symmetry_cell_setting 'triclinic'
loop_
_space_group_symop_operation_xyz
x,y,z
-x,-y,-z
loop_
_atom_site_type_symbol
_atom_site_label
_atom_site_fract_x
_atom_site_fract_y
_atom_site_fract_z
Si Si1 0.713800 0.176447 0.333391
Si Si2 0.972497 0.637546 0.796776
Si Si3 0.239069 0.875865 0.012164
Si Si4 0.207667 0.746457 0.525439
Si Si5 0.887963 0.677921 0.153820
Si Si6 0.510162 0.375610 0.327265
Si Si7 0.881803 0.109068 0.722181
O O1 0.726220 0.227146 0.413865
O O2 0.527055 0.298888 0.373605
O O3 0.959379 0.301674 0.273383
O O4 0.697477 0.865853 0.242777
O O5 0.816005 0.353833 0.768564
O O6 0.227102 0.622164 0.756829
O O7 0.873443 0.875768 0.913501
O O8 0.083245 0.754438 0.074802
O O9 0.219601 0.629485 0.906687
O O10 0.500000 0.000000 0.000000
O O11 0.422680 0.650700 0.414065
O O12 0.000000 0.500000 0.500000
O O13 0.087044 0.993766 0.606306
O O14 0.017559 0.774949 0.208856
O O15 0.327623 0.134640 0.281366
#
# Coordination Sequence:
#
# PCOD9095245 Si02
#       7
#     2   2   2   2   2   2   2
#     4   8  17  35  55  75 109 143 176 216 260 317
#     4   9  21  34  53  81 108 135 185 219 264 318
#     4  10  21  37  58  77 106 142 181 218 270 323
#     4   9  17  33  57  80 107 148 177 211 267 314
#     4   9  20  37  55  80 107 139 180 219 266 320
#     4   9  19  34  57  75 114 141 177 217 263 313
#     4  10  20  35  56  82 110 140 175 221 268 311
#
# _framework density 21.098877999999999
#
# number of rings (size 3 to 8) (size 9 to 14) (size 15 to 20)
#    0.857    2.000    0.000    0.429    2.000    2.286 
#    0.000    4.286    0.000    0.000    0.000    0.000 
#    0.000    0.000    0.000    0.000    0.000    0.000 
#
# Total GULP energy -77937.501915 kJ/mol
# GULP energy per Si atom -5566.964422 kJ/mol
# Density = 2.105086 g / cm^3
# Si number density = 21.098878 Si / 1000 Ang^3
#
#
#
# Elastic Constant Matrix: (Units=GPa)
#
#
# Indices 1 2 3 4 5 6 
#
# 1 52.9998 5.9236 29.2882 2.7597 3.8000 14.7211
# 2 5.9236 37.4273 28.2539 15.8963 8.5613 6.3568
# 3 29.2882 28.2539 131.7972 29.6263 -9.6482 8.2023
# 4 2.7597 15.8963 29.6263 20.0295 5.9544 -4.2934
# 5 3.8000 8.5613 -9.6482 5.9544 29.2000 5.3514
# 6 14.7211 6.3568 8.2023 -4.2934 5.3514 32.0062
#
#
#
# Elastic Compliance Matrix: (Units=1/GPa)
#
#
# Indices 1 2 3 4 5 6 
#
# 1 0.025024 0.001755 -0.007082 0.005545 -0.005713 -0.008344
# 2 0.001755 0.046453 -0.001685 -0.036215 -0.004508 -0.013706
# 3 -0.007082 -0.001685 0.017833 -0.030073 0.014813 -0.007489
# 4 0.005545 -0.036215 -0.030073 0.140946 -0.035601 0.037208
# 5 -0.005713 -0.004508 0.014813 -0.035601 0.050952 -0.013568
# 6 -0.008344 -0.013706 -0.007489 0.037208 -0.013568 0.046983
#
#
# Mechanical properties :
#
#
# Convention : Reuss Voigt Hill
#
# Bulk Modulus (GPa) = 13.28276 38.79509 26.03893
# Shear Modulus (GPa) = 13.61243 26.83103 20.22173
#
# Velocity S-wave (km/s) = 2.54278 3.56993 3.09921
# Velocity P-wave (km/s) = 3.86395 5.95145 5.01746
#
# Compressibility (1/GPa) = 0.07528554
#
# Stress axis : x y z
#
# Youngs Moduli (GPa) = 39.96121 21.52719 56.07581
#
# Poissons Ratio (x) = -0.03778 0.39715
# Poissons Ratio (y) = -0.07013 0.09448
# Poissons Ratio (z) = 0.28302 0.03627
#
# Static dielectric constant tensor:
#      x y z
#    x 1.781570 -0.031960 -0.045750 
#    y -0.031960 1.803080 -0.010550 
#    z -0.045750 -0.010550 1.802620 
# 
# From -- ./inp_files/201184.got.cif
#   From: 2010.05.17/outbox.cif.g08.bks.cpg/sg2_101_cif.got.tgz:201184.got - 2010.06.03 11:33:40.
