data_PCOD9095479
_publ_section_title
;
Structure prediction by ZEFSAII (Michael W. Deem and Ramdas Pophale) SiO2 
 PCOD9095479
Probable space group: P -1
;
_chemical_formula_sum "Si O2"
_cell_formula_units_Z 16
_cell_length_a 11.211725
_cell_length_b 13.620406
_cell_length_c 12.173395
_cell_angle_alpha 56.911075
_cell_angle_beta 134.257697
_cell_angle_gamma 149.753980
_cell_volume 662.245374
_symmetry_space_group_name_H-M "P -1"
_symmetry_group_IT_number 2
_symmetry_cell_setting 'triclinic'
loop_
_space_group_symop_operation_xyz
x,y,z
-x,-y,-z
loop_
_atom_site_type_symbol
_atom_site_label
_atom_site_fract_x
_atom_site_fract_y
_atom_site_fract_z
Si Si1 0.382187 0.007425 0.518011
Si Si2 0.242247 0.247802 0.455365
Si Si3 0.865640 0.164548 0.929161
Si Si4 0.273564 0.459857 0.824001
Si Si5 0.894304 0.877147 0.328766
Si Si6 0.314428 0.739334 0.783136
Si Si7 0.554890 0.524715 0.764313
Si Si8 0.285398 0.672212 0.286863
O O1 0.294772 0.851038 0.637492
O O2 0.128461 0.950350 0.358865
O O3 0.500000 0.000000 0.500000
O O4 0.603995 0.221191 0.587369
O O5 0.094013 0.193456 0.506974
O O6 0.403385 0.422282 0.368990
O O7 0.530107 0.722228 0.381651
O O8 0.006065 0.060643 0.336500
O O9 0.741882 0.218847 0.858049
O O10 0.988316 0.256432 0.827321
O O11 0.620468 0.930421 0.918625
O O12 0.145312 0.297969 0.094894
O O13 0.320952 0.622089 0.788852
O O14 0.337743 0.481247 0.722241
O O15 0.500000 0.500000 0.000000
O O16 0.592959 0.686140 0.198938
O O17 0.022190 0.559105 0.771023
#
# Coordination Sequence:
#
# PCOD9095479 Si02
#       8
#     2   2   2   2   2   2   2   2
#     4  10  22  35  60  91 121 154 198 249 306 365
#     4  10  22  41  63  87 115 164 205 250 302 356
#     4   9  21  39  55  90 126 161 198 252 303 366
#     4   9  21  35  53  84 123 160 198 246 300 359
#     4  10  23  40  60  88 126 151 200 260 299 351
#     4  10  20  35  58  81 127 161 194 245 307 356
#     4  11  22  35  62  87 119 159 207 245 304 362
#     4   9  20  39  59  86 122 158 203 245 306 356
#
# _framework density 24.160228
#
# number of rings (size 3 to 8) (size 9 to 14) (size 15 to 20)
#    0.000    2.250    0.000    1.125    8.750    5.500 
#    0.000    0.625    0.000   17.250    0.000    0.000 
#    0.000    0.000    0.000    0.000    0.000    0.000 
#
# Total GULP energy -89154.817458 kJ/mol
# GULP energy per Si atom -5572.176091 kJ/mol
# Density = 2.410524 g / cm^3
# Si number density = 24.160228 Si / 1000 Ang^3
#
#
#
# Elastic Constant Matrix: (Units=GPa)
#
#
# Indices 1 2 3 4 5 6 
#
# 1 100.0887 6.1195 13.7015 -5.6646 7.5935 -2.4957
# 2 6.1195 166.6195 13.9519 26.2902 5.0900 13.5838
# 3 13.7015 13.9519 27.1108 4.2159 4.4546 11.3710
# 4 -5.6646 26.2902 4.2159 41.6310 8.6690 0.0317
# 5 7.5935 5.0900 4.4546 8.6690 25.0319 4.1044
# 6 -2.4957 13.5838 11.3710 0.0317 4.1044 24.1446
#
#
#
# Elastic Compliance Matrix: (Units=1/GPa)
#
#
# Indices 1 2 3 4 5 6 
#
# 1 0.011836 -0.000726 -0.008071 0.003783 -0.004327 0.006164
# 2 -0.000726 0.007144 -0.001212 -0.004742 0.001237 -0.003728
# 3 -0.008071 -0.001212 0.053058 -0.005535 -0.000730 -0.025009
# 4 0.003783 -0.004742 -0.005535 0.030363 -0.010941 0.007486
# 5 -0.004327 0.001237 -0.000730 -0.010941 0.046350 -0.008664
# 6 0.006164 -0.003728 -0.025009 0.007486 -0.008664 0.057393
#
#
# Mechanical properties :
#
#
# Convention : Reuss Voigt Hill
#
# Bulk Modulus (GPa) = 19.22276 40.15165 29.68721
# Shear Modulus (GPa) = 20.53360 35.49790 28.01575
#
# Velocity S-wave (km/s) = 2.91845 3.83726 3.40896
# Velocity P-wave (km/s) = 4.39661 6.02393 5.27342
#
# Compressibility (1/GPa) = 0.05202165
#
# Stress axis : x y z
#
# Youngs Moduli (GPa) = 84.48466 139.97268 18.84714
#
# Poissons Ratio (x) = 0.10163 0.15211
# Poissons Ratio (y) = 0.06134 0.02284
# Poissons Ratio (z) = 0.68186 0.16963
#
# Static dielectric constant tensor:
#      x y z
#    x 1.984210 0.009300 -0.014070 
#    y 0.009300 1.972910 0.025820 
#    z -0.014070 0.025820 2.000690 
# 
# From -- ./inp_files/518867.got.cif
#   From: 2010.05.17/outbox.cif.g08.bks.cpg/sg2_260_cif.got.tgz:518867.got - 2010.06.03 11:33:40.
