data_PCOD9095860
_publ_section_title
;
Structure prediction by ZEFSAII (Michael W. Deem and Ramdas Pophale) SiO2 
 PCOD9095860
Probable space group: P -1
;
_chemical_formula_sum "Si O2"
_cell_formula_units_Z 16
_cell_length_a 11.433813
_cell_length_b 15.070984
_cell_length_c 9.126008
_cell_angle_alpha 117.548058
_cell_angle_beta 140.711244
_cell_angle_gamma 81.111795
_cell_volume 822.897755
_symmetry_space_group_name_H-M "P -1"
_symmetry_group_IT_number 2
_symmetry_cell_setting 'triclinic'
loop_
_space_group_symop_operation_xyz
x,y,z
-x,-y,-z
loop_
_atom_site_type_symbol
_atom_site_label
_atom_site_fract_x
_atom_site_fract_y
_atom_site_fract_z
Si Si1 0.985830 0.232958 0.993797
Si Si2 0.217089 0.851083 0.785351
Si Si3 0.942120 0.622792 0.432916
Si Si4 0.877545 0.058255 0.516522
Si Si5 0.350645 0.321068 0.625654
Si Si6 0.612282 0.876657 0.340259
Si Si7 0.187836 0.966511 0.124021
Si Si8 0.812065 0.393178 0.054098
O O1 0.992687 0.164020 0.805372
O O2 0.855021 0.144679 0.917174
O O3 0.880711 0.320716 0.951863
O O4 0.201074 0.286109 0.316644
O O5 0.243780 0.900397 0.687825
O O6 0.033549 0.738386 0.532457
O O7 0.404534 0.832133 0.022783
O O8 0.193434 0.940721 0.940280
O O9 0.734768 0.605666 0.302072
O O10 0.907955 0.520914 0.218704
O O11 0.093841 0.623533 0.711532
O O12 0.749208 0.968644 0.436862
O O13 0.000000 0.000000 0.500000
O O14 0.317546 0.218688 0.620016
O O15 0.576722 0.359980 0.821672
O O16 0.625532 0.938777 0.554847
O O17 0.000000 0.000000 0.000000
#
# Coordination Sequence:
#
# PCOD9095860 Si02
#       8
#     2   2   2   2   2   2   2   2
#     4  10  21  39  58  86 117 154 195 237 288 343
#     4  12  21  39  55  86 117 153 191 242 285 348
#     4  10  20  35  60  90 118 147 189 247 299 329
#     4  11  25  40  56  81 122 159 192 232 289 350
#     4  11  18  36  62  90 118 147 195 239 291 339
#     4  11  22  35  58  87 113 154 193 233 289 351
#     4  11  18  34  56  81 113 151 190 232 286 338
#     4  10  20  36  60  90 116 146 195 248 289 338
#
# _framework density 19.443484000000002
#
# number of rings (size 3 to 8) (size 9 to 14) (size 15 to 20)
#    0.000    1.250    5.000    3.375    0.000    1.000 
#    2.250    0.625    0.000    0.750    0.000    0.000 
#    0.000    0.000    0.000    0.000    0.000    0.000 
#
# Total GULP energy -89242.416746 kJ/mol
# GULP energy per Si atom -5577.651047 kJ/mol
# Density = 1.939923 g / cm^3
# Si number density = 19.443484 Si / 1000 Ang^3
#
#
#
# Elastic Constant Matrix: (Units=GPa)
#
#
# Indices 1 2 3 4 5 6 
#
# 1 62.3357 30.8731 39.8201 5.1569 -2.3608 -20.9443
# 2 30.8731 67.0813 44.0539 8.1304 -6.7832 -16.0006
# 3 39.8201 44.0539 78.4048 5.0381 -0.2655 -13.4949
# 4 5.1569 8.1304 5.0381 30.9412 -6.6052 -3.0483
# 5 -2.3608 -6.7832 -0.2655 -6.6052 35.9156 -1.4867
# 6 -20.9443 -16.0006 -13.4949 -3.0483 -1.4867 36.4271
#
#
#
# Elastic Compliance Matrix: (Units=1/GPa)
#
#
# Indices 1 2 3 4 5 6 
#
# 1 0.028145 -0.003164 -0.010593 -0.000747 0.001487 0.010867
# 2 -0.003164 0.026349 -0.012097 -0.002987 0.004345 0.005201
# 3 -0.010593 -0.012097 0.024495 0.000100 -0.002882 -0.002439
# 4 -0.000747 -0.002987 0.000100 0.034593 0.005809 0.001428
# 5 0.001487 0.004345 -0.002882 0.005809 0.029949 0.003404
# 6 0.010867 0.005201 -0.002439 0.001428 0.003404 0.035339
#
#
# Mechanical properties :
#
#
# Convention : Reuss Voigt Hill
#
# Bulk Modulus (GPa) = 36.65325 48.59067 42.62196
# Shear Modulus (GPa) = 20.86175 26.86177 23.86176
#
# Velocity S-wave (km/s) = 3.27913 3.72093 3.50699
# Velocity P-wave (km/s) = 5.76447 6.59586 6.19413
#
# Compressibility (1/GPa) = 0.02728271
#
# Stress axis : x y z
#
# Youngs Moduli (GPa) = 35.52989 37.95155 40.82420
#
# Poissons Ratio (x) = 0.12007 0.43247
# Poissons Ratio (y) = 0.11241 0.49383
# Poissons Ratio (z) = 0.37638 0.45908
#
# Static dielectric constant tensor:
#      x y z
#    x 1.705280 -0.042140 0.014500 
#    y -0.042140 1.694910 0.003030 
#    z 0.014500 0.003030 1.718210 
# 
# From -- ./inp_files/271011.got.cif
#   From: 2010.05.17/outbox.cif.g08.bks.cpg/sg2_136_cif.got.tgz:271011.got - 2010.06.03 11:33:40.
