data_PCOD9095133
_publ_section_title
;
Structure prediction by ZEFSAII (Michael W. Deem and Ramdas Pophale) SiO2 
 PCOD9095133
Probable space group: P -1
;
_chemical_formula_sum "Si O2"
_cell_formula_units_Z 16
_cell_length_a 5.609162
_cell_length_b 12.523012
_cell_length_c 15.426249
_cell_angle_alpha 135.905247
_cell_angle_beta 113.304026
_cell_angle_gamma 83.331611
_cell_volume 668.146689
_symmetry_space_group_name_H-M "P -1"
_symmetry_group_IT_number 2
_symmetry_cell_setting 'triclinic'
loop_
_space_group_symop_operation_xyz
x,y,z
-x,-y,-z
loop_
_atom_site_type_symbol
_atom_site_label
_atom_site_fract_x
_atom_site_fract_y
_atom_site_fract_z
Si Si1 0.085062 0.748298 0.733918
Si Si2 0.508533 0.202538 0.030542
Si Si3 0.854934 0.918203 0.342072
Si Si4 0.633936 0.173552 0.668675
Si Si5 0.081791 0.963219 0.087540
Si Si6 0.116161 0.760768 0.546263
Si Si7 0.562765 0.544642 0.270075
Si Si8 0.656144 0.485520 0.600112
O O1 0.354922 0.820960 0.869652
O O2 0.126203 0.711742 0.619079
O O3 0.946190 0.597711 0.684567
O O4 0.881360 0.861572 0.765215
O O5 0.568927 0.390425 0.125045
O O6 0.186558 0.137768 0.960228
O O7 0.668909 0.114148 0.935434
O O8 0.551737 0.835565 0.278453
O O9 0.052872 0.820189 0.276438
O O10 0.851333 0.056144 0.354697
O O11 0.000000 0.000000 0.500000
O O12 0.610934 0.337178 0.716799
O O13 0.500000 0.000000 0.500000
O O14 0.000000 0.000000 0.000000
O O15 0.341380 0.696364 0.493349
O O16 0.845266 0.668186 0.404990
O O17 0.453391 0.463198 0.298385
O O18 0.500000 0.500000 0.500000
#
# Coordination Sequence:
#
# PCOD9095133 Si02
#       8
#     2   2   2   2   2   2   2   2
#     4  11  22  39  56  85 119 161 197 242 287 343
#     4  11  23  39  60  83 113 158 200 246 280 339
#     4  10  20  36  55  78 118 149 191 229 285 353
#     4  10  20  35  55  80 115 147 186 239 281 356
#     4  10  22  41  59  78 110 158 212 244 276 324
#     4  12  23  35  55  88 121 158 188 236 301 364
#     4  12  22  35  58  85 120 152 194 237 303 352
#     4  12  23  34  52  85 130 162 186 228 295 369
#
# _framework density 23.946839000000001
#
# number of rings (size 3 to 8) (size 9 to 14) (size 15 to 20)
#    0.000    1.000    5.000    5.625    0.000    1.000 
#    0.000    0.000    0.000    0.000    0.000    5.250 
#    0.000    0.000    0.000    0.000    0.000    0.000 
#
# Total GULP energy -89323.371329 kJ/mol
# GULP energy per Si atom -5582.710708 kJ/mol
# Density = 2.389233 g / cm^3
# Si number density = 23.946839 Si / 1000 Ang^3
#
#
#
# Elastic Constant Matrix: (Units=GPa)
#
#
# Indices 1 2 3 4 5 6 
#
# 1 181.3739 49.9177 31.8549 18.4568 -20.1697 -15.6005
# 2 49.9177 103.0831 16.8315 29.5173 -7.2449 -18.7891
# 3 31.8549 16.8315 44.5702 18.7820 -6.1304 -13.3402
# 4 18.4568 29.5173 18.7820 22.7071 -9.1645 -11.7475
# 5 -20.1697 -7.2449 -6.1304 -9.1645 35.6119 15.0899
# 6 -15.6005 -18.7891 -13.3402 -11.7475 15.0899 41.4068
#
#
#
# Elastic Compliance Matrix: (Units=1/GPa)
#
#
# Indices 1 2 3 4 5 6 
#
# 1 0.007478 -0.004002 -0.005636 0.004980 0.004114 -0.000901
# 2 -0.004002 0.018607 0.007901 -0.027928 -0.005875 0.003699
# 3 -0.005636 0.007901 0.040853 -0.039233 -0.007247 0.006134
# 4 0.004980 -0.027928 -0.039233 0.118168 0.019537 0.002969
# 5 0.004114 -0.005875 -0.007247 0.019537 0.037973 -0.011747
# 6 -0.000901 0.003699 0.006134 0.002969 -0.011747 0.032589
#
#
# Mechanical properties :
#
#
# Convention : Reuss Voigt Hill
#
# Bulk Modulus (GPa) = 15.75665 58.47061 37.11363
# Shear Modulus (GPa) = 17.83836 35.30669 26.57252
#
# Velocity S-wave (km/s) = 2.73227 3.84393 3.33475
# Velocity P-wave (km/s) = 4.06791 6.64612 5.50994
#
# Compressibility (1/GPa) = 0.06346526
#
# Stress axis : x y z
#
# Youngs Moduli (GPa) = 133.72614 53.74318 24.47830
#
# Poissons Ratio (x) = 0.21508 0.13795
# Poissons Ratio (y) = 0.53517 -0.19341
# Poissons Ratio (z) = 0.75362 -0.42465
#
# Static dielectric constant tensor:
#      x y z
#    x 2.015120 0.002030 0.060970 
#    y 0.002030 1.939200 0.077550 
#    z 0.060970 0.077550 2.071580 
# 
# From -- ./inp_files/112288.got.cif
#   From: 2010.05.17/outbox.cif.g08.bks.cpg/sg2_57_cif.got.tgz:112288.got - 2010.06.03 11:33:40.
