data_PCOD9095950
_publ_section_title
;
Structure prediction by ZEFSAII (Michael W. Deem and Ramdas Pophale) SiO2 
 PCOD9095950
Probable space group: P -1
;
_chemical_formula_sum "Si O2"
_cell_formula_units_Z 16
_cell_length_a 8.164387
_cell_length_b 14.133277
_cell_length_c 14.887466
_cell_angle_alpha 37.059358
_cell_angle_beta 95.232849
_cell_angle_gamma 122.327313
_cell_volume 658.046740
_symmetry_space_group_name_H-M "P -1"
_symmetry_group_IT_number 2
_symmetry_cell_setting 'triclinic'
loop_
_space_group_symop_operation_xyz
x,y,z
-x,-y,-z
loop_
_atom_site_type_symbol
_atom_site_label
_atom_site_fract_x
_atom_site_fract_y
_atom_site_fract_z
Si Si1 0.828539 0.209649 0.809746
Si Si2 0.317834 0.723144 0.415986
Si Si3 0.951024 0.006559 0.887556
Si Si4 0.031885 0.205545 0.376654
Si Si5 0.815007 0.344861 0.194373
Si Si6 0.514736 0.349772 0.062258
Si Si7 0.971860 0.187101 0.594847
Si Si8 0.135173 0.816191 0.971324
O O1 0.748498 0.295818 0.678042
O O2 0.145044 0.450346 0.645531
O O3 0.745545 0.995145 0.911427
O O4 0.748577 0.158308 0.947391
O O5 0.181427 0.764269 0.433173
O O6 0.627708 0.963268 0.250692
O O7 0.130538 0.241974 0.647620
O O8 0.971897 0.848681 0.965532
O O9 0.000000 0.000000 0.000000
O O10 0.805537 0.157616 0.367000
O O11 0.075692 0.251604 0.450710
O O12 0.273119 0.463070 0.144022
O O13 0.000000 0.000000 0.500000
O O14 0.570378 0.255170 0.209836
O O15 0.000000 0.500000 0.000000
O O16 0.951987 0.550218 0.121643
O O17 0.250387 0.108329 0.187709
O O18 0.500000 0.500000 0.000000
#
# Coordination Sequence:
#
# PCOD9095950 Si02
#       8
#     2   2   2   2   2   2   2   2
#     4   9  20  38  57  89 120 152 204 259 318 376
#     4  10  20  35  61  87 117 156 204 260 312 381
#     4   9  21  40  65  90 129 167 207 269 326 390
#     4  11  23  41  62  91 128 173 216 272 322 376
#     4  10  23  39  62  91 130 169 219 263 318 387
#     4  11  22  42  64  91 128 175 217 268 321 388
#     4  11  22  41  63  90 126 170 217 262 330 384
#     4  11  20  38  61  86 119 164 207 253 318 373
#
# _framework density 24.314382999999999
#
# number of rings (size 3 to 8) (size 9 to 14) (size 15 to 20)
#    0.000    1.750    1.250    3.375    1.750    1.000 
#    0.000   12.500    0.000    0.000    0.000    0.000 
#    0.000    0.000    0.000    0.000    0.000    0.000 
#
# Total GULP energy -89076.626181 kJ/mol
# GULP energy per Si atom -5567.289136 kJ/mol
# Density = 2.425904 g / cm^3
# Si number density = 24.314383 Si / 1000 Ang^3
#
#
#
# Elastic Constant Matrix: (Units=GPa)
#
#
# Indices 1 2 3 4 5 6 
#
# 1 101.8825 38.4602 36.0602 10.0297 35.1738 -18.5432
# 2 38.4602 98.3873 32.7200 23.8164 8.2068 -29.4635
# 3 36.0602 32.7200 143.3016 28.2979 4.7949 -3.9194
# 4 10.0297 23.8164 28.2979 54.9590 0.1736 0.4034
# 5 35.1738 8.2068 4.7949 0.1736 38.2035 1.2719
# 6 -18.5432 -29.4635 -3.9194 0.4034 1.2719 41.3171
#
#
#
# Elastic Compliance Matrix: (Units=1/GPa)
#
#
# Indices 1 2 3 4 5 6 
#
# 1 0.019159 -0.002804 -0.003319 -0.000569 -0.016845 0.006808
# 2 -0.002804 0.016393 -0.001561 -0.005861 -0.001063 0.010373
# 3 -0.003319 -0.001561 0.008667 -0.003175 0.002378 -0.001822
# 4 -0.000569 -0.005861 -0.003175 0.022504 0.002247 -0.005025
# 5 -0.016845 -0.001063 0.002378 0.002247 0.041917 -0.009405
# 6 0.006808 0.010373 -0.001822 -0.005025 -0.009405 0.034822
#
#
# Mechanical properties :
#
#
# Convention : Reuss Voigt Hill
#
# Bulk Modulus (GPa) = 34.65876 62.00581 48.33228
# Shear Modulus (GPa) = 29.68305 42.65132 36.16718
#
# Velocity S-wave (km/s) = 3.49779 4.19281 3.86097
# Velocity P-wave (km/s) = 5.53155 6.99976 6.30851
#
# Compressibility (1/GPa) = 0.02885274
#
# Stress axis : x y z
#
# Youngs Moduli (GPa) = 52.19480 61.00160 115.37651
#
# Poissons Ratio (x) = 0.17104 0.38289
# Poissons Ratio (y) = 0.14635 0.18007
# Poissons Ratio (z) = 0.17322 0.09520
#
# Static dielectric constant tensor:
#      x y z
#    x 2.033550 -0.023080 -0.038820 
#    y -0.023080 1.802620 -0.009280 
#    z -0.038820 -0.009280 2.000730 
# 
# From -- ./inp_files/503855.got.cif
#   From: 2010.05.17/outbox.cif.g08.bks.cpg/sg2_252_cif.got.tgz:503855.got - 2010.06.03 11:33:40.
