data_PCOD9095371
_publ_section_title
;
Structure prediction by ZEFSAII (Michael W. Deem and Ramdas Pophale) SiO2 
 PCOD9095371
Probable space group: P -1
;
_chemical_formula_sum "Si O2"
_cell_formula_units_Z 14
_cell_length_a 11.603519
_cell_length_b 18.796046
_cell_length_c 11.545740
_cell_angle_alpha 29.503834
_cell_angle_beta 134.818497
_cell_angle_gamma 151.213712
_cell_volume 579.102397
_symmetry_space_group_name_H-M "P -1"
_symmetry_group_IT_number 2
_symmetry_cell_setting 'triclinic'
loop_
_space_group_symop_operation_xyz
x,y,z
-x,-y,-z
loop_
_atom_site_type_symbol
_atom_site_label
_atom_site_fract_x
_atom_site_fract_y
_atom_site_fract_z
Si Si1 0.197528 0.115163 0.150300
Si Si2 0.660822 0.733954 0.722871
Si Si3 0.152138 0.912707 0.190142
Si Si4 0.356773 0.810536 0.333391
Si Si5 0.767968 0.561250 0.882764
Si Si6 0.189616 0.682247 0.146244
Si Si7 0.617378 0.425784 0.718787
O O1 0.161624 0.090827 0.296852
O O2 0.109316 0.923734 0.278489
O O3 0.490514 0.320874 0.050122
O O4 0.070964 0.171574 0.924241
O O5 0.478892 0.739468 0.548704
O O6 0.782285 0.732255 0.703547
O O7 0.500000 0.500000 0.000000
O O8 0.226823 0.802946 0.359930
O O9 0.387185 0.169215 0.955896
O O10 0.584689 0.064576 0.094855
O O11 0.182066 0.686815 0.272692
O O12 0.793052 0.561203 0.762899
O O13 0.955008 0.588572 0.047701
O O14 0.255623 0.567656 0.308780
O O15 0.500000 0.500000 0.500000
#
# Coordination Sequence:
#
# PCOD9095371 Si02
#       7
#     2   2   2   2   2   2   2
#     4   9  19  37  56  78 110 145 183 226 273 329
#     4  10  21  37  55  81 113 144 183 228 277 330
#     4   9  19  37  57  78 109 146 185 224 271 330
#     4  10  21  37  58  82 110 146 187 229 276 328
#     4  10  20  36  55  81 114 143 184 230 274 328
#     4  10  21  37  58  83 111 146 186 229 275 327
#     4  10  20  35  57  84 112 144 182 227 278 329
#
# _framework density 24.175343999999999
#
# number of rings (size 3 to 8) (size 9 to 14) (size 15 to 20)
#    0.000    2.286    0.000    2.143    0.000    2.286 
#    0.000   20.000    0.000    0.000    0.000    0.000 
#    0.000    0.000    0.000    0.000    0.000    0.000 
#
# Total GULP energy -78383.695422 kJ/mol
# GULP energy per Si atom -5598.835387 kJ/mol
# Density = 2.412032 g / cm^3
# Si number density = 24.175344 Si / 1000 Ang^3
#
#
#
# Elastic Constant Matrix: (Units=GPa)
#
#
# Indices 1 2 3 4 5 6 
#
# 1 129.3213 42.6177 53.6576 13.7818 23.3579 -15.7339
# 2 42.6177 152.9375 47.4101 33.1925 13.9400 -14.9427
# 3 53.6576 47.4101 117.6407 11.8177 32.3325 -12.9916
# 4 13.7818 33.1925 11.8177 46.0645 9.3421 -4.5274
# 5 23.3579 13.9400 32.3325 9.3421 54.4066 -0.2300
# 6 -15.7339 -14.9427 -12.9916 -4.5274 -0.2300 32.5223
#
#
#
# Elastic Compliance Matrix: (Units=1/GPa)
#
#
# Indices 1 2 3 4 5 6 
#
# 1 0.010289 -0.001246 -0.003229 -0.000639 -0.002057 0.003012
# 2 -0.001246 0.008936 -0.002475 -0.005389 0.000649 0.001769
# 3 -0.003229 -0.002475 0.012714 0.000881 -0.005676 0.002462
# 4 -0.000639 -0.005389 0.000881 0.026364 -0.003390 0.001213
# 5 -0.002057 0.000649 -0.005676 -0.003390 0.023038 -0.003273
# 6 0.003012 0.001769 0.002462 0.001213 -0.003273 0.034147
#
#
# Mechanical properties :
#
#
# Convention : Reuss Voigt Hill
#
# Bulk Modulus (GPa) = 55.43015 76.36334 65.89674
# Shear Modulus (GPa) = 36.92738 43.67963 40.30350
#
# Velocity S-wave (km/s) = 3.91254 4.25524 4.08748
# Velocity P-wave (km/s) = 6.58702 7.46985 7.04228
#
# Compressibility (1/GPa) = 0.01804072
#
# Stress axis : x y z
#
# Youngs Moduli (GPa) = 97.19170 111.90333 78.65363
#
# Poissons Ratio (x) = 0.13940 0.25395
# Poissons Ratio (y) = 0.12108 0.19465
# Poissons Ratio (z) = 0.31381 0.27693
#
# Static dielectric constant tensor:
#      x y z
#    x 1.948950 -0.019540 -0.051720 
#    y -0.019540 1.925840 -0.089120 
#    z -0.051720 -0.089120 1.911260 
# 
# From -- ./inp_files/177901.got.cif
#   From: 2010.05.17/outbox.cif.g08.bks.cpg/sg2_89_cif.got.tgz:177901.got - 2010.06.03 11:33:40.
