data_PCOD9095551
_publ_section_title
;
Structure prediction by ZEFSAII (Michael W. Deem and Ramdas Pophale) SiO2 
 PCOD9095551
Probable space group: P -1
;
_chemical_formula_sum "Si O2"
_cell_formula_units_Z 16
_cell_length_a 11.267190
_cell_length_b 7.772962
_cell_length_c 19.931404
_cell_angle_alpha 73.384342
_cell_angle_beta 27.867562
_cell_angle_gamma 93.164549
_cell_volume 567.691041
_symmetry_space_group_name_H-M "P -1"
_symmetry_group_IT_number 2
_symmetry_cell_setting 'triclinic'
loop_
_space_group_symop_operation_xyz
x,y,z
-x,-y,-z
loop_
_atom_site_type_symbol
_atom_site_label
_atom_site_fract_x
_atom_site_fract_y
_atom_site_fract_z
Si Si1 0.812376 0.224811 0.994540
Si Si2 0.363278 0.414306 0.280375
Si Si3 0.469298 0.208682 0.428933
Si Si4 0.604993 0.346623 0.485406
Si Si5 0.426120 0.674325 0.010180
Si Si6 0.596852 0.976085 0.653707
Si Si7 0.623265 0.842878 0.033650
Si Si8 0.822394 0.562075 0.488645
O O1 0.675955 0.081261 0.149056
O O2 0.858870 0.085372 0.933721
O O3 0.530215 0.215758 0.097131
O O4 0.153995 0.511925 0.800262
O O5 0.455744 0.261833 0.275942
O O6 0.647456 0.647999 0.065445
O O7 0.321413 0.516022 0.356026
O O8 0.987302 0.218301 0.453802
O O9 0.418928 0.146803 0.540196
O O10 0.433210 0.036446 0.410449
O O11 0.210557 0.244430 0.534877
O O12 0.500000 0.500000 0.500000
O O13 0.597388 0.342473 0.570744
O O14 0.017812 0.511344 0.247973
O O15 0.634150 0.865742 0.946159
O O16 0.500000 0.500000 0.000000
O O17 0.223978 0.700553 0.268224
#
# Coordination Sequence:
#
# PCOD9095551 Si02
#       8
#     2   2   2   2   2   2   2   2
#     4  11  21  36  60  88 118 156 202 249 310 363
#     4  10  20  35  58  89 117 149 205 256 301 355
#     4   9  19  35  56  85 119 156 198 243 308 368
#     4   8  16  33  60  86 115 158 203 246 298 359
#     4  10  21  37  59  90 126 158 199 256 311 365
#     4  10  20  35  58  87 118 159 197 249 309 362
#     4  11  21  36  61  87 115 156 204 259 298 356
#     4   9  17  33  57  83 111 151 199 251 290 350
#
# _framework density 28.184345
#
# number of rings (size 3 to 8) (size 9 to 14) (size 15 to 20)
#    0.000    2.250    1.250    1.875    0.000    0.000 
#    0.000    2.500    8.250    3.750    0.000    0.000 
#    0.000    0.000    0.000    0.000    0.000    0.000 
#
# Total GULP energy -89653.883363 kJ/mol
# GULP energy per Si atom -5603.367710 kJ/mol
# Density = 2.812020 g / cm^3
# Si number density = 28.184345 Si / 1000 Ang^3
#
#
#
# Elastic Constant Matrix: (Units=GPa)
#
#
# Indices 1 2 3 4 5 6 
#
# 1 175.1916 42.4517 35.5215 2.3545 19.5480 40.9032
# 2 42.4517 167.6503 21.0945 -4.5242 1.6068 35.2993
# 3 35.5215 21.0945 93.9430 -6.3991 -9.1036 6.6267
# 4 2.3545 -4.5242 -6.3991 31.7540 2.5657 -1.6186
# 5 19.5480 1.6068 -9.1036 2.5657 46.1325 6.5657
# 6 40.9032 35.2993 6.6267 -1.6186 6.5657 73.3058
#
#
#
# Elastic Compliance Matrix: (Units=1/GPa)
#
#
# Indices 1 2 3 4 5 6 
#
# 1 0.007653 -0.000879 -0.002856 -0.001176 -0.003237 -0.003325
# 2 -0.000879 0.006903 -0.000947 0.000693 0.000300 -0.002760
# 3 -0.002856 -0.000947 0.012384 0.002327 0.003462 0.000671
# 4 -0.001176 0.000693 0.002327 0.032274 -0.000991 0.000914
# 5 -0.003237 0.000300 0.003462 -0.000991 0.023892 -0.000813
# 6 -0.003325 -0.002760 0.000671 0.000914 -0.000813 0.016858
#
#
# Mechanical properties :
#
#
# Convention : Reuss Voigt Hill
#
# Bulk Modulus (GPa) = 56.89234 70.54668 63.71951
# Shear Modulus (GPa) = 43.40772 52.75293 48.08032
#
# Velocity S-wave (km/s) = 3.92871 4.33102 4.13476
# Velocity P-wave (km/s) = 6.38822 7.07779 6.74183
#
# Compressibility (1/GPa) = 0.01757706
#
# Stress axis : x y z
#
# Youngs Moduli (GPa) = 130.65993 144.85527 80.75064
#
# Poissons Ratio (x) = 0.12737 0.23060
# Poissons Ratio (y) = 0.11489 0.07645
# Poissons Ratio (z) = 0.37313 0.13714
#
# Static dielectric constant tensor:
#      x y z
#    x 2.215660 -0.027230 -0.004650 
#    y -0.027230 2.252860 0.048600 
#    z -0.004650 0.048600 2.128630 
# 
# From -- ./inp_files/405701.got.cif
#   From: 2010.05.17/outbox.cif.g08.bks.cpg/sg2_203_cif.got.tgz:405701.got - 2010.06.03 11:33:40.
