data_PCOD9095829
_publ_section_title
;
Structure prediction by ZEFSAII (Michael W. Deem and Ramdas Pophale) SiO2 
 PCOD9095829
Probable space group: P -1
;
_chemical_formula_sum "Si O2"
_cell_formula_units_Z 14
_cell_length_a 9.693701
_cell_length_b 8.165392
_cell_length_c 8.990678
_cell_angle_alpha 99.936278
_cell_angle_beta 90.863969
_cell_angle_gamma 75.969137
_cell_volume 679.783910
_symmetry_space_group_name_H-M "P -1"
_symmetry_group_IT_number 2
_symmetry_cell_setting 'triclinic'
loop_
_space_group_symop_operation_xyz
x,y,z
-x,-y,-z
loop_
_atom_site_type_symbol
_atom_site_label
_atom_site_fract_x
_atom_site_fract_y
_atom_site_fract_z
Si Si1 0.865305 0.194408 0.944191
Si Si2 0.307603 0.609110 0.488414
Si Si3 0.451305 0.518110 0.754240
Si Si4 0.859208 0.823779 0.879006
Si Si5 0.679927 0.581642 0.986364
Si Si6 0.018034 0.833217 0.377706
Si Si7 0.141411 0.342731 0.468199
O O1 0.761463 0.379659 0.943135
O O2 0.962226 0.147618 0.791759
O O3 0.800519 0.028681 0.936627
O O4 0.975092 0.212359 0.077561
O O5 0.345022 0.649786 0.663870
O O6 0.436954 0.597033 0.376034
O O7 0.166132 0.717377 0.426281
O O8 0.276048 0.421868 0.476790
O O9 0.373795 0.409511 0.843279
O O10 0.544428 0.607368 0.878449
O O11 0.855854 0.767846 0.698280
O O12 0.779096 0.704123 0.954005
O O13 0.882427 0.760597 0.403411
O O14 0.000000 0.000000 0.500000
O O15 0.000000 0.500000 0.500000
#
# Coordination Sequence:
#
# PCOD9095829 Si02
#       7
#     2   2   2   2   2   2   2
#     4  11  24  39  63  96 126 159 206 265 314 375
#     4  10  21  39  62  88 119 161 213 253 304 370
#     4  10  22  38  63  87 121 170 213 247 295 377
#     4  11  23  40  62  94 130 157 204 266 318 367
#     4  11  22  41  64  88 123 169 210 250 310 367
#     4  11  21  37  62  89 124 154 202 265 319 358
#     4  10  20  35  60  88 117 162 201 256 314 362
#
# _framework density 20.594777000000001
#
# number of rings (size 3 to 8) (size 9 to 14) (size 15 to 20)
#    0.000    1.429    4.286    1.286    6.000    0.000 
#    0.000    2.857    6.286    3.429    0.000    0.000 
#    0.000    0.000    0.000    0.000    0.000    0.000 
#
# Total GULP energy -78060.347061 kJ/mol
# GULP energy per Si atom -5575.739076 kJ/mol
# Density = 2.054790 g / cm^3
# Si number density = 20.594777 Si / 1000 Ang^3
#
#
#
# Elastic Constant Matrix: (Units=GPa)
#
#
# Indices 1 2 3 4 5 6 
#
# 1 72.9976 36.0022 34.3566 1.7999 -11.0215 19.0102
# 2 36.0022 90.1928 16.0746 -0.5108 -12.4991 30.9341
# 3 34.3566 16.0746 93.5166 -13.9655 -8.9472 5.4850
# 4 1.7999 -0.5108 -13.9655 23.9067 5.7948 1.2347
# 5 -11.0215 -12.4991 -8.9472 5.7948 41.4397 -10.6353
# 6 19.0102 30.9341 5.4850 1.2347 -10.6353 22.4181
#
#
#
# Elastic Compliance Matrix: (Units=1/GPa)
#
#
# Indices 1 2 3 4 5 6 
#
# 1 0.022339 -0.003543 -0.007716 -0.005958 0.001141 -0.011298
# 2 -0.003543 0.022101 -0.000682 0.002303 -0.002039 -0.028419
# 3 -0.007716 -0.000682 0.014817 0.008876 0.000643 0.003675
# 4 -0.005958 0.002303 0.008876 0.049706 -0.007632 -0.006655
# 5 0.001141 -0.002039 0.000643 -0.007632 0.029112 0.015921
# 6 -0.011298 -0.028419 0.003675 -0.006655 0.015921 0.100422
#
#
# Mechanical properties :
#
#
# Convention : Reuss Voigt Hill
#
# Bulk Modulus (GPa) = 28.26816 47.73041 37.99928
# Shear Modulus (GPa) = 18.23685 28.90446 23.57065
#
# Velocity S-wave (km/s) = 2.97898 3.75038 3.38671
# Velocity P-wave (km/s) = 5.05847 6.47920 5.81241
#
# Compressibility (1/GPa) = 0.03537550
#
# Stress axis : x y z
#
# Youngs Moduli (GPa) = 44.76424 45.24756 67.49091
#
# Poissons Ratio (x) = 0.16030 0.52077
# Poissons Ratio (y) = 0.15859 0.04601
# Poissons Ratio (z) = 0.34541 0.03084
#
# Static dielectric constant tensor:
#      x y z
#    x 1.765320 -0.001440 0.002700 
#    y -0.001440 1.747780 -0.010230 
#    z 0.002700 -0.010230 1.744900 
# 
# From -- ./inp_files/155387.got.cif
#   From: 2010.05.17/outbox.cif.g08.bks.cpg/sg2_78_cif.got.tgz:155387.got - 2010.06.03 11:33:40.
