data_PCOD9095781
_publ_section_title
;
Structure prediction by ZEFSAII (Michael W. Deem and Ramdas Pophale) SiO2 
 PCOD9095781
Probable space group: P -1
;
_chemical_formula_sum "Si O2"
_cell_formula_units_Z 12
_cell_length_a 11.301442
_cell_length_b 22.892469
_cell_length_c 6.853796
_cell_angle_alpha 41.583542
_cell_angle_beta 139.788561
_cell_angle_gamma 153.925264
_cell_volume 491.011928
_symmetry_space_group_name_H-M "P -1"
_symmetry_group_IT_number 2
_symmetry_cell_setting 'triclinic'
loop_
_space_group_symop_operation_xyz
x,y,z
-x,-y,-z
loop_
_atom_site_type_symbol
_atom_site_label
_atom_site_fract_x
_atom_site_fract_y
_atom_site_fract_z
Si Si1 0.183730 0.466772 0.987421
Si Si2 0.154432 0.259081 0.382623
Si Si3 0.565107 0.797346 0.943287
Si Si4 0.020686 0.434794 0.408175
Si Si5 0.856522 0.055368 0.814491
Si Si6 0.178949 0.306802 0.837390
O O1 0.994876 0.464153 0.884874
O O2 0.095652 0.449294 0.694240
O O3 0.161122 0.354187 0.265936
O O4 0.515308 0.612808 0.055837
O O5 0.878564 0.108542 0.495691
O O6 0.405211 0.282975 0.696994
O O7 0.165863 0.280687 0.115780
O O8 0.300633 0.709318 0.690823
O O9 0.855254 0.897971 0.929316
O O10 0.601006 0.893408 0.895021
O O11 0.186816 0.415976 0.560480
O O12 0.921878 0.158250 0.787834
#
# Coordination Sequence:
#
# PCOD9095781 Si02
#       6
#     2   2   2   2   2   2
#     4  10  20  38  56  86 120 145 184 237 278 334
#     4   9  19  36  60  84 111 154 186 223 290 334
#     4   9  19  39  57  82 115 148 187 237 278 325
#     4  10  20  35  60  83 115 150 185 232 282 331
#     4   9  20  38  60  80 117 147 186 239 278 323
#     4  11  21  38  61  83 115 153 183 230 287 332
#
# _framework density 24.439323999999999
#
# number of rings (size 3 to 8) (size 9 to 14) (size 15 to 20)
#    1.000    1.333    1.667    2.000    0.000    4.000 
#    0.000   14.167    0.000    0.000    0.000    0.000 
#    0.000    0.000    0.000    0.000    0.000    0.000 
#
# Total GULP energy -66928.506968 kJ/mol
# GULP energy per Si atom -5577.375581 kJ/mol
# Density = 2.438370 g / cm^3
# Si number density = 24.439324 Si / 1000 Ang^3
#
#
#
# Elastic Constant Matrix: (Units=GPa)
#
#
# Indices 1 2 3 4 5 6 
#
# 1 104.9184 13.2897 41.0539 -14.0516 29.7331 -24.0931
# 2 13.2897 96.9868 54.5130 -17.0400 23.5914 -28.9123
# 3 41.0539 54.5130 130.6236 -14.7335 19.1954 -13.1669
# 4 -14.0516 -17.0400 -14.7335 43.6335 -5.5458 17.9125
# 5 29.7331 23.5914 19.1954 -5.5458 41.0857 -5.6523
# 6 -24.0931 -28.9123 -13.1669 17.9125 -5.6523 26.9359
#
#
#
# Elastic Compliance Matrix: (Units=1/GPa)
#
#
# Indices 1 2 3 4 5 6 
#
# 1 0.021443 0.013048 -0.007378 -0.004532 -0.016158 0.029202
# 2 0.013048 0.028661 -0.010473 -0.005695 -0.016600 0.037619
# 3 -0.007378 -0.010473 0.012846 0.003829 0.004044 -0.013259
# 4 -0.004532 -0.005695 0.003829 0.033214 0.005215 -0.029288
# 5 -0.016158 -0.016600 0.004044 0.005215 0.040915 -0.025176
# 6 0.029202 0.037619 -0.013259 -0.029288 -0.025176 0.111338
#
#
# Mechanical properties :
#
#
# Convention : Reuss Voigt Hill
#
# Bulk Modulus (GPa) = 18.74590 61.13801 39.94195
# Shear Modulus (GPa) = 18.12878 37.24247 27.68562
#
# Velocity S-wave (km/s) = 2.72653 3.90792 3.36941
# Velocity P-wave (km/s) = 4.19512 6.74040 5.61391
#
# Compressibility (1/GPa) = 0.05334500
#
# Stress axis : x y z
#
# Youngs Moduli (GPa) = 46.63449 34.89053 77.84419
#
# Poissons Ratio (x) = -0.45525 0.57433
# Poissons Ratio (y) = -0.60849 0.81525
# Poissons Ratio (z) = 0.34407 0.36540
#
# Static dielectric constant tensor:
#      x y z
#    x 1.978510 0.004190 0.032910 
#    y 0.004190 1.964200 -0.035570 
#    z 0.032910 -0.035570 1.961200 
# 
# From -- ./inp_files/320374.got.cif
#   From: 2010.05.17/outbox.cif.g08.bks.cpg/sg2_161_cif.got.tgz:320374.got - 2010.06.03 11:33:40.
