data_PCOD9095605
_publ_section_title
;
Structure prediction by ZEFSAII (Michael W. Deem and Ramdas Pophale) SiO2 
 PCOD9095605
Probable space group: P -1
;
_chemical_formula_sum "Si O2"
_cell_formula_units_Z 16
_cell_length_a 11.275868
_cell_length_b 13.488643
_cell_length_c 11.396069
_cell_angle_alpha 63.400514
_cell_angle_beta 64.377632
_cell_angle_gamma 116.204206
_cell_volume 860.618432
_symmetry_space_group_name_H-M "P -1"
_symmetry_group_IT_number 2
_symmetry_cell_setting 'triclinic'
loop_
_space_group_symop_operation_xyz
x,y,z
-x,-y,-z
loop_
_atom_site_type_symbol
_atom_site_label
_atom_site_fract_x
_atom_site_fract_y
_atom_site_fract_z
Si Si1 0.672180 0.042724 0.832065
Si Si2 0.453396 0.349499 0.537297
Si Si3 0.862528 0.500048 0.244709
Si Si4 0.031003 0.981123 0.862986
Si Si5 0.920489 0.570608 0.456356
Si Si6 0.199882 0.856697 0.782695
Si Si7 0.321697 0.868694 0.480880
Si Si8 0.430066 0.254927 0.851490
O O1 0.668088 0.067889 0.683505
O O2 0.906445 0.229392 0.677164
O O3 0.500000 0.000000 0.000000
O O4 0.614298 0.882083 0.980858
O O5 0.500000 0.500000 0.500000
O O6 0.658074 0.440862 0.332263
O O7 0.435487 0.252110 0.707633
O O8 0.238631 0.197116 0.632143
O O9 0.924302 0.574043 0.311871
O O10 0.798605 0.329219 0.366163
O O11 0.052843 0.657831 0.993399
O O12 0.109479 0.908771 0.849464
O O13 0.793163 0.827402 0.990437
O O14 0.000000 0.000000 0.000000
O O15 0.681355 0.445756 0.666101
O O16 0.000000 0.500000 0.500000
O O17 0.214184 0.869713 0.628917
O O18 0.437229 0.995835 0.654726
#
# Coordination Sequence:
#
# PCOD9095605 Si02
#       8
#     2   2   2   2   2   2   2   2
#     4  12  22  37  62  90 125 159 200 254 303 362
#     4  10  20  35  58  92 125 153 199 255 304 359
#     4  11  20  36  60  88 123 157 202 250 306 354
#     4  10  21  38  61  88 122 158 202 252 304 358
#     4  11  21  34  56  91 125 152 198 251 298 358
#     4  11  24  41  63  87 126 163 201 256 304 362
#     4  11  24  41  60  93 123 161 208 247 305 370
#     4  10  23  35  55  92 119 157 197 243 312 354
#
# _framework density 18.591280999999999
#
# number of rings (size 3 to 8) (size 9 to 14) (size 15 to 20)
#    0.000    1.250    3.750    3.375    8.750    0.000 
#    0.000    0.625    0.000    0.750    0.000    0.000 
#    0.000    0.000    0.000    0.000    0.000    0.000 
#
# Total GULP energy -89122.677366 kJ/mol
# GULP energy per Si atom -5570.167335 kJ/mol
# Density = 1.854897 g / cm^3
# Si number density = 18.591281 Si / 1000 Ang^3
#
#
#
# Elastic Constant Matrix: (Units=GPa)
#
#
# Indices 1 2 3 4 5 6 
#
# 1 69.1256 26.7069 47.0465 3.3703 -13.6764 3.6226
# 2 26.7069 70.2307 53.4277 1.2527 -1.1640 6.0800
# 3 47.0465 53.4277 115.9834 -2.2262 13.4077 17.5719
# 4 3.3703 1.2527 -2.2262 28.7992 3.5721 -6.3438
# 5 -13.6764 -1.1640 13.4077 3.5721 26.5847 -9.2361
# 6 3.6226 6.0800 17.5719 -6.3438 -9.2361 27.5901
#
#
#
# Elastic Compliance Matrix: (Units=1/GPa)
#
#
# Indices 1 2 3 4 5 6 
#
# 1 0.037213 0.003727 -0.024998 -0.006571 0.040536 0.022273
# 2 0.003727 0.024264 -0.015607 -0.002634 0.014055 0.008203
# 3 -0.024998 -0.015607 0.035223 0.005240 -0.041928 -0.028543
# 4 -0.006571 -0.002634 0.005240 0.038025 -0.010036 0.003489
# 5 0.040536 0.014055 -0.041928 -0.010036 0.098597 0.048983
# 6 0.022273 0.008203 -0.028543 0.003489 0.048983 0.066891
#
#
# Mechanical properties :
#
#
# Convention : Reuss Voigt Hill
#
# Bulk Modulus (GPa) = 43.58427 56.63353 50.10890
# Shear Modulus (GPa) = 13.10207 25.13872 19.12040
#
# Velocity S-wave (km/s) = 2.65758 3.68119 3.21044
# Velocity P-wave (km/s) = 5.73683 6.97114 6.38389
#
# Compressibility (1/GPa) = 0.02294406
#
# Stress axis : x y z
#
# Youngs Moduli (GPa) = 26.87218 41.21259 28.39039
#
# Poissons Ratio (x) = -0.15359 0.70970
# Poissons Ratio (y) = -0.10015 0.44309
# Poissons Ratio (z) = 0.67175 0.64321
#
# Static dielectric constant tensor:
#      x y z
#    x 1.884160 -0.078480 -0.005170 
#    y -0.078480 1.755050 -0.135400 
#    z -0.005170 -0.135400 1.840500 
# 
# From -- ./inp_files/431191.got.cif
#   From: 2010.05.17/outbox.cif.g08.bks.cpg/sg2_216_cif.got.tgz:431191.got - 2010.06.03 11:33:40.
