data_PCOD9095075
_publ_section_title
;
Structure prediction by ZEFSAII (Michael W. Deem and Ramdas Pophale) SiO2 
 PCOD9095075
Probable space group: P -1
;
_chemical_formula_sum "Si O2"
_cell_formula_units_Z 14
_cell_length_a 5.051627
_cell_length_b 13.729863
_cell_length_c 10.718916
_cell_angle_alpha 66.171771
_cell_angle_beta 75.952714
_cell_angle_gamma 93.160462
_cell_volume 649.831801
_symmetry_space_group_name_H-M "P -1"
_symmetry_group_IT_number 2
_symmetry_cell_setting 'triclinic'
loop_
_space_group_symop_operation_xyz
x,y,z
-x,-y,-z
loop_
_atom_site_type_symbol
_atom_site_label
_atom_site_fract_x
_atom_site_fract_y
_atom_site_fract_z
Si Si1 0.420597 0.815140 0.574170
Si Si2 0.795988 0.211669 0.895812
Si Si3 0.780008 0.078633 0.210390
Si Si4 0.744425 0.906795 0.125685
Si Si5 0.816706 0.439696 0.873241
Si Si6 0.026636 0.929150 0.411411
Si Si7 0.619354 0.419034 0.186851
O O1 0.729235 0.853974 0.472965
O O2 0.372675 0.691061 0.684326
O O3 0.226516 0.847800 0.471241
O O4 0.364625 0.882016 0.671904
O O5 0.508194 0.146223 0.906633
O O6 0.787717 0.337841 0.838289
O O7 0.068976 0.182615 0.811253
O O8 0.837763 0.174471 0.054157
O O9 0.612607 0.977828 0.205021
O O10 0.038165 0.022959 0.256303
O O11 0.000000 0.000000 0.000000
O O12 0.664378 0.535015 0.792407
O O13 0.132568 0.488620 0.843258
O O14 0.670137 0.402398 0.041982
O O15 0.000000 0.000000 0.500000
#
# Coordination Sequence:
#
# PCOD9095075 Si02
#       7
#     2   2   2   2   2   2   2
#     4  11  21  36  54  81 110 146 175 220 270 316
#     4  11  21  36  54  81 110 146 175 220 270 316
#     4  10  20  36  52  78 114 144 170 224 254 316
#     4  10  22  34  52  79 108 146 187 207 265 326
#     4  10  20  35  54  80 107 140 178 218 273 325
#     4  10  22  34  52  79 108 146 187 207 265 326
#     4  10  20  35  54  80 107 140 178 218 273 325
#
# _framework density 21.544034
#
# number of rings (size 3 to 8) (size 9 to 14) (size 15 to 20)
#    0.000    1.714    1.429    5.143    0.000   10.286 
#    0.000    0.000    0.000    0.000    0.000   20.000 
#    0.000    0.000    0.000    0.000    0.000    0.000 
#
# Total GULP energy -78055.810426 kJ/mol
# GULP energy per Si atom -5575.415030 kJ/mol
# Density = 2.149500 g / cm^3
# Si number density = 21.544034 Si / 1000 Ang^3
#
#
#
# Elastic Constant Matrix: (Units=GPa)
#
#
# Indices 1 2 3 4 5 6 
#
# 1 121.3190 14.7258 10.5785 -4.1666 27.0776 -3.1575
# 2 14.7258 104.0888 9.2963 -8.2595 9.7650 -5.0399
# 3 10.5785 9.2963 69.6918 -16.1951 16.1551 -5.2969
# 4 -4.1666 -8.2595 -16.1951 27.6647 -6.7956 6.5282
# 5 27.0776 9.7650 16.1551 -6.7956 28.5088 -0.6329
# 6 -3.1575 -5.0399 -5.2969 6.5282 -0.6329 24.2177
#
#
#
# Elastic Compliance Matrix: (Units=1/GPa)
#
#
# Indices 1 2 3 4 5 6 
#
# 1 0.010596 -0.000595 0.000774 -0.001051 -0.010518 0.001435
# 2 -0.000595 0.010146 -0.000167 0.001938 -0.002322 0.001414
# 3 0.000774 -0.000167 0.018398 0.008213 -0.009110 0.001638
# 4 -0.001051 0.001938 0.008213 0.045264 0.006249 -0.009976
# 5 -0.010518 -0.002322 -0.009110 0.006249 0.052421 -0.004161
# 6 0.001435 0.001414 0.001638 -0.009976 -0.004161 0.044712
#
#
# Mechanical properties :
#
#
# Convention : Reuss Voigt Hill
#
# Bulk Modulus (GPa) = 25.53368 40.47788 33.00578
# Shear Modulus (GPa) = 25.69766 33.44484 29.57125
#
# Velocity S-wave (km/s) = 3.45744 3.94432 3.70888
# Velocity P-wave (km/s) = 5.27409 6.29069 5.80469
#
# Compressibility (1/GPa) = 0.03916396
#
# Stress axis : x y z
#
# Youngs Moduli (GPa) = 94.37322 98.55707 54.35251
#
# Poissons Ratio (x) = 0.05868 -0.04206
# Poissons Ratio (y) = 0.05619 0.00908
# Poissons Ratio (z) = -0.07304 0.01646
#
# Static dielectric constant tensor:
#      x y z
#    x 1.853150 -0.051720 -0.007880 
#    y -0.051720 1.830590 0.071200 
#    z -0.007880 0.071200 1.847770 
# 
# From -- ./inp_files/362693.got.cif
#   From: 2010.05.17/outbox.cif.g08.bks.cpg/sg2_182_cif.got.tgz:362693.got - 2010.06.03 11:33:40.
