data_PCOD9095618
_publ_section_title
;
Structure prediction by ZEFSAII (Michael W. Deem and Ramdas Pophale) SiO2 
 PCOD9095618
Probable space group: P -1
;
_chemical_formula_sum "Si O2"
_cell_formula_units_Z 16
_cell_length_a 8.059663
_cell_length_b 17.901304
_cell_length_c 6.991831
_cell_angle_alpha 83.007466
_cell_angle_beta 54.672074
_cell_angle_gamma 66.273435
_cell_volume 745.090470
_symmetry_space_group_name_H-M "P -1"
_symmetry_group_IT_number 2
_symmetry_cell_setting 'triclinic'
loop_
_space_group_symop_operation_xyz
x,y,z
-x,-y,-z
loop_
_atom_site_type_symbol
_atom_site_label
_atom_site_fract_x
_atom_site_fract_y
_atom_site_fract_z
Si Si1 0.810194 0.877324 0.443539
Si Si2 0.934515 0.586565 0.417487
Si Si3 0.286218 0.314187 0.791040
Si Si4 0.552492 0.714134 0.881492
Si Si5 0.492221 0.895642 0.956796
Si Si6 0.012262 0.005217 0.261044
Si Si7 0.104960 0.702569 0.129946
Si Si8 0.564167 0.138444 0.549017
O O1 0.925621 0.935795 0.279098
O O2 0.590646 0.891190 0.465308
O O3 0.977624 0.782479 0.325153
O O4 0.714601 0.898024 0.717574
O O5 0.130588 0.616362 0.235690
O O6 0.000000 0.500000 0.500000
O O7 0.801295 0.601944 0.299493
O O8 0.768964 0.659364 0.637118
O O9 0.472516 0.237073 0.580317
O O10 0.068645 0.290656 0.929611
O O11 0.383861 0.315524 0.932204
O O12 0.495156 0.811093 0.893446
O O13 0.344639 0.700682 0.939510
O O14 0.474709 0.884325 0.199511
O O15 0.265482 0.974475 0.033502
O O16 0.817974 0.094177 0.323085
O O17 0.000000 0.000000 0.500000
#
# Coordination Sequence:
#
# PCOD9095618 Si02
#       8
#     2   2   2   2   2   2   2   2
#     4  11  19  38  56  77 117 148 191 238 277 337
#     4  10  22  41  61  90 121 143 192 248 283 349
#     4   8  20  39  57  88 117 149 198 234 284 353
#     4  11  18  39  65  80 119 161 183 236 299 336
#     4  10  20  35  59  79 109 156 188 231 290 326
#     4  10  21  34  55  84 113 147 194 236 275 333
#     4   9  20  38  60  88 112 153 196 232 286 352
#     4   9  19  35  54  81 113 145 191 235 274 332
#
# _framework density 21.473901999999999
#
# number of rings (size 3 to 8) (size 9 to 14) (size 15 to 20)
#    0.750    1.500    2.500    0.375    0.000    3.500 
#    2.250    3.125    0.000    0.000    0.000    0.000 
#    0.000    0.000    0.000    0.000    0.000    0.000 
#
# Total GULP energy -89205.543718 kJ/mol
# GULP energy per Si atom -5575.346482 kJ/mol
# Density = 2.142503 g / cm^3
# Si number density = 21.473902 Si / 1000 Ang^3
#
#
#
# Elastic Constant Matrix: (Units=GPa)
#
#
# Indices 1 2 3 4 5 6 
#
# 1 44.6003 10.0825 -5.8590 -1.0332 3.2338 -9.9025
# 2 10.0825 60.7258 -5.5559 -11.2657 -8.3905 -11.5109
# 3 -5.8590 -5.5559 33.4521 -4.3083 4.9962 -3.2072
# 4 -1.0332 -11.2657 -4.3083 9.3277 2.5937 -2.4336
# 5 3.2338 -8.3905 4.9962 2.5937 24.6784 -1.5655
# 6 -9.9025 -11.5109 -3.2072 -2.4336 -1.5655 23.2774
#
#
#
# Elastic Compliance Matrix: (Units=1/GPa)
#
#
# Indices 1 2 3 4 5 6 
#
# 1 0.027270 0.000565 0.008727 0.012964 -0.005619 0.014060
# 2 0.000565 0.031771 0.013332 0.049461 0.004305 0.023249
# 3 0.008727 0.013332 0.042583 0.044412 -0.008616 0.020236
# 4 0.012964 0.049461 0.044412 0.207093 -0.012027 0.056934
# 5 -0.005619 0.004305 -0.008616 -0.012027 0.045753 0.000371
# 6 0.014060 0.023249 0.020236 0.056934 0.000371 0.069203
#
#
# Mechanical properties :
#
#
# Convention : Reuss Voigt Hill
#
# Bulk Modulus (GPa) = 6.80880 15.12370 10.96625
# Shear Modulus (GPa) = 11.69910 20.79740 16.24825
#
# Velocity S-wave (km/s) = 2.33664 3.11544 2.75371
# Velocity P-wave (km/s) = 3.23380 4.47207 3.90236
#
# Compressibility (1/GPa) = 0.14686869
#
# Stress axis : x y z
#
# Youngs Moduli (GPa) = 36.67094 31.47522 23.48369
#
# Poissons Ratio (x) = -0.01777 -0.20493
# Poissons Ratio (y) = -0.02070 -0.31307
# Poissons Ratio (z) = -0.32001 -0.41961
#
# Static dielectric constant tensor:
#      x y z
#    x 1.831190 -0.046010 0.047800 
#    y -0.046010 1.795920 -0.044440 
#    z 0.047800 -0.044440 1.824060 
# 
# From -- ./inp_files/223568.got.cif
#   From: 2010.05.17/outbox.cif.g08.bks.cpg/sg2_112_cif.got.tgz:223568.got - 2010.06.03 11:33:40.
