data_PCOD9095503
_publ_section_title
;
Structure prediction by ZEFSAII (Michael W. Deem and Ramdas Pophale) SiO2 
 PCOD9095503
Probable space group: P -1
;
_chemical_formula_sum "Si O2"
_cell_formula_units_Z 16
_cell_length_a 10.161939
_cell_length_b 24.817464
_cell_length_c 20.512468
_cell_angle_alpha 19.232078
_cell_angle_beta 32.167305
_cell_angle_gamma 23.152108
_cell_volume 660.536235
_symmetry_space_group_name_H-M "P -1"
_symmetry_group_IT_number 2
_symmetry_cell_setting 'triclinic'
loop_
_space_group_symop_operation_xyz
x,y,z
-x,-y,-z
loop_
_atom_site_type_symbol
_atom_site_label
_atom_site_fract_x
_atom_site_fract_y
_atom_site_fract_z
Si Si1 0.275325 0.521307 0.806938
Si Si2 0.949623 0.627650 0.696161
Si Si3 0.656210 0.282166 0.640949
Si Si4 0.404317 0.112303 0.086917
Si Si5 0.626600 0.685472 0.412350
Si Si6 0.874981 0.264364 0.250454
Si Si7 0.174773 0.008661 0.837709
Si Si8 0.486009 0.825720 0.556316
O O1 0.964722 0.630355 0.763692
O O2 0.435346 0.619148 0.602423
O O3 0.205813 0.554533 0.874058
O O4 0.542122 0.256873 0.985429
O O5 0.066341 0.752352 0.480674
O O6 0.599357 0.746930 0.672082
O O7 0.222523 0.367168 0.853462
O O8 0.500000 0.500000 0.500000
O O9 0.407383 0.319759 0.646959
O O10 0.859527 0.093335 0.828106
O O11 0.124298 0.184126 0.177247
O O12 0.460915 0.935389 0.216694
O O13 0.768592 0.975813 0.126804
O O14 0.000000 0.500000 0.500000
O O15 0.526469 0.338020 0.290373
O O16 0.099876 0.054203 0.446437
O O17 0.288680 0.133014 0.616756
#
# Coordination Sequence:
#
# PCOD9095503 Si02
#       8
#     2   2   2   2   2   2   2   2
#     4  10  21  38  58  85 114 148 191 228 277 334
#     4   9  21  37  56  82 115 149 186 233 276 332
#     4  10  21  39  60  82 110 148 193 236 280 331
#     4  10  21  39  58  83 116 150 188 228 281 333
#     4  11  23  39  60  84 113 146 185 236 286 334
#     4  10  20  35  58  83 116 153 185 229 276 332
#     4   9  19  36  58  81 111 147 185 230 275 332
#     4   9  18  34  53  78 110 148 184 224 275 321
#
# _framework density 24.222743999999999
#
# number of rings (size 3 to 8) (size 9 to 14) (size 15 to 20)
#    0.000    2.250    0.000    3.000    0.000    8.500 
#    0.000   10.000    0.000    0.000    0.000    0.000 
#    0.000    0.000    0.000    0.000    0.000    0.000 
#
# Total GULP energy -89157.510467 kJ/mol
# GULP energy per Si atom -5572.344404 kJ/mol
# Density = 2.416761 g / cm^3
# Si number density = 24.222744 Si / 1000 Ang^3
#
#
#
# Elastic Constant Matrix: (Units=GPa)
#
#
# Indices 1 2 3 4 5 6 
#
# 1 196.6351 36.6429 33.2080 3.7832 -4.6250 -14.8990
# 2 36.6429 32.0511 2.5121 9.6387 1.7567 -2.5180
# 3 33.2080 2.5121 66.7296 15.5165 1.3241 -3.8290
# 4 3.7832 9.6387 15.5165 21.3848 5.8303 -1.0558
# 5 -4.6250 1.7567 1.3241 5.8303 42.5644 -11.0652
# 6 -14.8990 -2.5180 -3.8290 -1.0558 -11.0652 40.8174
#
#
#
# Elastic Compliance Matrix: (Units=1/GPa)
#
#
# Indices 1 2 3 4 5 6 
#
# 1 0.008004 -0.010713 -0.005078 0.006905 0.001113 0.002265
# 2 -0.010713 0.051188 0.010001 -0.028509 0.000187 -0.000501
# 3 -0.005078 0.010001 0.021722 -0.019671 0.001216 0.000622
# 4 0.006905 -0.028509 -0.019671 0.074793 -0.008052 -0.001332
# 5 0.001113 0.000187 0.001216 -0.008052 0.026633 0.007543
# 6 0.002265 -0.000501 0.000622 -0.001332 0.007543 0.027364
#
#
# Mechanical properties :
#
#
# Convention : Reuss Voigt Hill
#
# Bulk Modulus (GPa) = 14.42288 48.90466 31.66377
# Shear Modulus (GPa) = 20.45862 35.82350 28.14106
#
# Velocity S-wave (km/s) = 2.90936 3.84985 3.41216
# Velocity P-wave (km/s) = 4.15368 6.32417 5.35015
#
# Compressibility (1/GPa) = 0.06933427
#
# Stress axis : x y z
#
# Youngs Moduli (GPa) = 124.93163 19.53594 46.03613
#
# Poissons Ratio (x) = 0.20929 0.23377
# Poissons Ratio (y) = 1.33837 -0.46040
# Poissons Ratio (z) = 0.63439 -0.19538
#
# Static dielectric constant tensor:
#      x y z
#    x 2.076240 0.005880 -0.072110 
#    y 0.005880 1.992130 0.028620 
#    z -0.072110 0.028620 2.047310 
# 
# From -- ./inp_files/379224.got.cif
#   From: 2010.05.17/outbox.cif.g08.bks.cpg/sg2_190_cif.got.tgz:379224.got - 2010.06.03 11:33:40.
