data_PCOD9095056
_publ_section_title
;
Structure prediction by ZEFSAII (Michael W. Deem and Ramdas Pophale) SiO2 
 PCOD9095056
Probable space group: P -1
;
_chemical_formula_sum "Si O2"
_cell_formula_units_Z 14
_cell_length_a 6.831266
_cell_length_b 15.073534
_cell_length_c 8.444706
_cell_angle_alpha 131.357809
_cell_angle_beta 66.140638
_cell_angle_gamma 118.370167
_cell_volume 568.880918
_symmetry_space_group_name_H-M "P -1"
_symmetry_group_IT_number 2
_symmetry_cell_setting 'triclinic'
loop_
_space_group_symop_operation_xyz
x,y,z
-x,-y,-z
loop_
_atom_site_type_symbol
_atom_site_label
_atom_site_fract_x
_atom_site_fract_y
_atom_site_fract_z
Si Si1 0.065032 0.829836 0.162866
Si Si2 0.398075 0.829832 0.496793
Si Si3 0.269418 0.701033 0.701030
Si Si4 0.301981 0.415559 0.069400
Si Si5 0.232528 0.419947 0.419952
Si Si6 0.184625 0.999987 0.630705
Si Si7 0.044198 0.584438 0.238267
O O1 0.001814 0.932821 0.197335
O O2 0.846663 0.710006 0.108804
O O3 0.114431 0.896338 0.393567
O O4 0.250143 0.780332 0.956089
O O5 0.425918 0.780330 0.604561
O O6 0.611681 0.896359 0.399129
O O7 0.245503 0.709998 0.311179
O O8 0.266295 0.932795 0.668280
O O9 0.313951 0.571068 0.571069
O O10 0.016591 0.660675 0.660670
O O11 0.373730 0.389914 0.192581
O O12 0.133135 0.499996 0.233721
O O13 0.500000 0.500000 0.000000
O O14 0.176377 0.389909 0.587251
O O15 0.000000 0.500000 0.000000
#
# Coordination Sequence:
#
# PCOD9095056 Si02
#       7
#     2   2   2   2   2   2   2
#     4  10  20  35  54  76 107 143 174 222 254 318
#     4  10  20  35  54  76 107 143 174 222 254 318
#     4   9  16  32  56  74 106 135 175 214 272 309
#     4  11  19  33  59  84 105 138 176 220 278 316
#     4   9  16  34  51  84 107 136 169 218 272 338
#     4  10  22  36  50  76 112 140 186 208 252 312
#     4  11  19  33  59  84 105 138 176 220 278 316
#
# _framework density 24.609721
#
# number of rings (size 3 to 8) (size 9 to 14) (size 15 to 20)
#    0.000    2.000    5.714    1.714    0.000    1.143 
#    0.000    0.714    0.000    1.714    0.000    0.000 
#    0.000    0.000    0.000    0.000    0.000    0.000 
#
# Total GULP energy -78046.452883 kJ/mol
# GULP energy per Si atom -5574.746634 kJ/mol
# Density = 2.455371 g / cm^3
# Si number density = 24.609721 Si / 1000 Ang^3
#
#
#
# Elastic Constant Matrix: (Units=GPa)
#
#
# Indices 1 2 3 4 5 6 
#
# 1 25.2931 8.4113 9.2558 6.3681 5.4813 8.1631
# 2 8.4113 110.6729 61.8712 10.3524 16.9949 15.2341
# 3 9.2558 61.8712 111.7458 -1.2445 8.1580 31.8061
# 4 6.3681 10.3524 -1.2445 45.8451 -3.7630 -5.6063
# 5 5.4813 16.9949 8.1580 -3.7630 27.4434 15.8961
# 6 8.1631 15.2341 31.8061 -5.6063 15.8961 38.1698
#
#
#
# Elastic Compliance Matrix: (Units=1/GPa)
#
#
# Indices 1 2 3 4 5 6 
#
# 1 0.045571 -0.000230 -0.001184 -0.007672 -0.005253 -0.007606
# 2 -0.000230 0.015550 -0.009433 -0.003925 -0.010504 0.005502
# 3 -0.001184 -0.009433 0.017696 0.001788 0.009389 -0.014375
# 4 -0.007672 -0.003925 0.001788 0.024618 0.004900 0.003293
# 5 -0.005253 -0.010504 0.009389 0.004900 0.056551 -0.025340
# 6 -0.007606 0.005502 -0.014375 0.003293 -0.025340 0.048645
#
#
# Mechanical properties :
#
#
# Convention : Reuss Voigt Hill
#
# Bulk Modulus (GPa) = 17.50647 45.19871 31.35259
# Shear Modulus (GPa) = 20.05088 33.50323 26.77706
#
# Velocity S-wave (km/s) = 2.85749 3.69369 3.30217
# Velocity P-wave (km/s) = 4.24453 6.04957 5.22558
#
# Compressibility (1/GPa) = 0.05712174
#
# Stress axis : x y z
#
# Youngs Moduli (GPa) = 21.94370 64.31066 56.51020
#
# Poissons Ratio (x) = 0.01480 0.06692
# Poissons Ratio (y) = 0.00505 0.53307
# Poissons Ratio (z) = 0.02598 0.60665
#
# Static dielectric constant tensor:
#      x y z
#    x 2.260280 -0.066210 -0.028890 
#    y -0.066210 1.982220 -0.042830 
#    z -0.028890 -0.042830 1.993280 
# 
# From -- ./inp_files/165360.got.cif
#   From: 2010.05.17/outbox.cif.g08.bks.cpg/sg2_83_cif.got.tgz:165360.got - 2010.06.03 11:33:40.
