data_PCOD9095387
_publ_section_title
;
Structure prediction by ZEFSAII (Michael W. Deem and Ramdas Pophale) SiO2 
 PCOD9095387
Probable space group: P -1
;
_chemical_formula_sum "Si O2"
_cell_formula_units_Z 16
_cell_length_a 17.208819
_cell_length_b 12.810108
_cell_length_c 9.749221
_cell_angle_alpha 65.607893
_cell_angle_beta 52.346661
_cell_angle_gamma 26.206287
_cell_volume 693.039542
_symmetry_space_group_name_H-M "P -1"
_symmetry_group_IT_number 2
_symmetry_cell_setting 'triclinic'
loop_
_space_group_symop_operation_xyz
x,y,z
-x,-y,-z
loop_
_atom_site_type_symbol
_atom_site_label
_atom_site_fract_x
_atom_site_fract_y
_atom_site_fract_z
Si Si1 0.930389 0.429820 0.492722
Si Si2 0.433238 0.923236 0.767299
Si Si3 0.822955 0.866325 0.330543
Si Si4 0.053915 0.831102 0.947342
Si Si5 0.335488 0.070072 0.105789
Si Si6 0.652263 0.232419 0.968716
Si Si7 0.887407 0.001830 0.565216
Si Si8 0.540055 0.269466 0.638182
O O1 0.674515 0.725024 0.605437
O O2 0.038287 0.325873 0.584735
O O3 0.084761 0.344276 0.275484
O O4 0.960781 0.265550 0.493826
O O5 0.276837 0.100054 0.708327
O O6 0.335789 0.056740 0.948454
O O7 0.460989 0.756970 0.844406
O O8 0.608422 0.148318 0.482159
O O9 0.984424 0.793315 0.132227
O O10 0.297467 0.564409 0.771541
O O11 0.883166 0.011776 0.910478
O O12 0.000000 0.000000 0.000000
O O13 0.418235 0.879867 0.219038
O O14 0.500000 0.000000 0.000000
O O15 0.719962 0.140719 0.790472
O O16 0.500000 0.500000 0.000000
O O17 0.719680 0.181974 0.520698
O O18 0.000000 0.000000 0.500000
#
# Coordination Sequence:
#
# PCOD9095387 Si02
#       8
#     2   2   2   2   2   2   2   2
#     4  10  22  40  65  89 130 166 207 266 326 374
#     4  11  21  40  66  88 127 165 213 258 319 386
#     4   9  23  38  58  93 124 168 207 264 318 376
#     4  11  24  35  59  88 128 171 213 259 315 373
#     4  10  22  43  70  96 122 164 216 267 324 383
#     4  11  22  36  57  89 126 168 215 253 310 378
#     4  10  20  35  57  84 122 169 209 253 309 376
#     4  10  22  43  61  87 131 166 211 271 316 378
#
# _framework density 23.086704999999998
#
# number of rings (size 3 to 8) (size 9 to 14) (size 15 to 20)
#    0.000    2.000    2.500    2.250    7.000    2.000 
#    0.000    2.500    0.000   12.750    0.000    0.000 
#    0.000    0.000    0.000    0.000    0.000    0.000 
#
# Total GULP energy -89354.167807 kJ/mol
# GULP energy per Si atom -5584.635488 kJ/mol
# Density = 2.303416 g / cm^3
# Si number density = 23.086705 Si / 1000 Ang^3
#
#
#
# Elastic Constant Matrix: (Units=GPa)
#
#
# Indices 1 2 3 4 5 6 
#
# 1 124.6047 31.9131 51.4021 -13.6685 4.2640 -19.4127
# 2 31.9131 63.3182 45.4598 -1.2710 -6.7654 3.6000
# 3 51.4021 45.4598 117.3719 3.9212 -0.5508 -8.3835
# 4 -13.6685 -1.2710 3.9212 32.0086 -9.6045 -0.4049
# 5 4.2640 -6.7654 -0.5508 -9.6045 49.5687 1.5785
# 6 -19.4127 3.6000 -8.3835 -0.4049 1.5785 22.8083
#
#
#
# Elastic Compliance Matrix: (Units=1/GPa)
#
#
# Indices 1 2 3 4 5 6 
#
# 1 0.012894 -0.004810 -0.003207 0.005522 -0.001073 0.010727
# 2 -0.004810 0.025582 -0.008649 0.001198 0.004411 -0.011595
# 3 -0.003207 -0.008649 0.013659 -0.003823 -0.001611 0.003700
# 4 0.005522 0.001198 -0.003823 0.036119 0.006540 0.003294
# 5 -0.001073 0.004411 -0.001611 0.006540 0.022233 -0.003624
# 6 0.010727 -0.011595 0.003700 0.003294 -0.003624 0.056473
#
#
# Mechanical properties :
#
#
# Convention : Reuss Voigt Hill
#
# Bulk Modulus (GPa) = 53.18556 62.53832 57.86194
# Shear Modulus (GPa) = 24.20609 32.64510 28.42560
#
# Velocity S-wave (km/s) = 3.24155 3.76443 3.51273
# Velocity P-wave (km/s) = 6.09077 6.78541 6.44745
#
# Compressibility (1/GPa) = 0.01880210
#
# Stress axis : x y z
#
# Youngs Moduli (GPa) = 77.55631 39.09029 73.21212
#
# Poissons Ratio (x) = 0.18801 0.23481
# Poissons Ratio (y) = 0.37302 0.63324
# Poissons Ratio (z) = 0.24874 0.33811
#
# Static dielectric constant tensor:
#      x y z
#    x 2.134290 0.126460 -0.021930 
#    y 0.126460 1.911890 -0.000740 
#    z -0.021930 -0.000740 1.848940 
# 
# From -- ./inp_files/335277.got.cif
#   From: 2010.05.17/outbox.cif.g08.bks.cpg/sg2_168_cif.got.tgz:335277.got - 2010.06.03 11:33:40.
