data_PCOD9095217
_publ_section_title
;
Structure prediction by ZEFSAII (Michael W. Deem and Ramdas Pophale) SiO2 
 PCOD9095217
Probable space group: P -1
;
_chemical_formula_sum "Si O2"
_cell_formula_units_Z 14
_cell_length_a 14.045445
_cell_length_b 6.877189
_cell_length_c 10.874957
_cell_angle_alpha 122.436952
_cell_angle_beta 144.135507
_cell_angle_gamma 63.194957
_cell_volume 519.126576
_symmetry_space_group_name_H-M "P -1"
_symmetry_group_IT_number 2
_symmetry_cell_setting 'triclinic'
loop_
_space_group_symop_operation_xyz
x,y,z
-x,-y,-z
loop_
_atom_site_type_symbol
_atom_site_label
_atom_site_fract_x
_atom_site_fract_y
_atom_site_fract_z
Si Si1 0.231599 0.852199 0.674029
Si Si2 0.502683 0.810752 0.334831
Si Si3 0.228068 0.433343 0.148015
Si Si4 0.428696 0.678527 0.626417
Si Si5 0.834280 0.385620 0.123601
Si Si6 0.945850 0.968398 0.224969
Si Si7 0.679757 0.602696 0.252540
O O1 0.392739 0.851794 0.759459
O O2 0.225976 0.591416 0.632792
O O3 0.093674 0.900898 0.445683
O O4 0.196505 0.997460 0.808348
O O5 0.546882 0.568883 0.364830
O O6 0.629845 0.821873 0.359184
O O7 0.500000 0.000000 0.500000
O O8 0.320569 0.779010 0.088057
O O9 0.280287 0.633681 0.362697
O O10 0.403363 0.301625 0.262782
O O11 0.157086 0.534461 0.979866
O O12 0.103980 0.237212 0.987481
O O13 0.779858 0.597896 0.228303
O O14 0.969596 0.210331 0.261902
O O15 0.500000 0.500000 0.000000
#
# Coordination Sequence:
#
# PCOD9095217 Si02
#       7
#     2   2   2   2   2   2   2
#     4   9  19  36  55  79 110 142 181 224 268 322
#     4   9  15  27  51  77 101 135 178 220 266 314
#     4  10  20  35  56  80 108 144 181 224 272 316
#     4   9  19  35  53  80 113 140 179 231 269 314
#     4   9  18  33  51  75 107 139 177 219 262 318
#     4  10  20  36  58  79 107 148 182 217 270 326
#     4   8  15  30  52  74 101 137 174 218 265 310
#
# _framework density 26.968378000000001
#
# number of rings (size 3 to 8) (size 9 to 14) (size 15 to 20)
#    0.000    2.857    0.000    1.714    0.000    1.143 
#    0.000   11.429    0.000    6.857    0.000    0.000 
#    0.000    0.000    0.000    0.000    0.000    0.000 
#
# Total GULP energy -78281.565492 kJ/mol
# GULP energy per Si atom -5591.540392 kJ/mol
# Density = 2.690700 g / cm^3
# Si number density = 26.968378 Si / 1000 Ang^3
#
#
#
# Elastic Constant Matrix: (Units=GPa)
#
#
# Indices 1 2 3 4 5 6 
#
# 1 68.5645 34.4123 14.9573 0.5703 -19.5560 -1.9774
# 2 34.4123 82.7345 55.7359 -0.0763 -11.9696 -1.8210
# 3 14.9573 55.7359 134.4034 11.3450 -20.5544 -0.2323
# 4 0.5703 -0.0763 11.3450 53.1013 6.0560 -19.6576
# 5 -19.5560 -11.9696 -20.5544 6.0560 32.1262 4.3474
# 6 -1.9774 -1.8210 -0.2323 -19.6576 4.3474 46.0234
#
#
#
# Elastic Compliance Matrix: (Units=1/GPa)
#
#
# Indices 1 2 3 4 5 6 
#
# 1 0.022688 -0.010294 0.004108 -0.003491 0.013557 -0.002183
# 2 -0.010294 0.021707 -0.008879 0.003438 -0.004818 0.002295
# 3 0.004108 -0.008879 0.012340 -0.004731 0.008376 -0.002924
# 4 -0.003491 0.003438 -0.004731 0.025419 -0.010258 0.011788
# 5 0.013557 -0.004818 0.008376 -0.010258 0.045999 -0.008292
# 6 -0.002183 0.002295 -0.002924 0.011788 -0.008292 0.027529
#
#
# Mechanical properties :
#
#
# Convention : Reuss Voigt Hill
#
# Bulk Modulus (GPa) = 37.58691 55.10148 46.34420
# Shear Modulus (GPa) = 25.68309 38.28998 31.98653
#
# Velocity S-wave (km/s) = 3.08935 3.77212 3.44768
# Velocity P-wave (km/s) = 5.16654 6.28078 5.75071
#
# Compressibility (1/GPa) = 0.02660501
#
# Stress axis : x y z
#
# Youngs Moduli (GPa) = 44.07588 46.06848 81.03487
#
# Poissons Ratio (x) = 0.47424 -0.33291
# Poissons Ratio (y) = 0.45373 0.71952
# Poissons Ratio (z) = -0.18107 0.40905
#
# Static dielectric constant tensor:
#      x y z
#    x 2.154570 -0.029140 0.042780 
#    y -0.029140 2.178130 -0.033000 
#    z 0.042780 -0.033000 2.095930 
# 
# From -- ./inp_files/153969.got.cif
#   From: 2010.05.17/outbox.cif.g08.bks.cpg/sg2_77_cif.got.tgz:153969.got - 2010.06.03 11:33:40.
