data_PCOD9095267
_publ_section_title
;
Structure prediction by ZEFSAII (Michael W. Deem and Ramdas Pophale) SiO2 
 PCOD9095267
Probable space group: P -1
;
_chemical_formula_sum "Si O2"
_cell_formula_units_Z 16
_cell_length_a 7.270700
_cell_length_b 7.324770
_cell_length_c 17.587529
_cell_angle_alpha 84.686879
_cell_angle_beta 133.237559
_cell_angle_gamma 73.528021
_cell_volume 596.662686
_symmetry_space_group_name_H-M "P -1"
_symmetry_group_IT_number 2
_symmetry_cell_setting 'triclinic'
loop_
_space_group_symop_operation_xyz
x,y,z
-x,-y,-z
loop_
_atom_site_type_symbol
_atom_site_label
_atom_site_fract_x
_atom_site_fract_y
_atom_site_fract_z
Si Si1 0.679565 0.791219 0.013679
Si Si2 0.138256 0.941181 0.757569
Si Si3 0.002376 0.775390 0.570975
Si Si4 0.863977 0.343123 0.962497
Si Si5 0.542474 0.191825 0.395241
Si Si6 0.459875 0.351202 0.730842
Si Si7 0.204495 0.103822 0.200209
Si Si8 0.103548 0.607969 0.267574
O O1 0.860867 0.623757 0.137165
O O2 0.451202 0.790566 0.889094
O O3 0.915843 0.817610 0.030563
O O4 0.500000 0.000000 0.000000
O O5 0.095901 0.862512 0.667607
O O6 0.915322 0.929497 0.753770
O O7 0.051457 0.188073 0.730655
O O8 0.175345 0.788723 0.544834
O O9 0.130470 0.526486 0.622555
O O10 0.670565 0.948281 0.461990
O O11 0.929338 0.233680 0.065448
O O12 0.000000 0.500000 0.000000
O O13 0.563155 0.405151 0.837284
O O14 0.376397 0.225483 0.266722
O O15 0.300566 0.379171 0.368706
O O16 0.655875 0.372627 0.717954
O O17 0.563118 0.106983 0.766238
#
# Coordination Sequence:
#
# PCOD9095267 Si02
#       8
#     2   2   2   2   2   2   2   2
#     4   9  17  32  55  80 110 141 174 218 265 324
#     4  10  20  35  56  83 115 142 179 233 278 322
#     4  10  21  39  59  79 106 145 195 235 264 323
#     4  11  20  36  60  81 112 149 181 218 272 338
#     4  10  21  38  59  79 105 149 194 226 273 331
#     4   9  19  35  55  82 113 144 179 225 276 324
#     4  11  22  36  56  82 114 148 179 222 285 334
#     4   8  17  35  56  80 111 146 179 220 275 332
#
# _framework density 26.815822000000001
#
# number of rings (size 3 to 8) (size 9 to 14) (size 15 to 20)
#    0.000    2.250    0.000    4.875    0.000    1.500 
#    0.000   10.625    0.000    0.000    0.000    0.000 
#    0.000    0.000    0.000    0.000    0.000    0.000 
#
# Total GULP energy -89358.095701 kJ/mol
# GULP energy per Si atom -5584.880981 kJ/mol
# Density = 2.675479 g / cm^3
# Si number density = 26.815822 Si / 1000 Ang^3
#
#
#
# Elastic Constant Matrix: (Units=GPa)
#
#
# Indices 1 2 3 4 5 6 
#
# 1 64.7748 5.4813 16.4215 -8.6920 3.1658 -20.4150
# 2 5.4813 110.7813 20.1160 -21.1547 5.2782 -13.8532
# 3 16.4215 20.1160 103.3989 -22.9724 18.3206 -15.8544
# 4 -8.6920 -21.1547 -22.9724 51.6339 -13.3182 7.9014
# 5 3.1658 5.2782 18.3206 -13.3182 28.7845 -4.0250
# 6 -20.4150 -13.8532 -15.8544 7.9014 -4.0250 30.4657
#
#
#
# Elastic Compliance Matrix: (Units=1/GPa)
#
#
# Indices 1 2 3 4 5 6 
#
# 1 0.019883 0.001098 -0.001213 0.001510 0.000889 0.012917
# 2 0.001098 0.010296 -0.000889 0.003580 0.000791 0.004131
# 3 -0.001213 -0.000889 0.012235 0.002855 -0.005658 0.003662
# 4 0.001510 0.003580 0.002855 0.024768 0.008659 -0.001154
# 5 0.000889 0.000791 -0.005658 0.008659 0.042295 0.001353
# 6 0.012917 0.004131 0.003662 -0.001154 0.001353 0.045742
#
#
# Mechanical properties :
#
#
# Convention : Reuss Voigt Hill
#
# Bulk Modulus (GPa) = 24.74828 40.33253 32.54040
# Shear Modulus (GPa) = 29.29177 37.97256 33.63217
#
# Velocity S-wave (km/s) = 3.30863 3.76713 3.54530
# Velocity P-wave (km/s) = 4.88314 5.83051 5.37773
#
# Compressibility (1/GPa) = 0.04040685
#
# Stress axis : x y z
#
# Youngs Moduli (GPa) = 50.29435 97.12182 81.73115
#
# Poissons Ratio (x) = -0.10661 0.09911
# Poissons Ratio (y) = -0.05521 0.07265
# Poissons Ratio (z) = 0.06099 0.08633
#
# Static dielectric constant tensor:
#      x y z
#    x 2.125600 0.083960 -0.031110 
#    y 0.083960 2.260740 -0.053450 
#    z -0.031110 -0.053450 2.159980 
# 
# From -- ./inp_files/187898.got.cif
#   From: 2010.05.17/outbox.cif.g08.bks.cpg/sg2_94_cif.got.tgz:187898.got - 2010.06.03 11:33:40.
