data_PCOD9095405
_publ_section_title
;
Structure prediction by ZEFSAII (Michael W. Deem and Ramdas Pophale) SiO2 
 PCOD9095405
Probable space group: P -1
;
_chemical_formula_sum "Si O2"
_cell_formula_units_Z 16
_cell_length_a 14.289628
_cell_length_b 9.221346
_cell_length_c 7.722452
_cell_angle_alpha 113.479186
_cell_angle_beta 40.964102
_cell_angle_gamma 111.002839
_cell_volume 609.070283
_symmetry_space_group_name_H-M "P -1"
_symmetry_group_IT_number 2
_symmetry_cell_setting 'triclinic'
loop_
_space_group_symop_operation_xyz
x,y,z
-x,-y,-z
loop_
_atom_site_type_symbol
_atom_site_label
_atom_site_fract_x
_atom_site_fract_y
_atom_site_fract_z
Si Si1 0.128347 0.900588 0.443414
Si Si2 0.641323 0.456723 0.388021
Si Si3 0.890933 0.243761 0.943706
Si Si4 0.606961 0.228872 0.886003
Si Si5 0.224832 0.439066 0.220533
Si Si6 0.006811 0.336484 0.198825
Si Si7 0.714783 0.769287 0.650391
Si Si8 0.622341 0.133539 0.436968
O O1 0.283310 0.834579 0.165152
O O2 0.054914 0.816843 0.673701
O O3 0.171412 0.086417 0.491956
O O4 0.048096 0.829403 0.349816
O O5 0.500000 0.500000 0.500000
O O6 0.791875 0.382849 0.092169
O O7 0.702600 0.611912 0.477953
O O8 0.580255 0.306246 0.518548
O O9 0.983195 0.305180 0.012341
O O10 0.772614 0.110484 0.124119
O O11 0.647081 0.419410 0.909582
O O12 0.645166 0.151157 0.615740
O O13 0.443813 0.178106 0.125863
O O14 0.098190 0.526960 0.536441
O O15 0.267801 0.296474 0.211064
O O16 0.160021 0.379016 0.098647
O O17 0.500000 0.000000 0.500000
#
# Coordination Sequence:
#
# PCOD9095405 Si02
#       8
#     2   2   2   2   2   2   2   2
#     4  11  23  38  68  95 125 167 210 251 322 378
#     4  10  21  34  54  90 132 157 198 258 312 363
#     4  10  20  42  60  92 124 162 214 256 302 381
#     4  11  21  40  60  95 126 169 204 248 325 383
#     4  10  20  40  66  88 123 173 209 262 309 368
#     4  10  21  44  68  84 126 176 214 247 316 376
#     4  12  22  37  62  99 130 159 208 269 314 372
#     4  10  20  35  57  85 126 164 200 244 310 373
#
# _framework density 26.269548
#
# number of rings (size 3 to 8) (size 9 to 14) (size 15 to 20)
#    0.750    0.750    5.000    2.250    1.750    0.500 
#    0.000    6.250    0.000    0.000    0.000    0.000 
#    0.000    0.000    0.000    0.000    0.000    0.000 
#
# Total GULP energy -89483.523721 kJ/mol
# GULP energy per Si atom -5592.720233 kJ/mol
# Density = 2.620976 g / cm^3
# Si number density = 26.269548 Si / 1000 Ang^3
#
#
#
# Elastic Constant Matrix: (Units=GPa)
#
#
# Indices 1 2 3 4 5 6 
#
# 1 189.2544 56.3438 35.4800 5.2128 24.1236 18.4050
# 2 56.3438 165.3505 16.8522 4.1649 23.7692 25.2356
# 3 35.4800 16.8522 51.9745 12.3885 18.3893 -0.7252
# 4 5.2128 4.1649 12.3885 22.5043 11.7161 -12.0949
# 5 24.1236 23.7692 18.3893 11.7161 48.2844 10.0511
# 6 18.4050 25.2356 -0.7252 -12.0949 10.0511 30.3486
#
#
#
# Elastic Compliance Matrix: (Units=1/GPa)
#
#
# Indices 1 2 3 4 5 6 
#
# 1 0.006812 -0.001348 -0.003955 -0.000700 -0.000386 -0.003256
# 2 -0.001348 0.007871 -0.000498 -0.004786 -0.000277 -0.007555
# 3 -0.003955 -0.000498 0.026506 -0.009759 -0.005814 0.001482
# 4 -0.000700 -0.004786 -0.009759 0.090362 -0.025635 0.048674
# 5 -0.000386 -0.000277 -0.005814 -0.025635 0.033868 -0.021108
# 6 -0.003256 -0.007555 0.001482 0.048674 -0.021108 0.067631
#
#
# Mechanical properties :
#
#
# Convention : Reuss Voigt Hill
#
# Bulk Modulus (GPa) = 33.79988 69.32573 51.56280
# Shear Modulus (GPa) = 19.64519 40.08770 29.86644
#
# Velocity S-wave (km/s) = 2.73762 3.91066 3.37549
# Velocity P-wave (km/s) = 4.78406 6.84386 5.90448
#
# Compressibility (1/GPa) = 0.02958590
#
# Stress axis : x y z
#
# Youngs Moduli (GPa) = 146.80485 127.04187 37.72792
#
# Poissons Ratio (x) = 0.17126 0.14921
# Poissons Ratio (y) = 0.19790 0.01880
# Poissons Ratio (z) = 0.58061 0.06332
#
# Static dielectric constant tensor:
#      x y z
#    x 2.077970 -0.030510 -0.060960 
#    y -0.030510 2.076690 -0.039190 
#    z -0.060960 -0.039190 2.155350 
# 
# From -- ./inp_files/290768.got.cif
#   From: 2010.05.17/outbox.cif.g08.bks.cpg/sg2_146_cif.got.tgz:290768.got - 2010.06.03 11:33:40.
