data_PCOD9095759
_publ_section_title
;
Structure prediction by ZEFSAII (Michael W. Deem and Ramdas Pophale) SiO2 
 PCOD9095759
Probable space group: P -1
;
_chemical_formula_sum "Si O2"
_cell_formula_units_Z 16
_cell_length_a 9.175693
_cell_length_b 7.200516
_cell_length_c 12.472515
_cell_angle_alpha 49.749929
_cell_angle_beta 87.763831
_cell_angle_gamma 103.766980
_cell_volume 589.858974
_symmetry_space_group_name_H-M "P -1"
_symmetry_group_IT_number 2
_symmetry_cell_setting 'triclinic'
loop_
_space_group_symop_operation_xyz
x,y,z
-x,-y,-z
loop_
_atom_site_type_symbol
_atom_site_label
_atom_site_fract_x
_atom_site_fract_y
_atom_site_fract_z
Si Si1 0.308550 0.427106 0.912371
Si Si2 0.566227 0.931032 0.633331
Si Si3 0.918792 0.192586 0.116365
Si Si4 0.242779 0.676360 0.276645
Si Si5 0.714779 0.503564 0.458424
Si Si6 0.601006 0.858914 0.174659
Si Si7 0.954014 0.682174 0.204200
Si Si8 0.172442 0.120708 0.242724
O O1 0.442937 0.698790 0.786830
O O2 0.354018 0.221710 0.913288
O O3 0.159449 0.434942 0.847711
O O4 0.267965 0.329731 0.070938
O O5 0.722996 0.857792 0.663176
O O6 0.500000 0.000000 0.500000
O O7 0.605032 0.207602 0.584369
O O8 0.996986 0.118425 0.248914
O O9 0.736084 0.111698 0.124000
O O10 0.959718 0.980488 0.115936
O O11 0.000000 0.500000 0.000000
O O12 0.234351 0.434034 0.443593
O O13 0.420469 0.818853 0.185509
O O14 0.116462 0.635501 0.201777
O O15 0.174650 0.857171 0.284656
O O16 0.623896 0.650045 0.337227
O O17 0.859645 0.527437 0.368084
#
# Coordination Sequence:
#
# PCOD9095759 Si02
#       8
#     2   2   2   2   2   2   2   2
#     4  10  21  39  59  89 126 162 209 249 310 363
#     4  11  19  38  65  90 122 158 204 259 307 362
#     4   9  20  39  60  88 126 160 202 254 313 364
#     4  10  20  35  59  93 119 159 210 250 311 364
#     4   9  18  35  60  84 121 166 204 252 307 368
#     4  10  21  36  60  89 126 162 200 267 301 361
#     4   9  19  36  62  86 122 167 204 258 299 371
#     4  10  23  38  62  91 117 166 211 249 306 381
#
# _framework density 27.125128
#
# number of rings (size 3 to 8) (size 9 to 14) (size 15 to 20)
#    0.000    2.500    2.500    1.125    0.000    9.000 
#    0.000    4.375    0.000    3.000    0.000    0.000 
#    0.000    0.000    0.000    0.000    0.000    0.000 
#
# Total GULP energy -89254.602115 kJ/mol
# GULP energy per Si atom -5578.412632 kJ/mol
# Density = 2.706339 g / cm^3
# Si number density = 27.125128 Si / 1000 Ang^3
#
#
#
# Elastic Constant Matrix: (Units=GPa)
#
#
# Indices 1 2 3 4 5 6 
#
# 1 184.5934 56.3545 18.2916 17.9439 6.9687 45.1110
# 2 56.3545 82.5605 39.8150 -1.4320 -2.3988 20.1966
# 3 18.2916 39.8150 129.6332 -5.5727 1.2498 21.9965
# 4 17.9439 -1.4320 -5.5727 51.1186 16.8163 -4.4681
# 5 6.9687 -2.3988 1.2498 16.8163 38.9284 4.6345
# 6 45.1110 20.1966 21.9965 -4.4681 4.6345 45.9117
#
#
#
# Elastic Compliance Matrix: (Units=1/GPa)
#
#
# Indices 1 2 3 4 5 6 
#
# 1 0.009112 -0.005019 0.001412 -0.004116 0.000732 -0.007896
# 2 -0.005019 0.018069 -0.004666 0.001095 0.001790 -0.000856
# 3 0.001412 -0.004666 0.009620 0.000247 -0.000495 -0.003869
# 4 -0.004116 0.001095 0.000247 0.025283 -0.010960 0.007011
# 5 0.000732 0.001790 -0.000495 -0.010960 0.031069 -0.005473
# 6 -0.007896 -0.000856 -0.003869 0.007011 -0.005473 0.033004
#
#
# Mechanical properties :
#
#
# Convention : Reuss Voigt Hill
#
# Bulk Modulus (GPa) = 49.37481 69.52325 59.44903
# Shear Modulus (GPa) = 33.45475 46.01345 39.73410
#
# Velocity S-wave (km/s) = 3.51572 4.12313 3.83148
# Velocity P-wave (km/s) = 5.89258 6.95365 6.44498
#
# Compressibility (1/GPa) = 0.02025324
#
# Stress axis : x y z
#
# Youngs Moduli (GPa) = 109.74908 55.34409 103.94963
#
# Poissons Ratio (x) = 0.27776 -0.14673
# Poissons Ratio (y) = 0.55081 0.48507
# Poissons Ratio (z) = -0.15491 0.25826
#
# Static dielectric constant tensor:
#      x y z
#    x 2.316500 0.015490 -0.034890 
#    y 0.015490 2.504370 0.161360 
#    z -0.034890 0.161360 2.234470 
# 
# From -- ./inp_files/607006.got.cif
#   From: 2010.05.17/outbox.cif.g08.bks.cpg/sg2_304_cif.got.tgz:607006.got - 2010.06.03 11:33:40.
