data_PCOD9095584
_publ_section_title
;
Structure prediction by ZEFSAII (Michael W. Deem and Ramdas Pophale) SiO2 
 PCOD9095584
Probable space group: P -1
;
_chemical_formula_sum "Si O2"
_cell_formula_units_Z 12
_cell_length_a 13.855433
_cell_length_b 8.782059
_cell_length_c 5.604312
_cell_angle_alpha 95.511121
_cell_angle_beta 97.644906
_cell_angle_gamma 42.113127
_cell_volume 453.230580
_symmetry_space_group_name_H-M "P -1"
_symmetry_group_IT_number 2
_symmetry_cell_setting 'triclinic'
loop_
_space_group_symop_operation_xyz
x,y,z
-x,-y,-z
loop_
_atom_site_type_symbol
_atom_site_label
_atom_site_fract_x
_atom_site_fract_y
_atom_site_fract_z
Si Si1 0.463139 0.875468 0.115271
Si Si2 0.045047 0.699596 0.528310
Si Si3 0.122404 0.896108 0.836674
Si Si4 0.632772 0.298344 0.755463
Si Si5 0.480476 0.256996 0.399930
Si Si6 0.130291 0.319586 0.199928
O O1 0.487172 0.151310 0.142862
O O2 0.290259 0.108637 0.113781
O O3 0.481435 0.666844 0.116627
O O4 0.545455 0.812407 0.381614
O O5 0.147992 0.704152 0.688090
O O6 0.133844 0.465901 0.387887
O O7 0.935965 0.742263 0.678601
O O8 0.944888 0.909134 0.344336
O O9 0.244177 0.824439 0.029353
O O10 0.000000 0.000000 0.000000
O O11 0.628222 0.179705 0.513335
O O12 0.616034 0.482249 0.652732
O O13 0.000000 0.500000 0.000000
#
# Coordination Sequence:
#
# PCOD9095584 Si02
#       6
#     2   2   2   2   2   2
#     4  10  20  35  58  89 123 155 209 259 302 361
#     4  10  24  39  57  93 126 165 208 245 324 371
#     4  11  22  40  61  93 127 164 199 259 319 372
#     4   9  20  34  60  86 128 156 208 252 309 368
#     4   9  21  35  57  94 117 164 207 257 304 357
#     4  11  23  37  61  87 125 166 208 257 308 371
#
# _framework density 26.476590000000002
#
# number of rings (size 3 to 8) (size 9 to 14) (size 15 to 20)
#    1.000    1.000    0.000    3.500    7.000    1.333 
#    0.000    0.000    0.000    2.000    0.000    0.000 
#    0.000    0.000    0.000    0.000    0.000    0.000 
#
# Total GULP energy -66975.059231 kJ/mol
# GULP energy per Si atom -5581.254936 kJ/mol
# Density = 2.641633 g / cm^3
# Si number density = 26.476590 Si / 1000 Ang^3
#
#
#
# Elastic Constant Matrix: (Units=GPa)
#
#
# Indices 1 2 3 4 5 6 
#
# 1 78.6659 27.2434 57.4822 -5.9962 -8.0881 4.3616
# 2 27.2434 96.5358 41.9353 9.7133 -1.6746 9.5273
# 3 57.4822 41.9353 208.1040 -11.6981 -0.5122 13.8945
# 4 -5.9962 9.7133 -11.6981 47.8748 21.7867 -1.4802
# 5 -8.0881 -1.6746 -0.5122 21.7867 67.0116 -2.5204
# 6 4.3616 9.5273 13.8945 -1.4802 -2.5204 36.9819
#
#
#
# Elastic Compliance Matrix: (Units=1/GPa)
#
#
# Indices 1 2 3 4 5 6 
#
# 1 0.016964 -0.003170 -0.004015 0.001070 0.001608 0.000477
# 2 -0.003170 0.012658 -0.001741 -0.003974 0.001125 -0.002315
# 3 -0.004015 -0.001741 0.006471 0.001911 -0.001157 -0.001511
# 4 0.001070 -0.003974 0.001911 0.026154 -0.008434 0.000652
# 5 0.001608 0.001125 -0.001157 -0.008434 0.017910 0.000838
# 6 0.000477 -0.002315 -0.001511 0.000652 0.000838 0.028232
#
#
# Mechanical properties :
#
#
# Convention : Reuss Voigt Hill
#
# Bulk Modulus (GPa) = 54.82363 70.73637 62.78000
# Shear Modulus (GPa) = 37.78753 47.48330 42.63541
#
# Velocity S-wave (km/s) = 3.78194 4.23946 4.01722
# Velocity P-wave (km/s) = 6.31048 7.12310 6.72907
#
# Compressibility (1/GPa) = 0.01824031
#
# Stress axis : x y z
#
# Youngs Moduli (GPa) = 58.94891 79.00300 154.54669
#
# Poissons Ratio (x) = 0.25046 0.62044
# Poissons Ratio (y) = 0.18688 0.26907
# Poissons Ratio (z) = 0.23666 0.13755
#
# Static dielectric constant tensor:
#      x y z
#    x 2.066690 0.043890 -0.049920 
#    y 0.043890 2.302700 0.108960 
#    z -0.049920 0.108960 2.128510 
# 
# From -- ./inp_files/107246.got.cif
#   From: 2010.05.17/outbox.cif.g08.bks.cpg/sg2_54_cif.got.tgz:107246.got - 2010.06.03 11:33:40.
