data_PCOD9095968
_publ_section_title
;
Structure prediction by ZEFSAII (Michael W. Deem and Ramdas Pophale) SiO2 
 PCOD9095968
Probable space group: P -1
;
_chemical_formula_sum "Si O2"
_cell_formula_units_Z 14
_cell_length_a 5.174298
_cell_length_b 9.391343
_cell_length_c 17.439790
_cell_angle_alpha 113.237707
_cell_angle_beta 99.459546
_cell_angle_gamma 103.762368
_cell_volume 724.010101
_symmetry_space_group_name_H-M "P -1"
_symmetry_group_IT_number 2
_symmetry_cell_setting 'triclinic'
loop_
_space_group_symop_operation_xyz
x,y,z
-x,-y,-z
loop_
_atom_site_type_symbol
_atom_site_label
_atom_site_fract_x
_atom_site_fract_y
_atom_site_fract_z
Si Si1 0.769039 0.844935 0.124859
Si Si2 0.728328 0.602208 0.211054
Si Si3 0.276902 0.558789 0.295436
Si Si4 0.203675 0.469146 0.440972
Si Si5 0.982709 0.216372 0.255541
Si Si6 0.442788 0.765977 0.875426
Si Si7 0.208803 0.875458 0.031444
O O1 0.736755 0.720684 0.166467
O O2 0.472041 0.849995 0.083147
O O3 0.937262 0.802479 0.053751
O O4 0.949987 0.029159 0.200517
O O5 0.566210 0.640579 0.284420
O O6 0.557948 0.413019 0.141026
O O7 0.033052 0.602726 0.250092
O O8 0.252261 0.582181 0.390446
O O9 0.207476 0.359530 0.248120
O O10 0.500000 0.500000 0.500000
O O11 0.061889 0.286096 0.359517
O O12 0.000000 0.500000 0.500000
O O13 0.695590 0.235887 0.215258
O O14 0.712941 0.926763 0.929238
O O15 0.228988 0.805248 0.933687
#
# Coordination Sequence:
#
# PCOD9095968 Si02
#       7
#     2   2   2   2   2   2   2
#     4  11  22  36  54  82 114 148 185 226 273 314
#     4  11  20  35  56  79 112 150 184 219 268 333
#     4   9  20  35  57  81 104 145 179 221 266 333
#     4  10  20  35  61  89 105 130 182 234 268 320
#     4   8  20  36  59  81 108 145 181 225 275 332
#     4   9  20  37  57  79 110 150 191 226 273 316
#     4  10  22  36  54  80 113 147 191 236 260 311
#
# _framework density 19.336745000000001
#
# number of rings (size 3 to 8) (size 9 to 14) (size 15 to 20)
#    0.857    1.429    0.000    2.571    0.000    9.714 
#    0.000    0.000    0.000    5.143    0.000    0.000 
#    0.000    0.000    0.000    0.000    0.000    0.000 
#
# Total GULP energy -78052.852466 kJ/mol
# GULP energy per Si atom -5575.203748 kJ/mol
# Density = 1.929273 g / cm^3
# Si number density = 19.336745 Si / 1000 Ang^3
#
#
#
# Elastic Constant Matrix: (Units=GPa)
#
#
# Indices 1 2 3 4 5 6 
#
# 1 106.7736 36.7509 38.1083 -10.7190 -13.3168 -3.2767
# 2 36.7509 104.2210 35.5170 -27.6278 -4.1403 -5.0482
# 3 38.1083 35.5170 105.4295 -6.8215 8.4278 -2.9919
# 4 -10.7190 -27.6278 -6.8215 25.2124 4.3416 -1.0681
# 5 -13.3168 -4.1403 8.4278 4.3416 30.0699 -8.1091
# 6 -3.2767 -5.0482 -2.9919 -1.0681 -8.1091 19.5724
#
#
#
# Elastic Compliance Matrix: (Units=1/GPa)
#
#
# Indices 1 2 3 4 5 6 
#
# 1 0.012853 -0.002447 -0.004280 0.000492 0.007570 0.004030
# 2 -0.002447 0.016033 -0.003464 0.015600 0.001051 0.004483
# 3 -0.004280 -0.003464 0.012561 -0.001223 -0.006362 -0.002392
# 4 0.000492 0.015600 -0.001223 0.057579 -0.004166 0.005335
# 5 0.007570 0.001051 -0.006362 -0.004166 0.044163 0.018636
# 6 0.004030 0.004483 -0.002392 0.005335 0.018636 0.060570
#
#
# Mechanical properties :
#
#
# Convention : Reuss Voigt Hill
#
# Bulk Modulus (GPa) = 47.47669 59.68628 53.58148
# Shear Modulus (GPa) = 21.62980 28.70745 25.16862
#
# Velocity S-wave (km/s) = 3.34815 3.85724 3.61168
# Velocity P-wave (km/s) = 6.28910 7.12541 6.72028
#
# Compressibility (1/GPa) = 0.02106297
#
# Stress axis : x y z
#
# Youngs Moduli (GPa) = 77.80380 62.37259 79.61401
#
# Poissons Ratio (x) = 0.15264 0.34077
# Poissons Ratio (y) = 0.19041 0.27578
# Poissons Ratio (z) = 0.33302 0.21606
#
# Static dielectric constant tensor:
#      x y z
#    x 1.716670 -0.010070 -0.009910 
#    y -0.010070 1.664900 0.017940 
#    z -0.009910 0.017940 1.701580 
# 
# From -- ./inp_files/122167.got.cif
#   From: 2010.05.17/outbox.cif.g08.bks.cpg/sg2_62_cif.got.tgz:122167.got - 2010.06.03 11:33:40.
