data_PCOD9095357
_publ_section_title
;
Structure prediction by ZEFSAII (Michael W. Deem and Ramdas Pophale) SiO2 
 PCOD9095357
Probable space group: P -1
;
_chemical_formula_sum "Si O2"
_cell_formula_units_Z 16
_cell_length_a 11.336007
_cell_length_b 8.718005
_cell_length_c 10.359378
_cell_angle_alpha 137.373854
_cell_angle_beta 114.959007
_cell_angle_gamma 80.511267
_cell_volume 610.635860
_symmetry_space_group_name_H-M "P -1"
_symmetry_group_IT_number 2
_symmetry_cell_setting 'triclinic'
loop_
_space_group_symop_operation_xyz
x,y,z
-x,-y,-z
loop_
_atom_site_type_symbol
_atom_site_label
_atom_site_fract_x
_atom_site_fract_y
_atom_site_fract_z
Si Si1 0.968997 0.029835 0.334535
Si Si2 0.811264 0.508107 0.329990
Si Si3 0.545996 0.899615 0.291232
Si Si4 0.493106 0.191924 0.225719
Si Si5 0.221477 0.472003 0.387894
Si Si6 0.508028 0.515299 0.823536
Si Si7 0.162012 0.806232 0.382171
Si Si8 0.859579 0.029396 0.008865
O O1 0.090615 0.261432 0.535157
O O2 0.879327 0.047155 0.426743
O O3 0.048084 0.824963 0.240005
O O4 0.874656 0.019519 0.162718
O O5 0.854610 0.508544 0.501386
O O6 0.654240 0.511275 0.262559
O O7 0.826284 0.275553 0.120258
O O8 0.475484 0.734503 0.273386
O O9 0.464226 0.047301 0.257831
O O10 0.687844 0.060555 0.500585
O O11 0.571278 0.708477 0.078968
O O12 0.641534 0.339126 0.415873
O O13 0.441026 0.384339 0.232456
O O14 0.500000 0.000000 0.000000
O O15 0.154476 0.553384 0.282226
O O16 0.239586 0.211186 0.227304
O O17 0.000000 0.000000 0.000000
#
# Coordination Sequence:
#
# PCOD9095357 Si02
#       8
#     2   2   2   2   2   2   2   2
#     4  11  21  35  56  84 117 159 195 243 296 352
#     4  11  20  38  58  85 116 151 201 240 294 356
#     4   9  16  31  54  89 109 144 198 240 294 353
#     4   8  16  30  54  84 111 145 192 238 289 349
#     4  10  20  36  58  83 114 155 190 244 294 354
#     4   9  17  30  57  86 110 144 195 245 293 350
#     4  10  20  35  57  82 119 153 197 239 298 361
#     4  12  23  35  58  86 119 156 200 246 293 354
#
# _framework density 26.202193999999999
#
# number of rings (size 3 to 8) (size 9 to 14) (size 15 to 20)
#    0.000    2.000    3.750    1.125    0.000    0.500 
#    0.000    0.000    0.000   12.000    0.000   12.250 
#    0.000    0.000    0.000    0.000    0.000    0.000 
#
# Total GULP energy -89433.409559 kJ/mol
# GULP energy per Si atom -5589.588097 kJ/mol
# Density = 2.614256 g / cm^3
# Si number density = 26.202194 Si / 1000 Ang^3
#
#
#
# Elastic Constant Matrix: (Units=GPa)
#
#
# Indices 1 2 3 4 5 6 
#
# 1 92.0922 38.9929 42.9683 16.0915 -5.8429 -0.1605
# 2 38.9929 169.9490 15.9071 36.3275 -13.1938 4.4195
# 3 42.9683 15.9071 102.4654 27.5435 1.5400 -6.2920
# 4 16.0915 36.3275 27.5435 37.2854 -1.4187 0.6828
# 5 -5.8429 -13.1938 1.5400 -1.4187 22.4390 8.8460
# 6 -0.1605 4.4195 -6.2920 0.6828 8.8460 36.6319
#
#
#
# Elastic Compliance Matrix: (Units=1/GPa)
#
#
# Indices 1 2 3 4 5 6 
#
# 1 0.014991 -0.002770 -0.006274 0.001019 0.003365 -0.001509
# 2 -0.002770 0.008483 0.001914 -0.008293 0.004231 -0.001574
# 3 -0.006274 0.001914 0.015201 -0.010585 -0.003566 0.003411
# 4 0.001019 -0.008293 -0.010585 0.042282 -0.000641 -0.001446
# 5 0.003365 0.004231 -0.003566 -0.000641 0.053676 -0.014058
# 6 -0.001509 -0.001574 0.003411 -0.001446 -0.014058 0.031490
#
#
# Mechanical properties :
#
#
# Convention : Reuss Voigt Hill
#
# Bulk Modulus (GPa) = 40.95691 62.24923 51.60307
# Shear Modulus (GPa) = 26.52228 37.04713 31.78470
#
# Velocity S-wave (km/s) = 3.18499 3.76426 3.48667
# Velocity P-wave (km/s) = 5.40283 6.53465 5.99551
#
# Compressibility (1/GPa) = 0.02441591
#
# Stress axis : x y z
#
# Youngs Moduli (GPa) = 66.70471 117.88813 65.78321
#
# Poissons Ratio (x) = 0.32651 0.41271
# Poissons Ratio (y) = 0.18475 -0.12588
# Poissons Ratio (z) = 0.41849 -0.22559
#
# Static dielectric constant tensor:
#      x y z
#    x 1.680670 0.158650 -0.101190 
#    y 0.158650 2.105500 0.029170 
#    z -0.101190 0.029170 1.995820 
# 
# From -- ./inp_files/315476.got.cif
#   From: 2010.05.17/outbox.cif.g08.bks.cpg/sg2_158_cif.got.tgz:315476.got - 2010.06.03 11:33:40.
