data_PCOD9095651
_publ_section_title
;
Structure prediction by ZEFSAII (Michael W. Deem and Ramdas Pophale) SiO2 
 PCOD9095651
Probable space group: P -1
;
_chemical_formula_sum "Si O2"
_cell_formula_units_Z 14
_cell_length_a 8.668021
_cell_length_b 13.152815
_cell_length_c 13.708455
_cell_angle_alpha 29.195745
_cell_angle_beta 94.528986
_cell_angle_gamma 76.621975
_cell_volume 597.742183
_symmetry_space_group_name_H-M "P -1"
_symmetry_group_IT_number 2
_symmetry_cell_setting 'triclinic'
loop_
_space_group_symop_operation_xyz
x,y,z
-x,-y,-z
loop_
_atom_site_type_symbol
_atom_site_label
_atom_site_fract_x
_atom_site_fract_y
_atom_site_fract_z
Si Si1 0.528794 0.307568 0.542341
Si Si2 0.335178 0.665633 0.933907
Si Si3 0.521069 0.143722 0.470672
Si Si4 0.959117 0.764620 0.820764
Si Si5 0.135624 0.249540 0.949076
Si Si6 0.509962 0.230891 0.965149
Si Si7 0.179623 0.379870 0.535840
O O1 0.508580 0.151202 0.582347
O O2 0.344975 0.424751 0.506888
O O3 0.518582 0.536626 0.295421
O O4 0.733701 0.066428 0.804399
O O5 0.404418 0.787462 0.907316
O O6 0.114959 0.816330 0.761106
O O7 0.500000 0.500000 0.000000
O O8 0.354801 0.445081 0.185699
O O9 0.500000 0.000000 0.500000
O O10 0.744770 0.028202 0.560518
O O11 0.935229 0.735869 0.957728
O O12 0.000000 0.500000 0.000000
O O13 0.944168 0.471140 0.693125
O O14 0.296983 0.299396 0.903858
O O15 0.678486 0.938543 0.177478
O O16 0.000000 0.500000 0.500000
#
# Coordination Sequence:
#
# PCOD9095651 Si02
#       7
#     2   2   2   2   2   2   2
#     4   9  22  42  61  92 129 164 207 268 317 375
#     4  11  23  36  56  91 131 163 214 261 310 378
#     4  10  20  35  59  84 121 166 209 254 308 369
#     4  11  21  35  61  90 123 174 210 250 320 374
#     4  10  22  41  66  89 128 166 214 262 327 384
#     4  10  23  41  63  95 129 164 212 273 318 379
#     4  11  25  43  67  94 124 169 217 266 328 385
#
# _framework density 23.421468000000001
#
# number of rings (size 3 to 8) (size 9 to 14) (size 15 to 20)
#    0.000    1.714    1.429    2.571    4.000    8.000 
#    0.000    1.429    0.000    0.000    0.000    0.000 
#    0.000    0.000    0.000    0.000    0.000    0.000 
#
# Total GULP energy -77979.290138 kJ/mol
# GULP energy per Si atom -5569.949296 kJ/mol
# Density = 2.336816 g / cm^3
# Si number density = 23.421468 Si / 1000 Ang^3
#
#
#
# Elastic Constant Matrix: (Units=GPa)
#
#
# Indices 1 2 3 4 5 6 
#
# 1 122.2992 22.8533 60.4050 -18.9792 15.6063 -35.8348
# 2 22.8533 51.9318 0.4714 -6.3442 -1.1576 -23.0417
# 3 60.4050 0.4714 111.8230 -2.6471 5.9959 -1.3635
# 4 -18.9792 -6.3442 -2.6471 32.0095 -4.4878 4.8710
# 5 15.6063 -1.1576 5.9959 -4.4878 50.8459 -6.7779
# 6 -35.8348 -23.0417 -1.3635 4.8710 -6.7779 38.4074
#
#
#
# Elastic Compliance Matrix: (Units=1/GPa)
#
#
# Indices 1 2 3 4 5 6 
#
# 1 0.019377 -0.000338 -0.009979 0.007864 -0.001927 0.016185
# 2 -0.000338 0.026964 0.000172 0.003157 0.003111 0.016016
# 3 -0.009979 0.000172 0.014150 -0.003455 -0.000009 -0.008268
# 4 0.007864 0.003157 -0.003455 0.035760 0.001876 0.004904
# 5 -0.001927 0.003111 -0.000009 0.001876 0.020967 0.003530
# 6 0.016185 0.016016 -0.008268 0.004904 0.003530 0.050454
#
#
# Mechanical properties :
#
#
# Convention : Reuss Voigt Hill
#
# Bulk Modulus (GPa) = 24.87411 50.39038 37.63224
# Shear Modulus (GPa) = 24.83086 37.74086 31.28586
#
# Velocity S-wave (km/s) = 3.25957 4.01855 3.65879
# Velocity P-wave (km/s) = 4.98093 6.56453 5.82678
#
# Compressibility (1/GPa) = 0.04020245
#
# Stress axis : x y z
#
# Youngs Moduli (GPa) = 51.60746 37.08588 70.66991
#
# Poissons Ratio (x) = 0.01252 0.70521
# Poissons Ratio (y) = 0.01743 -0.01215
# Poissons Ratio (z) = 0.51499 -0.00638
#
# Static dielectric constant tensor:
#      x y z
#    x 2.012640 0.132380 0.044510 
#    y 0.132380 2.044970 0.103270 
#    z 0.044510 0.103270 2.045890 
# 
# From -- ./inp_files/315202.got.cif
#   From: 2010.05.17/outbox.cif.g08.bks.cpg/sg2_158_cif.got.tgz:315202.got - 2010.06.03 11:33:40.
