data_PCOD9095730
_publ_section_title
;
Structure prediction by ZEFSAII (Michael W. Deem and Ramdas Pophale) SiO2 
 PCOD9095730
Probable space group: P -1
;
_chemical_formula_sum "Si O2"
_cell_formula_units_Z 14
_cell_length_a 7.262336
_cell_length_b 9.464592
_cell_length_c 8.016062
_cell_angle_alpha 77.910982
_cell_angle_beta 104.246268
_cell_angle_gamma 86.640415
_cell_volume 518.658509
_symmetry_space_group_name_H-M "P -1"
_symmetry_group_IT_number 2
_symmetry_cell_setting 'triclinic'
loop_
_space_group_symop_operation_xyz
x,y,z
-x,-y,-z
loop_
_atom_site_type_symbol
_atom_site_label
_atom_site_fract_x
_atom_site_fract_y
_atom_site_fract_z
Si Si1 0.024331 0.343020 0.870244
Si Si2 0.740121 0.002871 0.430164
Si Si3 0.427839 0.583158 0.294626
Si Si4 0.429835 0.921831 0.171292
Si Si5 0.980980 0.232990 0.532834
Si Si6 0.128204 0.863718 0.901561
Si Si7 0.729435 0.418034 0.179749
O O1 0.801162 0.402508 0.776309
O O2 0.070158 0.272816 0.716626
O O3 0.160992 0.461734 0.912730
O O4 0.039350 0.223530 0.049712
O O5 0.522462 0.000576 0.325913
O O6 0.850664 0.844595 0.530077
O O7 0.805506 0.129793 0.527523
O O8 0.855436 0.028180 0.273688
O O9 0.500000 0.500000 0.500000
O O10 0.485971 0.748431 0.255141
O O11 0.531973 0.487708 0.194020
O O12 0.207574 0.926557 0.074083
O O13 0.500000 0.000000 0.000000
O O14 0.873123 0.369720 0.378326
O O15 0.274871 0.727495 0.893143
#
# Coordination Sequence:
#
# PCOD9095730 Si02
#       7
#     2   2   2   2   2   2   2
#     4  11  22  37  62  94 123 159 208 257 314 367
#     4   9  19  37  62  85 122 167 205 250 318 364
#     4  11  23  38  63  95 125 161 212 257 306 376
#     4   9  19  38  61  83 123 166 200 253 311 359
#     4  10  20  35  59  90 120 161 206 255 304 370
#     4   9  21  39  60  90 123 162 212 255 300 383
#     4  11  22  40  64  89 130 164 201 258 317 361
#
# _framework density 26.992712999999998
#
# number of rings (size 3 to 8) (size 9 to 14) (size 15 to 20)
#    0.000    2.000    1.429    1.714    2.000    2.857 
#    0.000    5.714    3.143    0.000    0.000    0.000 
#    0.000    0.000    0.000    0.000    0.000    0.000 
#
# Total GULP energy -78230.801742 kJ/mol
# GULP energy per Si atom -5587.914410 kJ/mol
# Density = 2.693128 g / cm^3
# Si number density = 26.992713 Si / 1000 Ang^3
#
#
#
# Elastic Constant Matrix: (Units=GPa)
#
#
# Indices 1 2 3 4 5 6 
#
# 1 94.0357 35.1800 1.7253 -5.1627 9.7422 13.1375
# 2 35.1800 129.0413 29.3720 -9.6080 3.3948 3.8390
# 3 1.7253 29.3720 135.2960 4.0507 -2.3898 10.0379
# 4 -5.1627 -9.6080 4.0507 47.5876 9.4213 5.4319
# 5 9.7422 3.3948 -2.3898 9.4213 32.1745 5.9101
# 6 13.1375 3.8390 10.0379 5.4319 5.9101 47.0229
#
#
#
# Elastic Compliance Matrix: (Units=1/GPa)
#
#
# Indices 1 2 3 4 5 6 
#
# 1 0.012755 -0.003324 0.000687 0.001687 -0.003364 -0.003211
# 2 -0.003324 0.009264 -0.002072 0.001775 -0.000737 0.000502
# 3 0.000687 -0.002072 0.008017 -0.001071 0.001244 -0.001767
# 4 0.001687 0.001775 -0.001071 0.023321 -0.007207 -0.002176
# 5 -0.003364 -0.000737 0.001244 -0.007207 0.034898 -0.002819
# 6 -0.003211 0.000502 -0.001767 -0.002176 -0.002819 0.023105
#
#
# Mechanical properties :
#
#
# Convention : Reuss Voigt Hill
#
# Bulk Modulus (GPa) = 48.50059 54.54751 51.52405
# Shear Modulus (GPa) = 39.16917 44.83004 41.99960
#
# Velocity S-wave (km/s) = 3.81347 4.07974 3.94885
# Velocity P-wave (km/s) = 6.11531 6.51494 6.31829
#
# Compressibility (1/GPa) = 0.02061830
#
# Stress axis : x y z
#
# Youngs Moduli (GPa) = 78.40052 107.94538 124.72828
#
# Poissons Ratio (x) = 0.35883 -0.08573
# Poissons Ratio (y) = 0.26062 0.25846
# Poissons Ratio (z) = -0.05388 0.22368
#
# Static dielectric constant tensor:
#      x y z
#    x 2.162730 -0.033050 0.009030 
#    y -0.033050 2.135990 0.001110 
#    z 0.009030 0.001110 2.242280 
# 
# From -- ./inp_files/154247.got.cif
#   From: 2010.05.17/outbox.cif.g08.bks.cpg/sg2_78_cif.got.tgz:154247.got - 2010.06.03 11:33:40.
