data_PCOD9095240
_publ_section_title
;
Structure prediction by ZEFSAII (Michael W. Deem and Ramdas Pophale) SiO2 
 PCOD9095240
Probable space group: P -1
;
_chemical_formula_sum "Si O2"
_cell_formula_units_Z 16
_cell_length_a 13.235602
_cell_length_b 16.431298
_cell_length_c 14.924196
_cell_angle_alpha 132.069523
_cell_angle_beta 39.278219
_cell_angle_gamma 153.933338
_cell_volume 899.168005
_symmetry_space_group_name_H-M "P -1"
_symmetry_group_IT_number 2
_symmetry_cell_setting 'triclinic'
loop_
_space_group_symop_operation_xyz
x,y,z
-x,-y,-z
loop_
_atom_site_type_symbol
_atom_site_label
_atom_site_fract_x
_atom_site_fract_y
_atom_site_fract_z
Si Si1 0.772585 0.119223 0.945875
Si Si2 0.843270 0.909043 0.767714
Si Si3 0.345045 0.470437 0.806071
Si Si4 0.230551 0.086845 0.971854
Si Si5 0.304169 0.308470 0.547168
Si Si6 0.342459 0.490487 0.031386
Si Si7 0.723559 0.135036 0.200741
Si Si8 0.231941 0.026237 0.439566
O O1 0.036812 0.335093 0.896954
O O2 0.814536 0.013554 0.823232
O O3 0.731470 0.116619 0.076313
O O4 0.500000 0.000000 0.000000
O O5 0.570701 0.684790 0.785841
O O6 0.882177 0.954116 0.880184
O O7 0.070527 0.974192 0.601579
O O8 0.367716 0.379545 0.658115
O O9 0.349961 0.446787 0.891690
O O10 0.493996 0.306669 0.939957
O O11 0.306472 0.003013 0.839844
O O12 0.000000 0.000000 0.000000
O O13 0.500000 0.500000 0.500000
O O14 0.000828 0.154715 0.599545
O O15 0.340015 0.196194 0.439965
O O16 0.500000 0.500000 0.000000
O O17 0.032987 0.340116 0.162202
O O18 0.477703 0.083411 0.341862
#
# Coordination Sequence:
#
# PCOD9095240 Si02
#       8
#     2   2   2   2   2   2   2   2
#     4  10  20  35  56  81 116 149 194 239 286 338
#     4  10  21  37  58  84 113 155 193 235 291 352
#     4  10  20  36  57  84 109 151 199 235 284 346
#     4  10  20  38  64  85 110 151 196 243 300 343
#     4  11  22  36  58  83 118 167 191 229 285 350
#     4  10  20  37  64  86 110 149 198 245 297 345
#     4  10  22  36  56  90 117 148 192 249 285 346
#     4  11  23  38  58  85 124 156 198 232 293 349
#
# _framework density 17.794228
#
# number of rings (size 3 to 8) (size 9 to 14) (size 15 to 20)
#    0.000    1.750    3.750    0.750    1.750    1.500 
#    0.000    3.125    0.000    1.500    0.000    0.000 
#    0.000    0.000    0.000    0.000    0.000    0.000 
#
# Total GULP energy -89082.759949 kJ/mol
# GULP energy per Si atom -5567.672497 kJ/mol
# Density = 1.775373 g / cm^3
# Si number density = 17.794228 Si / 1000 Ang^3
#
#
#
# Elastic Constant Matrix: (Units=GPa)
#
#
# Indices 1 2 3 4 5 6 
#
# 1 100.5959 67.8896 51.0211 -9.9858 -22.2850 10.8533
# 2 67.8896 138.5062 59.3324 -8.9346 -11.4005 -1.6065
# 3 51.0211 59.3324 110.3064 -10.1992 -21.8809 2.8095
# 4 -9.9858 -8.9346 -10.1992 20.9902 7.6523 3.0582
# 5 -22.2850 -11.4005 -21.8809 7.6523 31.2759 -2.4830
# 6 10.8533 -1.6065 2.8095 3.0582 -2.4830 31.2448
#
#
#
# Elastic Compliance Matrix: (Units=1/GPa)
#
#
# Indices 1 2 3 4 5 6 
#
# 1 0.019035 -0.007351 -0.002919 0.002633 0.007691 -0.006374
# 2 -0.007351 0.012296 -0.003911 0.000603 -0.003384 0.003209
# 3 -0.002919 -0.003911 0.013811 0.001575 0.005762 -0.000125
# 4 0.002633 0.000603 0.001575 0.054916 -0.010815 -0.007260
# 5 0.007691 -0.003384 0.005762 -0.010815 0.042985 0.001111
# 6 -0.006374 0.003209 -0.000125 -0.007260 0.001111 0.035195
#
#
# Mechanical properties :
#
#
# Convention : Reuss Voigt Hill
#
# Bulk Modulus (GPa) = 59.59408 78.43273 69.01341
# Shear Modulus (GPa) = 23.56343 28.11322 25.83832
#
# Velocity S-wave (km/s) = 3.64293 3.97912 3.81473
# Velocity P-wave (km/s) = 7.15947 8.07988 7.63356
#
# Compressibility (1/GPa) = 0.01678019
#
# Stress axis : x y z
#
# Youngs Moduli (GPa) = 52.53496 81.32857 72.40397
#
# Poissons Ratio (x) = 0.59781 0.21136
# Poissons Ratio (y) = 0.38616 0.28319
# Poissons Ratio (z) = 0.15336 0.31809
#
# Static dielectric constant tensor:
#      x y z
#    x 1.638860 0.010550 0.017780 
#    y 0.010550 1.659590 -0.018170 
#    z 0.017780 -0.018170 1.650960 
# 
# From -- ./inp_files/274186.got.cif
#   From: 2010.05.17/outbox.cif.g08.bks.cpg/sg2_138_cif.got.tgz:274186.got - 2010.06.03 11:33:40.
