data_PCOD9095046
_publ_section_title
;
Structure prediction by ZEFSAII (Michael W. Deem and Ramdas Pophale) SiO2 
 PCOD9095046
Probable space group: P -1
;
_chemical_formula_sum "Si O2"
_cell_formula_units_Z 16
_cell_length_a 15.785459
_cell_length_b 7.815531
_cell_length_c 10.794772
_cell_angle_alpha 122.736640
_cell_angle_beta 40.851501
_cell_angle_gamma 103.964345
_cell_volume 697.870136
_symmetry_space_group_name_H-M "P -1"
_symmetry_group_IT_number 2
_symmetry_cell_setting 'triclinic'
loop_
_space_group_symop_operation_xyz
x,y,z
-x,-y,-z
loop_
_atom_site_type_symbol
_atom_site_label
_atom_site_fract_x
_atom_site_fract_y
_atom_site_fract_z
Si Si1 0.130013 0.807061 0.145031
Si Si2 0.287426 0.619978 0.311844
Si Si3 0.888090 0.501999 0.732589
Si Si4 0.547198 0.662216 0.803454
Si Si5 0.303093 0.034039 0.147827
Si Si6 0.969964 0.250505 0.165274
Si Si7 0.776506 0.529600 0.289447
Si Si8 0.832614 0.916055 0.436866
O O1 0.102103 0.706036 0.269260
O O2 0.201199 0.992767 0.144749
O O3 0.987394 0.905946 0.271781
O O4 0.223601 0.614201 0.884657
O O5 0.247453 0.481512 0.192279
O O6 0.420260 0.534512 0.216332
O O7 0.158526 0.675481 0.570163
O O8 0.272572 0.853314 0.370598
O O9 0.000000 0.500000 0.500000
O O10 0.909957 0.679119 0.873344
O O11 0.643700 0.588037 0.547298
O O12 0.595949 0.825116 0.903758
O O13 0.399705 0.793483 0.972305
O O14 0.202994 0.150067 0.413872
O O15 0.907395 0.398254 0.174260
O O16 0.000000 0.000000 0.000000
O O17 0.802014 0.751232 0.312251
#
# Coordination Sequence:
#
# PCOD9095046 Si02
#       8
#     2   2   2   2   2   2   2   2
#     4  12  22  36  62  93 120 155 198 241 303 357
#     4  10  21  35  59  83 118 155 190 249 284 345
#     4  10  22  36  53  87 125 154 187 245 293 353
#     4   9  22  44  59  87 118 156 212 236 295 344
#     4  10  22  39  65  85 115 163 200 251 283 350
#     4  10  20  35  53  84 122 158 188 232 302 355
#     4  10  22  37  60  85 123 162 190 247 286 366
#     4  11  21  36  59  92 121 155 194 241 306 349
#
# _framework density 22.926902999999999
#
# number of rings (size 3 to 8) (size 9 to 14) (size 15 to 20)
#    0.000    1.750    2.500    1.500    3.500    3.000 
#    0.000    0.000    0.000    0.750    0.000    0.000 
#    0.000    0.000    0.000    0.000    0.000    0.000 
#
# Total GULP energy -89177.127246 kJ/mol
# GULP energy per Si atom -5573.570453 kJ/mol
# Density = 2.287472 g / cm^3
# Si number density = 22.926903 Si / 1000 Ang^3
#
#
#
# Elastic Constant Matrix: (Units=GPa)
#
#
# Indices 1 2 3 4 5 6 
#
# 1 53.2648 8.4056 13.2404 3.3223 15.6103 -0.2340
# 2 8.4056 52.9890 5.5705 10.0158 10.5201 9.3113
# 3 13.2404 5.5705 84.6679 -1.3437 11.1748 -4.9011
# 4 3.3223 10.0158 -1.3437 32.5232 2.3455 7.1902
# 5 15.6103 10.5201 11.1748 2.3455 37.6407 12.5308
# 6 -0.2340 9.3113 -4.9011 7.1902 12.5308 35.7688
#
#
#
# Elastic Compliance Matrix: (Units=1/GPa)
#
#
# Indices 1 2 3 4 5 6 
#
# 1 0.022460 -0.001812 -0.001941 -0.002035 -0.009463 0.004077
# 2 -0.001812 0.021599 -0.000959 -0.005494 -0.003516 -0.003430
# 3 -0.001941 -0.000959 0.012885 0.000589 -0.003867 0.003239
# 4 -0.002035 -0.005494 0.000589 0.033856 0.002108 -0.006047
# 5 -0.009463 -0.003516 -0.003867 0.002108 0.036818 -0.012999
# 6 0.004077 -0.003430 0.003239 -0.006047 -0.012999 0.035090
#
#
# Mechanical properties :
#
#
# Convention : Reuss Voigt Hill
#
# Bulk Modulus (GPa) = 21.04331 27.26164 24.15247
# Shear Modulus (GPa) = 26.59956 32.10021 29.34989
#
# Velocity S-wave (km/s) = 3.40985 3.74587 3.58180
# Velocity P-wave (km/s) = 4.97002 5.53400 5.25958
#
# Compressibility (1/GPa) = 0.04752105
#
# Stress axis : x y z
#
# Youngs Moduli (GPa) = 44.52262 46.29751 77.61146
#
# Poissons Ratio (x) = 0.08389 0.15061
# Poissons Ratio (y) = 0.08067 0.07446
# Poissons Ratio (z) = 0.08640 0.04442
#
# Static dielectric constant tensor:
#      x y z
#    x 1.874510 -0.071290 0.017720 
#    y -0.071290 2.012400 -0.019910 
#    z 0.017720 -0.019910 1.884840 
# 
# From -- ./inp_files/347401.got.cif
#   From: 2010.05.17/outbox.cif.g08.bks.cpg/sg2_174_cif.got.tgz:347401.got - 2010.06.03 11:33:40.
