data_PCOD9095773
_publ_section_title
;
Structure prediction by ZEFSAII (Michael W. Deem and Ramdas Pophale) SiO2 
 PCOD9095773
Probable space group: P -1
;
_chemical_formula_sum "Si O2"
_cell_formula_units_Z 14
_cell_length_a 27.359303
_cell_length_b 15.798217
_cell_length_c 19.259626
_cell_angle_alpha 20.335641
_cell_angle_beta 163.013504
_cell_angle_gamma 161.549074
_cell_volume 726.735048
_symmetry_space_group_name_H-M "P -1"
_symmetry_group_IT_number 2
_symmetry_cell_setting 'triclinic'
loop_
_space_group_symop_operation_xyz
x,y,z
-x,-y,-z
loop_
_atom_site_type_symbol
_atom_site_label
_atom_site_fract_x
_atom_site_fract_y
_atom_site_fract_z
Si Si1 0.907167 0.183589 0.416259
Si Si2 0.595140 0.535685 0.526690
Si Si3 0.821028 0.345694 0.821408
Si Si4 0.853655 0.298580 0.099478
Si Si5 0.336165 0.303294 0.874652
Si Si6 0.390093 0.720408 0.013269
Si Si7 0.360916 0.311636 0.743601
O O1 0.845458 0.253049 0.205126
O O2 0.131209 0.276830 0.638912
O O3 0.779723 0.848574 0.519178
O O4 0.825499 0.327733 0.247409
O O5 0.500000 0.500000 0.500000
O O6 0.426206 0.494664 0.276456
O O7 0.687003 0.337716 0.807775
O O8 0.695874 0.498045 0.526717
O O9 0.940497 0.428891 0.847773
O O10 0.000000 0.500000 0.000000
O O11 0.701884 0.015118 0.927608
O O12 0.823118 0.005685 0.254317
O O13 0.402605 0.414894 0.800142
O O14 0.500000 0.500000 0.000000
O O15 0.486892 0.737477 0.056868
O O16 0.500000 0.000000 0.000000
#
# Coordination Sequence:
#
# PCOD9095773 Si02
#       7
#     2   2   2   2   2   2   2
#     4  11  21  41  59  92 135 168 213 271 326 387
#     4  11  19  31  57  98 137 159 202 254 337 397
#     4  12  23  38  68 101 128 164 221 276 340 385
#     4  12  19  33  62  99 128 162 201 271 330 382
#     4  12  28  46  66  92 131 186 229 267 321 388
#     4  10  20  35  59  97 136 165 199 271 339 387
#     4  12  23  39  63  97 138 166 213 277 328 389
#
# _framework density 19.264241999999999
#
# number of rings (size 3 to 8) (size 9 to 14) (size 15 to 20)
#    0.000    0.571    8.571    3.000    0.000    0.571 
#    0.000    0.714    0.000    0.857    0.000    0.000 
#    0.000    0.000    0.000    0.000    0.000    0.000 
#
# Total GULP energy -77958.318080 kJ/mol
# GULP energy per Si atom -5568.451291 kJ/mol
# Density = 1.922040 g / cm^3
# Si number density = 19.264242 Si / 1000 Ang^3
#
#
#
# Elastic Constant Matrix: (Units=GPa)
#
#
# Indices 1 2 3 4 5 6 
#
# 1 137.9839 34.9305 50.9656 11.5236 4.9523 9.8637
# 2 34.9305 58.1335 39.4894 0.0357 -4.5413 -5.8379
# 3 50.9656 39.4894 153.4148 -8.3982 12.9007 -4.2698
# 4 11.5236 0.0357 -8.3982 20.5389 10.6588 -1.8759
# 5 4.9523 -4.5413 12.9007 10.6588 39.6791 -4.5363
# 6 9.8637 -5.8379 -4.2698 -1.8759 -4.5363 20.1799
#
#
#
# Elastic Compliance Matrix: (Units=1/GPa)
#
#
# Indices 1 2 3 4 5 6 
#
# 1 0.010975 -0.005389 -0.002960 -0.008240 0.000245 -0.008260
# 2 -0.005389 0.025537 -0.005178 -0.001798 0.006941 0.010319
# 3 -0.002960 -0.005178 0.009826 0.008729 -0.005581 0.001585
# 4 -0.008240 -0.001798 0.008729 0.067585 -0.019337 0.007290
# 5 0.000245 0.006941 -0.005581 -0.019337 0.033717 0.006489
# 6 -0.008260 0.010319 0.001585 0.007290 0.006489 0.059049
#
#
# Mechanical properties :
#
#
# Convention : Reuss Voigt Hill
#
# Bulk Modulus (GPa) = 51.85909 66.70036 59.27972
# Shear Modulus (GPa) = 20.81862 31.02268 25.92065
#
# Velocity S-wave (km/s) = 3.29095 4.01730 3.67213
# Velocity P-wave (km/s) = 6.43574 7.49783 6.98699
#
# Compressibility (1/GPa) = 0.01928302
#
# Stress axis : x y z
#
# Youngs Moduli (GPa) = 91.11857 39.15948 101.77212
#
# Poissons Ratio (x) = 0.21102 0.30129
# Poissons Ratio (y) = 0.49101 0.52697
# Poissons Ratio (z) = 0.26975 0.20277
#
# Static dielectric constant tensor:
#      x y z
#    x 1.828400 0.038500 0.036290 
#    y 0.038500 1.655590 -0.001860 
#    z 0.036290 -0.001860 1.747460 
# 
# From -- ./inp_files/579872.got.cif
#   From: 2010.05.17/outbox.cif.g08.bks.cpg/sg2_290_cif.got.tgz:579872.got - 2010.06.03 11:33:40.
