data_PCOD9095468
_publ_section_title
;
Structure prediction by ZEFSAII (Michael W. Deem and Ramdas Pophale) SiO2 
 PCOD9095468
Probable space group: P -1
;
_chemical_formula_sum "Si O2"
_cell_formula_units_Z 16
_cell_length_a 15.522717
_cell_length_b 15.705734
_cell_length_c 7.990013
_cell_angle_alpha 70.493233
_cell_angle_beta 69.631444
_cell_angle_gamma 18.208769
_cell_volume 570.594475
_symmetry_space_group_name_H-M "P -1"
_symmetry_group_IT_number 2
_symmetry_cell_setting 'triclinic'
loop_
_space_group_symop_operation_xyz
x,y,z
-x,-y,-z
loop_
_atom_site_type_symbol
_atom_site_label
_atom_site_fract_x
_atom_site_fract_y
_atom_site_fract_z
Si Si1 0.649433 0.423945 0.253097
Si Si2 0.139984 0.625318 0.460527
Si Si3 0.076659 0.285060 0.157850
Si Si4 0.304231 0.213092 0.271317
Si Si5 0.740058 0.147255 0.369888
Si Si6 0.789511 0.102529 0.984062
Si Si7 0.832344 0.783926 0.342949
Si Si8 0.544984 0.715134 0.106581
O O1 0.698404 0.282152 0.398956
O O2 0.387709 0.656226 0.151529
O O3 0.585760 0.581974 0.268587
O O4 0.930758 0.179495 0.118309
O O5 0.454305 0.359670 0.394942
O O6 0.101936 0.579045 0.646881
O O7 0.979422 0.739866 0.327203
O O8 0.969647 0.870666 0.476597
O O9 0.208504 0.258662 0.131490
O O10 0.841898 0.487882 0.043236
O O11 0.323179 0.985412 0.164465
O O12 0.323403 0.109205 0.453908
O O13 0.072305 0.491862 0.323770
O O14 0.596395 0.993811 0.223390
O O15 0.836492 0.080197 0.159004
O O16 0.585947 0.205166 0.025121
#
# Coordination Sequence:
#
# PCOD9095468 Si02
#       8
#     2   2   2   2   2   2   2   2
#     4  10  20  37  57  82 103 137 188 240 264 293
#     4  11  24  34  54  81 122 142 167 218 270 349
#     4  11  20  37  53  84 113 144 177 213 268 324
#     4   9  17  29  56  72 103 138 177 219 252 312
#     4  12  22  37  56  84 106 146 180 217 289 313
#     4  10  20  37  60  79 101 139 184 248 261 297
#     4   9  17  33  47  79 104 137 174 213 268 304
#     4  10  20  35  58  77 109 140 183 238 253 297
#
# _framework density 28.040932000000002
#
# number of rings (size 3 to 8) (size 9 to 14) (size 15 to 20)
#    0.750    1.000    1.250    4.500    0.000    4.000 
#    0.000    3.750    0.000    0.000    0.000   17.500 
#    0.000    0.000    0.000    0.000    0.000    0.000 
#
# Total GULP energy -89685.644664 kJ/mol
# GULP energy per Si atom -5605.352792 kJ/mol
# Density = 2.797711 g / cm^3
# Si number density = 28.040932 Si / 1000 Ang^3
#
#
#
# Elastic Constant Matrix: (Units=GPa)
#
#
# Indices 1 2 3 4 5 6 
#
# 1 155.0788 33.7767 8.7287 3.7989 3.3868 -7.3227
# 2 33.7767 177.4916 0.5362 3.9587 1.0329 -18.3676
# 3 8.7287 0.5362 74.6450 -6.0995 -9.1578 -7.4765
# 4 3.7989 3.9587 -6.0995 26.7120 -6.6169 3.6939
# 5 3.3868 1.0329 -9.1578 -6.6169 40.7773 1.3227
# 6 -7.3227 -18.3676 -7.4765 3.6939 1.3227 61.6357
#
#
#
# Elastic Compliance Matrix: (Units=1/GPa)
#
#
# Indices 1 2 3 4 5 6 
#
# 1 0.006843 -0.001220 -0.000977 -0.001319 -0.000985 0.000431
# 2 -0.001220 0.006070 0.000165 -0.000988 -0.000232 0.001748
# 3 -0.000977 0.000165 0.014477 0.004216 0.003968 0.001351
# 4 -0.001319 -0.000988 0.004216 0.041025 0.007822 -0.002566
# 5 -0.000985 -0.000232 0.003968 0.007822 0.026796 -0.000749
# 6 0.000431 0.001748 0.001351 -0.002566 -0.000749 0.017130
#
#
# Mechanical properties :
#
#
# Convention : Reuss Voigt Hill
#
# Bulk Modulus (GPa) = 42.86962 54.81096 48.84029
# Shear Modulus (GPa) = 40.26418 50.10327 45.18372
#
# Velocity S-wave (km/s) = 3.79345 4.23163 4.01852
# Velocity P-wave (km/s) = 5.87439 6.59278 6.24393
#
# Compressibility (1/GPa) = 0.02332654
#
# Stress axis : x y z
#
# Youngs Moduli (GPa) = 146.13215 164.74636 69.07736
#
# Poissons Ratio (x) = 0.20091 0.06748
# Poissons Ratio (y) = 0.17821 -0.01139
# Poissons Ratio (z) = 0.14275 -0.02716
#
# Static dielectric constant tensor:
#      x y z
#    x 2.196810 -0.011930 0.010620 
#    y -0.011930 2.107320 -0.043720 
#    z 0.010620 -0.043720 2.292480 
# 
# From -- ./inp_files/455693.got.cif
#   From: 2010.05.17/outbox.cif.g08.bks.cpg/sg2_228_cif.got.tgz:455693.got - 2010.06.03 11:33:40.
