data_PCOD9095786
_publ_section_title
;
Structure prediction by ZEFSAII (Michael W. Deem and Ramdas Pophale) SiO2 
 PCOD9095786
Probable space group: P -1
;
_chemical_formula_sum "Si O2"
_cell_formula_units_Z 14
_cell_length_a 9.076928
_cell_length_b 10.635965
_cell_length_c 9.075108
_cell_angle_alpha 99.653449
_cell_angle_beta 134.638299
_cell_angle_gamma 59.988134
_cell_volume 515.263812
_symmetry_space_group_name_H-M "P -1"
_symmetry_group_IT_number 2
_symmetry_cell_setting 'triclinic'
loop_
_space_group_symop_operation_xyz
x,y,z
-x,-y,-z
loop_
_atom_site_type_symbol
_atom_site_label
_atom_site_fract_x
_atom_site_fract_y
_atom_site_fract_z
Si Si1 0.232453 0.878229 0.439741
Si Si2 0.686963 0.579086 0.615934
Si Si3 0.759367 0.992336 0.807289
Si Si4 0.609006 0.664231 0.891371
Si Si5 0.241309 0.290140 0.561768
Si Si6 0.261967 0.572448 0.661631
Si Si7 0.244315 0.126724 0.923276
O O1 0.403803 0.725129 0.432533
O O2 0.251049 0.001432 0.378135
O O3 0.382764 0.821459 0.686448
O O4 0.965883 0.904639 0.275116
O O5 0.738770 0.556811 0.819499
O O6 0.829648 0.644077 0.642712
O O7 0.707156 0.451275 0.499035
O O8 0.507536 0.138675 0.720670
O O9 0.779167 0.869994 0.912193
O O10 0.000000 0.000000 0.000000
O O11 0.470684 0.598350 0.865644
O O12 0.773663 0.715986 0.092806
O O13 0.270080 0.421052 0.681058
O O14 0.011831 0.290882 0.464420
O O15 0.500000 0.000000 0.000000
#
# Coordination Sequence:
#
# PCOD9095786 Si02
#       7
#     2   2   2   2   2   2   2
#     4   8  19  38  56  82 108 149 193 231 287 336
#     4   7  15  32  55  80 107 141 183 227 277 339
#     4   9  18  37  59  75 117 155 188 239 276 342
#     4  10  20  35  60  84 114 152 190 233 295 343
#     4   8  16  31  57  88 110 150 191 230 295 332
#     4   9  16  31  58  88 117 140 188 245 281 347
#     4  11  24  38  53  85 117 152 196 239 285 336
#
# _framework density 27.170546999999999
#
# number of rings (size 3 to 8) (size 9 to 14) (size 15 to 20)
#    1.714    1.429    0.000    0.429    2.000    1.143 
#    0.000    3.571    0.000    0.857    0.000    0.000 
#    0.000    0.000    0.000    0.000    0.000    0.000 
#
# Total GULP energy -78070.877147 kJ/mol
# GULP energy per Si atom -5576.491225 kJ/mol
# Density = 2.710871 g / cm^3
# Si number density = 27.170547 Si / 1000 Ang^3
#
#
#
# Elastic Constant Matrix: (Units=GPa)
#
#
# Indices 1 2 3 4 5 6 
#
# 1 183.9316 47.9379 44.7061 8.0114 28.4141 12.1981
# 2 47.9379 65.0834 26.4551 10.9233 9.7335 -15.9841
# 3 44.7061 26.4551 98.2191 7.6854 21.3703 -8.4603
# 4 8.0114 10.9233 7.6854 25.3106 2.6580 0.5055
# 5 28.4141 9.7335 21.3703 2.6580 51.5672 -11.7545
# 6 12.1981 -15.9841 -8.4603 0.5055 -11.7545 57.7754
#
#
#
# Elastic Compliance Matrix: (Units=1/GPa)
#
#
# Indices 1 2 3 4 5 6 
#
# 1 0.008288 -0.006089 -0.001781 0.001029 -0.003750 -0.004467
# 2 -0.006089 0.023984 -0.002865 -0.007951 0.002256 0.008030
# 3 -0.001781 -0.002865 0.012722 -0.001711 -0.003490 0.000751
# 4 0.001029 -0.007951 -0.001711 0.043342 -0.001348 -0.003321
# 5 -0.003750 0.002256 -0.003490 -0.001348 0.023864 0.005772
# 6 -0.004467 0.008030 0.000751 -0.003321 0.005772 0.021786
#
#
# Mechanical properties :
#
#
# Convention : Reuss Voigt Hill
#
# Bulk Modulus (GPa) = 42.51470 65.04804 53.78137
# Shear Modulus (GPa) = 30.61874 42.13964 36.37919
#
# Velocity S-wave (km/s) = 3.36059 3.94246 3.66310
# Velocity P-wave (km/s) = 5.54431 6.68705 6.14231
#
# Compressibility (1/GPa) = 0.02352128
#
# Stress axis : x y z
#
# Youngs Moduli (GPa) = 120.66218 41.69496 78.60414
#
# Poissons Ratio (x) = 0.25388 0.14003
# Poissons Ratio (y) = 0.73472 0.22524
# Poissons Ratio (z) = 0.21496 0.11947
#
# Static dielectric constant tensor:
#      x y z
#    x 2.172660 0.037190 -0.097440 
#    y 0.037190 2.193090 -0.065710 
#    z -0.097440 -0.065710 2.182750 
# 
# From -- ./inp_files/426556.got.cif
#   From: 2010.05.17/outbox.cif.g08.bks.cpg/sg2_214_cif.got.tgz:426556.got - 2010.06.03 11:33:40.
