data_PCOD9095025
_publ_section_title
;
Structure prediction by ZEFSAII (Michael W. Deem and Ramdas Pophale) SiO2 
 PCOD9095025
Probable space group: P -1
;
_chemical_formula_sum "Si O2"
_cell_formula_units_Z 16
_cell_length_a 12.561857
_cell_length_b 9.392060
_cell_length_c 10.142188
_cell_angle_alpha 49.353127
_cell_angle_beta 55.796762
_cell_angle_gamma 77.246428
_cell_volume 730.440685
_symmetry_space_group_name_H-M "P -1"
_symmetry_group_IT_number 2
_symmetry_cell_setting 'triclinic'
loop_
_space_group_symop_operation_xyz
x,y,z
-x,-y,-z
loop_
_atom_site_type_symbol
_atom_site_label
_atom_site_fract_x
_atom_site_fract_y
_atom_site_fract_z
Si Si1 0.199436 0.248679 0.971511
Si Si2 0.820879 0.824072 0.245899
Si Si3 0.056828 0.859013 0.230371
Si Si4 0.412787 0.337486 0.330729
Si Si5 0.258199 0.653767 0.173535
Si Si6 0.394708 0.959695 0.474602
Si Si7 0.557515 0.939146 0.132208
Si Si8 0.272056 0.592326 0.904831
O O1 0.164443 0.305349 0.813113
O O2 0.201749 0.412269 0.975862
O O3 0.344394 0.199754 0.885027
O O4 0.098977 0.039956 0.190538
O O5 0.668792 0.777387 0.420821
O O6 0.905513 0.798203 0.330228
O O7 0.875705 0.036299 0.016766
O O8 0.128662 0.689686 0.315429
O O9 0.344488 0.513885 0.253778
O O10 0.569918 0.405275 0.197817
O O11 0.379395 0.177890 0.333093
O O12 0.354717 0.865840 0.982656
O O13 0.221222 0.587388 0.090997
O O14 0.273059 0.798106 0.712192
O O15 0.500000 0.000000 0.500000
O O16 0.444531 0.874353 0.359580
O O17 0.500000 0.000000 0.000000
#
# Coordination Sequence:
#
# PCOD9095025 Si02
#       8
#     2   2   2   2   2   2   2   2
#     4   9  19  34  57  84 108 143 185 237 275 330
#     4   9  18  38  61  79 106 148 200 229 278 328
#     4   8  19  39  60  78 106 148 199 232 276 331
#     4  11  21  31  58  84 115 147 183 228 283 350
#     4  11  21  35  54  83 116 154 180 230 292 339
#     4  10  20  35  53  77 116 157 186 216 274 344
#     4  11  21  33  53  84 122 150 180 230 284 342
#     4  11  21  34  57  85 117 147 185 227 288 348
#
# _framework density 21.904585000000001
#
# number of rings (size 3 to 8) (size 9 to 14) (size 15 to 20)
#    0.750    1.250    2.500    3.375    1.750    3.500 
#    0.000    0.625    0.000    0.750    0.000    0.000 
#    0.000    0.000    0.000    0.000    0.000    0.000 
#
# Total GULP energy -89129.521660 kJ/mol
# GULP energy per Si atom -5570.595104 kJ/mol
# Density = 2.185473 g / cm^3
# Si number density = 21.904585 Si / 1000 Ang^3
#
#
#
# Elastic Constant Matrix: (Units=GPa)
#
#
# Indices 1 2 3 4 5 6 
#
# 1 61.1128 23.9360 -6.9482 -8.8007 -3.1995 8.7973
# 2 23.9360 97.5557 -2.6005 -20.2921 -5.2352 27.0841
# 3 -6.9482 -2.6005 21.4967 -0.2389 -0.5893 3.4845
# 4 -8.8007 -20.2921 -0.2389 25.6593 4.1626 9.8693
# 5 -3.1995 -5.2352 -0.5893 4.1626 17.2779 -4.6604
# 6 8.7973 27.0841 3.4845 9.8693 -4.6604 38.4821
#
#
#
# Elastic Compliance Matrix: (Units=1/GPa)
#
#
# Indices 1 2 3 4 5 6 
#
# 1 0.019821 -0.000956 0.007487 0.008792 -0.000324 -0.006830
# 2 -0.000956 0.023172 0.006660 0.028673 -0.006536 -0.024838
# 3 0.007487 0.006660 0.052296 0.014540 -0.002402 -0.015154
# 4 0.008792 0.028673 0.014540 0.087335 -0.023374 -0.048735
# 5 -0.000324 -0.006536 -0.002402 -0.023374 0.066495 0.018940
# 6 -0.006830 -0.024838 -0.015154 -0.048735 0.018940 0.061193
#
#
# Mechanical properties :
#
#
# Convention : Reuss Voigt Hill
#
# Bulk Modulus (GPa) = 8.21893 23.21553 15.71723
# Shear Modulus (GPa) = 15.40889 27.33574 21.37231
#
# Velocity S-wave (km/s) = 2.65515 3.53646 3.12701
# Velocity P-wave (km/s) = 3.62768 5.22464 4.49761
#
# Compressibility (1/GPa) = 0.12167036
#
# Stress axis : x y z
#
# Youngs Moduli (GPa) = 50.45101 43.15622 19.12175
#
# Poissons Ratio (x) = 0.04126 -0.14316
# Poissons Ratio (y) = 0.04824 -0.12734
# Poissons Ratio (z) = -0.37772 -0.28741
#
# Static dielectric constant tensor:
#      x y z
#    x 1.872830 -0.067860 0.014480 
#    y -0.067860 1.853230 -0.013010 
#    z 0.014480 -0.013010 1.873410 
# 
# From -- ./inp_files/445501.got.cif
#   From: 2010.05.17/outbox.cif.g08.bks.cpg/sg2_223_cif.got.tgz:445501.got - 2010.06.03 11:33:40.
