data_PCOD9095038
_publ_section_title
;
Structure prediction by ZEFSAII (Michael W. Deem and Ramdas Pophale) SiO2 
 PCOD9095038
Probable space group: P -1
;
_chemical_formula_sum "Si O2"
_cell_formula_units_Z 16
_cell_length_a 7.734551
_cell_length_b 9.246582
_cell_length_c 13.801430
_cell_angle_alpha 72.985368
_cell_angle_beta 95.067982
_cell_angle_gamma 50.266414
_cell_volume 673.026383
_symmetry_space_group_name_H-M "P -1"
_symmetry_group_IT_number 2
_symmetry_cell_setting 'triclinic'
loop_
_space_group_symop_operation_xyz
x,y,z
-x,-y,-z
loop_
_atom_site_type_symbol
_atom_site_label
_atom_site_fract_x
_atom_site_fract_y
_atom_site_fract_z
Si Si1 0.624963 0.365362 0.934150
Si Si2 0.393372 0.003020 0.336364
Si Si3 0.580931 0.529721 0.287860
Si Si4 0.049038 0.813737 0.485318
Si Si5 0.202665 0.283854 0.743722
Si Si6 0.926918 0.045834 0.740928
Si Si7 0.152595 0.053349 0.931162
Si Si8 0.249687 0.297688 0.434736
O O1 0.473052 0.524147 0.804074
O O2 0.911757 0.221985 0.952394
O O3 0.500000 0.500000 0.000000
O O4 0.635721 0.173257 0.963828
O O5 0.578331 0.905476 0.276311
O O6 0.140846 0.079979 0.276247
O O7 0.533467 0.806423 0.458383
O O8 0.350663 0.181635 0.359105
O O9 0.693207 0.384860 0.416097
O O10 0.749645 0.569058 0.263162
O O11 0.325475 0.748217 0.265974
O O12 0.018607 0.879609 0.360580
O O13 0.881139 0.773275 0.514057
O O14 0.000000 0.000000 0.500000
O O15 0.200145 0.183548 0.857976
O O16 0.944370 0.452868 0.641112
O O17 0.105282 0.970930 0.852260
#
# Coordination Sequence:
#
# PCOD9095038 Si02
#       8
#     2   2   2   2   2   2   2   2
#     4  10  23  43  65  86 115 148 197 250 291 346
#     4  10  20  35  53  81 120 161 191 238 282 346
#     4   9  22  39  59  86 115 158 194 234 299 349
#     4  11  20  33  56  88 120 151 194 239 282 342
#     4  10  21  38  58  80 120 150 191 243 291 345
#     4  10  20  37  58  84 119 156 195 241 284 344
#     4  10  23  41  62  91 112 153 199 241 295 345
#     4  10  21  35  51  82 122 159 198 228 289 341
#
# _framework density 23.773212999999998
#
# number of rings (size 3 to 8) (size 9 to 14) (size 15 to 20)
#    0.000    2.000    1.250    1.500    1.750    5.500 
#    0.000    0.625    0.000    0.000    0.000    0.000 
#    0.000    0.000    0.000    0.000    0.000    0.000 
#
# Total GULP energy -89334.276684 kJ/mol
# GULP energy per Si atom -5583.392293 kJ/mol
# Density = 2.371910 g / cm^3
# Si number density = 23.773213 Si / 1000 Ang^3
#
#
#
# Elastic Constant Matrix: (Units=GPa)
#
#
# Indices 1 2 3 4 5 6 
#
# 1 38.8179 19.8156 18.0777 -0.5737 -12.6468 -1.5773
# 2 19.8156 95.8721 17.1652 18.4741 -17.8245 -12.0169
# 3 18.0777 17.1652 90.8153 11.2714 -19.4694 -9.8331
# 4 -0.5737 18.4741 11.2714 44.0725 -0.5121 -1.0739
# 5 -12.6468 -17.8245 -19.4694 -0.5121 47.1411 2.6800
# 6 -1.5773 -12.0169 -9.8331 -1.0739 2.6800 24.5556
#
#
#
# Elastic Compliance Matrix: (Units=1/GPa)
#
#
# Indices 1 2 3 4 5 6 
#
# 1 0.032816 -0.006268 -0.005295 0.004378 0.004487 -0.003378
# 2 -0.006268 0.014195 0.000751 -0.006031 0.003578 0.006190
# 3 -0.005295 0.000751 0.013837 -0.003752 0.004256 0.004939
# 4 0.004378 -0.006031 -0.003752 0.026141 -0.002213 -0.002788
# 5 0.004487 0.003578 0.004256 -0.002213 0.025454 0.000869
# 6 -0.003378 0.006190 0.004939 -0.002788 0.000869 0.045298
#
#
# Mechanical properties :
#
#
# Convention : Reuss Voigt Hill
#
# Bulk Modulus (GPa) = 25.49491 37.29136 31.39313
# Shear Modulus (GPa) = 25.98236 34.51697 30.24967
#
# Velocity S-wave (km/s) = 3.30953 3.81455 3.57098
# Velocity P-wave (km/s) = 5.03503 5.92633 5.49877
#
# Compressibility (1/GPa) = 0.03922352
#
# Stress axis : x y z
#
# Youngs Moduli (GPa) = 30.47315 70.44720 72.27258
#
# Poissons Ratio (x) = 0.44153 0.38268
# Poissons Ratio (y) = 0.19099 -0.05425
# Poissons Ratio (z) = 0.16135 -0.05288
#
# Static dielectric constant tensor:
#      x y z
#    x 1.991840 0.016750 0.099760 
#    y 0.016750 1.923120 0.007120 
#    z 0.099760 0.007120 2.539250 
# 
# From -- ./inp_files/404789.got.cif
#   From: 2010.05.17/outbox.cif.g08.bks.cpg/sg2_203_cif.got.tgz:404789.got - 2010.06.03 11:33:40.
