data_PCOD9095701
_publ_section_title
;
Structure prediction by ZEFSAII (Michael W. Deem and Ramdas Pophale) SiO2 
 PCOD9095701
Probable space group: P -1
;
_chemical_formula_sum "Si O2"
_cell_formula_units_Z 12
_cell_length_a 10.622569
_cell_length_b 12.697962
_cell_length_c 10.130251
_cell_angle_alpha 113.500999
_cell_angle_beta 90.008578
_cell_angle_gamma 141.981002
_cell_volume 641.275801
_symmetry_space_group_name_H-M "P -1"
_symmetry_group_IT_number 2
_symmetry_cell_setting 'triclinic'
loop_
_space_group_symop_operation_xyz
x,y,z
-x,-y,-z
loop_
_atom_site_type_symbol
_atom_site_label
_atom_site_fract_x
_atom_site_fract_y
_atom_site_fract_z
Si Si1 0.365439 0.211474 0.855674
Si Si2 0.723114 0.998174 0.515605
Si Si3 0.276405 0.001325 0.016949
Si Si4 0.109940 0.260031 0.880085
Si Si5 0.723021 0.243359 0.514747
Si Si6 0.277203 0.756657 0.771401
O O1 0.233919 0.231998 0.866016
O O2 0.280685 0.076407 0.656928
O O3 0.280378 0.075969 0.918957
O O4 0.661339 0.469852 0.984958
O O5 0.734568 0.143701 0.560914
O O6 0.932914 0.132148 0.687821
O O7 0.445936 0.779577 0.463420
O O8 0.265198 0.855962 0.917001
O O9 0.066539 0.867371 0.055102
O O10 0.553463 0.219964 0.183538
O O11 0.634600 0.130320 0.315150
O O12 0.000204 0.499939 0.634317
#
# Coordination Sequence:
#
# PCOD9095701 Si02
#       6
#     2   2   2   2   2   2
#     4  11  24  41  61  86 118 157 200 242 285 343
#     4  11  21  40  60  88 117 155 194 240 296 347
#     4  11  21  40  60  88 117 155 194 240 296 347
#     4  11  24  41  61  86 118 157 200 242 285 343
#     4  10  20  35  59  88 117 149 190 241 294 351
#     4  10  20  35  59  88 117 149 190 241 294 351
#
# _framework density 18.712696999999999
#
# number of rings (size 3 to 8) (size 9 to 14) (size 15 to 20)
#    0.000    1.333    3.333    3.000    0.000    0.000 
#    0.000    5.000    0.000    8.000    0.000    0.000 
#    0.000    0.000    0.000    0.000    0.000    0.000 
#
# Total GULP energy -66802.218549 kJ/mol
# GULP energy per Si atom -5566.851546 kJ/mol
# Density = 1.867011 g / cm^3
# Si number density = 18.712697 Si / 1000 Ang^3
#
#
#
# Elastic Constant Matrix: (Units=GPa)
#
#
# Indices 1 2 3 4 5 6 
#
# 1 95.8270 44.6014 48.9342 -5.6802 12.5219 19.4071
# 2 44.6014 92.5649 60.9424 -8.5976 9.0550 20.8082
# 3 48.9342 60.9424 110.9461 -14.9328 14.7650 16.4110
# 4 -5.6802 -8.5976 -14.9328 27.0282 1.4277 -0.4140
# 5 12.5219 9.0550 14.7650 1.4277 23.9025 4.7916
# 6 19.4071 20.8082 16.4110 -0.4140 4.7916 28.0818
#
#
#
# Elastic Compliance Matrix: (Units=1/GPa)
#
#
# Indices 1 2 3 4 5 6 
#
# 1 0.015468 -0.003506 -0.003602 0.000247 -0.003484 -0.005388
# 2 -0.003506 0.019449 -0.008041 0.000848 0.000874 -0.007426
# 3 -0.003602 -0.008041 0.016636 0.006173 -0.005669 -0.000216
# 4 0.000247 0.000848 0.006173 0.041014 -0.006162 -0.002750
# 5 -0.003484 0.000874 -0.005669 -0.006162 0.047838 -0.003180
# 6 -0.005388 -0.007426 -0.000216 -0.002750 -0.003180 0.045465
#
#
# Mechanical properties :
#
#
# Convention : Reuss Voigt Hill
#
# Bulk Modulus (GPa) = 47.04867 67.58821 57.31844
# Shear Modulus (GPa) = 22.39604 25.45984 23.92794
#
# Velocity S-wave (km/s) = 3.46329 3.69259 3.57977
# Velocity P-wave (km/s) = 6.41792 7.37411 6.91257
#
# Compressibility (1/GPa) = 0.02125459
#
# Stress axis : x y z
#
# Youngs Moduli (GPa) = 64.64846 51.41655 60.11015
#
# Poissons Ratio (x) = 0.18029 0.21655
# Poissons Ratio (y) = 0.22668 0.48332
# Poissons Ratio (z) = 0.23289 0.41342
#
# Static dielectric constant tensor:
#      x y z
#    x 1.636840 0.040580 0.027500 
#    y 0.040580 1.802440 -0.016860 
#    z 0.027500 -0.016860 1.815490 
# 
# From -- ./inp_files/149363.got.cif
#   From: 2010.05.17/outbox.cif.g08.bks.cpg/sg2_75_cif.got.tgz:149363.got - 2010.06.03 11:33:40.
