data_PCOD9095390
_publ_section_title
;
Structure prediction by ZEFSAII (Michael W. Deem and Ramdas Pophale) SiO2 
 PCOD9095390
Probable space group: P -1
;
_chemical_formula_sum "Si O2"
_cell_formula_units_Z 16
_cell_length_a 14.356894
_cell_length_b 20.867470
_cell_length_c 12.500164
_cell_angle_alpha 30.423602
_cell_angle_beta 53.286020
_cell_angle_gamma 31.466077
_cell_volume 845.023937
_symmetry_space_group_name_H-M "P -1"
_symmetry_group_IT_number 2
_symmetry_cell_setting 'triclinic'
loop_
_space_group_symop_operation_xyz
x,y,z
-x,-y,-z
loop_
_atom_site_type_symbol
_atom_site_label
_atom_site_fract_x
_atom_site_fract_y
_atom_site_fract_z
Si Si1 0.232329 0.730090 0.108419
Si Si2 0.688852 0.253154 0.553486
Si Si3 0.484932 0.904242 0.779902
Si Si4 0.909878 0.941092 0.665480
Si Si5 0.211864 0.947028 0.002970
Si Si6 0.314266 0.031360 0.488352
Si Si7 0.141186 0.617853 0.796910
Si Si8 0.363692 0.735103 0.802688
O O1 0.457371 0.464745 0.357021
O O2 0.225674 0.853792 0.017981
O O3 0.218243 0.796380 0.901847
O O4 0.035126 0.820029 0.138884
O O5 0.822684 0.027533 0.720082
O O6 0.693191 0.217508 0.726541
O O7 0.780363 0.311858 0.388939
O O8 0.580485 0.952882 0.675502
O O9 0.336805 0.055346 0.560415
O O10 0.345779 0.952210 0.889526
O O11 0.681787 0.640357 0.987289
O O12 0.725741 0.111785 0.459348
O O13 0.000000 0.000000 0.500000
O O14 0.072400 0.694001 0.860004
O O15 0.073633 0.222499 0.347994
O O16 0.441827 0.784045 0.746333
O O17 0.500000 0.500000 0.000000
#
# Coordination Sequence:
#
# PCOD9095390 Si02
#       8
#     2   2   2   2   2   2   2   2
#     4  11  21  35  55  84 116 149 185 233 293 323
#     4  11  20  35  54  87 116 148 180 236 289 336
#     4  11  22  38  57  79 118 155 185 232 281 337
#     4   9  19  31  53  84 115 136 183 231 285 337
#     4  11  23  34  53  81 118 154 189 228 275 351
#     4  10  22  37  56  86 111 146 194 232 284 336
#     4  10  20  35  57  85 111 143 189 238 288 326
#     4  11  19  36  61  86 110 141 186 245 287 321
#
# _framework density 18.934374999999999
#
# number of rings (size 3 to 8) (size 9 to 14) (size 15 to 20)
#    0.000    1.500    3.750    3.000    3.500    0.000 
#    0.000    0.000    0.000    3.750    0.000    0.000 
#    0.000    0.000    0.000    0.000    0.000    0.000 
#
# Total GULP energy -89114.006604 kJ/mol
# GULP energy per Si atom -5569.625413 kJ/mol
# Density = 1.889128 g / cm^3
# Si number density = 18.934375 Si / 1000 Ang^3
#
#
#
# Elastic Constant Matrix: (Units=GPa)
#
#
# Indices 1 2 3 4 5 6 
#
# 1 58.8925 40.5926 22.9259 -7.0522 -0.8478 -16.3700
# 2 40.5926 110.8799 38.2808 1.4539 -13.5870 -11.1591
# 3 22.9259 38.2808 43.0911 -0.9912 -3.9617 -15.2132
# 4 -7.0522 1.4539 -0.9912 26.5306 -3.7860 6.3281
# 5 -0.8478 -13.5870 -3.9617 -3.7860 30.9148 3.5475
# 6 -16.3700 -11.1591 -15.2132 6.3281 3.5475 34.7648
#
#
#
# Elastic Compliance Matrix: (Units=1/GPa)
#
#
# Indices 1 2 3 4 5 6 
#
# 1 0.027002 -0.007962 -0.004873 0.005137 -0.003610 0.007460
# 2 -0.007962 0.016004 -0.010768 -0.001737 0.005634 -0.003583
# 3 -0.004873 -0.010768 0.039441 -0.002325 -0.001483 0.012083
# 4 0.005137 -0.001737 -0.002325 0.041500 0.004990 -0.007220
# 5 -0.003610 0.005634 -0.001483 0.004990 0.035730 -0.005095
# 6 0.007460 -0.003583 0.012083 -0.007220 -0.005095 0.038249
#
#
# Mechanical properties :
#
#
# Convention : Reuss Voigt Hill
#
# Bulk Modulus (GPa) = 28.37601 46.27358 37.32480
# Shear Modulus (GPa) = 19.46444 25.84630 22.65537
#
# Velocity S-wave (km/s) = 3.20971 3.69866 3.46283
# Velocity P-wave (km/s) = 5.36241 6.53698 5.97861
#
# Compressibility (1/GPa) = 0.03524103
#
# Stress axis : x y z
#
# Youngs Moduli (GPa) = 37.03496 62.48520 25.35405
#
# Poissons Ratio (x) = 0.49749 0.12354
# Poissons Ratio (y) = 0.29487 0.27302
# Poissons Ratio (z) = 0.18046 0.67286
#
# Static dielectric constant tensor:
#      x y z
#    x 1.654240 -0.013530 -0.016100 
#    y -0.013530 1.703320 -0.039440 
#    z -0.016100 -0.039440 1.678980 
# 
# From -- ./inp_files/431247.got.cif
#   From: 2010.05.17/outbox.cif.g08.bks.cpg/sg2_216_cif.got.tgz:431247.got - 2010.06.03 11:33:40.
