data_PCOD9095307
_publ_section_title
;
Structure prediction by ZEFSAII (Michael W. Deem and Ramdas Pophale) SiO2 
 PCOD9095307
Probable space group: P -1
;
_chemical_formula_sum "Si O2"
_cell_formula_units_Z 16
_cell_length_a 5.386353
_cell_length_b 28.835741
_cell_length_c 6.327860
_cell_angle_alpha 121.056237
_cell_angle_beta 97.691173
_cell_angle_gamma 52.792745
_cell_volume 647.328645
_symmetry_space_group_name_H-M "P -1"
_symmetry_group_IT_number 2
_symmetry_cell_setting 'triclinic'
loop_
_space_group_symop_operation_xyz
x,y,z
-x,-y,-z
loop_
_atom_site_type_symbol
_atom_site_label
_atom_site_fract_x
_atom_site_fract_y
_atom_site_fract_z
Si Si1 0.397756 0.570306 0.050785
Si Si2 0.144685 0.928385 0.466141
Si Si3 0.878241 0.373794 0.315696
Si Si4 0.213683 0.782960 0.442590
Si Si5 0.679579 0.928556 0.729363
Si Si6 0.716469 0.634628 0.198242
Si Si7 0.760039 0.581473 0.612684
Si Si8 0.675830 0.781306 0.160145
O O1 0.670681 0.578205 0.118918
O O2 0.033131 0.628329 0.226873
O O3 0.500000 0.500000 0.000000
O O4 0.314377 0.579604 0.810308
O O5 0.402400 0.921836 0.637757
O O6 0.387330 0.855403 0.193636
O O7 0.862503 0.931824 0.555924
O O8 0.000000 0.000000 0.500000
O O9 0.574414 0.394114 0.455486
O O10 0.060798 0.401657 0.480544
O O11 0.134619 0.291643 0.111591
O O12 0.413649 0.710876 0.421478
O O13 0.477782 0.779924 0.327327
O O14 0.978771 0.857034 0.707193
O O15 0.961142 0.783060 0.270343
O O16 0.500000 0.000000 0.000000
O O17 0.679983 0.629247 0.922299
O O18 0.000000 0.500000 0.500000
#
# Coordination Sequence:
#
# PCOD9095307 Si02
#       8
#     2   2   2   2   2   2   2   2
#     4  10  18  27  44  69  92 122 153 211 265 295
#     4  10  21  35  58  90 118 150 191 237 288 342
#     4  10  17  30  45  68  96 119 173 208 254 303
#     4  10  16  30  51  75 100 127 172 225 259 321
#     4  10  21  35  58  90 118 150 191 237 288 342
#     4  10  17  30  45  68  96 119 173 208 254 303
#     4  10  18  27  44  69  92 122 153 211 265 295
#     4  10  16  30  51  75 100 127 172 225 259 321
#
# _framework density 24.716965999999999
#
# number of rings (size 3 to 8) (size 9 to 14) (size 15 to 20)
#    0.000    2.000    5.000    1.500    0.000    0.000 
#    0.000    0.000    0.000    0.000   39.000    0.000 
#    0.000    0.000    0.000    0.000    0.000    0.000 
#
# Total GULP energy -89300.824560 kJ/mol
# GULP energy per Si atom -5581.301535 kJ/mol
# Density = 2.466071 g / cm^3
# Si number density = 24.716966 Si / 1000 Ang^3
#
#
#
# Elastic Constant Matrix: (Units=GPa)
#
#
# Indices 1 2 3 4 5 6 
#
# 1 182.6375 13.7264 24.0569 -2.1229 12.6118 -16.7172
# 2 13.7264 72.8368 25.4486 40.8805 -3.7227 -8.4764
# 3 24.0569 25.4486 91.7687 44.8233 -4.3406 -19.0287
# 4 -2.1229 40.8805 44.8233 59.5504 -5.4423 -7.5586
# 5 12.6118 -3.7227 -4.3406 -5.4423 48.2565 1.7816
# 6 -16.7172 -8.4764 -19.0287 -7.5586 1.7816 45.1477
#
#
#
# Elastic Compliance Matrix: (Units=1/GPa)
#
#
# Indices 1 2 3 4 5 6 
#
# 1 0.006300 -0.002344 -0.002666 0.003875 -0.001685 0.001484
# 2 -0.002344 0.023708 0.003662 -0.018815 0.000577 0.001954
# 3 -0.002666 0.003662 0.019958 -0.016902 0.000674 0.005256
# 4 0.003875 -0.018815 -0.016902 0.042375 0.000874 -0.002162
# 5 -0.001685 0.000577 0.000674 0.000874 0.021401 -0.000930
# 6 0.001484 0.001954 0.005256 -0.002162 -0.000930 0.024956
#
#
# Mechanical properties :
#
#
# Convention : Reuss Voigt Hill
#
# Bulk Modulus (GPa) = 21.15488 52.63410 36.89449
# Shear Modulus (GPa) = 31.81678 49.52499 40.67088
#
# Velocity S-wave (km/s) = 3.59171 4.48111 4.06083
# Velocity P-wave (km/s) = 5.07720 6.93648 6.07835
#
# Compressibility (1/GPa) = 0.04727042
#
# Stress axis : x y z
#
# Youngs Moduli (GPa) = 158.73298 42.17924 50.10579
#
# Poissons Ratio (x) = 0.09886 0.13358
# Poissons Ratio (y) = 0.37205 -0.18349
# Poissons Ratio (z) = 0.42318 -0.15446
#
# Static dielectric constant tensor:
#      x y z
#    x 2.128510 -0.085150 -0.170330 
#    y -0.085150 2.209870 0.003270 
#    z -0.170330 0.003270 2.263240 
# 
# From -- ./inp_files/143390.got.cif
#   From: 2010.05.17/outbox.cif.g08.bks.cpg/sg2_72_cif.got.tgz:143390.got - 2010.06.03 11:33:40.
