data_PCOD9095552
_publ_section_title
;
Structure prediction by ZEFSAII (Michael W. Deem and Ramdas Pophale) SiO2 
 PCOD9095552
Probable space group: P -1
;
_chemical_formula_sum "Si O2"
_cell_formula_units_Z 12
_cell_length_a 12.230692
_cell_length_b 13.964119
_cell_length_c 13.393004
_cell_angle_alpha 29.592617
_cell_angle_beta 24.147639
_cell_angle_gamma 38.630041
_cell_volume 461.248491
_symmetry_space_group_name_H-M "P -1"
_symmetry_group_IT_number 2
_symmetry_cell_setting 'triclinic'
loop_
_space_group_symop_operation_xyz
x,y,z
-x,-y,-z
loop_
_atom_site_type_symbol
_atom_site_label
_atom_site_fract_x
_atom_site_fract_y
_atom_site_fract_z
Si Si1 0.056651 0.702462 0.683691
Si Si2 0.386890 0.620656 0.650278
Si Si3 0.846044 0.158781 0.192328
Si Si4 0.115493 0.174388 0.673123
Si Si5 0.142847 0.480312 0.532251
Si Si6 0.775090 0.941491 0.874134
O O1 0.342330 0.664622 0.531167
O O2 0.903446 0.807234 0.805912
O O3 0.064646 0.848160 0.454276
O O4 0.881157 0.511222 0.979926
O O5 0.633764 0.501629 0.584773
O O6 0.348560 0.803443 0.587655
O O7 0.143606 0.135846 0.015176
O O8 0.747729 0.959456 0.400662
O O9 0.896129 0.343020 0.908679
O O10 0.923413 0.314708 0.645084
O O11 0.252788 0.340174 0.480293
O O12 0.000000 0.000000 0.000000
O O13 0.500000 0.000000 0.000000
#
# Coordination Sequence:
#
# PCOD9095552 Si02
#       6
#     2   2   2   2   2   2
#     4   9  21  37  53  88 130 147 197 242 275 353
#     4  10  21  38  59  88 121 161 190 239 296 342
#     4  10  22  37  60  91 116 152 204 238 285 358
#     4   9  21  42  60  88 118 146 201 252 288 355
#     4  10  21  41  64  83 119 157 191 247 303 338
#     4  10  20  35  58  87 118 161 195 235 290 341
#
# _framework density 26.016345999999999
#
# number of rings (size 3 to 8) (size 9 to 14) (size 15 to 20)
#    0.000    2.333    0.000    1.000    4.667    0.667 
#    6.000   12.500    0.000    0.000    0.000    0.000 
#    0.000    0.000    0.000    0.000    0.000    0.000 
#
# Total GULP energy -66958.780077 kJ/mol
# GULP energy per Si atom -5579.898340 kJ/mol
# Density = 2.595713 g / cm^3
# Si number density = 26.016346 Si / 1000 Ang^3
#
#
#
# Elastic Constant Matrix: (Units=GPa)
#
#
# Indices 1 2 3 4 5 6 
#
# 1 111.8530 45.4251 30.2559 -9.9012 12.6377 -26.5470
# 2 45.4251 121.9350 38.7760 -25.8576 6.4268 -5.8524
# 3 30.2559 38.7760 45.9718 -28.5470 24.7991 -22.7614
# 4 -9.9012 -25.8576 -28.5470 45.0225 -14.2433 -0.3385
# 5 12.6377 6.4268 24.7991 -14.2433 34.6982 -6.9158
# 6 -26.5470 -5.8524 -22.7614 -0.3385 -6.9158 64.9156
#
#
#
# Elastic Compliance Matrix: (Units=1/GPa)
#
#
# Indices 1 2 3 4 5 6 
#
# 1 0.012173 -0.003300 -0.005122 -0.002666 -0.000699 0.002796
# 2 -0.003300 0.014550 -0.019799 -0.001529 0.010868 -0.005830
# 3 -0.005122 -0.019799 0.107785 0.040526 -0.049108 0.028893
# 4 -0.002666 -0.001529 0.040526 0.044310 -0.007037 0.012463
# 5 -0.000699 0.010868 -0.049108 -0.007037 0.057184 -0.010469
# 6 0.002796 -0.005830 0.028893 0.012463 -0.010469 0.025103
#
#
# Mechanical properties :
#
#
# Convention : Reuss Voigt Hill
#
# Bulk Modulus (GPa) = 12.80973 56.51931 34.66452
# Shear Modulus (GPa) = 14.55312 39.94744 27.25028
#
# Velocity S-wave (km/s) = 2.36770 3.92276 3.23991
# Velocity P-wave (km/s) = 3.52265 6.50301 5.22964
#
# Compressibility (1/GPa) = 0.07806566
#
# Stress axis : x y z
#
# Youngs Moduli (GPa) = 82.15159 68.72874 9.27772
#
# Poissons Ratio (x) = 0.22683 0.04752
# Poissons Ratio (y) = 0.27113 0.18369
# Poissons Ratio (z) = 0.42074 1.36077
#
# Static dielectric constant tensor:
#      x y z
#    x 2.108860 0.003450 -0.015860 
#    y 0.003450 2.107180 0.066070 
#    z -0.015860 0.066070 2.175590 
# 
# From -- ./inp_files/37074.got.cif
#   From: 2010.05.17/outbox.cif.g08.bks.cpg/sg2_19_cif.got.tgz:37074.got - 2010.06.03 11:33:40.
