data_PCOD9095261
_publ_section_title
;
Structure prediction by ZEFSAII (Michael W. Deem and Ramdas Pophale) SiO2 
 PCOD9095261
Probable space group: P -1
;
_chemical_formula_sum "Si O2"
_cell_formula_units_Z 16
_cell_length_a 9.640929
_cell_length_b 19.313324
_cell_length_c 8.047763
_cell_angle_alpha 101.776140
_cell_angle_beta 31.666945
_cell_angle_gamma 96.400059
_cell_volume 764.448827
_symmetry_space_group_name_H-M "P -1"
_symmetry_group_IT_number 2
_symmetry_cell_setting 'triclinic'
loop_
_space_group_symop_operation_xyz
x,y,z
-x,-y,-z
loop_
_atom_site_type_symbol
_atom_site_label
_atom_site_fract_x
_atom_site_fract_y
_atom_site_fract_z
Si Si1 0.165806 0.424768 0.239754
Si Si2 0.082552 0.927818 0.775184
Si Si3 0.701736 0.213264 0.890091
Si Si4 0.743791 0.871178 0.835236
Si Si5 0.668155 0.122522 0.184286
Si Si6 0.780859 0.960624 0.533025
Si Si7 0.291866 0.626746 0.145580
Si Si8 0.757087 0.497610 0.123036
O O1 0.000000 0.500000 0.500000
O O2 0.955482 0.370118 0.471377
O O3 0.435212 0.407049 0.061242
O O4 0.243590 0.437928 0.977058
O O5 0.832619 0.895267 0.936841
O O6 0.249969 0.874882 0.705655
O O7 0.235324 0.959324 0.479684
O O8 0.000000 0.000000 0.000000
O O9 0.998103 0.179092 0.523560
O O10 0.672569 0.296354 0.923645
O O11 0.641563 0.192922 0.132581
O O12 0.497156 0.174558 0.968308
O O13 0.715155 0.940627 0.777806
O O14 0.408160 0.083037 0.406748
O O15 0.914408 0.073144 0.822773
O O16 0.226105 0.574242 0.038941
O O17 0.500000 0.500000 0.500000
O O18 0.000000 0.500000 0.000000
#
# Coordination Sequence:
#
# PCOD9095261 Si02
#       8
#     2   2   2   2   2   2   2   2
#     4  10  20  37  62  91 119 155 200 241 284 338
#     4  10  20  35  56  83 110 143 183 243 310 348
#     4  10  22  40  57  78 109 156 198 226 276 345
#     4  10  21  36  56  80 110 144 194 246 278 343
#     4   9  19  34  53  76 109 140 179 234 284 339
#     4   9  18  33  53  78 103 140 185 231 287 344
#     4  11  21  39  63  84 118 166 200 232 284 359
#     4  11  21  36  60  94 125 146 182 245 297 330
#
# _framework density 20.930112999999999
#
# number of rings (size 3 to 8) (size 9 to 14) (size 15 to 20)
#    0.000    2.000    0.000    5.250    0.000    4.000 
#    0.000   11.250    0.000    3.000    0.000    0.000 
#    0.000    0.000    0.000    0.000    0.000    0.000 
#
# Total GULP energy -89395.042452 kJ/mol
# GULP energy per Si atom -5587.190153 kJ/mol
# Density = 2.088247 g / cm^3
# Si number density = 20.930113 Si / 1000 Ang^3
#
#
#
# Elastic Constant Matrix: (Units=GPa)
#
#
# Indices 1 2 3 4 5 6 
#
# 1 163.7952 78.4556 38.9568 -13.2225 -19.0189 -22.0261
# 2 78.4556 136.7237 39.5141 -30.1529 -7.7287 -19.0954
# 3 38.9568 39.5141 110.7999 -19.5890 -8.6417 -4.5541
# 4 -13.2225 -30.1529 -19.5890 31.3469 -3.2600 2.2790
# 5 -19.0189 -7.7287 -8.6417 -3.2600 39.7728 -0.9090
# 6 -22.0261 -19.0954 -4.5541 2.2790 -0.9090 24.1158
#
#
#
# Elastic Compliance Matrix: (Units=1/GPa)
#
#
# Indices 1 2 3 4 5 6 
#
# 1 0.009575 -0.004386 -0.001526 -0.001158 0.003419 0.005222
# 2 -0.004386 0.013114 -0.001093 0.009816 0.001139 0.005287
# 3 -0.001526 -0.001093 0.011036 0.005442 0.001888 -0.000618
# 4 -0.001158 0.009816 0.005442 0.044635 0.006281 0.003761
# 5 0.003419 0.001139 0.001888 0.006281 0.028035 0.004844
# 6 0.005222 0.005287 -0.000618 0.003761 0.004844 0.050133
#
#
# Mechanical properties :
#
#
# Convention : Reuss Voigt Hill
#
# Bulk Modulus (GPa) = 50.72340 80.57463 65.64901
# Shear Modulus (GPa) = 28.23120 36.00658 32.11889
#
# Velocity S-wave (km/s) = 3.67663 4.15218 3.92162
# Velocity P-wave (km/s) = 6.50467 7.84653 7.20690
#
# Compressibility (1/GPa) = 0.01971477
#
# Stress axis : x y z
#
# Youngs Moduli (GPa) = 104.44229 76.25289 90.61591
#
# Poissons Ratio (x) = 0.33444 0.13825
# Poissons Ratio (y) = 0.45808 0.09907
# Poissons Ratio (z) = 0.15934 0.08337
#
# Static dielectric constant tensor:
#      x y z
#    x 1.781580 -0.035110 0.039450 
#    y -0.035110 1.737330 -0.008630 
#    z 0.039450 -0.008630 1.821880 
# 
# From -- ./inp_files/222128.got.cif
#   From: 2010.05.17/outbox.cif.g08.bks.cpg/sg2_112_cif.got.tgz:222128.got - 2010.06.03 11:33:40.
