data_PCOD9095153
_publ_section_title
;
Structure prediction by ZEFSAII (Michael W. Deem and Ramdas Pophale) SiO2 
 PCOD9095153
Probable space group: P -1
;
_chemical_formula_sum "Si O2"
_cell_formula_units_Z 14
_cell_length_a 32.701720
_cell_length_b 5.230720
_cell_length_c 12.299984
_cell_angle_alpha 73.610645
_cell_angle_beta 158.396577
_cell_angle_gamma 108.380770
_cell_volume 734.748756
_symmetry_space_group_name_H-M "P -1"
_symmetry_group_IT_number 2
_symmetry_cell_setting 'triclinic'
loop_
_space_group_symop_operation_xyz
x,y,z
-x,-y,-z
loop_
_atom_site_type_symbol
_atom_site_label
_atom_site_fract_x
_atom_site_fract_y
_atom_site_fract_z
Si Si1 0.315563 0.616523 0.306639
Si Si2 0.812397 0.473853 0.793986
Si Si3 0.304287 0.797739 0.647815
Si Si4 0.017312 0.876853 0.719568
Si Si5 0.188787 0.136696 0.934377
Si Si6 0.452688 0.356848 0.013524
Si Si7 0.908955 0.007798 0.865946
O O1 0.262730 0.457476 0.302085
O O2 0.446392 0.675290 0.650707
O O3 0.272387 0.412999 0.127807
O O4 0.258271 0.886757 0.128925
O O5 0.740692 0.218191 0.586749
O O6 0.838855 0.712327 0.745881
O O7 0.929521 0.397303 0.134130
O O8 0.614627 0.932407 0.151832
O O9 0.184581 0.798969 0.412146
O O10 0.373716 0.549451 0.852488
O O11 0.891727 0.858497 0.369011
O O12 0.098859 0.082806 0.818971
O O13 0.033332 0.928305 0.881235
O O14 0.500000 0.500000 0.000000
O O15 0.000000 0.000000 0.000000
#
# Coordination Sequence:
#
# PCOD9095153 Si02
#       7
#     2   2   2   2   2   2   2
#     4  11  21  33  56  83 117 152 187 224 284 343
#     4  10  20  35  55  82 120 144 191 229 286 346
#     4  11  22  36  52  81 117 149 187 232 280 347
#     4   9  21  33  56  80 117 152 187 229 287 335
#     4  10  21  35  54  84 116 153 183 231 278 345
#     4  12  22  33  56  81 117 156 188 228 292 339
#     4  11  22  39  60  86 117 153 194 239 285 339
#
# _framework density 19.054131000000002
#
# number of rings (size 3 to 8) (size 9 to 14) (size 15 to 20)
#    0.000    1.429    4.286    1.286    6.000    4.000 
#    0.000    0.000    0.000    0.000    0.000    6.000 
#    0.000    0.000    0.000    0.000    0.000    0.000 
#
# Total GULP energy -78029.567057 kJ/mol
# GULP energy per Si atom -5573.540504 kJ/mol
# Density = 1.901076 g / cm^3
# Si number density = 19.054131 Si / 1000 Ang^3
#
#
#
# Elastic Constant Matrix: (Units=GPa)
#
#
# Indices 1 2 3 4 5 6 
#
# 1 60.7629 22.9162 43.7082 0.0183 5.7702 -14.5211
# 2 22.9162 86.8969 58.1307 5.0052 -4.6050 -32.7500
# 3 43.7082 58.1307 192.0288 -7.7499 -13.8061 -25.8251
# 4 0.0183 5.0052 -7.7499 26.8488 -10.2320 -3.7028
# 5 5.7702 -4.6050 -13.8061 -10.2320 25.6905 0.5905
# 6 -14.5211 -32.7500 -25.8251 -3.7028 0.5905 21.2674
#
#
#
# Elastic Compliance Matrix: (Units=1/GPa)
#
#
# Indices 1 2 3 4 5 6 
#
# 1 0.023135 0.001108 -0.004924 -0.003675 -0.009364 0.011144
# 2 0.001108 0.029322 -0.003320 0.000246 0.002359 0.041856
# 3 -0.004924 -0.003320 0.008498 0.006324 0.007534 0.002736
# 4 -0.003675 0.000246 0.006324 0.049998 0.023869 0.013590
# 5 -0.009364 0.002359 0.007534 0.023869 0.054798 0.009021
# 6 0.011144 0.041856 0.002736 0.013590 0.009021 0.124522
#
#
# Mechanical properties :
#
#
# Convention : Reuss Voigt Hill
#
# Bulk Modulus (GPa) = 21.42081 65.46654 43.44367
# Shear Modulus (GPa) = 15.61975 29.09026 22.35500
#
# Velocity S-wave (km/s) = 2.86625 3.91156 3.42897
# Velocity P-wave (km/s) = 4.71384 7.40494 6.20699
#
# Compressibility (1/GPa) = 0.04668358
#
# Stress axis : x y z
#
# Youngs Moduli (GPa) = 43.22467 34.10360 117.67083
#
# Poissons Ratio (x) = -0.03780 0.57944
# Poissons Ratio (y) = -0.04791 0.39068
# Poissons Ratio (z) = 0.21285 0.11323
#
# Static dielectric constant tensor:
#      x y z
#    x 1.656410 -0.029360 -0.010570 
#    y -0.029360 1.734500 -0.005480 
#    z -0.010570 -0.005480 1.721130 
# 
# From -- ./inp_files/477354.got.cif
#   From: 2010.05.17/outbox.cif.g08.bks.cpg/sg2_239_cif.got.tgz:477354.got - 2010.06.03 11:33:40.
