data_PCOD9095765
_publ_section_title
;
Structure prediction by ZEFSAII (Michael W. Deem and Ramdas Pophale) SiO2 
 PCOD9095765
Probable space group: P -1
;
_chemical_formula_sum "Si O2"
_cell_formula_units_Z 16
_cell_length_a 9.697646
_cell_length_b 10.837476
_cell_length_c 10.744253
_cell_angle_alpha 126.101341
_cell_angle_beta 54.203090
_cell_angle_gamma 110.640779
_cell_volume 739.962709
_symmetry_space_group_name_H-M "P -1"
_symmetry_group_IT_number 2
_symmetry_cell_setting 'triclinic'
loop_
_space_group_symop_operation_xyz
x,y,z
-x,-y,-z
loop_
_atom_site_type_symbol
_atom_site_label
_atom_site_fract_x
_atom_site_fract_y
_atom_site_fract_z
Si Si1 0.608705 0.531971 0.109473
Si Si2 0.788469 0.782669 0.996678
Si Si3 0.537159 0.193640 0.988479
Si Si4 0.668389 0.569816 0.387413
Si Si5 0.446668 0.137474 0.285973
Si Si6 0.657243 0.066353 0.374171
Si Si7 0.061540 0.558000 0.678624
Si Si8 0.232241 0.631010 0.384319
O O1 0.723043 0.641834 0.031645
O O2 0.627762 0.349524 0.991292
O O3 0.637660 0.581491 0.265570
O O4 0.413042 0.571931 0.207448
O O5 0.774580 0.932002 0.178777
O O6 0.654126 0.802495 0.966618
O O7 0.969048 0.721502 0.819449
O O8 0.527832 0.181505 0.135627
O O9 0.613290 0.037783 0.801639
O O10 0.500000 0.500000 0.500000
O O11 0.692052 0.737223 0.534106
O O12 0.828715 0.466742 0.272160
O O13 0.577107 0.141776 0.336309
O O14 0.748265 0.191963 0.486689
O O15 0.500000 0.000000 0.500000
O O16 0.189690 0.548432 0.489046
O O17 0.921272 0.425118 0.653952
#
# Coordination Sequence:
#
# PCOD9095765 Si02
#       8
#     2   2   2   2   2   2   2   2
#     4  12  21  40  69  93 124 176 222 258 323 393
#     4  11  24  39  65 100 131 164 221 270 326 376
#     4  10  21  35  59  94 130 160 213 269 313 382
#     4  12  21  40  65  88 127 175 219 259 319 398
#     4  10  20  35  59  95 122 165 216 258 316 378
#     4  11  21  41  69  98 129 172 219 268 317 397
#     4  11  25  39  62 100 135 167 216 272 326 382
#     4  11  22  40  64  97 128 172 217 258 326 390
#
# _framework density 21.622713999999998
#
# number of rings (size 3 to 8) (size 9 to 14) (size 15 to 20)
#    0.000    1.000    6.250    0.375    1.750    1.000 
#    0.000    1.250    0.000    3.750    0.000    0.000 
#    0.000    0.000    0.000    0.000    0.000    0.000 
#
# Total GULP energy -89436.887519 kJ/mol
# GULP energy per Si atom -5589.805470 kJ/mol
# Density = 2.157350 g / cm^3
# Si number density = 21.622714 Si / 1000 Ang^3
#
#
#
# Elastic Constant Matrix: (Units=GPa)
#
#
# Indices 1 2 3 4 5 6 
#
# 1 68.4806 19.2496 10.8364 -0.1696 12.9167 -9.8541
# 2 19.2496 93.4084 32.0291 14.9124 4.9446 -3.1898
# 3 10.8364 32.0291 79.0004 27.6406 7.9758 0.3556
# 4 -0.1696 14.9124 27.6406 51.1107 -2.8675 9.2600
# 5 12.9167 4.9446 7.9758 -2.8675 28.7414 -0.6699
# 6 -9.8541 -3.1898 0.3556 9.2600 -0.6699 31.8391
#
#
#
# Elastic Compliance Matrix: (Units=1/GPa)
#
#
# Indices 1 2 3 4 5 6 
#
# 1 0.017565 -0.002876 -0.000489 -0.000154 -0.007161 0.005048
# 2 -0.002876 0.013078 -0.004350 -0.001639 0.000108 0.000948
# 3 -0.000489 -0.004350 0.018188 -0.009168 -0.004953 0.001772
# 4 -0.000154 -0.001639 -0.009168 0.026709 0.005379 -0.007764
# 5 -0.007161 0.000108 -0.004953 0.005379 0.039837 -0.002876
# 6 0.005048 0.000948 0.001772 -0.007764 -0.002876 0.035243
#
#
# Mechanical properties :
#
#
# Convention : Reuss Voigt Hill
#
# Bulk Modulus (GPa) = 29.93816 40.56884 35.25350
# Shear Modulus (GPa) = 28.21925 34.25653 31.23789
#
# Velocity S-wave (km/s) = 3.61650 3.98463 3.80502
# Velocity P-wave (km/s) = 5.59594 6.32238 5.97022
#
# Compressibility (1/GPa) = 0.03340219
#
# Stress axis : x y z
#
# Youngs Moduli (GPa) = 56.93062 76.46408 54.98050
#
# Poissons Ratio (x) = 0.21991 0.02689
# Poissons Ratio (y) = 0.16373 0.23914
# Poissons Ratio (z) = 0.02784 0.33259
#
# Static dielectric constant tensor:
#      x y z
#    x 1.767540 0.002430 0.002310 
#    y 0.002430 1.801980 0.025130 
#    z 0.002310 0.025130 1.816620 
# 
# From -- ./inp_files/393010.got.cif
#   From: 2010.05.17/outbox.cif.g08.bks.cpg/sg2_197_cif.got.tgz:393010.got - 2010.06.03 11:33:40.
