data_PCOD9095408
_publ_section_title
;
Structure prediction by ZEFSAII (Michael W. Deem and Ramdas Pophale) SiO2 
 PCOD9095408
Probable space group: P -1
;
_chemical_formula_sum "Si O2"
_cell_formula_units_Z 16
_cell_length_a 11.271094
_cell_length_b 14.760062
_cell_length_c 7.575692
_cell_angle_alpha 41.122692
_cell_angle_beta 59.052114
_cell_angle_gamma 73.509530
_cell_volume 698.790376
_symmetry_space_group_name_H-M "P -1"
_symmetry_group_IT_number 2
_symmetry_cell_setting 'triclinic'
loop_
_space_group_symop_operation_xyz
x,y,z
-x,-y,-z
loop_
_atom_site_type_symbol
_atom_site_label
_atom_site_fract_x
_atom_site_fract_y
_atom_site_fract_z
Si Si1 0.149465 0.758620 0.578107
Si Si2 0.367011 0.585531 0.558719
Si Si3 0.724389 0.766655 0.508024
Si Si4 0.144450 0.991988 0.497274
Si Si5 0.823340 0.696943 0.906047
Si Si6 0.805695 0.077474 0.056406
Si Si7 0.608949 0.529381 0.712441
Si Si8 0.423644 0.760095 0.927995
O O1 0.252472 0.647783 0.669328
O O2 0.208813 0.886099 0.478742
O O3 0.985367 0.700830 0.828111
O O4 0.147516 0.812646 0.296713
O O5 0.494035 0.543372 0.630414
O O6 0.726354 0.553806 0.253122
O O7 0.435103 0.710825 0.192962
O O8 0.800709 0.699479 0.707181
O O9 0.711562 0.670415 0.486086
O O10 0.569442 0.778991 0.685086
O O11 0.796446 0.926716 0.195047
O O12 0.114878 0.930416 0.807743
O O13 0.218245 0.154804 0.221565
O O14 0.000000 0.000000 0.500000
O O15 0.657685 0.112096 0.191075
O O16 0.500000 0.500000 0.000000
O O17 0.668986 0.385496 0.861940
#
# Coordination Sequence:
#
# PCOD9095408 Si02
#       8
#     2   2   2   2   2   2   2   2
#     4  10  23  40  61  89 116 156 195 241 292 342
#     4  11  21  38  60  85 118 154 193 241 290 345
#     4  10  21  37  59  86 114 154 191 239 295 340
#     4   9  21  38  61  85 115 154 194 238 286 341
#     4  10  20  38  61  84 118 153 193 238 291 346
#     4  10  22  40  61  86 121 152 193 244 292 343
#     4  10  20  35  57  86 116 153 194 235 291 345
#     4  10  21  37  57  85 118 154 189 239 293 342
#
# _framework density 22.896708
#
# number of rings (size 3 to 8) (size 9 to 14) (size 15 to 20)
#    0.000    2.000    2.500    1.125    3.500    5.500 
#    2.250    2.500    0.000    8.250    0.000    0.000 
#    0.000    0.000    0.000    0.000    0.000    0.000 
#
# Total GULP energy -89250.228244 kJ/mol
# GULP energy per Si atom -5578.139265 kJ/mol
# Density = 2.284459 g / cm^3
# Si number density = 22.896708 Si / 1000 Ang^3
#
#
#
# Elastic Constant Matrix: (Units=GPa)
#
#
# Indices 1 2 3 4 5 6 
#
# 1 69.0102 30.7638 11.6119 -6.8847 -4.5775 16.0450
# 2 30.7638 114.7346 6.9845 -25.5116 -17.7875 3.7576
# 3 11.6119 6.9845 52.5003 -4.3000 1.5477 -2.1819
# 4 -6.8847 -25.5116 -4.3000 32.9220 -0.7185 -1.0478
# 5 -4.5775 -17.7875 1.5477 -0.7185 15.0932 6.7769
# 6 16.0450 3.7576 -2.1819 -1.0478 6.7769 37.5452
#
#
#
# Elastic Compliance Matrix: (Units=1/GPa)
#
#
# Indices 1 2 3 4 5 6 
#
# 1 0.019455 -0.003505 -0.004365 0.000625 0.006452 -0.009364
# 2 -0.003505 0.015285 -0.001028 0.011290 0.019036 -0.003213
# 3 -0.004365 -0.001028 0.020605 0.000978 -0.006568 0.004379
# 4 0.000625 0.011290 0.000978 0.039644 0.016745 -0.003256
# 5 0.006452 0.019036 -0.006568 0.016745 0.102477 -0.023074
# 6 -0.009364 -0.003213 0.004379 -0.003256 -0.023074 0.035286
#
#
# Mechanical properties :
#
#
# Convention : Reuss Voigt Hill
#
# Bulk Modulus (GPa) = 26.63155 37.21839 31.92497
# Shear Modulus (GPa) = 19.00672 29.57108 24.28890
#
# Velocity S-wave (km/s) = 2.88428 3.59764 3.26053
# Velocity P-wave (km/s) = 4.76954 5.79203 5.30547
#
# Compressibility (1/GPa) = 0.03754945
#
# Stress axis : x y z
#
# Youngs Moduli (GPa) = 51.40075 65.42369 48.53093
#
# Poissons Ratio (x) = 0.22930 0.21183
# Poissons Ratio (y) = 0.18015 0.04990
# Poissons Ratio (z) = 0.22436 0.06727
#
# Static dielectric constant tensor:
#      x y z
#    x 1.876480 0.081820 -0.012760 
#    y 0.081820 2.014630 0.057990 
#    z -0.012760 0.057990 1.907710 
# 
# From -- ./inp_files/277219.got.cif
#   From: 2010.05.17/outbox.cif.g08.bks.cpg/sg2_139_cif.got.tgz:277219.got - 2010.06.03 11:33:40.
