data_PCOD9095655
_publ_section_title
;
Structure prediction by ZEFSAII (Michael W. Deem and Ramdas Pophale) SiO2 
 PCOD9095655
Probable space group: P -1
;
_chemical_formula_sum "Si O2"
_cell_formula_units_Z 14
_cell_length_a 8.894826
_cell_length_b 21.941225
_cell_length_c 8.834071
_cell_angle_alpha 60.287142
_cell_angle_beta 98.969677
_cell_angle_gamma 48.666805
_cell_volume 754.999650
_symmetry_space_group_name_H-M "P -1"
_symmetry_group_IT_number 2
_symmetry_cell_setting 'triclinic'
loop_
_space_group_symop_operation_xyz
x,y,z
-x,-y,-z
loop_
_atom_site_type_symbol
_atom_site_label
_atom_site_fract_x
_atom_site_fract_y
_atom_site_fract_z
Si Si1 0.493106 0.690721 0.008812
Si Si2 0.356853 0.168460 0.516026
Si Si3 0.877174 0.885487 0.521006
Si Si4 0.678242 0.096940 0.381171
Si Si5 0.947084 0.573663 0.759974
Si Si6 0.361889 0.790018 0.199868
Si Si7 0.207518 0.011911 0.933469
O O1 0.433487 0.720950 0.141196
O O2 0.781643 0.537343 0.179507
O O3 0.533818 0.755648 0.881448
O O4 0.199621 0.773973 0.781627
O O5 0.227070 0.152591 0.430541
O O6 0.614058 0.105787 0.535269
O O7 0.108303 0.325645 0.313074
O O8 0.508951 0.083388 0.800396
O O9 0.870773 0.907494 0.316637
O O10 0.655362 0.030895 0.379818
O O11 0.000000 0.000000 0.500000
O O12 0.645289 0.674844 0.497137
O O13 0.000000 0.500000 0.000000
O O14 0.077090 0.875399 0.140381
O O15 0.279905 0.904535 0.015191
#
# Coordination Sequence:
#
# PCOD9095655 Si02
#       7
#     2   2   2   2   2   2   2
#     4  11  21  38  59  85 118 156 195 233 283 343
#     4  11  23  38  57  90 120 152 188 237 300 342
#     4  11  22  36  61  87 121 151 185 244 295 345
#     4  10  20  35  59  85 112 149 191 236 285 339
#     4  11  22  38  61  84 115 155 200 236 278 346
#     4  10  21  35  61  88 112 151 198 247 280 333
#     4  10  20  35  59  88 117 147 195 244 292 335
#
# _framework density 18.543054000000001
#
# number of rings (size 3 to 8) (size 9 to 14) (size 15 to 20)
#    0.000    1.429    2.857    3.857    8.000    0.571 
#    0.000    0.000    0.000    1.714    0.000    0.000 
#    0.000    0.000    0.000    0.000    0.000    0.000 
#
# Total GULP energy -78096.925460 kJ/mol
# GULP energy per Si atom -5578.351819 kJ/mol
# Density = 1.850085 g / cm^3
# Si number density = 18.543054 Si / 1000 Ang^3
#
#
#
# Elastic Constant Matrix: (Units=GPa)
#
#
# Indices 1 2 3 4 5 6 
#
# 1 74.9887 59.4401 44.9310 -9.7440 -0.1346 14.5891
# 2 59.4401 130.6655 36.0361 -5.3515 -1.6535 -1.1799
# 3 44.9310 36.0361 87.8363 4.9798 -1.6715 1.2459
# 4 -9.7440 -5.3515 4.9798 28.8763 -4.2348 -2.4947
# 5 -0.1346 -1.6535 -1.6715 -4.2348 16.3829 3.9853
# 6 14.5891 -1.1799 1.2459 -2.4947 3.9853 32.0929
#
#
#
# Elastic Compliance Matrix: (Units=1/GPa)
#
#
# Indices 1 2 3 4 5 6 
#
# 1 0.035611 -0.012066 -0.013605 0.011421 0.004476 -0.015772
# 2 -0.012066 0.012892 0.000869 -0.001398 -0.000501 0.005879
# 3 -0.013605 0.000869 0.018306 -0.007336 -0.001292 0.005096
# 4 0.011421 -0.001398 -0.007336 0.040762 0.010493 -0.003093
# 5 0.004476 -0.000501 -0.001292 0.010493 0.065885 -0.009369
# 6 -0.015772 0.005879 0.005096 -0.003093 -0.009369 0.039271
#
#
# Mechanical properties :
#
#
# Convention : Reuss Voigt Hill
#
# Bulk Modulus (GPa) = 58.11543 63.81165 60.96354
# Shear Modulus (GPa) = 18.65218 25.67597 22.16408
#
# Velocity S-wave (km/s) = 3.17501 3.72515 3.46103
# Velocity P-wave (km/s) = 6.69700 7.27940 6.99427
#
# Compressibility (1/GPa) = 0.01720713
#
# Stress axis : x y z
#
# Youngs Moduli (GPa) = 28.08092 77.56983 54.62562
#
# Poissons Ratio (x) = 0.93594 0.74317
# Poissons Ratio (y) = 0.33882 -0.04749
# Poissons Ratio (z) = 0.38203 -0.06744
#
# Static dielectric constant tensor:
#      x y z
#    x 1.644720 0.002940 -0.004270 
#    y 0.002940 1.668700 0.011970 
#    z -0.004270 0.011970 1.651180 
# 
# From -- ./inp_files/169713.got.cif
#   From: 2010.05.17/outbox.cif.g08.bks.cpg/sg2_85_cif.got.tgz:169713.got - 2010.06.03 11:33:40.
