data_PCOD9095553
_publ_section_title
;
Structure prediction by ZEFSAII (Michael W. Deem and Ramdas Pophale) SiO2 
 PCOD9095553
Probable space group: P -1
;
_chemical_formula_sum "Si O2"
_cell_formula_units_Z 12
_cell_length_a 7.216882
_cell_length_b 14.404736
_cell_length_c 8.010095
_cell_angle_alpha 92.029889
_cell_angle_beta 68.873363
_cell_angle_gamma 140.672111
_cell_volume 448.608251
_symmetry_space_group_name_H-M "P -1"
_symmetry_group_IT_number 2
_symmetry_cell_setting 'triclinic'
loop_
_space_group_symop_operation_xyz
x,y,z
-x,-y,-z
loop_
_atom_site_type_symbol
_atom_site_label
_atom_site_fract_x
_atom_site_fract_y
_atom_site_fract_z
Si Si1 0.166710 0.506494 0.795784
Si Si2 0.280532 0.281882 0.933828
Si Si3 0.503288 0.824593 0.180954
Si Si4 0.764103 0.612610 0.739254
Si Si5 0.234381 0.181751 0.601711
Si Si6 0.686020 0.076760 0.620707
O O1 0.392563 0.511348 0.805129
O O2 0.453319 0.672993 0.611221
O O3 0.872362 0.350955 0.766732
O O4 0.000000 0.500000 0.000000
O O5 0.277830 0.172346 0.986781
O O6 0.676027 0.472576 0.797361
O O7 0.172317 0.234072 0.773458
O O8 0.122320 0.287643 0.125775
O O9 0.619395 0.845478 0.334455
O O10 0.524408 0.944049 0.174617
O O11 0.004065 0.734625 0.519249
O O12 0.870342 0.051513 0.615751
O O13 0.500000 0.000000 0.500000
#
# Coordination Sequence:
#
# PCOD9095553 Si02
#       6
#     2   2   2   2   2   2
#     4  11  18  31  57  91 116 141 175 232 299 337
#     4   9  19  36  58  88 112 139 178 242 293 321
#     4  10  21  36  59  82 116 144 183 229 288 334
#     4  10  20  35  58  87 120 139 186 232 278 345
#     4   9  21  36  56  82 113 143 189 233 276 332
#     4  11  24  40  57  78 114 161 192 223 270 328
#
# _framework density 26.749395
#
# number of rings (size 3 to 8) (size 9 to 14) (size 15 to 20)
#    1.000    1.000    1.667    2.500    2.333    3.333 
#    0.000    1.667    0.000    0.000    0.000    0.000 
#    0.000    0.000    0.000    0.000    0.000    0.000 
#
# Total GULP energy -66921.110651 kJ/mol
# GULP energy per Si atom -5576.759221 kJ/mol
# Density = 2.668851 g / cm^3
# Si number density = 26.749395 Si / 1000 Ang^3
#
#
#
# Elastic Constant Matrix: (Units=GPa)
#
#
# Indices 1 2 3 4 5 6 
#
# 1 118.8321 44.8089 33.3485 13.3824 -4.6747 24.2218
# 2 44.8089 83.9219 30.1320 10.5807 -2.6161 21.0344
# 3 33.3485 30.1320 118.5701 -6.4815 -9.0905 4.1268
# 4 13.3824 10.5807 -6.4815 43.2513 -7.8386 10.1846
# 5 -4.6747 -2.6161 -9.0905 -7.8386 39.3616 5.9582
# 6 24.2218 21.0344 4.1268 10.1846 5.9582 45.1920
#
#
#
# Elastic Compliance Matrix: (Units=1/GPa)
#
#
# Indices 1 2 3 4 5 6 
#
# 1 0.011607 -0.004251 -0.002092 -0.001835 0.000814 -0.003745
# 2 -0.004251 0.016726 -0.002982 -0.002049 0.000237 -0.004804
# 3 -0.002092 -0.002982 0.010125 0.003211 0.002450 0.000538
# 4 -0.001835 -0.002049 0.003211 0.027124 0.006597 -0.005338
# 5 0.000814 0.000237 0.002450 0.006597 0.028304 -0.005989
# 6 -0.003745 -0.004804 0.000538 -0.005338 -0.005989 0.028315
#
#
# Mechanical properties :
#
#
# Convention : Reuss Voigt Hill
#
# Bulk Modulus (GPa) = 50.48216 59.76701 55.12458
# Shear Modulus (GPa) = 33.90936 39.76330 36.83633
#
# Velocity S-wave (km/s) = 3.56430 3.85971 3.71494
# Velocity P-wave (km/s) = 5.98767 6.50039 6.24929
#
# Compressibility (1/GPa) = 0.01980898
#
# Stress axis : x y z
#
# Youngs Moduli (GPa) = 86.15186 59.78765 98.77022
#
# Poissons Ratio (x) = 0.25416 0.20662
# Poissons Ratio (y) = 0.36623 0.29448
# Poissons Ratio (z) = 0.18022 0.17826
#
# Static dielectric constant tensor:
#      x y z
#    x 2.167440 0.022670 -0.081400 
#    y 0.022670 2.167080 -0.033860 
#    z -0.081400 -0.033860 2.108820 
# 
# From -- ./inp_files/146018.got.cif
#   From: 2010.05.17/outbox.cif.g08.bks.cpg/sg2_74_cif.got.tgz:146018.got - 2010.06.03 11:33:40.
