data_PCOD9095394
_publ_section_title
;
Structure prediction by ZEFSAII (Michael W. Deem and Ramdas Pophale) SiO2 
 PCOD9095394
Probable space group: P -1
;
_chemical_formula_sum "Si O2"
_cell_formula_units_Z 12
_cell_length_a 11.892318
_cell_length_b 8.879293
_cell_length_c 8.249197
_cell_angle_alpha 107.715053
_cell_angle_beta 102.839989
_cell_angle_gamma 32.911954
_cell_volume 449.926745
_symmetry_space_group_name_H-M "P -1"
_symmetry_group_IT_number 2
_symmetry_cell_setting 'triclinic'
loop_
_space_group_symop_operation_xyz
x,y,z
-x,-y,-z
loop_
_atom_site_type_symbol
_atom_site_label
_atom_site_fract_x
_atom_site_fract_y
_atom_site_fract_z
Si Si1 0.908670 0.795635 0.667962
Si Si2 0.238481 0.754916 0.042800
Si Si3 0.464620 0.798417 0.837670
Si Si4 0.639567 0.566234 0.332022
Si Si5 0.346104 0.120818 0.231923
Si Si6 0.790444 0.132210 0.439756
O O1 0.142857 0.588192 0.662224
O O2 0.786806 0.036970 0.844133
O O3 0.880809 0.650970 0.684932
O O4 0.800609 0.993799 0.541140
O O5 0.342830 0.529835 0.143433
O O6 0.358700 0.560301 0.859441
O O7 0.000000 0.000000 0.000000
O O8 0.272426 0.915413 0.743934
O O9 0.568157 0.802356 0.744809
O O10 0.382938 0.996914 0.027943
O O11 0.478278 0.883126 0.335593
O O12 0.637598 0.453383 0.450133
O O13 0.000000 0.000000 0.500000
#
# Coordination Sequence:
#
# PCOD9095394 Si02
#       6
#     2   2   2   2   2   2
#     4  10  20  35  57  85 114 151 194 234 284 343
#     4   9  18  35  59  84 109 146 196 240 280 333
#     4  10  21  38  58  85 119 152 189 238 291 342
#     4   9  19  37  57  83 115 149 194 240 282 335
#     4  10  21  38  60  84 117 154 189 236 293 346
#     4  10  21  37  57  85 117 151 195 239 282 338
#
# _framework density 26.671009000000002
#
# number of rings (size 3 to 8) (size 9 to 14) (size 15 to 20)
#    0.000    2.333    0.000    2.000    0.000    7.333 
#    0.000   21.667    0.000    0.000    0.000    0.000 
#    0.000    0.000    0.000    0.000    0.000    0.000 
#
# Total GULP energy -66902.946539 kJ/mol
# GULP energy per Si atom -5575.245545 kJ/mol
# Density = 2.661030 g / cm^3
# Si number density = 26.671009 Si / 1000 Ang^3
#
#
#
# Elastic Constant Matrix: (Units=GPa)
#
#
# Indices 1 2 3 4 5 6 
#
# 1 227.8111 42.3265 67.5529 -32.4431 -22.5201 24.7362
# 2 42.3265 51.7534 24.0780 -22.1151 12.5292 3.5629
# 3 67.5529 24.0780 127.2597 -12.7234 24.4674 23.4470
# 4 -32.4431 -22.1151 -12.7234 47.6910 12.9772 5.8885
# 5 -22.5201 12.5292 24.4674 12.9772 57.7588 -11.1333
# 6 24.7362 3.5629 23.4470 5.8885 -11.1333 45.9858
#
#
#
# Elastic Compliance Matrix: (Units=1/GPa)
#
#
# Indices 1 2 3 4 5 6 
#
# 1 0.007054 -0.005468 -0.003807 -0.000273 0.005603 -0.000038
# 2 -0.005468 0.035040 0.002711 0.018684 -0.016535 -0.007552
# 3 -0.003807 0.002711 0.013700 0.006371 -0.010969 -0.008619
# 4 -0.000273 0.018684 0.006371 0.037736 -0.017984 -0.013735
# 5 0.005603 -0.016535 -0.010969 -0.017984 0.034573 0.014533
# 6 -0.000038 -0.007552 -0.008619 -0.013735 0.014533 0.032023
#
#
# Mechanical properties :
#
#
# Convention : Reuss Voigt Hill
#
# Bulk Modulus (GPa) = 23.43828 74.97100 49.20464
# Shear Modulus (GPa) = 26.67013 48.47824 37.57418
#
# Velocity S-wave (km/s) = 3.16566 4.26800 3.75747
# Velocity P-wave (km/s) = 4.70838 7.24281 6.10849
#
# Compressibility (1/GPa) = 0.04266524
#
# Stress axis : x y z
#
# Youngs Moduli (GPa) = 141.77024 28.53899 72.99365
#
# Poissons Ratio (x) = 0.15605 0.27791
# Poissons Ratio (y) = 0.77520 -0.19791
# Poissons Ratio (z) = 0.53976 -0.07738
#
# Static dielectric constant tensor:
#      x y z
#    x 2.277510 -0.123380 0.115080 
#    y -0.123380 2.123900 -0.035000 
#    z 0.115080 -0.035000 2.269480 
# 
# From -- ./inp_files/239836.got.cif
#   From: 2010.05.17/outbox.cif.g08.bks.cpg/sg2_120_cif.got.tgz:239836.got - 2010.06.03 11:33:40.
