data_PCOD9095895
_publ_section_title
;
Structure prediction by ZEFSAII (Michael W. Deem and Ramdas Pophale) SiO2 
 PCOD9095895
Probable space group: P -1
;
_chemical_formula_sum "Si O2"
_cell_formula_units_Z 16
_cell_length_a 26.492417
_cell_length_b 25.421715
_cell_length_c 8.983781
_cell_angle_alpha 39.156133
_cell_angle_beta 141.374945
_cell_angle_gamma 169.210912
_cell_volume 705.340426
_symmetry_space_group_name_H-M "P -1"
_symmetry_group_IT_number 2
_symmetry_cell_setting 'triclinic'
loop_
_space_group_symop_operation_xyz
x,y,z
-x,-y,-z
loop_
_atom_site_type_symbol
_atom_site_label
_atom_site_fract_x
_atom_site_fract_y
_atom_site_fract_z
Si Si1 0.633716 0.239698 0.953467
Si Si2 0.045301 0.734872 0.630372
Si Si3 0.007900 0.172113 0.467508
Si Si4 0.390362 0.281238 0.862090
Si Si5 0.485644 0.412990 0.440619
Si Si6 0.897960 0.679781 0.131628
Si Si7 0.007109 0.312866 0.949410
Si Si8 0.719901 0.186538 0.478956
O O1 0.811414 0.438095 0.783766
O O2 0.331108 0.978208 0.811952
O O3 0.646216 0.156038 0.218720
O O4 0.796252 0.447576 0.005160
O O5 0.047778 0.763705 0.402511
O O6 0.972250 0.749540 0.515286
O O7 0.803963 0.894564 0.625710
O O8 0.287255 0.416805 0.497743
O O9 0.877472 0.108571 0.187838
O O10 0.445103 0.352068 0.656808
O O11 0.425236 0.403269 0.757802
O O12 0.628878 0.453103 0.082070
O O13 0.100624 0.953870 0.947814
O O14 0.822109 0.555296 0.082033
O O15 0.776427 0.144847 0.716767
O O16 0.000000 0.500000 0.500000
O O17 0.500000 0.000000 0.500000
#
# Coordination Sequence:
#
# PCOD9095895 Si02
#       8
#     2   2   2   2   2   2   2   2
#     4  10  21  41  61  87 122 163 199 239 299 355
#     4  11  24  40  61  87 127 161 195 244 300 358
#     4  11  20  37  61  88 114 158 203 241 292 359
#     4  11  23  39  60  89 124 151 193 256 306 342
#     4  11  21  38  62  89 115 153 199 250 300 352
#     4  12  24  41  60  92 123 156 199 249 299 351
#     4  10  21  37  65  91 115 153 206 249 286 347
#     4  10  20  35  60  93 120 149 198 256 291 334
#
# _framework density 22.684080999999999
#
# number of rings (size 3 to 8) (size 9 to 14) (size 15 to 20)
#    0.000    1.250    2.500    5.250    0.000    5.000 
#    0.000    5.000    0.000    0.000    0.000    0.000 
#    0.000    0.000    0.000    0.000    0.000    0.000 
#
# Total GULP energy -89427.468673 kJ/mol
# GULP energy per Si atom -5589.216792 kJ/mol
# Density = 2.263245 g / cm^3
# Si number density = 22.684081 Si / 1000 Ang^3
#
#
#
# Elastic Constant Matrix: (Units=GPa)
#
#
# Indices 1 2 3 4 5 6 
#
# 1 19.0333 -1.9308 6.1949 3.0863 0.1248 9.2313
# 2 -1.9308 82.2741 -20.3932 -11.1378 2.2459 18.7961
# 3 6.1949 -20.3932 41.4275 -1.7220 -3.4138 -2.9098
# 4 3.0863 -11.1378 -1.7220 30.5023 4.0785 3.2826
# 5 0.1248 2.2459 -3.4138 4.0785 22.7963 3.6092
# 6 9.2313 18.7961 -2.9098 3.2826 3.6092 20.4282
#
#
#
# Elastic Compliance Matrix: (Units=1/GPa)
#
#
# Indices 1 2 3 4 5 6 
#
# 1 0.079918 0.010078 -0.009963 -0.000478 0.004693 -0.047558
# 2 0.010078 0.021235 0.007708 0.009674 0.001196 -0.024761
# 3 -0.009963 0.007708 0.029890 0.005097 0.002803 0.000353
# 4 -0.000478 0.009674 0.005097 0.038755 -0.005015 -0.013301
# 5 0.004693 0.001196 0.002803 -0.005015 0.046665 -0.010261
# 6 -0.047558 -0.024761 0.000353 -0.013301 -0.010261 0.097226
#
#
# Mechanical properties :
#
#
# Convention : Reuss Voigt Hill
#
# Bulk Modulus (GPa) = 6.81713 12.27520 9.54616
# Shear Modulus (GPa) = 14.41170 25.33628 19.87399
#
# Velocity S-wave (km/s) = 2.52329 3.34566 2.96314
# Velocity P-wave (km/s) = 3.39133 4.51084 3.99054
#
# Compressibility (1/GPa) = 0.14668927
#
# Stress axis : x y z
#
# Youngs Moduli (GPa) = 12.51287 47.09127 33.45559
#
# Poissons Ratio (x) = -0.47459 0.33332
# Poissons Ratio (y) = -0.12611 -0.25787
# Poissons Ratio (z) = 0.12467 -0.36297
#
# Static dielectric constant tensor:
#      x y z
#    x 1.848600 -0.012440 0.008710 
#    y -0.012440 1.818980 -0.014390 
#    z 0.008710 -0.014390 1.895160 
# 
# From -- ./inp_files/55386.got.cif
#   From: 2010.05.17/outbox.cif.g08.bks.cpg/sg2_28_cif.got.tgz:55386.got - 2010.06.03 11:33:40.
