data_PCOD9095093
_publ_section_title
;
Structure prediction by ZEFSAII (Michael W. Deem and Ramdas Pophale) SiO2 
 PCOD9095093
Probable space group: P -1
;
_chemical_formula_sum "Si O2"
_cell_formula_units_Z 14
_cell_length_a 10.452846
_cell_length_b 9.375565
_cell_length_c 15.492718
_cell_angle_alpha 96.417050
_cell_angle_beta 146.055975
_cell_angle_gamma 104.492074
_cell_volume 662.288492
_symmetry_space_group_name_H-M "P -1"
_symmetry_group_IT_number 2
_symmetry_cell_setting 'triclinic'
loop_
_space_group_symop_operation_xyz
x,y,z
-x,-y,-z
loop_
_atom_site_type_symbol
_atom_site_label
_atom_site_fract_x
_atom_site_fract_y
_atom_site_fract_z
Si Si1 0.173395 0.877793 0.272785
Si Si2 0.827515 0.192379 0.274013
Si Si3 0.218421 0.486756 0.860194
Si Si4 0.345324 0.918168 0.179813
Si Si5 0.853134 0.055860 0.111411
Si Si6 0.635766 0.820207 0.224565
Si Si7 0.957041 0.301029 0.535141
O O1 0.179409 0.851935 0.172028
O O2 0.992480 0.688059 0.209740
O O3 0.032678 0.979507 0.215084
O O4 0.500000 0.000000 0.500000
O O5 0.984124 0.335988 0.449962
O O6 0.952069 0.208314 0.250160
O O7 0.792146 0.016514 0.281936
O O8 0.489772 0.111462 0.072946
O O9 0.069124 0.452461 0.681759
O O10 0.500000 0.500000 0.000000
O O11 0.355473 0.670620 0.000872
O O12 0.504474 0.829076 0.240975
O O13 0.617282 0.134787 0.351213
O O14 0.154563 0.888437 0.987369
O O15 0.852025 0.770231 0.347479
#
# Coordination Sequence:
#
# PCOD9095093 Si02
#       7
#     2   2   2   2   2   2   2
#     4  12  23  34  58  88 111 146 187 231 279 328
#     4   9  17  32  60  81 106 148 190 230 269 319
#     4  10  20  35  54  84 115 145 181 234 279 325
#     4  10  20  35  55  82 111 150 183 230 276 325
#     4   9  19  34  54  85 111 143 188 233 269 325
#     4   9  18  31  56  81 117 141 185 231 275 328
#     4   9  16  30  53  85 109 139 187 228 268 317
#
# _framework density 21.138824
#
# number of rings (size 3 to 8) (size 9 to 14) (size 15 to 20)
#    0.000    2.571    1.429    3.857    2.000    0.571 
#    0.000    0.000    0.000   58.286    0.000    0.000 
#    0.000    0.000    0.000    0.000    0.000    0.000 
#
# Total GULP energy -78113.531070 kJ/mol
# GULP energy per Si atom -5579.537934 kJ/mol
# Density = 2.109071 g / cm^3
# Si number density = 21.138824 Si / 1000 Ang^3
#
#
#
# Elastic Constant Matrix: (Units=GPa)
#
#
# Indices 1 2 3 4 5 6 
#
# 1 133.5807 29.5967 46.7079 -7.0772 -36.2175 15.7938
# 2 29.5967 52.0705 30.1391 -18.0603 -4.3359 19.7373
# 3 46.7079 30.1391 104.9992 -4.7719 -35.9642 5.9747
# 4 -7.0772 -18.0603 -4.7719 37.0582 -12.0270 -2.6401
# 5 -36.2175 -4.3359 -35.9642 -12.0270 45.5188 -2.9176
# 6 15.7938 19.7373 5.9747 -2.6401 -2.9176 34.2936
#
#
#
# Elastic Compliance Matrix: (Units=1/GPa)
#
#
# Indices 1 2 3 4 5 6 
#
# 1 0.011287 -0.003316 -0.000828 0.003099 0.008690 -0.002167
# 2 -0.003316 0.037547 -0.008826 0.014150 -0.003434 -0.017748
# 3 -0.000828 -0.008826 0.016510 0.001926 0.012296 0.003779
# 4 0.003099 0.014150 0.001926 0.039310 0.015364 -0.005573
# 5 0.008690 -0.003434 0.012296 0.015364 0.042370 0.000620
# 6 -0.002167 -0.017748 0.003779 -0.005573 0.000620 0.039338
#
#
# Mechanical properties :
#
#
# Convention : Reuss Voigt Hill
#
# Bulk Modulus (GPa) = 25.37839 55.94865 40.66352
# Shear Modulus (GPa) = 22.17915 35.65457 28.91686
#
# Velocity S-wave (km/s) = 3.24267 4.11138 3.70259
# Velocity P-wave (km/s) = 5.10407 7.00448 6.12839
#
# Compressibility (1/GPa) = 0.03940360
#
# Stress axis : x y z
#
# Youngs Moduli (GPa) = 88.59709 26.63308 60.57043
#
# Poissons Ratio (x) = 0.08832 0.05018
# Poissons Ratio (y) = 0.29380 0.53458
# Poissons Ratio (z) = 0.07340 0.23506
#
# Static dielectric constant tensor:
#      x y z
#    x 1.781550 -0.013420 -0.070970 
#    y -0.013420 1.790090 -0.012500 
#    z -0.070970 -0.012500 1.784870 
# 
# From -- ./inp_files/568089.got.cif
#   From: 2010.05.17/outbox.cif.g08.bks.cpg/sg2_285_cif.got.tgz:568089.got - 2010.06.03 11:33:40.
