data_PCOD9095170
_publ_section_title
;
Structure prediction by ZEFSAII (Michael W. Deem and Ramdas Pophale) SiO2 
 PCOD9095170
Probable space group: P -1
;
_chemical_formula_sum "Si O2"
_cell_formula_units_Z 16
_cell_length_a 14.721129
_cell_length_b 8.748441
_cell_length_c 12.252477
_cell_angle_alpha 37.613660
_cell_angle_beta 76.772051
_cell_angle_gamma 51.032404
_cell_volume 616.497447
_symmetry_space_group_name_H-M "P -1"
_symmetry_group_IT_number 2
_symmetry_cell_setting 'triclinic'
loop_
_space_group_symop_operation_xyz
x,y,z
-x,-y,-z
loop_
_atom_site_type_symbol
_atom_site_label
_atom_site_fract_x
_atom_site_fract_y
_atom_site_fract_z
Si Si1 0.807769 0.538849 0.529814
Si Si2 0.399330 0.528709 0.681701
Si Si3 0.972855 0.436060 0.163669
Si Si4 0.877176 0.552682 0.715830
Si Si5 0.800652 0.464992 0.338070
Si Si6 0.329876 0.451713 0.166428
Si Si7 0.600741 0.536684 0.624207
Si Si8 0.606424 0.368136 0.138885
O O1 0.922496 0.408120 0.658630
O O2 0.818069 0.592376 0.370903
O O3 0.745759 0.379937 0.634468
O O4 0.679832 0.958436 0.378811
O O5 0.344768 0.396104 0.709501
O O6 0.534465 0.412544 0.667522
O O7 0.435419 0.410539 0.865212
O O8 0.253620 0.989752 0.475459
O O9 0.001278 0.594927 0.154664
O O10 0.829701 0.577280 0.159823
O O11 0.082326 0.988128 0.413701
O O12 0.000000 0.500000 0.000000
O O13 0.806263 0.434065 0.831235
O O14 0.371309 0.538796 0.210307
O O15 0.468743 0.991151 0.379895
O O16 0.297437 0.642498 0.952220
O O17 0.500000 0.500000 0.000000
#
# Coordination Sequence:
#
# PCOD9095170 Si02
#       8
#     2   2   2   2   2   2   2   2
#     4  10  20  35  55  84 116 148 178 228 281 322
#     4   9  18  32  53  80 108 156 184 209 277 332
#     4  10  22  44  65  80 102 145 192 236 291 345
#     4   8  18  35  58  82 104 142 188 225 278 336
#     4  10  23  42  59  80 116 144 183 240 288 333
#     4   9  15  27  51  80 109 145 184 220 254 324
#     4   9  15  29  50  77 114 145 184 214 262 326
#     4  11  17  29  54  81 114 152 186 219 256 319
#
# _framework density 25.953067999999998
#
# number of rings (size 3 to 8) (size 9 to 14) (size 15 to 20)
#    0.000    2.500    2.500    1.500    1.750    1.000 
#    4.500    1.250    0.000    0.000    0.000    0.000 
#    0.000    0.000    0.000    0.000    0.000    0.000 
#
# Total GULP energy -89134.694371 kJ/mol
# GULP energy per Si atom -5570.918398 kJ/mol
# Density = 2.589400 g / cm^3
# Si number density = 25.953068 Si / 1000 Ang^3
#
#
#
# Elastic Constant Matrix: (Units=GPa)
#
#
# Indices 1 2 3 4 5 6 
#
# 1 121.6805 23.1136 40.0276 18.4402 1.9351 25.6561
# 2 23.1136 60.1080 34.4140 17.9942 1.8105 20.8892
# 3 40.0276 34.4140 85.9777 15.5772 -8.7121 -1.2272
# 4 18.4402 17.9942 15.5772 57.1146 -10.6697 10.3490
# 5 1.9351 1.8105 -8.7121 -10.6697 26.2877 13.9633
# 6 25.6561 20.8892 -1.2272 10.3490 13.9633 29.9326
#
#
#
# Elastic Compliance Matrix: (Units=1/GPa)
#
#
# Indices 1 2 3 4 5 6 
#
# 1 0.013855 0.006058 -0.008637 0.000770 0.006509 -0.019759
# 2 0.006058 0.036065 -0.016648 -0.000347 0.010419 -0.035783
# 3 -0.008637 -0.016648 0.022789 -0.003110 -0.004119 0.022952
# 4 0.000770 -0.000347 -0.003110 0.024889 0.018478 -0.017770
# 5 0.006509 0.010419 -0.004119 0.018478 0.070840 -0.052454
# 6 -0.019759 -0.035783 0.022952 -0.017770 -0.052454 0.106871
#
#
# Mechanical properties :
#
#
# Convention : Reuss Voigt Hill
#
# Bulk Modulus (GPa) = 29.19314 51.43076 40.31195
# Shear Modulus (GPa) = 15.37602 34.01440 24.69521
#
# Velocity S-wave (km/s) = 2.43668 3.62416 3.08804
# Velocity P-wave (km/s) = 4.38057 6.11331 5.31799
#
# Compressibility (1/GPa) = 0.03425462
#
# Stress axis : x y z
#
# Youngs Moduli (GPa) = 72.17746 27.72794 43.88050
#
# Poissons Ratio (x) = -0.16797 0.37899
# Poissons Ratio (y) = -0.43722 0.73051
# Poissons Ratio (z) = 0.62339 0.46161
#
# Static dielectric constant tensor:
#      x y z
#    x 2.154150 -0.040220 -0.002680 
#    y -0.040220 2.112290 0.039280 
#    z -0.002680 0.039280 2.388310 
# 
# From -- ./inp_files/445472.got.cif
#   From: 2010.05.17/outbox.cif.g08.bks.cpg/sg2_223_cif.got.tgz:445472.got - 2010.06.03 11:33:40.
