data_PCOD9095192
_publ_section_title
;
Structure prediction by ZEFSAII (Michael W. Deem and Ramdas Pophale) SiO2 
 PCOD9095192
Probable space group: P -1
;
_chemical_formula_sum "Si O2"
_cell_formula_units_Z 16
_cell_length_a 8.985926
_cell_length_b 15.052992
_cell_length_c 16.418376
_cell_angle_alpha 132.791738
_cell_angle_beta 49.746287
_cell_angle_gamma 152.135327
_cell_volume 754.937908
_symmetry_space_group_name_H-M "P -1"
_symmetry_group_IT_number 2
_symmetry_cell_setting 'triclinic'
loop_
_space_group_symop_operation_xyz
x,y,z
-x,-y,-z
loop_
_atom_site_type_symbol
_atom_site_label
_atom_site_fract_x
_atom_site_fract_y
_atom_site_fract_z
Si Si1 0.335984 0.816118 0.629395
Si Si2 0.960442 0.244277 0.628243
Si Si3 0.698308 0.222026 0.563636
Si Si4 0.947469 0.667479 0.833468
Si Si5 0.276984 0.243734 0.772292
Si Si6 0.795262 0.884781 0.612547
Si Si7 0.331534 0.640880 0.776939
Si Si8 0.263723 0.989537 0.045689
O O1 0.208657 0.715512 0.523512
O O2 0.543183 0.812130 0.593141
O O3 0.078491 0.718728 0.727633
O O4 0.598165 0.052621 0.670213
O O5 0.983339 0.337432 0.596061
O O6 0.052160 0.156623 0.509928
O O7 0.176549 0.435503 0.726688
O O8 0.477649 0.218333 0.674933
O O9 0.500000 0.000000 0.500000
O O10 0.563884 0.477175 0.838940
O O11 0.087521 0.623569 0.812935
O O12 0.104962 0.863505 0.940689
O O13 0.026436 0.132727 0.864803
O O14 0.050098 0.116444 0.692436
O O15 0.609810 0.761491 0.684891
O O16 0.507078 0.781851 0.882382
O O17 0.500000 0.000000 0.000000
#
# Coordination Sequence:
#
# PCOD9095192 Si02
#       8
#     2   2   2   2   2   2   2   2
#     4  10  22  37  57  86 132 154 190 241 295 354
#     4  11  19  36  57  87 120 161 191 236 292 357
#     4  10  20  35  57  89 124 158 187 234 298 356
#     4  10  20  37  57  88 115 156 199 246 294 339
#     4  11  19  34  62  86 116 154 200 235 294 351
#     4  10  20  35  55  88 122 153 196 239 287 351
#     4   9  19  35  58  84 112 157 202 240 287 351
#     4   9  20  38  60  86 113 149 207 259 282 337
#
# _framework density 21.193797
#
# number of rings (size 3 to 8) (size 9 to 14) (size 15 to 20)
#    0.000    2.000    3.750    1.875    0.000    0.500 
#    0.000    1.875    0.000    3.000    0.000    0.000 
#    0.000    0.000    0.000    0.000    0.000    0.000 
#
# Total GULP energy -89101.883807 kJ/mol
# GULP energy per Si atom -5568.867738 kJ/mol
# Density = 2.114556 g / cm^3
# Si number density = 21.193797 Si / 1000 Ang^3
#
#
#
# Elastic Constant Matrix: (Units=GPa)
#
#
# Indices 1 2 3 4 5 6 
#
# 1 13.0297 5.5721 14.6579 -4.6367 15.4306 0.5518
# 2 5.5721 80.8327 2.6601 12.6976 -3.5966 17.4575
# 3 14.6579 2.6601 73.5028 3.5167 -1.8401 7.9541
# 4 -4.6367 12.6976 3.5167 37.3188 -1.0258 2.1852
# 5 15.4306 -3.5966 -1.8401 -1.0258 4.7762 3.6351
# 6 0.5518 17.4575 7.9541 2.1852 3.6351 21.9082
#
#
#
# Elastic Compliance Matrix: (Units=1/GPa)
#
#
# Indices 1 2 3 4 5 6 
#
# 1 -0.013722 0.008292 0.006341 -0.002126 0.067436 -0.019541
# 2 0.008292 0.013674 -0.001365 -0.003314 -0.011338 -0.008398
# 3 0.006341 -0.001365 0.012070 -0.000294 -0.016390 -0.000705
# 4 -0.002126 -0.003314 -0.000294 0.028126 0.011793 -0.001961
# 5 0.067436 -0.011338 -0.016390 0.011793 -0.034373 0.017814
# 6 -0.019541 -0.008398 -0.000705 -0.001961 0.017814 0.050325
#
#
# Mechanical properties :
#
#
# Convention : Reuss Voigt Hill
#
# Bulk Modulus (GPa) = 25.93496 23.68283 24.80890
# Shear Modulus (GPa) = 117.87746 22.43231 70.15488
#
# Velocity S-wave (km/s) = 7.46590 3.25689 5.75964
# Velocity P-wave (km/s) = 9.30500 5.03407 7.48080
#
# Compressibility (1/GPa) = 0.03855800
#
# Stress axis : x y z
#
# Youngs Moduli (GPa) = -72.87540 73.13021 82.85082
#
# Poissons Ratio (x) = -0.60640 -0.52535
# Poissons Ratio (y) = 0.60428 0.11309
# Poissons Ratio (z) = 0.46210 0.09982
#
# Static dielectric constant tensor:
#      x y z
#    x 1.822600 0.023930 0.034610 
#    y 0.023930 1.831480 0.066000 
#    z 0.034610 0.066000 1.690700 
# 
# From -- ./inp_files/237120.got.cif
#   From: 2010.05.17/outbox.cif.g08.bks.cpg/sg2_119_cif.got.tgz:237120.got - 2010.06.03 11:33:40.
