data_PCOD9095035
_publ_section_title
;
Structure prediction by ZEFSAII (Michael W. Deem and Ramdas Pophale) SiO2 
 PCOD9095035
Probable space group: P -1
;
_chemical_formula_sum "Si O2"
_cell_formula_units_Z 14
_cell_length_a 22.277373
_cell_length_b 11.217172
_cell_length_c 26.168118
_cell_angle_alpha 32.541388
_cell_angle_beta 14.174344
_cell_angle_gamma 40.749890
_cell_volume 767.543154
_symmetry_space_group_name_H-M "P -1"
_symmetry_group_IT_number 2
_symmetry_cell_setting 'triclinic'
loop_
_space_group_symop_operation_xyz
x,y,z
-x,-y,-z
loop_
_atom_site_type_symbol
_atom_site_label
_atom_site_fract_x
_atom_site_fract_y
_atom_site_fract_z
Si Si1 0.021911 0.021233 0.726825
Si Si2 0.850188 0.117571 0.615197
Si Si3 0.713144 0.540424 0.573777
Si Si4 0.523542 0.271699 0.384820
Si Si5 0.162658 0.607383 0.734370
Si Si6 0.254239 0.010868 0.141818
Si Si7 0.592040 0.591016 0.307932
O O1 0.902424 0.042250 0.762908
O O2 0.208939 0.879455 0.615335
O O3 0.776460 0.833733 0.034329
O O4 0.176192 0.282577 0.533170
O O5 0.892229 0.393852 0.466649
O O6 0.915733 0.115976 0.621638
O O7 0.517897 0.954365 0.942516
O O8 0.000000 0.000000 0.500000
O O9 0.682447 0.695842 0.496179
O O10 0.411222 0.308519 0.914592
O O11 0.478863 0.361407 0.444829
O O12 0.500000 0.000000 0.500000
O O13 0.839917 0.458348 0.042459
O O14 0.353723 0.617177 0.526091
O O15 0.226994 0.465964 0.778902
#
# Coordination Sequence:
#
# PCOD9095035 Si02
#       7
#     2   2   2   2   2   2   2
#     4  11  20  38  58  81 116 149 188 235 284 337
#     4   9  19  40  61  81 116 146 183 241 286 329
#     4  10  20  38  58  86 112 150 193 230 279 344
#     4  11  20  36  58  83 117 156 188 231 286 334
#     4  10  20  35  55  78 116 155 188 241 281 323
#     4   9  20  38  58  83 111 145 189 233 282 337
#     4  10  20  35  53  81 116 151 195 236 276 336
#
# _framework density 18.240017000000002
#
# number of rings (size 3 to 8) (size 9 to 14) (size 15 to 20)
#    0.857    1.143    2.857    3.429    0.000    3.429 
#    2.571    0.714    0.000    0.000    0.000    0.000 
#    0.000    0.000    0.000    0.000    0.000    0.000 
#
# Total GULP energy -77984.054959 kJ/mol
# GULP energy per Si atom -5570.289640 kJ/mol
# Density = 1.819850 g / cm^3
# Si number density = 18.240017 Si / 1000 Ang^3
#
#
#
# Elastic Constant Matrix: (Units=GPa)
#
#
# Indices 1 2 3 4 5 6 
#
# 1 155.3071 64.2453 37.3997 8.8729 -4.0274 4.7295
# 2 64.2453 161.2173 46.7448 7.1383 0.6273 12.9234
# 3 37.3997 46.7448 31.0767 7.0461 -4.0885 15.8163
# 4 8.8729 7.1383 7.0461 34.7199 11.7339 2.4143
# 5 -4.0274 0.6273 -4.0885 11.7339 22.4316 -4.0684
# 6 4.7295 12.9234 15.8163 2.4143 -4.0684 29.9911
#
#
#
# Elastic Compliance Matrix: (Units=1/GPa)
#
#
# Indices 1 2 3 4 5 6 
#
# 1 0.009906 -0.000118 -0.014989 0.000019 0.000204 0.006419
# 2 -0.000118 0.012217 -0.022616 0.003499 -0.005284 0.005682
# 3 -0.014989 -0.022616 0.113098 -0.018315 0.020280 -0.043310
# 4 0.000019 0.003499 -0.018315 0.039761 -0.023923 0.001702
# 5 0.000204 -0.005284 0.020280 -0.023923 0.061299 0.001791
# 6 0.006419 0.005682 -0.043310 0.001702 0.001791 0.052829
#
#
# Mechanical properties :
#
#
# Convention : Reuss Voigt Hill
#
# Bulk Modulus (GPa) = 16.72894 71.59782 44.16338
# Shear Modulus (GPa) = 13.00456 30.70928 21.85692
#
# Velocity S-wave (km/s) = 2.67304 4.10765 3.46540
# Velocity P-wave (km/s) = 4.32647 7.86355 6.34641
#
# Compressibility (1/GPa) = 0.05977664
#
# Stress axis : x y z
#
# Youngs Moduli (GPa) = 100.95201 81.85112 8.84186
#
# Poissons Ratio (x) = 0.00963 0.13253
# Poissons Ratio (y) = 0.01188 0.19997
# Poissons Ratio (z) = 1.51314 1.85114
#
# Static dielectric constant tensor:
#      x y z
#    x 1.642820 -0.026670 0.006420 
#    y -0.026670 1.634950 -0.016560 
#    z 0.006420 -0.016560 1.632900 
# 
# From -- ./inp_files/599186.got.cif
#   From: 2010.05.17/outbox.cif.g08.bks.cpg/sg2_300_cif.got.tgz:599186.got - 2010.06.03 11:33:40.
