data_PCOD9095532
_publ_section_title
;
Structure prediction by ZEFSAII (Michael W. Deem and Ramdas Pophale) SiO2 
 PCOD9095532
Probable space group: P -1
;
_chemical_formula_sum "Si O2"
_cell_formula_units_Z 14
_cell_length_a 20.545589
_cell_length_b 9.134510
_cell_length_c 10.185861
_cell_angle_alpha 112.762655
_cell_angle_beta 31.088876
_cell_angle_gamma 128.210658
_cell_volume 725.981192
_symmetry_space_group_name_H-M "P -1"
_symmetry_group_IT_number 2
_symmetry_cell_setting 'triclinic'
loop_
_space_group_symop_operation_xyz
x,y,z
-x,-y,-z
loop_
_atom_site_type_symbol
_atom_site_label
_atom_site_fract_x
_atom_site_fract_y
_atom_site_fract_z
Si Si1 0.755224 0.543532 0.393574
Si Si2 0.458375 0.062795 0.387919
Si Si3 0.639033 0.294413 0.761883
Si Si4 0.049225 0.854807 0.861122
Si Si5 0.737380 0.208833 0.148656
Si Si6 0.964865 0.453591 0.391120
Si Si7 0.608100 0.760302 0.627420
O O1 0.701523 0.468399 0.607393
O O2 0.713807 0.357435 0.316539
O O3 0.668968 0.630232 0.508590
O O4 0.945936 0.704427 0.106283
O O5 0.421517 0.903317 0.284626
O O6 0.319114 0.959194 0.702338
O O7 0.613123 0.116344 0.213141
O O8 0.487340 0.259037 0.344381
O O9 0.786502 0.359766 0.622947
O O10 0.503620 0.741538 0.921566
O O11 0.005388 0.705619 0.764208
O O12 0.236134 0.014427 0.588738
O O13 0.000000 0.000000 0.000000
O O14 0.912689 0.344989 0.834032
O O15 0.000000 0.500000 0.500000
#
# Coordination Sequence:
#
# PCOD9095532 Si02
#       7
#     2   2   2   2   2   2   2
#     4   9  21  38  56  83 115 155 191 233 286 346
#     4  10  20  35  58  86 111 150 194 232 286 338
#     4  11  22  35  60  86 116 149 193 235 293 337
#     4   9  20  37  58  84 114 154 190 233 283 346
#     4   9  21  37  55  85 118 146 190 242 282 337
#     4  11  22  36  60  88 119 149 194 244 288 341
#     4  11  20  34  59  85 113 151 193 237 282 347
#
# _framework density 19.284247000000001
#
# number of rings (size 3 to 8) (size 9 to 14) (size 15 to 20)
#    0.000    2.000    1.429    1.714    4.000    2.286 
#    0.000    1.429    0.000    3.429    0.000    0.000 
#    0.000    0.000    0.000    0.000    0.000    0.000 
#
# Total GULP energy -77962.751710 kJ/mol
# GULP energy per Si atom -5568.767979 kJ/mol
# Density = 1.924036 g / cm^3
# Si number density = 19.284247 Si / 1000 Ang^3
#
#
#
# Elastic Constant Matrix: (Units=GPa)
#
#
# Indices 1 2 3 4 5 6 
#
# 1 87.3665 20.8087 27.9935 2.2565 12.8142 -5.6722
# 2 20.8087 37.6116 14.0858 -3.1395 2.2280 -15.4408
# 3 27.9935 14.0858 122.5984 -3.0311 1.8145 -5.2528
# 4 2.2565 -3.1395 -3.0311 21.8260 0.7584 -1.9151
# 5 12.8142 2.2280 1.8145 0.7584 25.8637 -11.3366
# 6 -5.6722 -15.4408 -5.2528 -1.9151 -11.3366 27.5854
#
#
#
# Elastic Compliance Matrix: (Units=1/GPa)
#
#
# Indices 1 2 3 4 5 6 
#
# 1 0.015911 -0.010633 -0.002683 -0.003864 -0.009980 -0.007561
# 2 -0.010633 0.044909 -0.001460 0.009422 0.013966 0.029067
# 3 -0.002683 -0.001460 0.008993 0.001356 0.001191 0.000927
# 4 -0.003864 0.009422 0.001356 0.048476 0.003827 0.009676
# 5 -0.009980 0.013966 0.001191 0.003827 0.054829 0.028791
# 6 -0.007561 0.029067 0.000927 0.009676 0.028791 0.063647
#
#
# Mechanical properties :
#
#
# Convention : Reuss Voigt Hill
#
# Bulk Modulus (GPa) = 24.83859 41.48362 33.16111
# Shear Modulus (GPa) = 17.87386 27.36759 22.62072
#
# Velocity S-wave (km/s) = 3.04775 3.77127 3.42865
# Velocity P-wave (km/s) = 5.02924 6.36566 5.73650
#
# Compressibility (1/GPa) = 0.04025993
#
# Stress axis : x y z
#
# Youngs Moduli (GPa) = 62.84967 22.26712 111.20063
#
# Poissons Ratio (x) = 0.23677 0.29836
# Poissons Ratio (y) = 0.66829 0.16238
# Poissons Ratio (z) = 0.16863 0.03252
#
# Static dielectric constant tensor:
#      x y z
#    x 1.761690 -0.034850 -0.032640 
#    y -0.034850 1.709090 -0.033920 
#    z -0.032640 -0.033920 1.720080 
# 
# From -- ./inp_files/325924.got.cif
#   From: 2010.05.17/outbox.cif.g08.bks.cpg/sg2_163_cif.got.tgz:325924.got - 2010.06.03 11:33:40.
