data_PCOD9095472
_publ_section_title
;
Structure prediction by ZEFSAII (Michael W. Deem and Ramdas Pophale) SiO2 
 PCOD9095472
Probable space group: P -1
;
_chemical_formula_sum "Si O2"
_cell_formula_units_Z 14
_cell_length_a 27.658740
_cell_length_b 20.040770
_cell_length_c 16.493757
_cell_angle_alpha 161.251538
_cell_angle_beta 161.155488
_cell_angle_gamma 11.373250
_cell_volume 555.472038
_symmetry_space_group_name_H-M "P -1"
_symmetry_group_IT_number 2
_symmetry_cell_setting 'triclinic'
loop_
_space_group_symop_operation_xyz
x,y,z
-x,-y,-z
loop_
_atom_site_type_symbol
_atom_site_label
_atom_site_fract_x
_atom_site_fract_y
_atom_site_fract_z
Si Si1 0.108980 0.186064 0.451351
Si Si2 0.928093 0.773660 0.135818
Si Si3 0.966296 0.238986 0.032102
Si Si4 0.563249 0.205553 0.631982
Si Si5 0.252112 0.161299 0.823545
Si Si6 0.355021 0.377600 0.886553
Si Si7 0.037920 0.046611 0.449075
O O1 0.078982 0.465181 0.706238
O O2 0.847462 0.374289 0.221909
O O3 0.137911 0.166888 0.571379
O O4 0.339582 0.854032 0.374793
O O5 0.000000 0.500000 0.000000
O O6 0.101190 0.513295 0.035581
O O7 0.059119 0.041616 0.573039
O O8 0.648577 0.103740 0.032146
O O9 0.773270 0.380617 0.958775
O O10 0.249607 0.892035 0.119647
O O11 0.922078 0.191538 0.820039
O O12 0.266718 0.562649 0.593865
O O13 0.623633 0.894318 0.378610
O O14 0.244367 0.984659 0.673533
O O15 0.500000 0.000000 0.000000
#
# Coordination Sequence:
#
# PCOD9095472 Si02
#       7
#     2   2   2   2   2   2   2
#     4   9  20  37  62  84 113 145 186 237 276 329
#     4  10  20  35  58  80 110 153 195 220 271 345
#     4   9  20  34  61  90 110 141 188 235 281 325
#     4   9  16  36  61  82 111 149 187 219 272 351
#     4  11  23  37  57  83 113 150 194 226 278 337
#     4   9  17  36  58  84 110 148 188 223 275 338
#     4  11  21  36  60  85 113 148 189 231 274 335
#
# _framework density 25.203789
#
# number of rings (size 3 to 8) (size 9 to 14) (size 15 to 20)
#    0.000    2.286    2.857    3.000    6.000    1.143 
#    0.000    3.571    3.143    0.000    0.000    0.000 
#    0.000    0.000    0.000    0.000    0.000    0.000 
#
# Total GULP energy -78146.782932 kJ/mol
# GULP energy per Si atom -5581.913067 kJ/mol
# Density = 2.514642 g / cm^3
# Si number density = 25.203789 Si / 1000 Ang^3
#
#
#
# Elastic Constant Matrix: (Units=GPa)
#
#
# Indices 1 2 3 4 5 6 
#
# 1 119.2351 38.0139 40.6255 -1.3672 -25.8578 -21.9806
# 2 38.0139 156.8457 65.3318 -8.0681 -17.1517 -29.6942
# 3 40.6255 65.3318 161.1015 17.2865 -42.9740 -22.6345
# 4 -1.3672 -8.0681 17.2865 30.6651 -8.4042 -2.2987
# 5 -25.8578 -17.1517 -42.9740 -8.4042 47.3245 10.2876
# 6 -21.9806 -29.6942 -22.6345 -2.2987 10.2876 26.0177
#
#
#
# Elastic Compliance Matrix: (Units=1/GPa)
#
#
# Indices 1 2 3 4 5 6 
#
# 1 0.010943 -0.000502 -0.000807 0.002418 0.004064 0.006577
# 2 -0.000502 0.009636 -0.003321 0.004804 -0.000774 0.008415
# 3 -0.000807 -0.003321 0.010191 -0.004780 0.006452 0.001420
# 4 0.002418 0.004804 -0.004780 0.038265 0.004431 0.004996
# 5 0.004064 -0.000774 0.006452 0.004431 0.030477 -0.003496
# 6 0.006577 0.008415 0.001420 0.004996 -0.003496 0.056655
#
#
# Mechanical properties :
#
#
# Convention : Reuss Voigt Hill
#
# Bulk Modulus (GPa) = 46.48934 80.56940 63.52937
# Shear Modulus (GPa) = 28.96907 40.34886 34.65897
#
# Velocity S-wave (km/s) = 3.39395 4.00547 3.71232
# Velocity P-wave (km/s) = 5.81755 7.30947 6.60576
#
# Compressibility (1/GPa) = 0.02151031
#
# Stress axis : x y z
#
# Youngs Moduli (GPa) = 91.37945 103.77489 98.12594
#
# Poissons Ratio (x) = 0.05211 0.07922
# Poissons Ratio (y) = 0.04589 0.32584
# Poissons Ratio (z) = 0.07378 0.34460
#
# Static dielectric constant tensor:
#      x y z
#    x 2.098360 0.026490 0.112560 
#    y 0.026490 1.964610 -0.005020 
#    z 0.112560 -0.005020 2.042290 
# 
# From -- ./inp_files/580210.got.cif
#   From: 2010.05.17/outbox.cif.g08.bks.cpg/sg2_291_cif.got.tgz:580210.got - 2010.06.03 11:33:40.
