data_PCOD9095323
_publ_section_title
;
Structure prediction by ZEFSAII (Michael W. Deem and Ramdas Pophale) SiO2 
 PCOD9095323
Probable space group: P -1
;
_chemical_formula_sum "Si O2"
_cell_formula_units_Z 12
_cell_length_a 5.556238
_cell_length_b 16.716829
_cell_length_c 7.696825
_cell_angle_alpha 121.846771
_cell_angle_beta 61.415624
_cell_angle_gamma 89.217214
_cell_volume 498.171511
_symmetry_space_group_name_H-M "P -1"
_symmetry_group_IT_number 2
_symmetry_cell_setting 'triclinic'
loop_
_space_group_symop_operation_xyz
x,y,z
-x,-y,-z
loop_
_atom_site_type_symbol
_atom_site_label
_atom_site_fract_x
_atom_site_fract_y
_atom_site_fract_z
Si Si1 0.738963 0.245472 0.949392
Si Si2 0.904000 0.721674 0.658289
Si Si3 0.818441 0.416652 0.296165
Si Si4 0.849613 0.903753 0.084550
Si Si5 0.147737 0.533517 0.151945
Si Si6 0.784275 0.075766 0.521497
O O1 0.805221 0.184385 0.675574
O O2 0.901525 0.165448 0.951715
O O3 0.398934 0.279809 0.156781
O O4 0.842326 0.339196 0.041404
O O5 0.149634 0.652841 0.626721
O O6 0.982755 0.652459 0.382718
O O7 0.879394 0.837996 0.823487
O O8 0.500000 0.500000 0.500000
O O9 0.055953 0.469568 0.259588
O O10 0.543123 0.908264 0.282182
O O11 0.838036 0.018086 0.251644
O O12 0.500000 0.500000 0.000000
O O13 0.000000 0.500000 0.000000
O O14 0.000000 0.000000 0.500000
#
# Coordination Sequence:
#
# PCOD9095323 Si02
#       6
#     2   2   2   2   2   2
#     4   9  17  28  53  78 108 140 191 229 286 331
#     4  10  20  35  57  79 108 152 196 233 284 343
#     4  11  21  37  59  80 110 154 200 239 285 343
#     4   8  15  26  47  77 112 137 176 230 292 328
#     4  12  27  40  56  83 120 154 196 245 294 340
#     4   8  13  25  43  78 114 135 166 235 292 325
#
# _framework density 24.088090999999999
#
# number of rings (size 3 to 8) (size 9 to 14) (size 15 to 20)
#    0.000    2.333    1.667    1.500    4.667    0.000 
#    0.000    0.000    0.000    0.000    0.000    2.333 
#    0.000    0.000    0.000    0.000    0.000    0.000 
#
# Total GULP energy -66925.689425 kJ/mol
# GULP energy per Si atom -5577.140785 kJ/mol
# Density = 2.403327 g / cm^3
# Si number density = 24.088091 Si / 1000 Ang^3
#
#
#
# Elastic Constant Matrix: (Units=GPa)
#
#
# Indices 1 2 3 4 5 6 
#
# 1 91.6768 14.9204 56.8953 11.7340 8.4147 13.4093
# 2 14.9204 50.5821 33.4816 16.7879 9.4056 38.0108
# 3 56.8953 33.4816 202.1009 32.6604 52.3716 21.8306
# 4 11.7340 16.7879 32.6604 37.8950 7.3980 15.0230
# 5 8.4147 9.4056 52.3716 7.3980 69.7807 21.1909
# 6 13.4093 38.0108 21.8306 15.0230 21.1909 45.3238
#
#
#
# Elastic Compliance Matrix: (Units=1/GPa)
#
#
# Indices 1 2 3 4 5 6 
#
# 1 0.013801 0.002226 -0.004473 0.000082 0.002966 -0.005209
# 2 0.002226 0.068100 -0.009185 -0.002246 0.015918 -0.060044
# 3 -0.004473 -0.009185 0.009517 -0.005103 -0.007793 0.009777
# 4 0.000082 -0.002246 -0.005103 0.034555 0.003061 -0.008568
# 5 0.002966 0.015918 -0.007793 0.003061 0.024289 -0.022844
# 6 -0.005209 -0.060044 0.009777 -0.008568 -0.022844 0.082772
#
#
# Mechanical properties :
#
#
# Convention : Reuss Voigt Hill
#
# Bulk Modulus (GPa) = 14.58713 61.66159 38.12436
# Shear Modulus (GPa) = 17.93728 46.53740 32.23734
#
# Velocity S-wave (km/s) = 2.73179 4.40018 3.66226
# Velocity P-wave (km/s) = 4.00239 7.17422 5.80898
#
# Compressibility (1/GPa) = 0.06855359
#
# Stress axis : x y z
#
# Youngs Moduli (GPa) = 72.45903 14.68438 105.07521
#
# Poissons Ratio (x) = -0.03268 0.47002
# Poissons Ratio (y) = -0.16128 0.96507
# Poissons Ratio (z) = 0.32412 0.13487
#
# Static dielectric constant tensor:
#      x y z
#    x 2.209700 -0.137330 -0.118590 
#    y -0.137330 2.013220 0.139860 
#    z -0.118590 0.139860 2.229130 
# 
# From -- ./inp_files/30394.got.cif
#   From: 2010.05.17/outbox.cif.g08.bks.cpg/sg2_16_cif.got.tgz:30394.got - 2010.06.03 11:33:40.
