data_PCOD9095242
_publ_section_title
;
Structure prediction by ZEFSAII (Michael W. Deem and Ramdas Pophale) SiO2 
 PCOD9095242
Probable space group: P -1
;
_chemical_formula_sum "Si O2"
_cell_formula_units_Z 14
_cell_length_a 7.322341
_cell_length_b 14.572898
_cell_length_c 18.947925
_cell_angle_alpha 32.629959
_cell_angle_beta 64.426078
_cell_angle_gamma 88.721592
_cell_volume 700.780271
_symmetry_space_group_name_H-M "P -1"
_symmetry_group_IT_number 2
_symmetry_cell_setting 'triclinic'
loop_
_space_group_symop_operation_xyz
x,y,z
-x,-y,-z
loop_
_atom_site_type_symbol
_atom_site_label
_atom_site_fract_x
_atom_site_fract_y
_atom_site_fract_z
Si Si1 0.685107 0.783633 0.283656
Si Si2 0.521142 0.778879 0.558855
Si Si3 0.207573 0.734434 0.768567
Si Si4 0.230604 0.296218 0.222547
Si Si5 0.954653 0.802310 0.535493
Si Si6 0.768944 0.064778 0.949697
Si Si7 0.223293 0.606441 0.581783
O O1 0.500000 0.500000 0.500000
O O2 0.517416 0.783506 0.373439
O O3 0.017747 0.924000 0.142326
O O4 0.670509 0.884338 0.147992
O O5 0.392436 0.724531 0.693675
O O6 0.782417 0.804784 0.504017
O O7 0.302553 0.595459 0.654810
O O8 0.621349 0.031470 0.363628
O O9 0.030900 0.751463 0.734522
O O10 0.000000 0.500000 0.000000
O O11 0.252382 0.360959 0.258385
O O12 0.500000 0.500000 0.000000
O O13 0.168011 0.060986 0.370307
O O14 0.094840 0.718410 0.535886
O O15 0.985721 0.338205 0.764835
O O16 0.500000 0.000000 0.000000
#
# Coordination Sequence:
#
# PCOD9095242 Si02
#       7
#     2   2   2   2   2   2   2
#     4   9  22  43  67  95 127 164 201 259 325 388
#     4  10  22  38  55  86 121 160 208 254 309 355
#     4  10  20  35  58  81 116 168 210 255 306 356
#     4  10  20  35  56  81 118 163 214 255 302 354
#     4  10  22  37  55  86 121 160 206 259 300 359
#     4  10  23  44  70  98 126 163 208 259 324 393
#     4  11  23  39  64  94 129 165 207 265 314 381
#
# _framework density 19.977730999999999
#
# number of rings (size 3 to 8) (size 9 to 14) (size 15 to 20)
#    0.000    2.000    1.429    0.857    4.000    9.143 
#    0.000    1.429    0.000    0.000    0.000    0.000 
#    0.000    0.000    0.000    0.000    0.000    0.000 
#
# Total GULP energy -78051.142549 kJ/mol
# GULP energy per Si atom -5575.081611 kJ/mol
# Density = 1.993226 g / cm^3
# Si number density = 19.977731 Si / 1000 Ang^3
#
#
#
# Elastic Constant Matrix: (Units=GPa)
#
#
# Indices 1 2 3 4 5 6 
#
# 1 141.3903 50.3735 26.0771 2.9683 -9.5271 -17.2781
# 2 50.3735 96.4715 34.7633 7.2905 -10.3074 -22.6152
# 3 26.0771 34.7633 112.6290 17.3918 1.3358 -9.9137
# 4 2.9683 7.2905 17.3918 20.1837 -2.1776 -11.1482
# 5 -9.5271 -10.3074 1.3358 -2.1776 29.7623 -2.3369
# 6 -17.2781 -22.6152 -9.9137 -11.1482 -2.3369 38.2551
#
#
#
# Elastic Compliance Matrix: (Units=1/GPa)
#
#
# Indices 1 2 3 4 5 6 
#
# 1 0.008977 -0.003674 -0.001150 0.002576 0.002035 0.002460
# 2 -0.003674 0.015893 -0.003902 0.003141 0.005359 0.007968
# 3 -0.001150 -0.003902 0.011754 -0.010596 -0.003263 -0.003067
# 4 0.002576 0.003141 -0.010596 0.069855 0.009163 0.021191
# 5 0.002035 0.005359 -0.003263 0.009163 0.037568 0.008206
# 6 0.002460 0.007968 -0.003067 0.021191 0.008206 0.037843
#
#
# Mechanical properties :
#
#
# Convention : Reuss Voigt Hill
#
# Bulk Modulus (GPa) = 52.15689 63.65762 57.90725
# Shear Modulus (GPa) = 24.30325 33.59201 28.94763
#
# Velocity S-wave (km/s) = 3.49164 4.10502 3.81070
# Velocity P-wave (km/s) = 6.51304 7.37576 6.95778
#
# Compressibility (1/GPa) = 0.01917292
#
# Stress axis : x y z
#
# Youngs Moduli (GPa) = 111.39359 62.91994 85.07540
#
# Poissons Ratio (x) = 0.23116 0.09783
# Poissons Ratio (y) = 0.40924 0.33198
# Poissons Ratio (z) = 0.12809 0.24552
#
# Static dielectric constant tensor:
#      x y z
#    x 2.035200 -0.016210 -0.005640 
#    y -0.016210 1.728720 0.008000 
#    z -0.005640 0.008000 1.729390 
# 
# From -- ./inp_files/559653.got.cif
#   From: 2010.05.17/outbox.cif.g08.bks.cpg/sg2_280_cif.got.tgz:559653.got - 2010.06.03 11:33:40.
