data_PCOD9095619
_publ_section_title
;
Structure prediction by ZEFSAII (Michael W. Deem and Ramdas Pophale) SiO2 
 PCOD9095619
Probable space group: P -1
;
_chemical_formula_sum "Si O2"
_cell_formula_units_Z 12
_cell_length_a 14.582446
_cell_length_b 7.539302
_cell_length_c 7.691115
_cell_angle_alpha 107.750250
_cell_angle_beta 110.186668
_cell_angle_gamma 35.761523
_cell_volume 463.332348
_symmetry_space_group_name_H-M "P -1"
_symmetry_group_IT_number 2
_symmetry_cell_setting 'triclinic'
loop_
_space_group_symop_operation_xyz
x,y,z
-x,-y,-z
loop_
_atom_site_type_symbol
_atom_site_label
_atom_site_fract_x
_atom_site_fract_y
_atom_site_fract_z
Si Si1 0.150978 0.671658 0.576065
Si Si2 0.222756 0.162706 0.570697
Si Si3 0.286800 0.723060 0.089924
Si Si4 0.002309 0.715610 0.779586
Si Si5 0.549861 0.829670 0.798303
Si Si6 0.470499 0.328975 0.740629
O O1 0.180894 0.405573 0.493288
O O2 0.313503 0.527647 0.584052
O O3 0.110153 0.718741 0.772099
O O4 0.000000 0.000000 0.500000
O O5 0.131268 0.132738 0.410839
O O6 0.126033 0.358224 0.745067
O O7 0.406864 0.909677 0.662931
O O8 0.299595 0.524113 0.164267
O O9 0.399012 0.719158 0.240607
O O10 0.108045 0.071717 0.068240
O O11 0.382051 0.532108 0.919402
O O12 0.552724 0.005929 0.731393
O O13 0.500000 0.000000 0.000000
#
# Coordination Sequence:
#
# PCOD9095619 Si02
#       6
#     2   2   2   2   2   2
#     4   9  18  35  55  76 110 142 175 217 271 316
#     4   8  18  36  53  74 109 142 172 215 276 308
#     4  10  20  35  59  80 107 139 186 219 265 318
#     4   9  19  35  55  80 105 143 178 219 266 317
#     4   9  18  36  55  75 109 144 173 219 271 314
#     4   9  20  37  55  79 109 144 175 225 269 312
#
# _framework density 25.899336000000002
#
# number of rings (size 3 to 8) (size 9 to 14) (size 15 to 20)
#    1.000    2.000    0.000    0.000    2.333    1.333 
#    3.000    1.667    0.000    4.000    0.000    0.000 
#    0.000    0.000    0.000    0.000    0.000    0.000 
#
# Total GULP energy -66864.301326 kJ/mol
# GULP energy per Si atom -5572.025110 kJ/mol
# Density = 2.584039 g / cm^3
# Si number density = 25.899336 Si / 1000 Ang^3
#
#
#
# Elastic Constant Matrix: (Units=GPa)
#
#
# Indices 1 2 3 4 5 6 
#
# 1 76.6784 22.5389 1.0428 11.4367 4.9140 -20.7800
# 2 22.5389 86.0267 -3.7474 2.9483 -19.6601 -8.6758
# 3 1.0428 -3.7474 55.8622 13.8891 6.0887 1.4789
# 4 11.4367 2.9483 13.8891 39.5904 -5.4130 -11.1196
# 5 4.9140 -19.6601 6.0887 -5.4130 30.4242 4.9778
# 6 -20.7800 -8.6758 1.4789 -11.1196 4.9778 41.1048
#
#
#
# Elastic Compliance Matrix: (Units=1/GPa)
#
#
# Indices 1 2 3 4 5 6 
#
# 1 0.018032 -0.005777 0.001076 -0.004179 -0.008881 0.007803
# 2 -0.005777 0.015652 -0.000649 0.002208 0.011637 -0.000405
# 3 0.001076 -0.000649 0.020769 -0.008941 -0.006008 -0.002031
# 4 -0.004179 0.002208 -0.008941 0.032413 0.008611 0.006401
# 5 -0.008881 0.011637 -0.006008 0.008611 0.045372 -0.004983
# 6 0.007803 -0.000405 -0.002031 0.006401 -0.004983 0.030595
#
#
# Mechanical properties :
#
#
# Convention : Reuss Voigt Hill
#
# Bulk Modulus (GPa) = 22.85462 28.69288 25.77375
# Shear Modulus (GPa) = 26.57914 35.47276 31.02595
#
# Velocity S-wave (km/s) = 3.20699 3.70488 3.46489
# Velocity P-wave (km/s) = 4.74938 5.42256 5.09709
#
# Compressibility (1/GPa) = 0.04375483
#
# Stress axis : x y z
#
# Youngs Moduli (GPa) = 55.45701 63.88777 48.14837
#
# Poissons Ratio (x) = 0.36908 -0.05182
# Poissons Ratio (y) = 0.32037 0.03123
# Poissons Ratio (z) = -0.05969 0.04144
#
# Static dielectric constant tensor:
#      x y z
#    x 1.996840 -0.008420 0.008540 
#    y -0.008420 1.995150 0.069250 
#    z 0.008540 0.069250 2.227780 
# 
# From -- ./inp_files/165496.got.cif
#   From: 2010.05.17/outbox.cif.g08.bks.cpg/sg2_83_cif.got.tgz:165496.got - 2010.06.03 11:33:40.
