data_PCOD9095508
_publ_section_title
;
Structure prediction by ZEFSAII (Michael W. Deem and Ramdas Pophale) SiO2 
 PCOD9095508
Probable space group: P -1
;
_chemical_formula_sum "Si O2"
_cell_formula_units_Z 16
_cell_length_a 15.014877
_cell_length_b 8.710812
_cell_length_c 9.976003
_cell_angle_alpha 107.980626
_cell_angle_beta 62.395082
_cell_angle_gamma 141.451623
_cell_volume 717.130352
_symmetry_space_group_name_H-M "P -1"
_symmetry_group_IT_number 2
_symmetry_cell_setting 'triclinic'
loop_
_space_group_symop_operation_xyz
x,y,z
-x,-y,-z
loop_
_atom_site_type_symbol
_atom_site_label
_atom_site_fract_x
_atom_site_fract_y
_atom_site_fract_z
Si Si1 0.454804 0.275035 0.308757
Si Si2 0.760244 0.269892 0.095374
Si Si3 0.717326 0.653289 0.427257
Si Si4 0.276336 0.461651 0.970527
Si Si5 0.862456 0.592695 0.518156
Si Si6 0.597922 0.159597 0.775536
Si Si7 0.000679 0.501071 0.775840
Si Si8 0.000974 0.867703 0.766855
O O1 0.557767 0.395630 0.405821
O O2 0.327242 0.252955 0.418570
O O3 0.395961 0.024393 0.251333
O O4 0.579753 0.468914 0.159120
O O5 0.855960 0.350468 0.183418
O O6 0.580718 0.013358 0.167326
O O7 0.766971 0.467039 0.100200
O O8 0.849770 0.291831 0.916668
O O9 0.807840 0.631909 0.442516
O O10 0.828899 0.855084 0.286998
O O11 0.340194 0.660510 0.095080
O O12 0.125770 0.198696 0.069846
O O13 0.709234 0.329591 0.619546
O O14 0.978184 0.597108 0.386046
O O15 0.939374 0.788317 0.636086
O O16 0.002939 0.685782 0.768568
#
# Coordination Sequence:
#
# PCOD9095508 Si02
#       8
#     2   2   2   2   2   2   2   2
#     4  10  21  38  59  84 114 150 186 230 284 338
#     4   9  18  32  55  88 112 135 181 238 285 326
#     4  11  24  38  55  83 120 156 186 222 280 346
#     4   9  19  38  62  87 111 143 191 238 282 327
#     4  11  22  37  57  84 113 149 194 234 276 330
#     4  10  20  37  63  87 111 144 189 241 282 324
#     4  10  20  35  58  84 112 147 191 237 279 327
#     4  10  22  39  56  81 114 150 190 231 281 335
#
# _framework density 22.311146000000001
#
# number of rings (size 3 to 8) (size 9 to 14) (size 15 to 20)
#    0.000    2.000    0.000    4.500    0.000    7.500 
#    0.000    3.750    0.000    1.500    0.000    0.000 
#    0.000    0.000    0.000    0.000    0.000    0.000 
#
# Total GULP energy -89457.405401 kJ/mol
# GULP energy per Si atom -5591.087838 kJ/mol
# Density = 2.226036 g / cm^3
# Si number density = 22.311146 Si / 1000 Ang^3
#
#
#
# Elastic Constant Matrix: (Units=GPa)
#
#
# Indices 1 2 3 4 5 6 
#
# 1 51.6974 1.7901 13.6329 -3.9079 -12.5376 7.1377
# 2 1.7901 69.3234 23.1336 -8.4564 -17.6699 13.1976
# 3 13.6329 23.1336 107.0644 -16.5111 -26.6388 -4.9209
# 4 -3.9079 -8.4564 -16.5111 27.5510 13.5759 2.2396
# 5 -12.5376 -17.6699 -26.6388 13.5759 41.4656 -1.4517
# 6 7.1377 13.1976 -4.9209 2.2396 -1.4517 20.8457
#
#
#
# Elastic Compliance Matrix: (Units=1/GPa)
#
#
# Indices 1 2 3 4 5 6 
#
# 1 0.022955 0.004004 -0.002584 0.000645 0.006404 -0.010628
# 2 0.004004 0.020270 -0.003630 0.002841 0.006063 -0.014944
# 3 -0.002584 -0.003630 0.012417 0.003069 0.004859 0.006123
# 4 0.000645 0.002841 0.003069 0.045458 -0.011751 -0.006998
# 5 0.006404 0.006063 0.004859 -0.011751 0.035565 -0.001145
# 6 -0.010628 -0.014944 0.006123 -0.006998 -0.001145 0.063189
#
#
# Mechanical properties :
#
#
# Convention : Reuss Voigt Hill
#
# Bulk Modulus (GPa) = 19.52254 33.91094 26.71674
# Shear Modulus (GPa) = 22.58883 30.60767 26.59825
#
# Velocity S-wave (km/s) = 3.18535 3.70788 3.45650
# Velocity P-wave (km/s) = 4.72204 5.79338 5.28493
#
# Compressibility (1/GPa) = 0.05122285
#
# Stress axis : x y z
#
# Youngs Moduli (GPa) = 43.56306 49.33385 80.53444
#
# Poissons Ratio (x) = -0.19752 0.20808
# Poissons Ratio (y) = -0.17442 0.29232
# Poissons Ratio (z) = 0.11256 0.17907
#
# Static dielectric constant tensor:
#      x y z
#    x 1.790820 0.026830 -0.016100 
#    y 0.026830 1.834880 0.019220 
#    z -0.016100 0.019220 1.873560 
# 
# From -- ./inp_files/298794.got.cif
#   From: 2010.05.17/outbox.cif.g08.bks.cpg/sg2_150_cif.got.tgz:298794.got - 2010.06.03 11:33:40.
